MODEL 1
REMARK VINA RESULT:     -11.2      0.000      0.000
REMARK SMILES O=C(CCCN1C(=O)/C(=C/c2cc(Br)ccc2O)SC1=S)OCCOCCOC(=O)c1ccc(-c2c3nc(c(-c4c(F)cccc4F)c4ccc([nH]4)c(-c4c(F)cccc4F)c4nc(c(-c5c(F)cccc5F)c5ccc2[nH]5)C=C4)C=C3)cc1
REMARK SMILES IDX 23 1 22 2 2 3 1 4 3 5 4 6 5 7 6 8 7 9 20 10 8 11 9 12 19 13
REMARK SMILES IDX 21 14 10 15 11 16 12 17 17 18 13 19 16 20 14 21 15 22 18 23
REMARK SMILES IDX 24 25 25 26 26 27 27 28 28 29 29 30 30 31 31 32 32 33 84 34
REMARK SMILES IDX 33 35 83 36 34 37 35 38 36 39 77 40 37 41 82 42 76 43 78 44
REMARK SMILES IDX 38 45 81 46 75 47 74 48 39 50 65 51 48 52 64 53 49 54 52 55
REMARK SMILES IDX 63 56 79 57 50 58 51 59 62 61 80 62 53 63 40 64 41 65 46 66
REMARK SMILES IDX 42 67 43 68 45 69 47 70 44 71 66 72 67 73 72 74 68 75 69 76
REMARK SMILES IDX 71 77 73 78 70 79 54 80 55 81 60 82 56 83 57 84 59 85 61 86
REMARK SMILES IDX 58 87
REMARK H PARENT 18 24 78 49 52 60
REMARK Flexibility Score: inf
ROOT
ATOM      1  C   UNL A   1      40.722  19.952  26.128  1.00  0.00     0.261 C 
ENDROOT
BRANCH   1   2
ATOM      2  O   UNL A   1      40.099  21.049  26.801  1.00  0.00    -0.463 OA
BRANCH   2   3
ATOM      3  C   UNL A   1      39.162  21.821  26.202  1.00  0.00     0.305 C 
ATOM      4  O   UNL A   1      39.139  23.030  26.419  1.00  0.00    -0.252 OA
BRANCH   3   5
ATOM      5  C   UNL A   1      38.104  21.166  25.336  1.00  0.00     0.124 C 
BRANCH   5   6
ATOM      6  C   UNL A   1      37.107  22.109  24.666  1.00  0.00     0.034 C 
BRANCH   6   7
ATOM      7  C   UNL A   1      35.601  21.868  24.907  1.00  0.00     0.128 C 
BRANCH   7   8
ATOM      8  N   UNL A   1      34.686  23.024  24.899  1.00  0.00    -0.293 N 
ATOM      9  C   UNL A   1      34.604  23.848  23.786  1.00  0.00     0.266 C 
ATOM     10  C   UNL A   1      33.731  23.257  25.877  1.00  0.00     0.148 C 
ATOM     11  O   UNL A   1      35.233  23.713  22.745  1.00  0.00    -0.268 OA
ATOM     12  C   UNL A   1      33.601  24.928  24.001  1.00  0.00     0.081 C 
ATOM     13  S   UNL A   1      32.799  24.699  25.496  1.00  0.00    -0.054 SA
ATOM     14  S   UNL A   1      33.417  22.372  27.259  1.00  0.00    -0.052 S 
ATOM     15  C   UNL A   1      33.420  25.918  23.119  1.00  0.00     0.033 C 
BRANCH  15  16
ATOM     16  C   UNL A   1      32.524  27.070  23.294  1.00  0.00     0.019 A 
ATOM     17  C   UNL A   1      32.645  27.903  24.412  1.00  0.00     0.027 A 
ATOM     18  C   UNL A   1      31.524  27.342  22.351  1.00  0.00     0.122 A 
ATOM     19  C   UNL A   1      31.757  28.969  24.582  1.00  0.00     0.018 A 
ATOM     20  C   UNL A   1      30.640  28.405  22.518  1.00  0.00     0.048 A 
ATOM     21  Br  UNL A   1      31.901  30.075  26.111  1.00  0.00    -0.051 Br
ATOM     22  C   UNL A   1      30.753  29.220  23.646  1.00  0.00     0.019 A 
BRANCH  18  23
ATOM     23  O   UNL A   1      31.386  26.525  21.263  1.00  0.00    -0.507 OA
ATOM     24  H   UNL A   1      31.688  25.639  21.301  1.00  0.00     0.293 HD
ENDBRANCH  18  23
ENDBRANCH  15  16
ENDBRANCH   7   8
ENDBRANCH   6   7
ENDBRANCH   5   6
ENDBRANCH   3   5
ENDBRANCH   2   3
ENDBRANCH   1   2
BRANCH   1  25
ATOM     25  C   UNL A   1      42.239  19.995  26.201  1.00  0.00     0.202 C 
BRANCH  25  26
ATOM     26  O   UNL A   1      42.790  21.231  25.745  1.00  0.00    -0.374 OA
BRANCH  26  27
ATOM     27  C   UNL A   1      44.085  21.085  25.147  1.00  0.00     0.202 C 
BRANCH  27  28
ATOM     28  C   UNL A   1      44.457  22.282  24.261  1.00  0.00     0.261 C 
BRANCH  28  29
ATOM     29  O   UNL A   1      43.700  23.447  24.637  1.00  0.00    -0.460 OA
BRANCH  29  30
ATOM     30  C   UNL A   1      44.449  24.507  25.049  1.00  0.00     0.338 C 
ATOM     31  O   UNL A   1      45.532  24.849  24.624  1.00  0.00    -0.246 OA
BRANCH  30  32
ATOM     32  C   UNL A   1      43.654  25.321  26.006  1.00  0.00     0.060 A 
ATOM     33  C   UNL A   1      43.977  26.680  26.125  1.00  0.00     0.016 A 
ATOM     34  C   UNL A   1      42.599  24.788  26.755  1.00  0.00     0.016 A 
ATOM     35  C   UNL A   1      43.282  27.495  27.020  1.00  0.00     0.010 A 
ATOM     36  C   UNL A   1      41.909  25.601  27.661  1.00  0.00     0.010 A 
ATOM     37  C   UNL A   1      42.273  26.949  27.825  1.00  0.00    -0.014 A 
BRANCH  37  38
ATOM     38  C   UNL A   1      41.744  27.734  28.967  1.00  0.00     0.031 A 
ATOM     39  C   UNL A   1      42.429  27.602  30.302  1.00  0.00     0.074 A 
ATOM     40  C   UNL A   1      40.702  28.572  28.825  1.00  0.00     0.049 A 
ATOM     41  N   UNL A   1      42.151  28.181  31.442  1.00  0.00    -0.248 NA
ATOM     42  C   UNL A   1      43.588  26.694  30.354  1.00  0.00     0.031 C 
ATOM     43  C   UNL A   1      39.973  28.819  27.583  1.00  0.00     0.029 A 
ATOM     44  N   UNL A   1      40.074  29.371  29.748  1.00  0.00    -0.354 N 
ATOM     45  C   UNL A   1      43.106  27.721  32.339  1.00  0.00     0.074 A 
ATOM     46  C   UNL A   1      43.944  26.783  31.627  1.00  0.00     0.031 C 
ATOM     47  C   UNL A   1      38.984  29.699  27.825  1.00  0.00     0.029 A 
ATOM     48  C   UNL A   1      39.000  30.061  29.241  1.00  0.00     0.049 A 
ATOM     49  H   UNL A   1      40.366  29.443  30.686  1.00  0.00     0.167 HD
ATOM     50  C   UNL A   1      43.281  28.061  33.638  1.00  0.00     0.037 A 
ATOM     51  C   UNL A   1      38.122  30.878  29.858  1.00  0.00     0.037 A 
ATOM     52  C   UNL A   1      42.439  28.978  34.358  1.00  0.00     0.049 A 
ATOM     53  C   UNL A   1      38.287  31.172  31.328  1.00  0.00     0.074 A 
ATOM     54  C   UNL A   1      42.533  29.380  35.679  1.00  0.00     0.029 A 
ATOM     55  N   UNL A   1      41.341  29.630  33.818  1.00  0.00    -0.354 N 
ATOM     56  N   UNL A   1      39.213  30.756  32.160  1.00  0.00    -0.248 NA
ATOM     57  C   UNL A   1      37.285  32.055  31.944  1.00  0.00     0.031 C 
ATOM     58  C   UNL A   1      41.464  30.239  35.951  1.00  0.00     0.029 A 
ATOM     59  C   UNL A   1      40.735  30.414  34.786  1.00  0.00     0.049 A 
ATOM     60  H   UNL A   1      41.038  29.548  32.885  1.00  0.00     0.167 HD
ATOM     61  C   UNL A   1      38.924  31.353  33.382  1.00  0.00     0.074 A 
ATOM     62  C   UNL A   1      37.749  32.173  33.180  1.00  0.00     0.031 C 
ATOM     63  C   UNL A   1      39.570  31.231  34.568  1.00  0.00     0.037 A 
BRANCH  50  64
ATOM     64  C   UNL A   1      44.425  27.424  34.370  1.00  0.00     0.057 A 
ATOM     65  C   UNL A   1      45.676  28.047  34.463  1.00  0.00     0.134 A 
ATOM     66  C   UNL A   1      44.263  26.196  35.023  1.00  0.00     0.134 A 
ATOM     67  F   UNL A   1      45.902  29.215  33.845  1.00  0.00    -0.206 F 
ATOM     68  C   UNL A   1      46.730  27.464  35.169  1.00  0.00     0.040 A 
ATOM     69  C   UNL A   1      45.301  25.616  35.752  1.00  0.00     0.040 A 
ATOM     70  F   UNL A   1      43.089  25.548  34.972  1.00  0.00    -0.206 F 
ATOM     71  C   UNL A   1      46.540  26.248  35.825  1.00  0.00     0.006 A 
ENDBRANCH  50  64
BRANCH  51  72
ATOM     72  C   UNL A   1      36.986  31.472  29.104  1.00  0.00     0.057 A 
ATOM     73  C   UNL A   1      37.013  32.804  28.673  1.00  0.00     0.134 A 
ATOM     74  C   UNL A   1      35.819  30.740  28.856  1.00  0.00     0.134 A 
ATOM     75  F   UNL A   1      38.090  33.568  28.906  1.00  0.00    -0.206 F 
ATOM     76  C   UNL A   1      35.910  33.396  28.054  1.00  0.00     0.040 A 
ATOM     77  C   UNL A   1      34.719  31.311  28.212  1.00  0.00     0.040 A 
ATOM     78  F   UNL A   1      35.726  29.459  29.244  1.00  0.00    -0.206 F 
ATOM     79  C   UNL A   1      34.759  32.646  27.820  1.00  0.00     0.006 A 
ENDBRANCH  51  72
BRANCH  63  80
ATOM     80  C   UNL A   1      39.042  32.029  35.726  1.00  0.00     0.057 A 
ATOM     81  C   UNL A   1      39.384  33.375  35.917  1.00  0.00     0.134 A 
ATOM     82  C   UNL A   1      38.158  31.451  36.647  1.00  0.00     0.134 A 
ATOM     83  F   UNL A   1      40.233  33.986  35.077  1.00  0.00    -0.206 F 
ATOM     84  C   UNL A   1      38.894  34.105  37.002  1.00  0.00     0.040 A 
ATOM     85  C   UNL A   1      37.639  32.180  37.718  1.00  0.00     0.040 A 
ATOM     86  F   UNL A   1      37.778  30.171  36.517  1.00  0.00    -0.206 F 
ATOM     87  C   UNL A   1      38.015  33.509  37.903  1.00  0.00     0.006 A 
ENDBRANCH  63  80
ENDBRANCH  37  38
ENDBRANCH  30  32
ENDBRANCH  29  30
ENDBRANCH  28  29
ENDBRANCH  27  28
ENDBRANCH  26  27
ENDBRANCH  25  26
ENDBRANCH   1  25
TORSDOF 19
ENDMDL
MODEL 2
REMARK VINA RESULT:     -11.2      4.752     10.039
REMARK SMILES O=C(CCCN1C(=O)/C(=C/c2cc(Br)ccc2O)SC1=S)OCCOCCOC(=O)c1ccc(-c2c3nc(c(-c4c(F)cccc4F)c4ccc([nH]4)c(-c4c(F)cccc4F)c4nc(c(-c5c(F)cccc5F)c5ccc2[nH]5)C=C4)C=C3)cc1
REMARK SMILES IDX 23 1 22 2 2 3 1 4 3 5 4 6 5 7 6 8 7 9 20 10 8 11 9 12 19 13
REMARK SMILES IDX 21 14 10 15 11 16 12 17 17 18 13 19 16 20 14 21 15 22 18 23
REMARK SMILES IDX 24 25 25 26 26 27 27 28 28 29 29 30 30 31 31 32 32 33 84 34
REMARK SMILES IDX 33 35 83 36 34 37 35 38 36 39 77 40 37 41 82 42 76 43 78 44
REMARK SMILES IDX 38 45 81 46 75 47 74 48 39 50 65 51 48 52 64 53 49 54 52 55
REMARK SMILES IDX 63 56 79 57 50 58 51 59 62 61 80 62 53 63 40 64 41 65 46 66
REMARK SMILES IDX 42 67 43 68 45 69 47 70 44 71 66 72 67 73 72 74 68 75 69 76
REMARK SMILES IDX 71 77 73 78 70 79 54 80 55 81 60 82 56 83 57 84 59 85 61 86
REMARK SMILES IDX 58 87
REMARK H PARENT 18 24 78 49 52 60
REMARK Flexibility Score: inf
ROOT
ATOM      1  C   UNL A   1      35.073  32.609  27.992  1.00  0.00     0.261 C 
ENDROOT
BRANCH   1   2
ATOM      2  O   UNL A   1      34.234  31.459  27.866  1.00  0.00    -0.463 OA
BRANCH   2   3
ATOM      3  C   UNL A   1      34.725  30.246  27.518  1.00  0.00     0.305 C 
ATOM      4  O   UNL A   1      35.921  30.124  27.264  1.00  0.00    -0.252 OA
BRANCH   3   5
ATOM      5  C   UNL A   1      33.774  29.076  27.367  1.00  0.00     0.124 C 
BRANCH   5   6
ATOM      6  C   UNL A   1      32.366  29.413  26.879  1.00  0.00     0.034 C 
BRANCH   6   7
ATOM      7  C   UNL A   1      31.846  28.706  25.609  1.00  0.00     0.128 C 
BRANCH   7   8
ATOM      8  N   UNL A   1      32.358  27.362  25.284  1.00  0.00    -0.293 N 
ATOM      9  C   UNL A   1      31.970  26.261  26.034  1.00  0.00     0.266 C 
ATOM     10  C   UNL A   1      33.077  27.070  24.135  1.00  0.00     0.148 C 
ATOM     11  O   UNL A   1      31.199  26.275  26.983  1.00  0.00    -0.268 OA
ATOM     12  C   UNL A   1      32.594  25.016  25.504  1.00  0.00     0.081 C 
ATOM     13  S   UNL A   1      33.467  25.356  24.071  1.00  0.00    -0.054 SA
ATOM     14  S   UNL A   1      33.562  28.106  22.916  1.00  0.00    -0.052 S 
ATOM     15  C   UNL A   1      32.466  23.836  26.124  1.00  0.00     0.033 C 
BRANCH  15  16
ATOM     16  C   UNL A   1      33.122  22.584  25.726  1.00  0.00     0.019 A 
ATOM     17  C   UNL A   1      34.495  22.552  25.455  1.00  0.00     0.027 A 
ATOM     18  C   UNL A   1      32.379  21.402  25.597  1.00  0.00     0.122 A 
ATOM     19  C   UNL A   1      35.093  21.360  25.037  1.00  0.00     0.018 A 
ATOM     20  C   UNL A   1      32.973  20.213  25.184  1.00  0.00     0.048 A 
ATOM     21  Br  UNL A   1      36.942  21.327  24.640  1.00  0.00    -0.051 Br
ATOM     22  C   UNL A   1      34.339  20.193  24.895  1.00  0.00     0.019 A 
BRANCH  18  23
ATOM     23  O   UNL A   1      31.034  21.424  25.844  1.00  0.00    -0.507 OA
ATOM     24  H   UNL A   1      30.720  21.554  26.717  1.00  0.00     0.293 HD
ENDBRANCH  18  23
ENDBRANCH  15  16
ENDBRANCH   7   8
ENDBRANCH   6   7
ENDBRANCH   5   6
ENDBRANCH   3   5
ENDBRANCH   2   3
ENDBRANCH   1   2
BRANCH   1  25
ATOM     25  C   UNL A   1      34.406  33.752  28.740  1.00  0.00     0.202 C 
BRANCH  25  26
ATOM     26  O   UNL A   1      34.020  33.404  30.071  1.00  0.00    -0.374 OA
BRANCH  26  27
ATOM     27  C   UNL A   1      34.241  34.459  31.017  1.00  0.00     0.202 C 
BRANCH  27  28
ATOM     28  C   UNL A   1      34.446  33.932  32.443  1.00  0.00     0.261 C 
BRANCH  28  29
ATOM     29  O   UNL A   1      34.942  32.581  32.418  1.00  0.00    -0.460 OA
BRANCH  29  30
ATOM     30  C   UNL A   1      36.073  32.373  33.147  1.00  0.00     0.338 C 
ATOM     31  O   UNL A   1      36.240  32.608  34.326  1.00  0.00    -0.246 OA
BRANCH  30  32
ATOM     32  C   UNL A   1      37.059  31.633  32.315  1.00  0.00     0.060 A 
ATOM     33  C   UNL A   1      38.055  30.907  32.984  1.00  0.00     0.016 A 
ATOM     34  C   UNL A   1      37.006  31.619  30.918  1.00  0.00     0.016 A 
ATOM     35  C   UNL A   1      39.022  30.207  32.261  1.00  0.00     0.010 A 
ATOM     36  C   UNL A   1      37.982  30.927  30.192  1.00  0.00     0.010 A 
ATOM     37  C   UNL A   1      39.016  30.249  30.861  1.00  0.00    -0.014 A 
BRANCH  37  38
ATOM     38  C   UNL A   1      40.197  29.756  30.110  1.00  0.00     0.031 A 
ATOM     39  C   UNL A   1      41.334  30.712  29.861  1.00  0.00     0.074 A 
ATOM     40  C   UNL A   1      40.282  28.483  29.685  1.00  0.00     0.049 A 
ATOM     41  N   UNL A   1      42.464  30.516  29.230  1.00  0.00    -0.248 NA
ATOM     42  C   UNL A   1      41.172  32.073  30.399  1.00  0.00     0.031 C 
ATOM     43  C   UNL A   1      39.270  27.449  29.890  1.00  0.00     0.029 A 
ATOM     44  N   UNL A   1      41.275  27.847  28.982  1.00  0.00    -0.354 N 
ATOM     45  C   UNL A   1      43.152  31.720  29.310  1.00  0.00     0.074 A 
ATOM     46  C   UNL A   1      42.298  32.654  30.009  1.00  0.00     0.031 C 
ATOM     47  C   UNL A   1      39.688  26.309  29.311  1.00  0.00     0.029 A 
ATOM     48  C   UNL A   1      40.986  26.538  28.679  1.00  0.00     0.049 A 
ATOM     49  H   UNL A   1      42.116  28.287  28.720  1.00  0.00     0.167 HD
ATOM     50  C   UNL A   1      44.391  32.019  28.855  1.00  0.00     0.037 A 
ATOM     51  C   UNL A   1      41.685  25.638  27.960  1.00  0.00     0.037 A 
ATOM     52  C   UNL A   1      45.237  31.101  28.142  1.00  0.00     0.049 A 
ATOM     53  C   UNL A   1      43.027  26.024  27.387  1.00  0.00     0.074 A 
ATOM     54  C   UNL A   1      46.508  31.315  27.636  1.00  0.00     0.029 A 
ATOM     55  N   UNL A   1      44.894  29.796  27.826  1.00  0.00    -0.354 N 
ATOM     56  N   UNL A   1      43.682  27.156  27.497  1.00  0.00    -0.248 NA
ATOM     57  C   UNL A   1      43.729  25.003  26.596  1.00  0.00     0.031 C 
ATOM     58  C   UNL A   1      46.915  30.153  26.971  1.00  0.00     0.029 A 
ATOM     59  C   UNL A   1      45.920  29.199  27.110  1.00  0.00     0.049 A 
ATOM     60  H   UNL A   1      44.049  29.358  28.073  1.00  0.00     0.167 HD
ATOM     61  C   UNL A   1      44.882  26.970  26.819  1.00  0.00     0.074 A 
ATOM     62  C   UNL A   1      44.873  25.612  26.319  1.00  0.00     0.031 C 
ATOM     63  C   UNL A   1      45.900  27.844  26.625  1.00  0.00     0.037 A 
BRANCH  50  64
ATOM     64  C   UNL A   1      44.903  33.406  29.108  1.00  0.00     0.057 A 
ATOM     65  C   UNL A   1      44.643  34.459  28.221  1.00  0.00     0.134 A 
ATOM     66  C   UNL A   1      45.627  33.702  30.270  1.00  0.00     0.134 A 
ATOM     67  F   UNL A   1      43.971  34.239  27.082  1.00  0.00    -0.206 F 
ATOM     68  C   UNL A   1      45.097  35.755  28.475  1.00  0.00     0.040 A 
ATOM     69  C   UNL A   1      46.064  34.998  30.546  1.00  0.00     0.040 A 
ATOM     70  F   UNL A   1      45.910  32.738  31.159  1.00  0.00    -0.206 F 
ATOM     71  C   UNL A   1      45.802  36.028  29.646  1.00  0.00     0.006 A 
ENDBRANCH  50  64
BRANCH  51  72
ATOM     72  C   UNL A   1      41.134  24.280  27.710  1.00  0.00     0.057 A 
ATOM     73  C   UNL A   1      41.635  23.155  28.377  1.00  0.00     0.134 A 
ATOM     74  C   UNL A   1      40.140  24.066  26.748  1.00  0.00     0.134 A 
ATOM     75  F   UNL A   1      42.610  23.289  29.288  1.00  0.00    -0.206 F 
ATOM     76  C   UNL A   1      41.192  21.866  28.074  1.00  0.00     0.040 A 
ATOM     77  C   UNL A   1      39.666  22.785  26.456  1.00  0.00     0.040 A 
ATOM     78  F   UNL A   1      39.618  25.100  26.070  1.00  0.00    -0.206 F 
ATOM     79  C   UNL A   1      40.201  21.679  27.111  1.00  0.00     0.006 A 
ENDBRANCH  51  72
BRANCH  63  80
ATOM     80  C   UNL A   1      47.100  27.347  25.871  1.00  0.00     0.057 A 
ATOM     81  C   UNL A   1      48.143  26.658  26.505  1.00  0.00     0.134 A 
ATOM     82  C   UNL A   1      47.203  27.539  24.486  1.00  0.00     0.134 A 
ATOM     83  F   UNL A   1      48.112  26.450  27.830  1.00  0.00    -0.206 F 
ATOM     84  C   UNL A   1      49.258  26.208  25.796  1.00  0.00     0.040 A 
ATOM     85  C   UNL A   1      48.299  27.067  23.762  1.00  0.00     0.040 A 
ATOM     86  F   UNL A   1      46.235  28.178  23.813  1.00  0.00    -0.206 F 
ATOM     87  C   UNL A   1      49.336  26.408  24.420  1.00  0.00     0.006 A 
ENDBRANCH  63  80
ENDBRANCH  37  38
ENDBRANCH  30  32
ENDBRANCH  29  30
ENDBRANCH  28  29
ENDBRANCH  27  28
ENDBRANCH  26  27
ENDBRANCH  25  26
ENDBRANCH   1  25
TORSDOF 19
ENDMDL
MODEL 3
REMARK VINA RESULT:     -11.1      5.286     10.547
REMARK SMILES O=C(CCCN1C(=O)/C(=C/c2cc(Br)ccc2O)SC1=S)OCCOCCOC(=O)c1ccc(-c2c3nc(c(-c4c(F)cccc4F)c4ccc([nH]4)c(-c4c(F)cccc4F)c4nc(c(-c5c(F)cccc5F)c5ccc2[nH]5)C=C4)C=C3)cc1
REMARK SMILES IDX 23 1 22 2 2 3 1 4 3 5 4 6 5 7 6 8 7 9 20 10 8 11 9 12 19 13
REMARK SMILES IDX 21 14 10 15 11 16 12 17 17 18 13 19 16 20 14 21 15 22 18 23
REMARK SMILES IDX 24 25 25 26 26 27 27 28 28 29 29 30 30 31 31 32 32 33 84 34
REMARK SMILES IDX 33 35 83 36 34 37 35 38 36 39 77 40 37 41 82 42 76 43 78 44
REMARK SMILES IDX 38 45 81 46 75 47 74 48 39 50 65 51 48 52 64 53 49 54 52 55
REMARK SMILES IDX 63 56 79 57 50 58 51 59 62 61 80 62 53 63 40 64 41 65 46 66
REMARK SMILES IDX 42 67 43 68 45 69 47 70 44 71 66 72 67 73 72 74 68 75 69 76
REMARK SMILES IDX 71 77 73 78 70 79 54 80 55 81 60 82 56 83 57 84 59 85 61 86
REMARK SMILES IDX 58 87
REMARK H PARENT 18 24 78 49 52 60
REMARK Flexibility Score: inf
ROOT
ATOM      1  C   UNL A   1      32.709  36.078  31.256  1.00  0.00     0.261 C 
ENDROOT
BRANCH   1   2
ATOM      2  O   UNL A   1      33.391  34.984  30.638  1.00  0.00    -0.463 OA
BRANCH   2   3
ATOM      3  C   UNL A   1      33.526  34.889  29.294  1.00  0.00     0.305 C 
ATOM      4  O   UNL A   1      32.537  35.006  28.573  1.00  0.00    -0.252 OA
BRANCH   3   5
ATOM      5  C   UNL A   1      34.882  34.559  28.706  1.00  0.00     0.124 C 
BRANCH   5   6
ATOM      6  C   UNL A   1      34.999  33.207  28.003  1.00  0.00     0.034 C 
BRANCH   6   7
ATOM      7  C   UNL A   1      34.128  32.041  28.518  1.00  0.00     0.128 C 
BRANCH   7   8
ATOM      8  N   UNL A   1      33.832  30.920  27.608  1.00  0.00    -0.293 N 
ATOM      9  C   UNL A   1      32.683  30.931  26.830  1.00  0.00     0.266 C 
ATOM     10  C   UNL A   1      34.731  29.906  27.317  1.00  0.00     0.148 C 
ATOM     11  O   UNL A   1      31.843  31.819  26.803  1.00  0.00    -0.268 OA
ATOM     12  C   UNL A   1      32.611  29.712  25.977  1.00  0.00     0.081 C 
ATOM     13  S   UNL A   1      34.039  28.783  26.153  1.00  0.00    -0.054 SA
ATOM     14  S   UNL A   1      36.273  29.675  27.920  1.00  0.00    -0.052 S 
ATOM     15  C   UNL A   1      31.543  29.433  25.221  1.00  0.00     0.033 C 
BRANCH  15  16
ATOM     16  C   UNL A   1      31.349  28.212  24.427  1.00  0.00     0.019 A 
ATOM     17  C   UNL A   1      31.213  26.967  25.053  1.00  0.00     0.027 A 
ATOM     18  C   UNL A   1      31.314  28.273  23.027  1.00  0.00     0.122 A 
ATOM     19  C   UNL A   1      31.072  25.813  24.279  1.00  0.00     0.018 A 
ATOM     20  C   UNL A   1      31.170  27.123  22.254  1.00  0.00     0.048 A 
ATOM     21  Br  UNL A   1      30.920  24.128  25.127  1.00  0.00    -0.051 Br
ATOM     22  C   UNL A   1      31.056  25.883  22.885  1.00  0.00     0.019 A 
BRANCH  18  23
ATOM     23  O   UNL A   1      31.462  29.481  22.403  1.00  0.00    -0.507 OA
ATOM     24  H   UNL A   1      31.168  30.265  22.824  1.00  0.00     0.293 HD
ENDBRANCH  18  23
ENDBRANCH  15  16
ENDBRANCH   7   8
ENDBRANCH   6   7
ENDBRANCH   5   6
ENDBRANCH   3   5
ENDBRANCH   2   3
ENDBRANCH   1   2
BRANCH   1  25
ATOM     25  C   UNL A   1      33.230  36.391  32.650  1.00  0.00     0.202 C 
BRANCH  25  26
ATOM     26  O   UNL A   1      34.607  36.056  32.824  1.00  0.00    -0.374 OA
BRANCH  26  27
ATOM     27  C   UNL A   1      34.859  35.310  34.022  1.00  0.00     0.202 C 
BRANCH  27  28
ATOM     28  C   UNL A   1      34.767  33.794  33.797  1.00  0.00     0.261 C 
BRANCH  28  29
ATOM     29  O   UNL A   1      35.989  33.291  33.228  1.00  0.00    -0.460 OA
BRANCH  29  30
ATOM     30  C   UNL A   1      35.824  32.325  32.282  1.00  0.00     0.338 C 
ATOM     31  O   UNL A   1      34.777  31.929  31.813  1.00  0.00    -0.246 OA
BRANCH  30  32
ATOM     32  C   UNL A   1      37.156  31.926  31.756  1.00  0.00     0.060 A 
ATOM     33  C   UNL A   1      37.485  32.328  30.453  1.00  0.00     0.016 A 
ATOM     34  C   UNL A   1      38.080  31.202  32.516  1.00  0.00     0.016 A 
ATOM     35  C   UNL A   1      38.711  31.969  29.893  1.00  0.00     0.010 A 
ATOM     36  C   UNL A   1      39.306  30.832  31.951  1.00  0.00     0.010 A 
ATOM     37  C   UNL A   1      39.611  31.182  30.624  1.00  0.00    -0.014 A 
BRANCH  37  38
ATOM     38  C   UNL A   1      40.770  30.563  29.933  1.00  0.00     0.031 A 
ATOM     39  C   UNL A   1      41.983  31.416  29.671  1.00  0.00     0.074 A 
ATOM     40  C   UNL A   1      40.767  29.267  29.575  1.00  0.00     0.049 A 
ATOM     41  N   UNL A   1      43.110  31.103  29.086  1.00  0.00    -0.248 NA
ATOM     42  C   UNL A   1      41.913  32.812  30.136  1.00  0.00     0.031 C 
ATOM     43  C   UNL A   1      39.673  28.325  29.801  1.00  0.00     0.029 A 
ATOM     44  N   UNL A   1      41.726  28.522  28.935  1.00  0.00    -0.354 N 
ATOM     45  C   UNL A   1      43.887  32.254  29.126  1.00  0.00     0.074 A 
ATOM     46  C   UNL A   1      43.089  33.285  29.752  1.00  0.00     0.031 C 
ATOM     47  C   UNL A   1      40.017  27.128  29.292  1.00  0.00     0.029 A 
ATOM     48  C   UNL A   1      41.345  27.225  28.688  1.00  0.00     0.049 A 
ATOM     49  H   UNL A   1      42.605  28.883  28.676  1.00  0.00     0.167 HD
ATOM     50  C   UNL A   1      45.157  32.434  28.694  1.00  0.00     0.037 A 
ATOM     51  C   UNL A   1      41.991  26.239  28.036  1.00  0.00     0.037 A 
ATOM     52  C   UNL A   1      45.948  31.419  28.053  1.00  0.00     0.049 A 
ATOM     53  C   UNL A   1      43.373  26.492  27.486  1.00  0.00     0.074 A 
ATOM     54  C   UNL A   1      47.244  31.510  27.575  1.00  0.00     0.029 A 
ATOM     55  N   UNL A   1      45.514  30.129  27.792  1.00  0.00    -0.354 N 
ATOM     56  N   UNL A   1      44.111  27.575  27.559  1.00  0.00    -0.248 NA
ATOM     57  C   UNL A   1      44.015  25.381  26.768  1.00  0.00     0.031 C 
ATOM     58  C   UNL A   1      47.577  30.288  26.982  1.00  0.00     0.029 A 
ATOM     59  C   UNL A   1      46.509  29.420  27.138  1.00  0.00     0.049 A 
ATOM     60  H   UNL A   1      44.631  29.770  28.035  1.00  0.00     0.167 HD
ATOM     61  C   UNL A   1      45.310  27.263  26.927  1.00  0.00     0.074 A 
ATOM     62  C   UNL A   1      45.209  25.886  26.495  1.00  0.00     0.031 C 
ATOM     63  C   UNL A   1      46.397  28.047  26.721  1.00  0.00     0.037 A 
BRANCH  50  64
ATOM     64  C   UNL A   1      45.768  33.790  28.893  1.00  0.00     0.057 A 
ATOM     65  C   UNL A   1      45.698  34.780  27.905  1.00  0.00     0.134 A 
ATOM     66  C   UNL A   1      46.394  34.123  30.100  1.00  0.00     0.134 A 
ATOM     67  F   UNL A   1      45.129  34.519  26.719  1.00  0.00    -0.206 F 
ATOM     68  C   UNL A   1      46.243  36.050  28.105  1.00  0.00     0.040 A 
ATOM     69  C   UNL A   1      46.920  35.397  30.322  1.00  0.00     0.040 A 
ATOM     70  F   UNL A   1      46.493  33.220  31.088  1.00  0.00    -0.206 F 
ATOM     71  C   UNL A   1      46.848  36.363  29.321  1.00  0.00     0.006 A 
ENDBRANCH  50  64
BRANCH  51  72
ATOM     72  C   UNL A   1      41.344  24.915  27.838  1.00  0.00     0.057 A 
ATOM     73  C   UNL A   1      41.776  23.779  28.533  1.00  0.00     0.134 A 
ATOM     74  C   UNL A   1      40.321  24.741  26.897  1.00  0.00     0.134 A 
ATOM     75  F   UNL A   1      42.773  23.873  29.426  1.00  0.00    -0.206 F 
ATOM     76  C   UNL A   1      41.240  22.516  28.278  1.00  0.00     0.040 A 
ATOM     77  C   UNL A   1      39.756  23.488  26.653  1.00  0.00     0.040 A 
ATOM     78  F   UNL A   1      39.861  25.787  26.194  1.00  0.00    -0.206 F 
ATOM     79  C   UNL A   1      40.224  22.368  27.336  1.00  0.00     0.006 A 
ENDBRANCH  51  72
BRANCH  63  80
ATOM     80  C   UNL A   1      47.575  27.422  26.028  1.00  0.00     0.057 A 
ATOM     81  C   UNL A   1      47.716  27.447  24.635  1.00  0.00     0.134 A 
ATOM     82  C   UNL A   1      48.595  26.810  26.769  1.00  0.00     0.134 A 
ATOM     83  F   UNL A   1      46.770  28.009  23.866  1.00  0.00    -0.206 F 
ATOM     84  C   UNL A   1      48.810  26.856  24.001  1.00  0.00     0.040 A 
ATOM     85  C   UNL A   1      49.709  26.242  26.148  1.00  0.00     0.040 A 
ATOM     86  F   UNL A   1      48.532  26.762  28.108  1.00  0.00    -0.206 F 
ATOM     87  C   UNL A   1      49.813  26.255  24.759  1.00  0.00     0.006 A 
ENDBRANCH  63  80
ENDBRANCH  37  38
ENDBRANCH  30  32
ENDBRANCH  29  30
ENDBRANCH  28  29
ENDBRANCH  27  28
ENDBRANCH  26  27
ENDBRANCH  25  26
ENDBRANCH   1  25
TORSDOF 19
ENDMDL
