MODEL 1
REMARK VINA RESULT:     -11.1      0.000      0.000
REMARK SMILES Cc1ccc(NC(=O)NC2(C(=O)OCCOCCOC(=O)c3ccc(-c4c5nc(c(-c6c(F)cccc6F)c6ccc([nH]6)c(-c6c(F)cccc6F)c6nc(c(-c7c(F)cccc7F)c7ccc4[nH]7)C=C6)C=C5)cc3)CC2)c(C)n1
REMARK SMILES IDX 16 1 15 2 14 3 13 4 11 5 12 6 10 7 76 8 77 9 9 10 6 11 7 12
REMARK SMILES IDX 8 14 5 16 1 17 2 18 3 19 80 20 4 21 78 22 79 23 17 24 18 25
REMARK SMILES IDX 19 26 20 27 21 28 22 29 23 30 75 31 24 32 74 33 25 34 26 35
REMARK SMILES IDX 27 36 68 37 28 38 73 39 67 40 69 41 29 42 72 43 66 44 65 45
REMARK SMILES IDX 30 47 56 48 39 49 55 50 40 51 43 52 54 53 70 54 41 55 42 56
REMARK SMILES IDX 53 58 71 59 44 60 31 61 32 62 37 63 33 64 34 65 36 66 38 67
REMARK SMILES IDX 35 68 57 69 58 70 63 71 59 72 60 73 62 74 64 75 61 76 45 77
REMARK SMILES IDX 46 78 51 79 47 80 48 81 50 82 52 83 49 84
REMARK H PARENT 6 13 9 15 69 46 43 57
REMARK Flexibility Score: inf
ROOT
ATOM      1  O   UNL A   1      31.962  29.930  26.621  1.00  0.00    -0.374 OA
ENDROOT
BRANCH   1   2
ATOM      2  C   UNL A   1      33.351  29.622  26.458  1.00  0.00     0.202 C 
BRANCH   2   3
ATOM      3  C   UNL A   1      33.644  28.555  25.384  1.00  0.00     0.261 C 
BRANCH   3   4
ATOM      4  O   UNL A   1      32.438  28.140  24.705  1.00  0.00    -0.461 OA
BRANCH   4   5
ATOM      5  C   UNL A   1      32.408  28.207  23.355  1.00  0.00     0.331 C 
ATOM      6  O   UNL A   1      33.237  28.782  22.658  1.00  0.00    -0.249 OA
BRANCH   5   7
ATOM      7  C   UNL A   1      31.315  27.351  22.695  1.00  0.00     0.139 C 
ATOM      8  C   UNL A   1      30.037  28.213  22.558  1.00  0.00     0.043 C 
ATOM      9  C   UNL A   1      29.966  26.895  23.223  1.00  0.00     0.043 C 
BRANCH   7  10
ATOM     10  N   UNL A   1      31.793  26.692  21.514  1.00  0.00    -0.322 N 
ATOM     11  N   UNL A   1      33.240  24.812  22.010  1.00  0.00    -0.306 N 
ATOM     12  C   UNL A   1      32.666  25.731  21.235  1.00  0.00     0.320 C 
ATOM     13  H   UNL A   1      33.858  24.300  21.440  1.00  0.00     0.171 HD
ATOM     14  O   UNL A   1      32.994  25.656  20.039  1.00  0.00    -0.248 OA
ATOM     15  H   UNL A   1      31.363  27.042  20.700  1.00  0.00     0.166 HD
BRANCH  11  16
ATOM     16  C   UNL A   1      33.331  24.264  23.311  1.00  0.00     0.064 A 
ATOM     17  C   UNL A   1      33.858  22.937  27.345  1.00  0.00     0.067 C 
ATOM     18  C   UNL A   1      33.823  23.371  25.917  1.00  0.00     0.038 A 
ATOM     19  C   UNL A   1      34.552  24.437  25.430  1.00  0.00     0.025 A 
ATOM     20  N   UNL A   1      32.895  22.762  25.170  1.00  0.00    -0.256 NA
ATOM     21  C   UNL A   1      34.340  24.837  24.106  1.00  0.00     0.030 A 
ATOM     22  C   UNL A   1      32.549  23.333  23.987  1.00  0.00     0.061 A 
ATOM     23  C   UNL A   1      31.066  23.370  23.932  1.00  0.00     0.069 C 
ENDBRANCH  11  16
ENDBRANCH   7  10
ENDBRANCH   5   7
ENDBRANCH   4   5
ENDBRANCH   3   4
ENDBRANCH   2   3
ENDBRANCH   1   2
BRANCH   1  24
ATOM     24  C   UNL A   1      31.532  31.187  26.096  1.00  0.00     0.202 C 
BRANCH  24  25
ATOM     25  C   UNL A   1      31.491  32.321  27.129  1.00  0.00     0.261 C 
BRANCH  25  26
ATOM     26  O   UNL A   1      32.487  33.325  26.856  1.00  0.00    -0.460 OA
BRANCH  26  27
ATOM     27  C   UNL A   1      33.099  33.821  27.955  1.00  0.00     0.338 C 
ATOM     28  O   UNL A   1      32.663  34.651  28.736  1.00  0.00    -0.246 OA
BRANCH  27  29
ATOM     29  C   UNL A   1      34.374  33.130  28.205  1.00  0.00     0.060 A 
ATOM     30  C   UNL A   1      34.300  31.834  28.722  1.00  0.00     0.016 A 
ATOM     31  C   UNL A   1      35.605  33.785  28.104  1.00  0.00     0.016 A 
ATOM     32  C   UNL A   1      35.448  31.213  29.208  1.00  0.00     0.010 A 
ATOM     33  C   UNL A   1      36.762  33.149  28.580  1.00  0.00     0.010 A 
ATOM     34  C   UNL A   1      36.684  31.878  29.176  1.00  0.00    -0.014 A 
BRANCH  34  35
ATOM     35  C   UNL A   1      37.851  31.261  29.866  1.00  0.00     0.031 A 
ATOM     36  C   UNL A   1      38.117  31.563  31.319  1.00  0.00     0.074 A 
ATOM     37  C   UNL A   1      38.623  30.367  29.222  1.00  0.00     0.049 A 
ATOM     38  N   UNL A   1      39.041  31.079  32.112  1.00  0.00    -0.248 NA
ATOM     39  C   UNL A   1      37.223  32.537  31.965  1.00  0.00     0.031 C 
ATOM     40  C   UNL A   1      38.459  29.963  27.826  1.00  0.00     0.029 A 
ATOM     41  N   UNL A   1      39.693  29.625  29.662  1.00  0.00    -0.354 N 
ATOM     42  C   UNL A   1      38.841  31.687  33.346  1.00  0.00     0.074 A 
ATOM     43  C   UNL A   1      37.735  32.606  33.186  1.00  0.00     0.031 C 
ATOM     44  C   UNL A   1      39.382  29.034  27.528  1.00  0.00     0.029 A 
ATOM     45  C   UNL A   1      40.225  28.802  28.700  1.00  0.00     0.049 A 
ATOM     46  H   UNL A   1      40.044  29.679  30.580  1.00  0.00     0.167 HD
ATOM     47  C   UNL A   1      39.507  31.487  34.511  1.00  0.00     0.037 A 
ATOM     48  C   UNL A   1      41.276  27.961  28.751  1.00  0.00     0.037 A 
ATOM     49  C   UNL A   1      40.605  30.569  34.676  1.00  0.00     0.049 A 
ATOM     50  C   UNL A   1      42.039  27.806  30.039  1.00  0.00     0.074 A 
ATOM     51  C   UNL A   1      41.326  30.283  35.823  1.00  0.00     0.029 A 
ATOM     52  N   UNL A   1      41.146  29.791  33.663  1.00  0.00    -0.354 N 
ATOM     53  N   UNL A   1      41.819  28.363  31.205  1.00  0.00    -0.248 NA
ATOM     54  C   UNL A   1      43.196  26.899  30.018  1.00  0.00     0.031 C 
ATOM     55  C   UNL A   1      42.337  29.375  35.491  1.00  0.00     0.029 A 
ATOM     56  C   UNL A   1      42.210  29.049  34.151  1.00  0.00     0.049 A 
ATOM     57  H   UNL A   1      40.821  29.769  32.733  1.00  0.00     0.167 HD
ATOM     58  C   UNL A   1      42.790  27.855  32.061  1.00  0.00     0.074 A 
ATOM     59  C   UNL A   1      43.589  26.930  31.283  1.00  0.00     0.031 C 
ATOM     60  C   UNL A   1      43.000  28.131  33.372  1.00  0.00     0.037 A 
BRANCH  47  61
ATOM     61  C   UNL A   1      39.078  32.295  35.704  1.00  0.00     0.057 A 
ATOM     62  C   UNL A   1      38.272  31.755  36.716  1.00  0.00     0.134 A 
ATOM     63  C   UNL A   1      39.514  33.617  35.865  1.00  0.00     0.134 A 
ATOM     64  F   UNL A   1      37.814  30.499  36.621  1.00  0.00    -0.206 F 
ATOM     65  C   UNL A   1      37.897  32.508  37.831  1.00  0.00     0.040 A 
ATOM     66  C   UNL A   1      39.168  34.371  36.990  1.00  0.00     0.040 A 
ATOM     67  F   UNL A   1      40.295  34.195  34.940  1.00  0.00    -0.206 F 
ATOM     68  C   UNL A   1      38.351  33.818  37.973  1.00  0.00     0.006 A 
ENDBRANCH  47  61
BRANCH  48  69
ATOM     69  C   UNL A   1      41.680  27.202  27.540  1.00  0.00     0.057 A 
ATOM     70  C   UNL A   1      41.253  25.886  27.328  1.00  0.00     0.134 A 
ATOM     71  C   UNL A   1      42.521  27.770  26.574  1.00  0.00     0.134 A 
ATOM     72  F   UNL A   1      40.466  25.279  28.229  1.00  0.00    -0.206 F 
ATOM     73  C   UNL A   1      41.661  25.156  26.210  1.00  0.00     0.040 A 
ATOM     74  C   UNL A   1      42.913  27.061  25.437  1.00  0.00     0.040 A 
ATOM     75  F   UNL A   1      42.965  29.027  26.717  1.00  0.00    -0.206 F 
ATOM     76  C   UNL A   1      42.489  25.746  25.258  1.00  0.00     0.006 A 
ENDBRANCH  48  69
BRANCH  60  77
ATOM     77  C   UNL A   1      44.118  27.398  34.058  1.00  0.00     0.057 A 
ATOM     78  C   UNL A   1      45.418  27.918  34.120  1.00  0.00     0.134 A 
ATOM     79  C   UNL A   1      43.885  26.168  34.688  1.00  0.00     0.134 A 
ATOM     80  F   UNL A   1      45.713  29.084  33.528  1.00  0.00    -0.206 F 
ATOM     81  C   UNL A   1      46.451  27.227  34.757  1.00  0.00     0.040 A 
ATOM     82  C   UNL A   1      44.903  25.482  35.354  1.00  0.00     0.040 A 
ATOM     83  F   UNL A   1      42.663  25.617  34.676  1.00  0.00    -0.206 F 
ATOM     84  C   UNL A   1      46.193  26.008  35.381  1.00  0.00     0.006 A 
ENDBRANCH  60  77
ENDBRANCH  34  35
ENDBRANCH  27  29
ENDBRANCH  26  27
ENDBRANCH  25  26
ENDBRANCH  24  25
ENDBRANCH   1  24
TORSDOF 16
ENDMDL
MODEL 2
REMARK VINA RESULT:     -10.9      4.446      9.110
REMARK SMILES Cc1ccc(NC(=O)NC2(C(=O)OCCOCCOC(=O)c3ccc(-c4c5nc(c(-c6c(F)cccc6F)c6ccc([nH]6)c(-c6c(F)cccc6F)c6nc(c(-c7c(F)cccc7F)c7ccc4[nH]7)C=C6)C=C5)cc3)CC2)c(C)n1
REMARK SMILES IDX 16 1 15 2 14 3 13 4 11 5 12 6 10 7 76 8 77 9 9 10 6 11 7 12
REMARK SMILES IDX 8 14 5 16 1 17 2 18 3 19 80 20 4 21 78 22 79 23 17 24 18 25
REMARK SMILES IDX 19 26 20 27 21 28 22 29 23 30 75 31 24 32 74 33 25 34 26 35
REMARK SMILES IDX 27 36 68 37 28 38 73 39 67 40 69 41 29 42 72 43 66 44 65 45
REMARK SMILES IDX 30 47 56 48 39 49 55 50 40 51 43 52 54 53 70 54 41 55 42 56
REMARK SMILES IDX 53 58 71 59 44 60 31 61 32 62 37 63 33 64 34 65 36 66 38 67
REMARK SMILES IDX 35 68 57 69 58 70 63 71 59 72 60 73 62 74 64 75 61 76 45 77
REMARK SMILES IDX 46 78 51 79 47 80 48 81 50 82 52 83 49 84
REMARK H PARENT 6 13 9 15 69 46 43 57
REMARK Flexibility Score: inf
ROOT
ATOM      1  O   UNL A   1      37.300  21.591  24.256  1.00  0.00    -0.374 OA
ENDROOT
BRANCH   1   2
ATOM      2  C   UNL A   1      36.088  22.336  24.413  1.00  0.00     0.202 C 
BRANCH   2   3
ATOM      3  C   UNL A   1      35.917  22.987  25.801  1.00  0.00     0.261 C 
BRANCH   3   4
ATOM      4  O   UNL A   1      34.524  23.201  26.119  1.00  0.00    -0.461 OA
BRANCH   4   5
ATOM      5  C   UNL A   1      33.777  22.132  26.475  1.00  0.00     0.331 C 
ATOM      6  O   UNL A   1      33.956  21.448  27.477  1.00  0.00    -0.249 OA
BRANCH   5   7
ATOM      7  C   UNL A   1      32.535  21.897  25.601  1.00  0.00     0.139 C 
ATOM      8  C   UNL A   1      32.643  20.489  24.967  1.00  0.00     0.043 C 
ATOM      9  C   UNL A   1      32.411  21.666  24.104  1.00  0.00     0.043 C 
BRANCH   7  10
ATOM     10  N   UNL A   1      31.323  22.213  26.299  1.00  0.00    -0.322 N 
ATOM     11  N   UNL A   1      31.031  24.595  26.640  1.00  0.00    -0.306 N 
ATOM     12  C   UNL A   1      30.769  23.302  26.821  1.00  0.00     0.320 C 
ATOM     13  H   UNL A   1      30.426  25.097  27.233  1.00  0.00     0.171 HD
ATOM     14  O   UNL A   1      29.825  23.083  27.599  1.00  0.00    -0.248 OA
ATOM     15  H   UNL A   1      30.755  21.419  26.423  1.00  0.00     0.166 HD
BRANCH  11  16
ATOM     16  C   UNL A   1      31.816  25.549  25.951  1.00  0.00     0.064 A 
ATOM     17  C   UNL A   1      34.030  28.275  23.506  1.00  0.00     0.067 C 
ATOM     18  C   UNL A   1      33.343  27.213  24.298  1.00  0.00     0.038 A 
ATOM     19  C   UNL A   1      32.626  26.181  23.725  1.00  0.00     0.025 A 
ATOM     20  N   UNL A   1      33.323  27.426  25.619  1.00  0.00    -0.256 NA
ATOM     21  C   UNL A   1      31.914  25.320  24.567  1.00  0.00     0.030 A 
ATOM     22  C   UNL A   1      32.431  26.726  26.367  1.00  0.00     0.061 A 
ATOM     23  C   UNL A   1      31.742  27.695  27.255  1.00  0.00     0.069 C 
ENDBRANCH  11  16
ENDBRANCH   7  10
ENDBRANCH   5   7
ENDBRANCH   4   5
ENDBRANCH   3   4
ENDBRANCH   2   3
ENDBRANCH   1   2
BRANCH   1  24
ATOM     24  C   UNL A   1      37.370  20.350  24.960  1.00  0.00     0.202 C 
BRANCH  24  25
ATOM     25  C   UNL A   1      38.756  19.691  24.940  1.00  0.00     0.261 C 
BRANCH  25  26
ATOM     26  O   UNL A   1      39.458  19.894  26.182  1.00  0.00    -0.460 OA
BRANCH  26  27
ATOM     27  C   UNL A   1      40.799  19.732  26.101  1.00  0.00     0.338 C 
ATOM     28  O   UNL A   1      41.405  18.799  25.599  1.00  0.00    -0.246 OA
BRANCH  27  29
ATOM     29  C   UNL A   1      41.504  20.924  26.599  1.00  0.00     0.060 A 
ATOM     30  C   UNL A   1      41.484  21.139  27.980  1.00  0.00     0.016 A 
ATOM     31  C   UNL A   1      42.020  21.895  25.737  1.00  0.00     0.016 A 
ATOM     32  C   UNL A   1      41.914  22.358  28.499  1.00  0.00     0.010 A 
ATOM     33  C   UNL A   1      42.467  23.116  26.266  1.00  0.00     0.010 A 
ATOM     34  C   UNL A   1      42.375  23.372  27.646  1.00  0.00    -0.014 A 
BRANCH  34  35
ATOM     35  C   UNL A   1      42.654  24.720  28.214  1.00  0.00     0.031 A 
ATOM     36  C   UNL A   1      44.067  25.119  28.555  1.00  0.00     0.074 A 
ATOM     37  C   UNL A   1      41.660  25.618  28.347  1.00  0.00     0.049 A 
ATOM     38  N   UNL A   1      44.521  26.266  29.000  1.00  0.00    -0.248 NA
ATOM     39  C   UNL A   1      45.106  24.095  28.369  1.00  0.00     0.031 C 
ATOM     40  C   UNL A   1      40.254  25.370  28.029  1.00  0.00     0.029 A 
ATOM     41  N   UNL A   1      41.683  26.924  28.773  1.00  0.00    -0.354 N 
ATOM     42  C   UNL A   1      45.894  26.100  29.146  1.00  0.00     0.074 A 
ATOM     43  C   UNL A   1      46.192  24.732  28.784  1.00  0.00     0.031 C 
ATOM     44  C   UNL A   1      39.552  26.493  28.252  1.00  0.00     0.029 A 
ATOM     45  C   UNL A   1      40.449  27.527  28.763  1.00  0.00     0.049 A 
ATOM     46  H   UNL A   1      42.505  27.382  29.058  1.00  0.00     0.167 HD
ATOM     47  C   UNL A   1      46.824  27.009  29.532  1.00  0.00     0.037 A 
ATOM     48  C   UNL A   1      40.080  28.770  29.130  1.00  0.00     0.037 A 
ATOM     49  C   UNL A   1      46.531  28.375  29.888  1.00  0.00     0.049 A 
ATOM     50  C   UNL A   1      41.123  29.739  29.617  1.00  0.00     0.074 A 
ATOM     51  C   UNL A   1      47.411  29.374  30.270  1.00  0.00     0.029 A 
ATOM     52  N   UNL A   1      45.262  28.932  29.913  1.00  0.00    -0.354 N 
ATOM     53  N   UNL A   1      42.420  29.579  29.720  1.00  0.00    -0.248 NA
ATOM     54  C   UNL A   1      40.649  31.067  30.034  1.00  0.00     0.031 C 
ATOM     55  C   UNL A   1      46.668  30.518  30.579  1.00  0.00     0.029 A 
ATOM     56  C   UNL A   1      45.331  30.252  30.333  1.00  0.00     0.049 A 
ATOM     57  H   UNL A   1      44.433  28.460  29.669  1.00  0.00     0.167 HD
ATOM     58  C   UNL A   1      42.919  30.790  30.186  1.00  0.00     0.074 A 
ATOM     59  C   UNL A   1      41.786  31.682  30.327  1.00  0.00     0.031 C 
ATOM     60  C   UNL A   1      44.200  31.132  30.471  1.00  0.00     0.037 A 
BRANCH  47  61
ATOM     61  C   UNL A   1      48.253  26.551  29.609  1.00  0.00     0.057 A 
ATOM     62  C   UNL A   1      49.155  26.749  28.555  1.00  0.00     0.134 A 
ATOM     63  C   UNL A   1      48.747  25.944  30.772  1.00  0.00     0.134 A 
ATOM     64  F   UNL A   1      48.748  27.317  27.410  1.00  0.00    -0.206 F 
ATOM     65  C   UNL A   1      50.487  26.339  28.645  1.00  0.00     0.040 A 
ATOM     66  C   UNL A   1      50.084  25.554  30.884  1.00  0.00     0.040 A 
ATOM     67  F   UNL A   1      47.942  25.731  31.824  1.00  0.00    -0.206 F 
ATOM     68  C   UNL A   1      50.956  25.745  29.815  1.00  0.00     0.006 A 
ENDBRANCH  47  61
BRANCH  48  69
ATOM     69  C   UNL A   1      38.651  29.171  29.061  1.00  0.00     0.057 A 
ATOM     70  C   UNL A   1      38.088  29.662  27.878  1.00  0.00     0.134 A 
ATOM     71  C   UNL A   1      37.820  29.091  30.186  1.00  0.00     0.134 A 
ATOM     72  F   UNL A   1      38.840  29.785  26.773  1.00  0.00    -0.206 F 
ATOM     73  C   UNL A   1      36.756  30.077  27.819  1.00  0.00     0.040 A 
ATOM     74  C   UNL A   1      36.479  29.474  30.133  1.00  0.00     0.040 A 
ATOM     75  F   UNL A   1      38.297  28.628  31.350  1.00  0.00    -0.206 F 
ATOM     76  C   UNL A   1      35.947  29.978  28.948  1.00  0.00     0.006 A 
ENDBRANCH  48  69
BRANCH  60  77
ATOM     77  C   UNL A   1      44.449  32.540  30.934  1.00  0.00     0.057 A 
ATOM     78  C   UNL A   1      44.472  32.882  32.292  1.00  0.00     0.134 A 
ATOM     79  C   UNL A   1      44.696  33.563  30.007  1.00  0.00     0.134 A 
ATOM     80  F   UNL A   1      44.232  31.956  33.231  1.00  0.00    -0.206 F 
ATOM     81  C   UNL A   1      44.701  34.195  32.711  1.00  0.00     0.040 A 
ATOM     82  C   UNL A   1      44.956  34.872  30.414  1.00  0.00     0.040 A 
ATOM     83  F   UNL A   1      44.699  33.304  28.691  1.00  0.00    -0.206 F 
ATOM     84  C   UNL A   1      44.950  35.193  31.771  1.00  0.00     0.006 A 
ENDBRANCH  60  77
ENDBRANCH  34  35
ENDBRANCH  27  29
ENDBRANCH  26  27
ENDBRANCH  25  26
ENDBRANCH  24  25
ENDBRANCH   1  24
TORSDOF 16
ENDMDL
MODEL 3
REMARK VINA RESULT:     -10.9      4.420      8.983
REMARK SMILES Cc1ccc(NC(=O)NC2(C(=O)OCCOCCOC(=O)c3ccc(-c4c5nc(c(-c6c(F)cccc6F)c6ccc([nH]6)c(-c6c(F)cccc6F)c6nc(c(-c7c(F)cccc7F)c7ccc4[nH]7)C=C6)C=C5)cc3)CC2)c(C)n1
REMARK SMILES IDX 16 1 15 2 14 3 13 4 11 5 12 6 10 7 76 8 77 9 9 10 6 11 7 12
REMARK SMILES IDX 8 14 5 16 1 17 2 18 3 19 80 20 4 21 78 22 79 23 17 24 18 25
REMARK SMILES IDX 19 26 20 27 21 28 22 29 23 30 75 31 24 32 74 33 25 34 26 35
REMARK SMILES IDX 27 36 68 37 28 38 73 39 67 40 69 41 29 42 72 43 66 44 65 45
REMARK SMILES IDX 30 47 56 48 39 49 55 50 40 51 43 52 54 53 70 54 41 55 42 56
REMARK SMILES IDX 53 58 71 59 44 60 31 61 32 62 37 63 33 64 34 65 36 66 38 67
REMARK SMILES IDX 35 68 57 69 58 70 63 71 59 72 60 73 62 74 64 75 61 76 45 77
REMARK SMILES IDX 46 78 51 79 47 80 48 81 50 82 52 83 49 84
REMARK H PARENT 6 13 9 15 69 46 43 57
REMARK Flexibility Score: inf
ROOT
ATOM      1  O   UNL A   1      37.495  22.020  24.372  1.00  0.00    -0.374 OA
ENDROOT
BRANCH   1   2
ATOM      2  C   UNL A   1      36.985  23.183  25.033  1.00  0.00     0.202 C 
BRANCH   2   3
ATOM      3  C   UNL A   1      35.913  22.889  26.101  1.00  0.00     0.261 C 
BRANCH   3   4
ATOM      4  O   UNL A   1      34.598  22.771  25.514  1.00  0.00    -0.461 OA
BRANCH   4   5
ATOM      5  C   UNL A   1      33.691  21.978  26.127  1.00  0.00     0.331 C 
ATOM      6  O   UNL A   1      33.816  21.500  27.250  1.00  0.00    -0.249 OA
BRANCH   5   7
ATOM      7  C   UNL A   1      32.361  21.821  25.374  1.00  0.00     0.139 C 
ATOM      8  C   UNL A   1      32.362  20.446  24.663  1.00  0.00     0.043 C 
ATOM      9  C   UNL A   1      32.081  21.672  23.888  1.00  0.00     0.043 C 
BRANCH   7  10
ATOM     10  N   UNL A   1      31.235  22.130  26.207  1.00  0.00    -0.322 N 
ATOM     11  N   UNL A   1      30.922  24.513  26.514  1.00  0.00    -0.306 N 
ATOM     12  C   UNL A   1      30.720  23.220  26.762  1.00  0.00     0.320 C 
ATOM     13  H   UNL A   1      30.381  25.019  27.162  1.00  0.00     0.171 HD
ATOM     14  O   UNL A   1      29.885  23.005  27.656  1.00  0.00    -0.248 OA
ATOM     15  H   UNL A   1      30.708  21.326  26.422  1.00  0.00     0.166 HD
BRANCH  11  16
ATOM     16  C   UNL A   1      31.591  25.464  25.707  1.00  0.00     0.064 A 
ATOM     17  C   UNL A   1      33.964  28.249  23.490  1.00  0.00     0.067 C 
ATOM     18  C   UNL A   1      33.156  27.369  24.384  1.00  0.00     0.038 A 
ATOM     19  C   UNL A   1      33.671  26.745  25.502  1.00  0.00     0.025 A 
ATOM     20  N   UNL A   1      31.932  27.083  23.928  1.00  0.00    -0.256 NA
ATOM     21  C   UNL A   1      32.857  25.838  26.190  1.00  0.00     0.030 A 
ATOM     22  C   UNL A   1      31.275  26.026  24.474  1.00  0.00     0.061 A 
ATOM     23  C   UNL A   1      30.746  25.209  23.354  1.00  0.00     0.069 C 
ENDBRANCH  11  16
ENDBRANCH   7  10
ENDBRANCH   5   7
ENDBRANCH   4   5
ENDBRANCH   3   4
ENDBRANCH   2   3
ENDBRANCH   1   2
BRANCH   1  24
ATOM     24  C   UNL A   1      37.513  20.817  25.142  1.00  0.00     0.202 C 
BRANCH  24  25
ATOM     25  C   UNL A   1      38.794  19.986  24.984  1.00  0.00     0.261 C 
BRANCH  25  26
ATOM     26  O   UNL A   1      39.508  19.868  26.229  1.00  0.00    -0.460 OA
BRANCH  26  27
ATOM     27  C   UNL A   1      40.848  19.746  26.097  1.00  0.00     0.338 C 
ATOM     28  O   UNL A   1      41.461  18.845  25.546  1.00  0.00    -0.246 OA
BRANCH  27  29
ATOM     29  C   UNL A   1      41.539  20.940  26.609  1.00  0.00     0.060 A 
ATOM     30  C   UNL A   1      41.494  21.154  27.989  1.00  0.00     0.016 A 
ATOM     31  C   UNL A   1      42.065  21.915  25.756  1.00  0.00     0.016 A 
ATOM     32  C   UNL A   1      41.910  22.374  28.516  1.00  0.00     0.010 A 
ATOM     33  C   UNL A   1      42.497  23.137  26.294  1.00  0.00     0.010 A 
ATOM     34  C   UNL A   1      42.380  23.392  27.672  1.00  0.00    -0.014 A 
BRANCH  34  35
ATOM     35  C   UNL A   1      42.643  24.740  28.246  1.00  0.00     0.031 A 
ATOM     36  C   UNL A   1      44.049  25.148  28.608  1.00  0.00     0.074 A 
ATOM     37  C   UNL A   1      41.641  25.631  28.367  1.00  0.00     0.049 A 
ATOM     38  N   UNL A   1      44.489  26.296  29.060  1.00  0.00    -0.248 NA
ATOM     39  C   UNL A   1      45.096  24.130  28.434  1.00  0.00     0.031 C 
ATOM     40  C   UNL A   1      40.242  25.376  28.028  1.00  0.00     0.029 A 
ATOM     41  N   UNL A   1      41.650  26.937  28.795  1.00  0.00    -0.354 N 
ATOM     42  C   UNL A   1      45.861  26.139  29.225  1.00  0.00     0.074 A 
ATOM     43  C   UNL A   1      46.173  24.774  28.865  1.00  0.00     0.031 C 
ATOM     44  C   UNL A   1      39.529  26.494  28.243  1.00  0.00     0.029 A 
ATOM     45  C   UNL A   1      40.413  27.533  28.768  1.00  0.00     0.049 A 
ATOM     46  H   UNL A   1      42.466  27.400  29.092  1.00  0.00     0.167 HD
ATOM     47  C   UNL A   1      46.780  27.053  29.626  1.00  0.00     0.037 A 
ATOM     48  C   UNL A   1      40.031  28.772  29.133  1.00  0.00     0.037 A 
ATOM     49  C   UNL A   1      46.474  28.416  29.979  1.00  0.00     0.049 A 
ATOM     50  C   UNL A   1      41.061  29.748  29.635  1.00  0.00     0.074 A 
ATOM     51  C   UNL A   1      47.341  29.421  30.375  1.00  0.00     0.029 A 
ATOM     52  N   UNL A   1      45.200  28.966  29.988  1.00  0.00    -0.354 N 
ATOM     53  N   UNL A   1      42.357  29.596  29.756  1.00  0.00    -0.248 NA
ATOM     54  C   UNL A   1      40.573  31.072  30.047  1.00  0.00     0.031 C 
ATOM     55  C   UNL A   1      46.587  30.560  30.675  1.00  0.00     0.029 A 
ATOM     56  C   UNL A   1      45.256  30.285  30.410  1.00  0.00     0.049 A 
ATOM     57  H   UNL A   1      44.378  28.489  29.731  1.00  0.00     0.167 HD
ATOM     58  C   UNL A   1      42.843  30.809  30.231  1.00  0.00     0.074 A 
ATOM     59  C   UNL A   1      41.702  31.693  30.358  1.00  0.00     0.031 C 
ATOM     60  C   UNL A   1      44.117  31.159  30.534  1.00  0.00     0.037 A 
BRANCH  47  61
ATOM     61  C   UNL A   1      48.211  26.604  29.722  1.00  0.00     0.057 A 
ATOM     62  C   UNL A   1      48.718  25.978  30.870  1.00  0.00     0.134 A 
ATOM     63  C   UNL A   1      49.082  26.756  28.635  1.00  0.00     0.134 A 
ATOM     64  F   UNL A   1      47.940  25.808  31.949  1.00  0.00    -0.206 F 
ATOM     65  C   UNL A   1      50.043  25.544  30.941  1.00  0.00     0.040 A 
ATOM     66  C   UNL A   1      50.402  26.301  28.684  1.00  0.00     0.040 A 
ATOM     67  F   UNL A   1      48.662  27.338  27.501  1.00  0.00    -0.206 F 
ATOM     68  C   UNL A   1      50.887  25.700  29.843  1.00  0.00     0.006 A 
ENDBRANCH  47  61
BRANCH  48  69
ATOM     69  C   UNL A   1      38.601  29.165  29.044  1.00  0.00     0.057 A 
ATOM     70  C   UNL A   1      38.046  29.634  27.848  1.00  0.00     0.134 A 
ATOM     71  C   UNL A   1      37.760  29.099  30.162  1.00  0.00     0.134 A 
ATOM     72  F   UNL A   1      38.807  29.743  26.748  1.00  0.00    -0.206 F 
ATOM     73  C   UNL A   1      36.713  30.040  27.770  1.00  0.00     0.040 A 
ATOM     74  C   UNL A   1      36.418  29.475  30.092  1.00  0.00     0.040 A 
ATOM     75  F   UNL A   1      38.229  28.658  31.338  1.00  0.00    -0.206 F 
ATOM     76  C   UNL A   1      35.894  29.955  28.894  1.00  0.00     0.006 A 
ENDBRANCH  48  69
BRANCH  60  77
ATOM     77  C   UNL A   1      44.351  32.567  31.002  1.00  0.00     0.057 A 
ATOM     78  C   UNL A   1      44.598  33.616  30.106  1.00  0.00     0.134 A 
ATOM     79  C   UNL A   1      44.304  32.883  32.367  1.00  0.00     0.134 A 
ATOM     80  F   UNL A   1      44.668  33.382  28.788  1.00  0.00    -0.206 F 
ATOM     81  C   UNL A   1      44.819  34.921  30.552  1.00  0.00     0.040 A 
ATOM     82  C   UNL A   1      44.494  34.189  32.823  1.00  0.00     0.040 A 
ATOM     83  F   UNL A   1      44.063  31.930  33.279  1.00  0.00    -0.206 F 
ATOM     84  C   UNL A   1      44.761  35.211  31.914  1.00  0.00     0.006 A 
ENDBRANCH  60  77
ENDBRANCH  34  35
ENDBRANCH  27  29
ENDBRANCH  26  27
ENDBRANCH  25  26
ENDBRANCH  24  25
ENDBRANCH   1  24
TORSDOF 16
ENDMDL
