MODEL 1
REMARK VINA RESULT:     -10.6      0.000      0.000
REMARK SMILES COCc1cc(OCC(=O)OCCOCCOC(=O)c2ccc(-c3c4nc(c(-c5c(F)cccc5F)c5ccc([nH]5)c(-c5c(F)cccc5F)c5nc(c(-c6c(F)cccc6F)c6ccc3[nH]6)C=C5)C=C4)cc2)nc(Nc2cccc(C)c2C)n1
REMARK SMILES IDX 13 1 12 2 11 3 9 4 10 5 8 6 7 7 6 8 4 9 5 10 85 11 75 12
REMARK SMILES IDX 74 13 3 14 2 15 1 16 76 17 77 19 78 20 83 21 79 22 81 23
REMARK SMILES IDX 84 24 80 25 82 26 14 27 15 28 16 29 17 30 18 31 19 32 20 33
REMARK SMILES IDX 21 34 73 35 22 36 72 37 23 38 24 39 25 40 66 41 26 42 71 43
REMARK SMILES IDX 65 44 67 45 27 46 70 47 64 48 63 49 28 51 54 52 37 53 53 54
REMARK SMILES IDX 38 55 41 56 52 57 68 58 39 59 40 60 51 62 69 63 42 64 29 65
REMARK SMILES IDX 30 66 35 67 31 68 32 69 34 70 36 71 33 72 55 73 56 74 61 75
REMARK SMILES IDX 57 76 58 77 60 78 62 79 59 80 43 81 44 82 49 83 45 84 46 85
REMARK SMILES IDX 48 86 50 87 47 88
REMARK H PARENT 76 18 67 50 41 61
REMARK Flexibility Score: inf
ROOT
ATOM      1  C   UNL A   1      41.085  21.181  26.958  1.00  0.00     0.202 C 
ENDROOT
BRANCH   1   2
ATOM      2  C   UNL A   1      39.946  22.190  27.161  1.00  0.00     0.261 C 
BRANCH   2   3
ATOM      3  O   UNL A   1      39.364  22.643  25.919  1.00  0.00    -0.461 OA
BRANCH   3   4
ATOM      4  C   UNL A   1      38.077  22.260  25.687  1.00  0.00     0.344 C 
ATOM      5  O   UNL A   1      37.747  21.235  25.097  1.00  0.00    -0.248 OA
BRANCH   4   6
ATOM      6  C   UNL A   1      37.042  23.254  26.215  1.00  0.00     0.353 C 
BRANCH   6   7
ATOM      7  O   UNL A   1      36.212  23.936  25.298  1.00  0.00    -0.466 OA
BRANCH   7   8
ATOM      8  C   UNL A   1      34.889  23.628  25.195  1.00  0.00     0.219 A 
ATOM      9  C   UNL A   1      33.005  22.237  25.026  1.00  0.00     0.076 A 
ATOM     10  C   UNL A   1      34.370  22.396  24.853  1.00  0.00     0.095 A 
ATOM     11  N   UNL A   1      32.231  23.258  25.425  1.00  0.00    -0.215 NA
ATOM     12  C   UNL A   1      32.798  24.441  25.685  1.00  0.00     0.230 A 
ATOM     13  N   UNL A   1      34.112  24.656  25.583  1.00  0.00    -0.177 NA
BRANCH   9  14
ATOM     14  C   UNL A   1      32.381  20.849  24.959  1.00  0.00     0.216 C 
BRANCH  14  15
ATOM     15  O   UNL A   1      32.349  20.224  23.672  1.00  0.00    -0.378 OA
ATOM     16  C   UNL A   1      32.535  18.812  23.707  1.00  0.00     0.195 C 
ENDBRANCH  14  15
ENDBRANCH   9  14
BRANCH  12  17
ATOM     17  N   UNL A   1      32.010  25.487  26.152  1.00  0.00    -0.324 N 
ATOM     18  H   UNL A   1      31.652  25.396  27.066  1.00  0.00     0.170 HD
BRANCH  17  19
ATOM     19  C   UNL A   1      31.672  26.657  25.460  1.00  0.00     0.044 A 
ATOM     20  C   UNL A   1      31.065  26.522  24.203  1.00  0.00     0.026 A 
ATOM     21  C   UNL A   1      31.964  27.950  25.958  1.00  0.00    -0.025 A 
ATOM     22  C   UNL A   1      30.657  27.641  23.484  1.00  0.00     0.002 A 
ATOM     23  C   UNL A   1      31.517  29.085  25.240  1.00  0.00    -0.046 A 
ATOM     24  C   UNL A   1      32.736  28.133  27.242  1.00  0.00     0.047 C 
ATOM     25  C   UNL A   1      30.866  28.913  24.007  1.00  0.00     0.004 A 
ATOM     26  C   UNL A   1      31.681  30.499  25.736  1.00  0.00     0.044 C 
ENDBRANCH  17  19
ENDBRANCH  12  17
ENDBRANCH   7   8
ENDBRANCH   6   7
ENDBRANCH   4   6
ENDBRANCH   3   4
ENDBRANCH   2   3
ENDBRANCH   1   2
BRANCH   1  27
ATOM     27  O   UNL A   1      41.814  21.273  25.733  1.00  0.00    -0.374 OA
BRANCH  27  28
ATOM     28  C   UNL A   1      43.234  21.253  25.820  1.00  0.00     0.202 C 
BRANCH  28  29
ATOM     29  C   UNL A   1      43.996  22.162  24.853  1.00  0.00     0.261 C 
BRANCH  29  30
ATOM     30  O   UNL A   1      43.335  23.404  24.629  1.00  0.00    -0.460 OA
BRANCH  30  31
ATOM     31  C   UNL A   1      44.056  24.476  25.014  1.00  0.00     0.338 C 
ATOM     32  O   UNL A   1      45.162  24.823  24.625  1.00  0.00    -0.246 OA
BRANCH  31  33
ATOM     33  C   UNL A   1      43.239  25.298  25.903  1.00  0.00     0.060 A 
ATOM     34  C   UNL A   1      43.618  26.633  26.064  1.00  0.00     0.016 A 
ATOM     35  C   UNL A   1      42.175  24.746  26.621  1.00  0.00     0.016 A 
ATOM     36  C   UNL A   1      42.971  27.414  27.010  1.00  0.00     0.010 A 
ATOM     37  C   UNL A   1      41.527  25.532  27.571  1.00  0.00     0.010 A 
ATOM     38  C   UNL A   1      41.956  26.851  27.796  1.00  0.00    -0.014 A 
BRANCH  38  39
ATOM     39  C   UNL A   1      41.467  27.609  28.963  1.00  0.00     0.031 A 
ATOM     40  C   UNL A   1      42.208  27.484  30.263  1.00  0.00     0.074 A 
ATOM     41  C   UNL A   1      40.417  28.436  28.832  1.00  0.00     0.049 A 
ATOM     42  N   UNL A   1      41.986  28.082  31.403  1.00  0.00    -0.248 NA
ATOM     43  C   UNL A   1      43.358  26.564  30.278  1.00  0.00     0.031 C 
ATOM     44  C   UNL A   1      39.656  28.641  27.601  1.00  0.00     0.029 A 
ATOM     45  N   UNL A   1      39.817  29.262  29.744  1.00  0.00    -0.354 N 
ATOM     46  C   UNL A   1      42.966  27.615  32.268  1.00  0.00     0.074 A 
ATOM     47  C   UNL A   1      43.762  26.655  31.536  1.00  0.00     0.031 C 
ATOM     48  C   UNL A   1      38.683  29.539  27.835  1.00  0.00     0.029 A 
ATOM     49  C   UNL A   1      38.744  29.949  29.235  1.00  0.00     0.049 A 
ATOM     50  H   UNL A   1      40.126  29.354  30.674  1.00  0.00     0.167 HD
ATOM     51  C   UNL A   1      43.190  27.971  33.555  1.00  0.00     0.037 A 
ATOM     52  C   UNL A   1      37.903  30.804  29.845  1.00  0.00     0.037 A 
ATOM     53  C   UNL A   1      42.382  28.922  34.270  1.00  0.00     0.049 A 
ATOM     54  C   UNL A   1      38.138  31.138  31.292  1.00  0.00     0.074 A 
ATOM     55  C   UNL A   1      42.512  29.360  35.575  1.00  0.00     0.029 A 
ATOM     56  N   UNL A   1      41.284  29.578  33.732  1.00  0.00    -0.354 N 
ATOM     57  N   UNL A   1      39.085  30.715  32.095  1.00  0.00    -0.248 NA
ATOM     58  C   UNL A   1      37.194  32.074  31.917  1.00  0.00     0.031 C 
ATOM     59  C   UNL A   1      41.467  30.251  35.839  1.00  0.00     0.029 A 
ATOM     60  C   UNL A   1      40.713  30.403  34.685  1.00  0.00     0.049 A 
ATOM     61  H   UNL A   1      40.958  29.472  32.810  1.00  0.00     0.167 HD
ATOM     62  C   UNL A   1      38.866  31.348  33.311  1.00  0.00     0.074 A 
ATOM     63  C   UNL A   1      37.706  32.197  33.133  1.00  0.00     0.031 C 
ATOM     64  C   UNL A   1      39.559  31.239  34.472  1.00  0.00     0.037 A 
BRANCH  51  65
ATOM     65  C   UNL A   1      44.337  27.311  34.264  1.00  0.00     0.057 A 
ATOM     66  C   UNL A   1      45.620  27.875  34.279  1.00  0.00     0.134 A 
ATOM     67  C   UNL A   1      44.154  26.103  34.949  1.00  0.00     0.134 A 
ATOM     68  F   UNL A   1      45.866  29.021  33.627  1.00  0.00    -0.206 F 
ATOM     69  C   UNL A   1      46.684  27.250  34.931  1.00  0.00     0.040 A 
ATOM     70  C   UNL A   1      45.206  25.481  35.624  1.00  0.00     0.040 A 
ATOM     71  F   UNL A   1      42.952  25.509  34.974  1.00  0.00    -0.206 F 
ATOM     72  C   UNL A   1      46.477  26.051  35.610  1.00  0.00     0.006 A 
ENDBRANCH  51  65
BRANCH  52  73
ATOM     73  C   UNL A   1      36.771  31.397  29.091  1.00  0.00     0.057 A 
ATOM     74  C   UNL A   1      36.785  32.736  28.686  1.00  0.00     0.134 A 
ATOM     75  C   UNL A   1      35.643  30.635  28.758  1.00  0.00     0.134 A 
ATOM     76  F   UNL A   1      37.829  33.521  28.988  1.00  0.00    -0.206 F 
ATOM     77  C   UNL A   1      35.712  33.303  27.996  1.00  0.00     0.040 A 
ATOM     78  C   UNL A   1      34.574  31.181  28.047  1.00  0.00     0.040 A 
ATOM     79  F   UNL A   1      35.571  29.343  29.110  1.00  0.00    -0.206 F 
ATOM     80  C   UNL A   1      34.604  32.522  27.669  1.00  0.00     0.006 A 
ENDBRANCH  52  73
BRANCH  64  81
ATOM     81  C   UNL A   1      39.093  32.081  35.622  1.00  0.00     0.057 A 
ATOM     82  C   UNL A   1      38.243  31.573  36.611  1.00  0.00     0.134 A 
ATOM     83  C   UNL A   1      39.535  33.403  35.760  1.00  0.00     0.134 A 
ATOM     84  F   UNL A   1      37.775  30.318  36.526  1.00  0.00    -0.206 F 
ATOM     85  C   UNL A   1      37.828  32.358  37.686  1.00  0.00     0.040 A 
ATOM     86  C   UNL A   1      39.149  34.190  36.846  1.00  0.00     0.040 A 
ATOM     87  F   UNL A   1      40.360  33.945  34.851  1.00  0.00    -0.206 F 
ATOM     88  C   UNL A   1      38.287  33.669  37.809  1.00  0.00     0.006 A 
ENDBRANCH  64  81
ENDBRANCH  38  39
ENDBRANCH  31  33
ENDBRANCH  30  31
ENDBRANCH  29  30
ENDBRANCH  28  29
ENDBRANCH  27  28
ENDBRANCH   1  27
TORSDOF 20
ENDMDL
MODEL 2
REMARK VINA RESULT:     -10.6      0.895      1.735
REMARK SMILES COCc1cc(OCC(=O)OCCOCCOC(=O)c2ccc(-c3c4nc(c(-c5c(F)cccc5F)c5ccc([nH]5)c(-c5c(F)cccc5F)c5nc(c(-c6c(F)cccc6F)c6ccc3[nH]6)C=C5)C=C4)cc2)nc(Nc2cccc(C)c2C)n1
REMARK SMILES IDX 13 1 12 2 11 3 9 4 10 5 8 6 7 7 6 8 4 9 5 10 85 11 75 12
REMARK SMILES IDX 74 13 3 14 2 15 1 16 76 17 77 19 78 20 83 21 79 22 81 23
REMARK SMILES IDX 84 24 80 25 82 26 14 27 15 28 16 29 17 30 18 31 19 32 20 33
REMARK SMILES IDX 21 34 73 35 22 36 72 37 23 38 24 39 25 40 66 41 26 42 71 43
REMARK SMILES IDX 65 44 67 45 27 46 70 47 64 48 63 49 28 51 54 52 37 53 53 54
REMARK SMILES IDX 38 55 41 56 52 57 68 58 39 59 40 60 51 62 69 63 42 64 29 65
REMARK SMILES IDX 30 66 35 67 31 68 32 69 34 70 36 71 33 72 55 73 56 74 61 75
REMARK SMILES IDX 57 76 58 77 60 78 62 79 59 80 43 81 44 82 49 83 45 84 46 85
REMARK SMILES IDX 48 86 50 87 47 88
REMARK H PARENT 76 18 67 50 41 61
REMARK Flexibility Score: inf
ROOT
ATOM      1  C   UNL A   1      41.727  20.704  26.594  1.00  0.00     0.202 C 
ENDROOT
BRANCH   1   2
ATOM      2  C   UNL A   1      40.460  21.321  27.204  1.00  0.00     0.261 C 
BRANCH   2   3
ATOM      3  O   UNL A   1      39.779  22.219  26.301  1.00  0.00    -0.461 OA
BRANCH   3   4
ATOM      4  C   UNL A   1      38.642  21.739  25.723  1.00  0.00     0.344 C 
ATOM      5  O   UNL A   1      38.483  20.580  25.350  1.00  0.00    -0.248 OA
BRANCH   4   6
ATOM      6  C   UNL A   1      37.553  22.798  25.548  1.00  0.00     0.353 C 
BRANCH   6   7
ATOM      7  O   UNL A   1      36.788  22.809  24.361  1.00  0.00    -0.466 OA
BRANCH   7   8
ATOM      8  C   UNL A   1      35.502  22.359  24.359  1.00  0.00     0.219 A 
ATOM      9  C   UNL A   1      33.717  20.927  24.885  1.00  0.00     0.076 A 
ATOM     10  C   UNL A   1      35.084  21.103  24.751  1.00  0.00     0.095 A 
ATOM     11  N   UNL A   1      32.855  21.906  24.567  1.00  0.00    -0.215 NA
ATOM     12  C   UNL A   1      33.333  23.079  24.139  1.00  0.00     0.230 A 
ATOM     13  N   UNL A   1      34.639  23.335  24.027  1.00  0.00    -0.177 NA
BRANCH   9  14
ATOM     14  C   UNL A   1      33.170  19.689  25.582  1.00  0.00     0.216 C 
BRANCH  14  15
ATOM     15  O   UNL A   1      32.086  19.016  24.934  1.00  0.00    -0.378 OA
ATOM     16  C   UNL A   1      32.397  18.534  23.631  1.00  0.00     0.195 C 
ENDBRANCH  14  15
ENDBRANCH   9  14
BRANCH  12  17
ATOM     17  N   UNL A   1      32.448  24.115  23.862  1.00  0.00    -0.324 N 
ATOM     18  H   UNL A   1      31.735  23.924  23.211  1.00  0.00     0.170 HD
BRANCH  17  19
ATOM     19  C   UNL A   1      32.468  25.404  24.412  1.00  0.00     0.044 A 
ATOM     20  C   UNL A   1      31.995  25.564  25.722  1.00  0.00     0.026 A 
ATOM     21  C   UNL A   1      32.896  26.539  23.682  1.00  0.00    -0.025 A 
ATOM     22  C   UNL A   1      32.032  26.806  26.347  1.00  0.00     0.002 A 
ATOM     23  C   UNL A   1      32.965  27.794  24.332  1.00  0.00    -0.046 A 
ATOM     24  C   UNL A   1      33.286  26.427  22.228  1.00  0.00     0.047 C 
ATOM     25  C   UNL A   1      32.531  27.909  25.663  1.00  0.00     0.004 A 
ATOM     26  C   UNL A   1      33.509  29.039  23.679  1.00  0.00     0.044 C 
ENDBRANCH  17  19
ENDBRANCH  12  17
ENDBRANCH   7   8
ENDBRANCH   6   7
ENDBRANCH   4   6
ENDBRANCH   3   4
ENDBRANCH   2   3
ENDBRANCH   1   2
BRANCH   1  27
ATOM     27  O   UNL A   1      42.341  21.424  25.524  1.00  0.00    -0.374 OA
BRANCH  27  28
ATOM     28  C   UNL A   1      43.751  21.297  25.382  1.00  0.00     0.202 C 
BRANCH  28  29
ATOM     29  C   UNL A   1      44.470  22.413  24.621  1.00  0.00     0.261 C 
BRANCH  29  30
ATOM     30  O   UNL A   1      43.729  23.630  24.599  1.00  0.00    -0.460 OA
BRANCH  30  31
ATOM     31  C   UNL A   1      44.426  24.695  25.042  1.00  0.00     0.338 C 
ATOM     32  O   UNL A   1      45.538  25.069  24.695  1.00  0.00    -0.246 OA
BRANCH  31  33
ATOM     33  C   UNL A   1      43.576  25.474  25.939  1.00  0.00     0.060 A 
ATOM     34  C   UNL A   1      43.881  26.829  26.087  1.00  0.00     0.016 A 
ATOM     35  C   UNL A   1      42.557  24.866  26.676  1.00  0.00     0.016 A 
ATOM     36  C   UNL A   1      43.204  27.578  27.039  1.00  0.00     0.010 A 
ATOM     37  C   UNL A   1      41.879  25.619  27.632  1.00  0.00     0.010 A 
ATOM     38  C   UNL A   1      42.236  26.962  27.843  1.00  0.00    -0.014 A 
BRANCH  38  39
ATOM     39  C   UNL A   1      41.721  27.698  29.014  1.00  0.00     0.031 A 
ATOM     40  C   UNL A   1      42.457  27.580  30.317  1.00  0.00     0.074 A 
ATOM     41  C   UNL A   1      40.652  28.500  28.883  1.00  0.00     0.049 A 
ATOM     42  N   UNL A   1      42.213  28.162  31.461  1.00  0.00    -0.248 NA
ATOM     43  C   UNL A   1      43.629  26.687  30.331  1.00  0.00     0.031 C 
ATOM     44  C   UNL A   1      39.894  28.697  27.649  1.00  0.00     0.029 A 
ATOM     45  N   UNL A   1      40.027  29.304  29.798  1.00  0.00    -0.354 N 
ATOM     46  C   UNL A   1      43.200  27.712  32.328  1.00  0.00     0.074 A 
ATOM     47  C   UNL A   1      44.023  26.777  31.593  1.00  0.00     0.031 C 
ATOM     48  C   UNL A   1      38.898  29.570  27.885  1.00  0.00     0.029 A 
ATOM     49  C   UNL A   1      38.940  29.969  29.288  1.00  0.00     0.049 A 
ATOM     50  H   UNL A   1      40.328  29.395  30.731  1.00  0.00     0.167 HD
ATOM     51  C   UNL A   1      43.407  28.062  33.619  1.00  0.00     0.037 A 
ATOM     52  C   UNL A   1      38.075  30.798  29.900  1.00  0.00     0.037 A 
ATOM     53  C   UNL A   1      42.572  28.987  34.337  1.00  0.00     0.049 A 
ATOM     54  C   UNL A   1      38.293  31.125  31.352  1.00  0.00     0.074 A 
ATOM     55  C   UNL A   1      42.684  29.416  35.647  1.00  0.00     0.029 A 
ATOM     56  N   UNL A   1      41.462  29.620  33.798  1.00  0.00    -0.354 N 
ATOM     57  N   UNL A   1      39.245  30.718  32.157  1.00  0.00    -0.248 NA
ATOM     58  C   UNL A   1      37.323  32.033  31.978  1.00  0.00     0.031 C 
ATOM     59  C   UNL A   1      41.615  30.279  35.912  1.00  0.00     0.029 A 
ATOM     60  C   UNL A   1      40.865  30.424  34.754  1.00  0.00     0.049 A 
ATOM     61  H   UNL A   1      41.144  29.514  32.873  1.00  0.00     0.167 HD
ATOM     62  C   UNL A   1      39.004  31.335  33.377  1.00  0.00     0.074 A 
ATOM     63  C   UNL A   1      37.824  32.157  33.199  1.00  0.00     0.031 C 
ATOM     64  C   UNL A   1      39.693  31.233  34.541  1.00  0.00     0.037 A 
BRANCH  51  65
ATOM     65  C   UNL A   1      44.565  27.423  34.330  1.00  0.00     0.057 A 
ATOM     66  C   UNL A   1      45.841  28.004  34.334  1.00  0.00     0.134 A 
ATOM     67  C   UNL A   1      44.401  26.220  35.027  1.00  0.00     0.134 A 
ATOM     68  F   UNL A   1      46.069  29.147  33.670  1.00  0.00    -0.206 F 
ATOM     69  C   UNL A   1      46.916  27.399  34.987  1.00  0.00     0.040 A 
ATOM     70  C   UNL A   1      45.464  25.618  35.703  1.00  0.00     0.040 A 
ATOM     71  F   UNL A   1      43.207  25.611  35.063  1.00  0.00    -0.206 F 
ATOM     72  C   UNL A   1      46.727  26.205  35.679  1.00  0.00     0.006 A 
ENDBRANCH  51  65
BRANCH  52  73
ATOM     73  C   UNL A   1      36.933  31.370  29.144  1.00  0.00     0.057 A 
ATOM     74  C   UNL A   1      35.794  30.609  28.857  1.00  0.00     0.134 A 
ATOM     75  C   UNL A   1      36.955  32.694  28.688  1.00  0.00     0.134 A 
ATOM     76  F   UNL A   1      35.720  29.330  29.253  1.00  0.00    -0.206 F 
ATOM     77  C   UNL A   1      34.728  31.136  28.128  1.00  0.00     0.040 A 
ATOM     78  C   UNL A   1      35.885  33.242  27.980  1.00  0.00     0.040 A 
ATOM     79  F   UNL A   1      38.014  33.478  28.937  1.00  0.00    -0.206 F 
ATOM     80  C   UNL A   1      34.769  32.460  27.692  1.00  0.00     0.006 A 
ENDBRANCH  52  73
BRANCH  64  81
ATOM     81  C   UNL A   1      39.199  32.054  35.696  1.00  0.00     0.057 A 
ATOM     82  C   UNL A   1      39.580  33.390  35.867  1.00  0.00     0.134 A 
ATOM     83  C   UNL A   1      38.300  31.509  36.621  1.00  0.00     0.134 A 
ATOM     84  F   UNL A   1      40.450  33.963  35.020  1.00  0.00    -0.206 F 
ATOM     85  C   UNL A   1      39.102  34.150  36.934  1.00  0.00     0.040 A 
ATOM     86  C   UNL A   1      37.794  32.268  37.676  1.00  0.00     0.040 A 
ATOM     87  F   UNL A   1      37.888  30.237  36.505  1.00  0.00    -0.206 F 
ATOM     88  C   UNL A   1      38.201  33.591  37.839  1.00  0.00     0.006 A 
ENDBRANCH  64  81
ENDBRANCH  38  39
ENDBRANCH  31  33
ENDBRANCH  30  31
ENDBRANCH  29  30
ENDBRANCH  28  29
ENDBRANCH  27  28
ENDBRANCH   1  27
TORSDOF 20
ENDMDL
MODEL 3
REMARK VINA RESULT:     -10.3      3.949      6.765
REMARK SMILES COCc1cc(OCC(=O)OCCOCCOC(=O)c2ccc(-c3c4nc(c(-c5c(F)cccc5F)c5ccc([nH]5)c(-c5c(F)cccc5F)c5nc(c(-c6c(F)cccc6F)c6ccc3[nH]6)C=C5)C=C4)cc2)nc(Nc2cccc(C)c2C)n1
REMARK SMILES IDX 13 1 12 2 11 3 9 4 10 5 8 6 7 7 6 8 4 9 5 10 85 11 75 12
REMARK SMILES IDX 74 13 3 14 2 15 1 16 76 17 77 19 78 20 83 21 79 22 81 23
REMARK SMILES IDX 84 24 80 25 82 26 14 27 15 28 16 29 17 30 18 31 19 32 20 33
REMARK SMILES IDX 21 34 73 35 22 36 72 37 23 38 24 39 25 40 66 41 26 42 71 43
REMARK SMILES IDX 65 44 67 45 27 46 70 47 64 48 63 49 28 51 54 52 37 53 53 54
REMARK SMILES IDX 38 55 41 56 52 57 68 58 39 59 40 60 51 62 69 63 42 64 29 65
REMARK SMILES IDX 30 66 35 67 31 68 32 69 34 70 36 71 33 72 55 73 56 74 61 75
REMARK SMILES IDX 57 76 58 77 60 78 62 79 59 80 43 81 44 82 49 83 45 84 46 85
REMARK SMILES IDX 48 86 50 87 47 88
REMARK H PARENT 76 18 67 50 41 61
REMARK Flexibility Score: inf
ROOT
ATOM      1  C   UNL A   1      34.582  22.054  25.626  1.00  0.00     0.202 C 
ENDROOT
BRANCH   1   2
ATOM      2  C   UNL A   1      33.229  22.706  25.310  1.00  0.00     0.261 C 
BRANCH   2   3
ATOM      3  O   UNL A   1      32.417  22.920  26.484  1.00  0.00    -0.461 OA
BRANCH   3   4
ATOM      4  C   UNL A   1      31.405  23.825  26.356  1.00  0.00     0.344 C 
ATOM      5  O   UNL A   1      30.535  24.026  27.198  1.00  0.00    -0.248 OA
BRANCH   4   6
ATOM      6  C   UNL A   1      31.427  24.578  25.026  1.00  0.00     0.353 C 
BRANCH   6   7
ATOM      7  O   UNL A   1      30.427  25.540  24.763  1.00  0.00    -0.466 OA
BRANCH   7   8
ATOM      8  C   UNL A   1      30.760  26.834  24.499  1.00  0.00     0.219 A 
ATOM      9  C   UNL A   1      30.792  28.852  23.298  1.00  0.00     0.076 A 
ATOM     10  C   UNL A   1      30.600  27.480  23.290  1.00  0.00     0.095 A 
ATOM     11  N   UNL A   1      31.193  29.491  24.408  1.00  0.00    -0.215 NA
ATOM     12  C   UNL A   1      31.383  28.790  25.531  1.00  0.00     0.230 A 
ATOM     13  N   UNL A   1      31.174  27.472  25.608  1.00  0.00    -0.177 NA
BRANCH   9  14
ATOM     14  C   UNL A   1      30.363  29.692  22.103  1.00  0.00     0.216 C 
BRANCH  14  15
ATOM     15  O   UNL A   1      28.994  29.580  21.700  1.00  0.00    -0.378 OA
ATOM     16  C   UNL A   1      28.066  30.118  22.637  1.00  0.00     0.195 C 
ENDBRANCH  14  15
ENDBRANCH   9  14
BRANCH  12  17
ATOM     17  N   UNL A   1      31.743  29.453  26.698  1.00  0.00    -0.324 N 
ATOM     18  H   UNL A   1      31.014  29.677  27.321  1.00  0.00     0.170 HD
BRANCH  17  19
ATOM     19  C   UNL A   1      33.035  29.839  27.079  1.00  0.00     0.044 A 
ATOM     20  C   UNL A   1      34.001  28.834  27.229  1.00  0.00     0.026 A 
ATOM     21  C   UNL A   1      33.378  31.184  27.360  1.00  0.00    -0.025 A 
ATOM     22  C   UNL A   1      35.315  29.151  27.556  1.00  0.00     0.002 A 
ATOM     23  C   UNL A   1      34.724  31.507  27.658  1.00  0.00    -0.046 A 
ATOM     24  C   UNL A   1      32.334  32.274  27.339  1.00  0.00     0.047 C 
ATOM     25  C   UNL A   1      35.677  30.480  27.751  1.00  0.00     0.004 A 
ATOM     26  C   UNL A   1      35.213  32.917  27.866  1.00  0.00     0.044 C 
ENDBRANCH  17  19
ENDBRANCH  12  17
ENDBRANCH   7   8
ENDBRANCH   6   7
ENDBRANCH   4   6
ENDBRANCH   3   4
ENDBRANCH   2   3
ENDBRANCH   1   2
BRANCH   1  27
ATOM     27  O   UNL A   1      35.750  22.743  25.173  1.00  0.00    -0.374 OA
BRANCH  27  28
ATOM     28  C   UNL A   1      36.547  22.092  24.192  1.00  0.00     0.202 C 
BRANCH  28  29
ATOM     29  C   UNL A   1      37.645  21.158  24.705  1.00  0.00     0.261 C 
BRANCH  29  30
ATOM     30  O   UNL A   1      38.033  21.450  26.045  1.00  0.00    -0.460 OA
BRANCH  30  31
ATOM     31  C   UNL A   1      39.364  21.382  26.249  1.00  0.00     0.338 C 
ATOM     32  O   UNL A   1      40.144  20.519  25.872  1.00  0.00    -0.246 OA
BRANCH  31  33
ATOM     33  C   UNL A   1      39.805  22.617  26.892  1.00  0.00     0.060 A 
ATOM     34  C   UNL A   1      39.182  23.801  26.490  1.00  0.00     0.016 A 
ATOM     35  C   UNL A   1      40.860  22.616  27.808  1.00  0.00     0.016 A 
ATOM     36  C   UNL A   1      39.666  25.015  26.957  1.00  0.00     0.010 A 
ATOM     37  C   UNL A   1      41.345  23.836  28.274  1.00  0.00     0.010 A 
ATOM     38  C   UNL A   1      40.776  25.035  27.812  1.00  0.00    -0.014 A 
BRANCH  38  39
ATOM     39  C   UNL A   1      41.433  26.328  28.082  1.00  0.00     0.031 A 
ATOM     40  C   UNL A   1      42.828  26.547  27.571  1.00  0.00     0.074 A 
ATOM     41  C   UNL A   1      40.760  27.301  28.719  1.00  0.00     0.049 A 
ATOM     42  N   UNL A   1      43.583  27.609  27.655  1.00  0.00    -0.248 NA
ATOM     43  C   UNL A   1      43.454  25.415  26.867  1.00  0.00     0.031 C 
ATOM     44  C   UNL A   1      39.394  27.186  29.225  1.00  0.00     0.029 A 
ATOM     45  N   UNL A   1      41.136  28.577  29.042  1.00  0.00    -0.354 N 
ATOM     46  C   UNL A   1      44.769  27.278  27.013  1.00  0.00     0.074 A 
ATOM     47  C   UNL A   1      44.652  25.903  26.579  1.00  0.00     0.031 C 
ATOM     48  C   UNL A   1      39.043  28.350  29.798  1.00  0.00     0.029 A 
ATOM     49  C   UNL A   1      40.168  29.276  29.718  1.00  0.00     0.049 A 
ATOM     50  H   UNL A   1      42.014  28.956  28.810  1.00  0.00     0.167 HD
ATOM     51  C   UNL A   1      45.852  28.059  26.793  1.00  0.00     0.037 A 
ATOM     52  C   UNL A   1      40.203  30.524  30.222  1.00  0.00     0.037 A 
ATOM     53  C   UNL A   1      45.955  29.422  27.240  1.00  0.00     0.049 A 
ATOM     54  C   UNL A   1      41.442  31.351  30.015  1.00  0.00     0.074 A 
ATOM     55  C   UNL A   1      47.002  30.310  27.076  1.00  0.00     0.029 A 
ATOM     56  N   UNL A   1      44.966  30.090  27.948  1.00  0.00    -0.354 N 
ATOM     57  N   UNL A   1      42.548  31.040  29.382  1.00  0.00    -0.248 NA
ATOM     58  C   UNL A   1      41.435  32.705  30.585  1.00  0.00     0.031 C 
ATOM     59  C   UNL A   1      46.663  31.503  27.722  1.00  0.00     0.029 A 
ATOM     60  C   UNL A   1      45.386  31.375  28.248  1.00  0.00     0.049 A 
ATOM     61  H   UNL A   1      44.096  29.708  28.201  1.00  0.00     0.167 HD
ATOM     62  C   UNL A   1      43.359  32.164  29.456  1.00  0.00     0.074 A 
ATOM     63  C   UNL A   1      42.610  33.169  30.182  1.00  0.00     0.031 C 
ATOM     64  C   UNL A   1      44.612  32.351  28.969  1.00  0.00     0.037 A 
BRANCH  51  65
ATOM     65  C   UNL A   1      47.008  27.445  26.058  1.00  0.00     0.057 A 
ATOM     66  C   UNL A   1      47.094  27.475  24.659  1.00  0.00     0.134 A 
ATOM     67  C   UNL A   1      48.052  26.825  26.755  1.00  0.00     0.134 A 
ATOM     68  F   UNL A   1      46.119  28.037  23.930  1.00  0.00    -0.206 F 
ATOM     69  C   UNL A   1      48.166  26.892  23.981  1.00  0.00     0.040 A 
ATOM     70  C   UNL A   1      49.140  26.259  26.089  1.00  0.00     0.040 A 
ATOM     71  F   UNL A   1      48.031  26.761  28.095  1.00  0.00    -0.206 F 
ATOM     72  C   UNL A   1      49.196  26.286  24.697  1.00  0.00     0.006 A 
ENDBRANCH  51  65
BRANCH  52  73
ATOM     73  C   UNL A   1      39.035  31.057  30.966  1.00  0.00     0.057 A 
ATOM     74  C   UNL A   1      38.088  31.879  30.345  1.00  0.00     0.134 A 
ATOM     75  C   UNL A   1      38.839  30.757  32.320  1.00  0.00     0.134 A 
ATOM     76  F   UNL A   1      38.229  32.216  29.055  1.00  0.00    -0.206 F 
ATOM     77  C   UNL A   1      37.001  32.400  31.047  1.00  0.00     0.040 A 
ATOM     78  C   UNL A   1      37.742  31.250  33.028  1.00  0.00     0.040 A 
ATOM     79  F   UNL A   1      39.706  29.967  32.971  1.00  0.00    -0.206 F 
ATOM     80  C   UNL A   1      36.822  32.080  32.393  1.00  0.00     0.006 A 
ENDBRANCH  52  73
BRANCH  64  81
ATOM     81  C   UNL A   1      45.228  33.702  29.185  1.00  0.00     0.057 A 
ATOM     82  C   UNL A   1      46.025  33.978  30.302  1.00  0.00     0.134 A 
ATOM     83  C   UNL A   1      45.053  34.721  28.241  1.00  0.00     0.134 A 
ATOM     84  F   UNL A   1      46.218  33.045  31.247  1.00  0.00    -0.206 F 
ATOM     85  C   UNL A   1      46.609  35.231  30.485  1.00  0.00     0.040 A 
ATOM     86  C   UNL A   1      45.655  35.970  28.400  1.00  0.00     0.040 A 
ATOM     87  F   UNL A   1      44.310  34.515  27.144  1.00  0.00    -0.206 F 
ATOM     88  C   UNL A   1      46.429  36.230  29.529  1.00  0.00     0.006 A 
ENDBRANCH  64  81
ENDBRANCH  38  39
ENDBRANCH  31  33
ENDBRANCH  30  31
ENDBRANCH  29  30
ENDBRANCH  28  29
ENDBRANCH  27  28
ENDBRANCH   1  27
TORSDOF 20
ENDMDL
