MODEL 1
REMARK VINA RESULT:     -11.0      0.000      0.000
REMARK SMILES O=C(OCCOCCOC(=O)c1ccc(-c2c3nc(c(-c4c(F)cccc4F)c4ccc([nH]4)c(-c4c(F)cccc4F)c4nc(c(-c5c(F)cccc5F)c5ccc2[nH]5)C=C4)C=C3)cc1)C1=C[C@H]2C=C[C@@H]1[C@@H]1C=C[C@H]21
REMARK SMILES IDX 7 1 6 2 5 3 4 4 3 5 2 6 1 7 66 8 67 9 71 10 68 11 70 12
REMARK SMILES IDX 72 13 69 14 75 15 73 16 74 17 8 18 9 19 10 20 11 21 12 22
REMARK SMILES IDX 13 23 65 24 14 25 64 26 15 27 16 28 17 29 58 30 18 31 63 32
REMARK SMILES IDX 57 33 59 34 19 35 62 36 56 37 55 38 20 40 46 41 29 42 45 43
REMARK SMILES IDX 30 44 33 45 44 46 60 47 31 48 32 49 43 51 61 52 34 53 21 54
REMARK SMILES IDX 22 55 27 56 23 57 24 58 26 59 28 60 25 61 47 62 48 63 53 64
REMARK SMILES IDX 49 65 50 66 52 67 54 68 51 69 35 70 36 71 41 72 37 73 38 74
REMARK SMILES IDX 40 75 42 76 39 77
REMARK H PARENT 59 39 33 50
REMARK Flexibility Score: inf
ROOT
ATOM      1  C   UNL A   1      42.820  20.759  26.015  1.00  0.00     0.202 C 
ENDROOT
BRANCH   1   2
ATOM      2  O   UNL A   1      41.497  21.113  25.608  1.00  0.00    -0.374 OA
BRANCH   2   3
ATOM      3  C   UNL A   1      40.528  21.186  26.655  1.00  0.00     0.202 C 
BRANCH   3   4
ATOM      4  C   UNL A   1      39.222  21.846  26.208  1.00  0.00     0.261 C 
BRANCH   4   5
ATOM      5  O   UNL A   1      38.677  21.189  25.045  1.00  0.00    -0.460 OA
BRANCH   5   6
ATOM      6  C   UNL A   1      37.386  20.815  24.906  1.00  0.00     0.334 C 
ATOM      7  O   UNL A   1      37.048  19.639  24.979  1.00  0.00    -0.247 OA
BRANCH   6   8
ATOM      8  C   UNL A   1      36.401  21.827  24.521  1.00  0.00     0.041 C 
ATOM      9  C   UNL A   1      36.579  22.922  23.744  1.00  0.00    -0.007 C 
ATOM     10  C   UNL A   1      35.064  21.788  25.236  1.00  0.00     0.056 C 
ATOM     11  C   UNL A   1      35.333  23.839  23.673  1.00  0.00     0.042 C 
ATOM     12  C   UNL A   1      33.980  21.914  24.155  1.00  0.00    -0.022 C 
ATOM     13  C   UNL A   1      35.098  23.087  26.092  1.00  0.00     0.031 C 
ATOM     14  C   UNL A   1      34.147  22.955  23.314  1.00  0.00    -0.022 C 
ATOM     15  C   UNL A   1      35.091  24.331  25.145  1.00  0.00     0.030 C 
ATOM     16  C   UNL A   1      33.807  23.622  26.666  1.00  0.00    -0.026 C 
ATOM     17  C   UNL A   1      33.671  24.557  25.702  1.00  0.00    -0.026 C 
ENDBRANCH   6   8
ENDBRANCH   5   6
ENDBRANCH   4   5
ENDBRANCH   3   4
ENDBRANCH   2   3
ENDBRANCH   1   2
BRANCH   1  18
ATOM     18  C   UNL A   1      43.830  21.892  25.882  1.00  0.00     0.261 C 
BRANCH  18  19
ATOM     19  O   UNL A   1      43.218  23.016  25.264  1.00  0.00    -0.460 OA
BRANCH  19  20
ATOM     20  C   UNL A   1      43.966  24.143  25.281  1.00  0.00     0.338 C 
ATOM     21  O   UNL A   1      44.914  24.430  24.578  1.00  0.00    -0.246 OA
BRANCH  20  22
ATOM     22  C   UNL A   1      43.310  25.076  26.207  1.00  0.00     0.060 A 
ATOM     23  C   UNL A   1      43.827  26.371  26.307  1.00  0.00     0.016 A 
ATOM     24  C   UNL A   1      42.190  24.682  26.948  1.00  0.00     0.016 A 
ATOM     25  C   UNL A   1      43.252  27.269  27.195  1.00  0.00     0.010 A 
ATOM     26  C   UNL A   1      41.609  25.583  27.827  1.00  0.00     0.010 A 
ATOM     27  C   UNL A   1      42.168  26.860  27.982  1.00  0.00    -0.014 A 
BRANCH  27  28
ATOM     28  C   UNL A   1      41.712  27.705  29.097  1.00  0.00     0.031 A 
ATOM     29  C   UNL A   1      42.439  27.602  30.405  1.00  0.00     0.074 A 
ATOM     30  C   UNL A   1      40.663  28.525  28.933  1.00  0.00     0.049 A 
ATOM     31  N   UNL A   1      42.180  28.187  31.544  1.00  0.00    -0.248 NA
ATOM     32  C   UNL A   1      43.610  26.709  30.437  1.00  0.00     0.031 C 
ATOM     33  C   UNL A   1      39.907  28.693  27.693  1.00  0.00     0.029 A 
ATOM     34  N   UNL A   1      40.047  29.360  29.824  1.00  0.00    -0.354 N 
ATOM     35  C   UNL A   1      43.147  27.725  32.427  1.00  0.00     0.074 A 
ATOM     36  C   UNL A   1      43.973  26.782  31.708  1.00  0.00     0.031 C 
ATOM     37  C   UNL A   1      38.916  29.576  27.904  1.00  0.00     0.029 A 
ATOM     38  C   UNL A   1      38.953  30.003  29.301  1.00  0.00     0.049 A 
ATOM     39  H   UNL A   1      40.357  29.488  30.750  1.00  0.00     0.167 HD
ATOM     40  C   UNL A   1      43.332  28.073  33.720  1.00  0.00     0.037 A 
ATOM     41  C   UNL A   1      38.073  30.825  29.900  1.00  0.00     0.037 A 
ATOM     42  C   UNL A   1      42.497  29.014  34.415  1.00  0.00     0.049 A 
ATOM     43  C   UNL A   1      38.271  31.154  31.356  1.00  0.00     0.074 A 
ATOM     44  C   UNL A   1      42.601  29.465  35.719  1.00  0.00     0.029 A 
ATOM     45  N   UNL A   1      41.392  29.644  33.858  1.00  0.00    -0.354 N 
ATOM     46  N   UNL A   1      39.211  30.748  32.178  1.00  0.00    -0.248 NA
ATOM     47  C   UNL A   1      37.290  32.060  31.967  1.00  0.00     0.031 C 
ATOM     48  C   UNL A   1      41.529  30.327  35.965  1.00  0.00     0.029 A 
ATOM     49  C   UNL A   1      40.791  30.462  34.799  1.00  0.00     0.049 A 
ATOM     50  H   UNL A   1      41.082  29.528  32.931  1.00  0.00     0.167 HD
ATOM     51  C   UNL A   1      38.953  31.371  33.392  1.00  0.00     0.074 A 
ATOM     52  C   UNL A   1      37.777  32.195  33.192  1.00  0.00     0.031 C 
ATOM     53  C   UNL A   1      39.623  31.275  34.566  1.00  0.00     0.037 A 
BRANCH  40  54
ATOM     54  C   UNL A   1      44.462  27.420  34.461  1.00  0.00     0.057 A 
ATOM     55  C   UNL A   1      45.732  28.005  34.544  1.00  0.00     0.134 A 
ATOM     56  C   UNL A   1      44.270  26.199  35.120  1.00  0.00     0.134 A 
ATOM     57  F   UNL A   1      45.990  29.164  33.919  1.00  0.00    -0.206 F 
ATOM     58  C   UNL A   1      46.777  27.390  35.238  1.00  0.00     0.040 A 
ATOM     59  C   UNL A   1      45.298  25.589  35.840  1.00  0.00     0.040 A 
ATOM     60  F   UNL A   1      43.080  25.581  35.079  1.00  0.00    -0.206 F 
ATOM     61  C   UNL A   1      46.557  26.181  35.895  1.00  0.00     0.006 A 
ENDBRANCH  40  54
BRANCH  41  62
ATOM     62  C   UNL A   1      36.934  31.386  29.133  1.00  0.00     0.057 A 
ATOM     63  C   UNL A   1      36.955  32.705  28.667  1.00  0.00     0.134 A 
ATOM     64  C   UNL A   1      35.794  30.622  28.854  1.00  0.00     0.134 A 
ATOM     65  F   UNL A   1      38.013  33.491  28.915  1.00  0.00    -0.206 F 
ATOM     66  C   UNL A   1      35.875  33.253  27.973  1.00  0.00     0.040 A 
ATOM     67  C   UNL A   1      34.718  31.148  28.138  1.00  0.00     0.040 A 
ATOM     68  F   UNL A   1      35.714  29.347  29.266  1.00  0.00    -0.206 F 
ATOM     69  C   UNL A   1      34.753  32.470  27.703  1.00  0.00     0.006 A 
ENDBRANCH  41  62
BRANCH  53  70
ATOM     70  C   UNL A   1      39.123  32.112  35.707  1.00  0.00     0.057 A 
ATOM     71  C   UNL A   1      38.255  31.598  36.678  1.00  0.00     0.134 A 
ATOM     72  C   UNL A   1      39.548  33.439  35.854  1.00  0.00     0.134 A 
ATOM     73  F   UNL A   1      37.803  30.338  36.589  1.00  0.00    -0.206 F 
ATOM     74  C   UNL A   1      37.803  32.384  37.739  1.00  0.00     0.040 A 
ATOM     75  C   UNL A   1      39.128  34.224  36.927  1.00  0.00     0.040 A 
ATOM     76  F   UNL A   1      40.389  33.987  34.965  1.00  0.00    -0.206 F 
ATOM     77  C   UNL A   1      38.246  33.700  37.870  1.00  0.00     0.006 A 
ENDBRANCH  53  70
ENDBRANCH  27  28
ENDBRANCH  20  22
ENDBRANCH  19  20
ENDBRANCH  18  19
ENDBRANCH   1  18
TORSDOF 14
ENDMDL
MODEL 2
REMARK VINA RESULT:     -11.0      5.194     10.129
REMARK SMILES O=C(OCCOCCOC(=O)c1ccc(-c2c3nc(c(-c4c(F)cccc4F)c4ccc([nH]4)c(-c4c(F)cccc4F)c4nc(c(-c5c(F)cccc5F)c5ccc2[nH]5)C=C4)C=C3)cc1)C1=C[C@H]2C=C[C@@H]1[C@@H]1C=C[C@H]21
REMARK SMILES IDX 7 1 6 2 5 3 4 4 3 5 2 6 1 7 66 8 67 9 71 10 68 11 70 12
REMARK SMILES IDX 72 13 69 14 75 15 73 16 74 17 8 18 9 19 10 20 11 21 12 22
REMARK SMILES IDX 13 23 65 24 14 25 64 26 15 27 16 28 17 29 58 30 18 31 63 32
REMARK SMILES IDX 57 33 59 34 19 35 62 36 56 37 55 38 20 40 46 41 29 42 45 43
REMARK SMILES IDX 30 44 33 45 44 46 60 47 31 48 32 49 43 51 61 52 34 53 21 54
REMARK SMILES IDX 22 55 27 56 23 57 24 58 26 59 28 60 25 61 47 62 48 63 53 64
REMARK SMILES IDX 49 65 50 66 52 67 54 68 51 69 35 70 36 71 41 72 37 73 38 74
REMARK SMILES IDX 40 75 42 76 39 77
REMARK H PARENT 59 39 33 50
REMARK Flexibility Score: inf
ROOT
ATOM      1  C   UNL A   1      34.091  34.268  30.072  1.00  0.00     0.202 C 
ENDROOT
BRANCH   1   2
ATOM      2  O   UNL A   1      35.078  34.494  29.063  1.00  0.00    -0.374 OA
BRANCH   2   3
ATOM      3  C   UNL A   1      35.211  33.459  28.088  1.00  0.00     0.202 C 
BRANCH   3   4
ATOM      4  C   UNL A   1      33.955  32.593  27.970  1.00  0.00     0.261 C 
BRANCH   4   5
ATOM      5  O   UNL A   1      34.220  31.231  28.366  1.00  0.00    -0.460 OA
BRANCH   5   6
ATOM      6  C   UNL A   1      34.587  30.242  27.522  1.00  0.00     0.334 C 
ATOM      7  O   UNL A   1      35.763  30.052  27.229  1.00  0.00    -0.247 OA
BRANCH   6   8
ATOM      8  C   UNL A   1      33.542  29.478  26.839  1.00  0.00     0.041 C 
ATOM      9  C   UNL A   1      32.283  29.212  27.262  1.00  0.00    -0.007 C 
ATOM     10  C   UNL A   1      33.956  28.700  25.605  1.00  0.00     0.056 C 
ATOM     11  C   UNL A   1      31.507  28.251  26.328  1.00  0.00     0.042 C 
ATOM     12  C   UNL A   1      32.907  28.995  24.523  1.00  0.00    -0.022 C 
ATOM     13  C   UNL A   1      33.820  27.223  26.073  1.00  0.00     0.031 C 
ATOM     14  C   UNL A   1      31.631  28.805  24.915  1.00  0.00    -0.022 C 
ATOM     15  C   UNL A   1      32.314  26.904  26.349  1.00  0.00     0.030 C 
ATOM     16  C   UNL A   1      33.776  26.125  25.036  1.00  0.00    -0.026 C 
ATOM     17  C   UNL A   1      32.432  26.009  25.099  1.00  0.00    -0.026 C 
ENDBRANCH   6   8
ENDBRANCH   5   6
ENDBRANCH   4   5
ENDBRANCH   3   4
ENDBRANCH   2   3
ENDBRANCH   1   2
BRANCH   1  18
ATOM     18  C   UNL A   1      34.673  33.967  31.447  1.00  0.00     0.261 C 
BRANCH  18  19
ATOM     19  O   UNL A   1      34.924  32.573  31.572  1.00  0.00    -0.460 OA
BRANCH  19  20
ATOM     20  C   UNL A   1      35.836  32.249  32.517  1.00  0.00     0.338 C 
ATOM     21  O   UNL A   1      35.754  32.383  33.721  1.00  0.00    -0.246 OA
BRANCH  20  22
ATOM     22  C   UNL A   1      36.913  31.516  31.837  1.00  0.00     0.060 A 
ATOM     23  C   UNL A   1      37.888  30.902  32.628  1.00  0.00     0.016 A 
ATOM     24  C   UNL A   1      36.944  31.422  30.441  1.00  0.00     0.016 A 
ATOM     25  C   UNL A   1      38.937  30.229  32.018  1.00  0.00     0.010 A 
ATOM     26  C   UNL A   1      37.987  30.740  29.832  1.00  0.00     0.010 A 
ATOM     27  C   UNL A   1      39.005  30.183  30.620  1.00  0.00    -0.014 A 
BRANCH  27  28
ATOM     28  C   UNL A   1      40.229  29.699  29.962  1.00  0.00     0.031 A 
ATOM     29  C   UNL A   1      41.356  30.668  29.764  1.00  0.00     0.074 A 
ATOM     30  C   UNL A   1      40.307  28.427  29.542  1.00  0.00     0.049 A 
ATOM     31  N   UNL A   1      42.497  30.497  29.151  1.00  0.00    -0.248 NA
ATOM     32  C   UNL A   1      41.168  32.018  30.324  1.00  0.00     0.031 C 
ATOM     33  C   UNL A   1      39.262  27.417  29.702  1.00  0.00     0.029 A 
ATOM     34  N   UNL A   1      41.311  27.775  28.880  1.00  0.00    -0.354 N 
ATOM     35  C   UNL A   1      43.154  31.716  29.242  1.00  0.00     0.074 A 
ATOM     36  C   UNL A   1      42.272  32.631  29.931  1.00  0.00     0.031 C 
ATOM     37  C   UNL A   1      39.678  26.268  29.144  1.00  0.00     0.029 A 
ATOM     38  C   UNL A   1      41.000  26.478  28.560  1.00  0.00     0.049 A 
ATOM     39  H   UNL A   1      42.173  28.195  28.655  1.00  0.00     0.167 HD
ATOM     40  C   UNL A   1      44.392  32.034  28.800  1.00  0.00     0.037 A 
ATOM     41  C   UNL A   1      41.704  25.576  27.852  1.00  0.00     0.037 A 
ATOM     42  C   UNL A   1      45.251  31.106  28.116  1.00  0.00     0.049 A 
ATOM     43  C   UNL A   1      43.057  25.973  27.324  1.00  0.00     0.074 A 
ATOM     44  C   UNL A   1      46.535  31.306  27.642  1.00  0.00     0.029 A 
ATOM     45  N   UNL A   1      44.903  29.800  27.801  1.00  0.00    -0.354 N 
ATOM     46  N   UNL A   1      43.693  27.114  27.447  1.00  0.00    -0.248 NA
ATOM     47  C   UNL A   1      43.792  24.955  26.563  1.00  0.00     0.031 C 
ATOM     48  C   UNL A   1      46.943  30.136  26.995  1.00  0.00     0.029 A 
ATOM     49  C   UNL A   1      45.939  29.188  27.118  1.00  0.00     0.049 A 
ATOM     50  H   UNL A   1      44.047  29.371  28.030  1.00  0.00     0.167 HD
ATOM     51  C   UNL A   1      44.914  26.943  26.808  1.00  0.00     0.074 A 
ATOM     52  C   UNL A   1      44.933  25.581  26.312  1.00  0.00     0.031 C 
ATOM     53  C   UNL A   1      45.929  27.826  26.642  1.00  0.00     0.037 A 
BRANCH  40  54
ATOM     54  C   UNL A   1      44.871  33.438  29.025  1.00  0.00     0.057 A 
ATOM     55  C   UNL A   1      45.634  33.791  30.146  1.00  0.00     0.134 A 
ATOM     56  C   UNL A   1      44.586  34.446  28.096  1.00  0.00     0.134 A 
ATOM     57  F   UNL A   1      45.926  32.879  31.086  1.00  0.00    -0.206 F 
ATOM     58  C   UNL A   1      46.078  35.101  30.345  1.00  0.00     0.040 A 
ATOM     59  C   UNL A   1      45.048  35.751  28.269  1.00  0.00     0.040 A 
ATOM     60  F   UNL A   1      43.858  34.179  27.002  1.00  0.00    -0.206 F 
ATOM     61  C   UNL A   1      45.791  36.083  29.400  1.00  0.00     0.006 A 
ENDBRANCH  40  54
BRANCH  41  62
ATOM     62  C   UNL A   1      41.147  24.224  27.602  1.00  0.00     0.057 A 
ATOM     63  C   UNL A   1      41.622  23.106  28.296  1.00  0.00     0.134 A 
ATOM     64  C   UNL A   1      40.133  24.015  26.658  1.00  0.00     0.134 A 
ATOM     65  F   UNL A   1      42.602  23.240  29.201  1.00  0.00    -0.206 F 
ATOM     66  C   UNL A   1      41.128  21.825  28.044  1.00  0.00     0.040 A 
ATOM     67  C   UNL A   1      39.611  22.744  26.416  1.00  0.00     0.040 A 
ATOM     68  F   UNL A   1      39.629  25.047  25.965  1.00  0.00    -0.206 F 
ATOM     69  C   UNL A   1      40.115  21.643  27.104  1.00  0.00     0.006 A 
ENDBRANCH  41  62
BRANCH  53  70
ATOM     70  C   UNL A   1      47.156  27.331  25.934  1.00  0.00     0.057 A 
ATOM     71  C   UNL A   1      48.195  26.684  26.616  1.00  0.00     0.134 A 
ATOM     72  C   UNL A   1      47.280  27.472  24.546  1.00  0.00     0.134 A 
ATOM     73  F   UNL A   1      48.141  26.527  27.947  1.00  0.00    -0.206 F 
ATOM     74  C   UNL A   1      49.327  26.220  25.944  1.00  0.00     0.040 A 
ATOM     75  C   UNL A   1      48.392  26.985  23.860  1.00  0.00     0.040 A 
ATOM     76  F   UNL A   1      46.315  28.071  23.832  1.00  0.00    -0.206 F 
ATOM     77  C   UNL A   1      49.424  26.364  24.561  1.00  0.00     0.006 A 
ENDBRANCH  53  70
ENDBRANCH  27  28
ENDBRANCH  20  22
ENDBRANCH  19  20
ENDBRANCH  18  19
ENDBRANCH   1  18
TORSDOF 14
ENDMDL
MODEL 3
REMARK VINA RESULT:     -10.9      5.086     10.858
REMARK SMILES O=C(OCCOCCOC(=O)c1ccc(-c2c3nc(c(-c4c(F)cccc4F)c4ccc([nH]4)c(-c4c(F)cccc4F)c4nc(c(-c5c(F)cccc5F)c5ccc2[nH]5)C=C4)C=C3)cc1)C1=C[C@H]2C=C[C@@H]1[C@@H]1C=C[C@H]21
REMARK SMILES IDX 7 1 6 2 5 3 4 4 3 5 2 6 1 7 66 8 67 9 71 10 68 11 70 12
REMARK SMILES IDX 72 13 69 14 75 15 73 16 74 17 8 18 9 19 10 20 11 21 12 22
REMARK SMILES IDX 13 23 65 24 14 25 64 26 15 27 16 28 17 29 58 30 18 31 63 32
REMARK SMILES IDX 57 33 59 34 19 35 62 36 56 37 55 38 20 40 46 41 29 42 45 43
REMARK SMILES IDX 30 44 33 45 44 46 60 47 31 48 32 49 43 51 61 52 34 53 21 54
REMARK SMILES IDX 22 55 27 56 23 57 24 58 26 59 28 60 25 61 47 62 48 63 53 64
REMARK SMILES IDX 49 65 50 66 52 67 54 68 51 69 35 70 36 71 41 72 37 73 38 74
REMARK SMILES IDX 40 75 42 76 39 77
REMARK H PARENT 59 39 33 50
REMARK Flexibility Score: inf
ROOT
ATOM      1  C   UNL A   1      33.472  34.173  28.339  1.00  0.00     0.202 C 
ENDROOT
BRANCH   1   2
ATOM      2  O   UNL A   1      33.205  34.509  29.702  1.00  0.00    -0.374 OA
BRANCH   2   3
ATOM      3  C   UNL A   1      33.038  35.901  29.973  1.00  0.00     0.202 C 
BRANCH   3   4
ATOM      4  C   UNL A   1      32.528  36.170  31.391  1.00  0.00     0.261 C 
BRANCH   4   5
ATOM      5  O   UNL A   1      33.053  35.206  32.326  1.00  0.00    -0.460 OA
BRANCH   5   6
ATOM      6  C   UNL A   1      34.205  35.352  33.018  1.00  0.00     0.334 C 
ATOM      7  O   UNL A   1      34.485  36.405  33.581  1.00  0.00    -0.247 OA
BRANCH   6   8
ATOM      8  C   UNL A   1      35.194  34.274  32.969  1.00  0.00     0.041 C 
ATOM      9  C   UNL A   1      35.180  33.090  33.625  1.00  0.00    -0.007 C 
ATOM     10  C   UNL A   1      36.507  34.581  32.274  1.00  0.00     0.056 C 
ATOM     11  C   UNL A   1      36.474  32.260  33.430  1.00  0.00     0.042 C 
ATOM     12  C   UNL A   1      36.800  33.397  31.339  1.00  0.00    -0.022 C 
ATOM     13  C   UNL A   1      37.524  34.578  33.451  1.00  0.00     0.031 C 
ATOM     14  C   UNL A   1      36.737  32.188  31.932  1.00  0.00    -0.022 C 
ATOM     15  C   UNL A   1      37.627  33.134  34.042  1.00  0.00     0.030 C 
ATOM     16  C   UNL A   1      38.999  34.469  33.147  1.00  0.00    -0.026 C 
ATOM     17  C   UNL A   1      39.044  33.150  33.432  1.00  0.00    -0.026 C 
ENDBRANCH   6   8
ENDBRANCH   5   6
ENDBRANCH   4   5
ENDBRANCH   3   4
ENDBRANCH   2   3
ENDBRANCH   1   2
BRANCH   1  18
ATOM     18  C   UNL A   1      34.625  33.193  28.160  1.00  0.00     0.261 C 
BRANCH  18  19
ATOM     19  O   UNL A   1      34.356  31.993  28.873  1.00  0.00    -0.460 OA
BRANCH  19  20
ATOM     20  C   UNL A   1      34.387  30.872  28.117  1.00  0.00     0.338 C 
ATOM     21  O   UNL A   1      33.562  30.478  27.318  1.00  0.00    -0.246 OA
BRANCH  20  22
ATOM     22  C   UNL A   1      35.717  30.273  28.298  1.00  0.00     0.060 A 
ATOM     23  C   UNL A   1      36.014  29.702  29.539  1.00  0.00     0.016 A 
ATOM     24  C   UNL A   1      36.644  30.260  27.251  1.00  0.00     0.016 A 
ATOM     25  C   UNL A   1      37.272  29.157  29.755  1.00  0.00     0.010 A 
ATOM     26  C   UNL A   1      37.897  29.705  27.463  1.00  0.00     0.010 A 
ATOM     27  C   UNL A   1      38.224  29.195  28.729  1.00  0.00    -0.014 A 
BRANCH  27  28
ATOM     28  C   UNL A   1      39.626  28.855  29.018  1.00  0.00     0.031 A 
ATOM     29  C   UNL A   1      40.475  29.881  29.708  1.00  0.00     0.074 A 
ATOM     30  C   UNL A   1      40.118  27.662  28.651  1.00  0.00     0.049 A 
ATOM     31  N   UNL A   1      41.747  29.842  30.001  1.00  0.00    -0.248 NA
ATOM     32  C   UNL A   1      39.800  31.127  30.111  1.00  0.00     0.031 C 
ATOM     33  C   UNL A   1      39.359  26.604  27.984  1.00  0.00     0.029 A 
ATOM     34  N   UNL A   1      41.379  27.149  28.776  1.00  0.00    -0.354 N 
ATOM     35  C   UNL A   1      42.026  31.057  30.612  1.00  0.00     0.074 A 
ATOM     36  C   UNL A   1      40.804  31.830  30.611  1.00  0.00     0.031 C 
ATOM     37  C   UNL A   1      40.177  25.564  27.750  1.00  0.00     0.029 A 
ATOM     38  C   UNL A   1      41.519  25.903  28.220  1.00  0.00     0.049 A 
ATOM     39  H   UNL A   1      42.116  27.628  29.221  1.00  0.00     0.167 HD
ATOM     40  C   UNL A   1      43.197  31.479  31.138  1.00  0.00     0.037 A 
ATOM     41  C   UNL A   1      42.619  25.139  28.089  1.00  0.00     0.037 A 
ATOM     42  C   UNL A   1      44.400  30.692  31.127  1.00  0.00     0.049 A 
ATOM     43  C   UNL A   1      43.923  25.656  28.636  1.00  0.00     0.074 A 
ATOM     44  C   UNL A   1      45.641  31.003  31.651  1.00  0.00     0.029 A 
ATOM     45  N   UNL A   1      44.510  29.434  30.550  1.00  0.00    -0.354 N 
ATOM     46  N   UNL A   1      44.174  26.789  29.250  1.00  0.00    -0.248 NA
ATOM     47  C   UNL A   1      45.095  24.786  28.477  1.00  0.00     0.031 C 
ATOM     48  C   UNL A   1      46.515  29.955  31.345  1.00  0.00     0.029 A 
ATOM     49  C   UNL A   1      45.805  28.965  30.684  1.00  0.00     0.049 A 
ATOM     50  H   UNL A   1      43.775  28.947  30.111  1.00  0.00     0.167 HD
ATOM     51  C   UNL A   1      45.523  26.755  29.577  1.00  0.00     0.074 A 
ATOM     52  C   UNL A   1      46.031  25.481  29.107  1.00  0.00     0.031 C 
ATOM     53  C   UNL A   1      46.278  27.688  30.209  1.00  0.00     0.037 A 
BRANCH  40  54
ATOM     54  C   UNL A   1      43.232  32.850  31.745  1.00  0.00     0.057 A 
ATOM     55  C   UNL A   1      43.595  33.982  31.004  1.00  0.00     0.134 A 
ATOM     56  C   UNL A   1      42.875  33.046  33.086  1.00  0.00     0.134 A 
ATOM     57  F   UNL A   1      43.968  33.864  29.720  1.00  0.00    -0.206 F 
ATOM     58  C   UNL A   1      43.622  35.256  31.578  1.00  0.00     0.040 A 
ATOM     59  C   UNL A   1      42.870  34.316  33.663  1.00  0.00     0.040 A 
ATOM     60  F   UNL A   1      42.520  32.006  33.855  1.00  0.00    -0.206 F 
ATOM     61  C   UNL A   1      43.251  35.425  32.910  1.00  0.00     0.006 A 
ENDBRANCH  40  54
BRANCH  41  62
ATOM     62  C   UNL A   1      42.535  23.819  27.416  1.00  0.00     0.057 A 
ATOM     63  C   UNL A   1      42.325  22.646  28.148  1.00  0.00     0.134 A 
ATOM     64  C   UNL A   1      42.673  23.697  26.028  1.00  0.00     0.134 A 
ATOM     65  F   UNL A   1      42.200  22.696  29.482  1.00  0.00    -0.206 F 
ATOM     66  C   UNL A   1      42.278  21.396  27.529  1.00  0.00     0.040 A 
ATOM     67  C   UNL A   1      42.601  22.457  25.392  1.00  0.00     0.040 A 
ATOM     68  F   UNL A   1      42.868  24.785  25.268  1.00  0.00    -0.206 F 
ATOM     69  C   UNL A   1      42.412  21.301  26.144  1.00  0.00     0.006 A 
ENDBRANCH  41  62
BRANCH  53  70
ATOM     70  C   UNL A   1      47.716  27.345  30.461  1.00  0.00     0.057 A 
ATOM     71  C   UNL A   1      48.735  27.725  29.578  1.00  0.00     0.134 A 
ATOM     72  C   UNL A   1      48.089  26.657  31.623  1.00  0.00     0.134 A 
ATOM     73  F   UNL A   1      48.443  28.377  28.443  1.00  0.00    -0.206 F 
ATOM     74  C   UNL A   1      50.071  27.407  29.828  1.00  0.00     0.040 A 
ATOM     75  C   UNL A   1      49.424  26.361  31.899  1.00  0.00     0.040 A 
ATOM     76  F   UNL A   1      47.163  26.275  32.516  1.00  0.00    -0.206 F 
ATOM     77  C   UNL A   1      50.418  26.729  30.996  1.00  0.00     0.006 A 
ENDBRANCH  53  70
ENDBRANCH  27  28
ENDBRANCH  20  22
ENDBRANCH  19  20
ENDBRANCH  18  19
ENDBRANCH   1  18
TORSDOF 14
ENDMDL
