MODEL 1
REMARK VINA RESULT:      -9.7      0.000      0.000
REMARK SMILES CC[C@@H](COC)NC(=O)NC[C@@H]1CC[C@H](C(=O)OCCOCCOC(=O)c2ccc(-c3c4nc(c(-c5c(F)cccc5F)c5ccc([nH]5)c(-c5c(F)cccc5F)c5nc(c(-c6c(F)cccc6F)c6ccc3[nH]6)C=C5)C=C4)cc2)O1
REMARK SMILES IDX 19 1 18 2 16 3 17 4 15 5 12 6 13 7 81 8 14 9 11 10 10 11
REMARK SMILES IDX 7 12 8 13 9 15 3 17 2 18 1 19 4 20 5 21 6 22 20 23 21 24
REMARK SMILES IDX 22 25 23 26 24 27 25 28 26 29 27 30 28 31 80 32 29 33 79 34
REMARK SMILES IDX 30 35 31 36 32 37 73 38 33 39 78 40 72 41 74 42 34 43 77 44
REMARK SMILES IDX 71 45 70 46 35 48 61 49 44 50 60 51 45 52 48 53 59 54 75 55
REMARK SMILES IDX 46 56 47 57 58 59 76 60 49 61 36 62 37 63 42 64 38 65 39 66
REMARK SMILES IDX 41 67 43 68 40 69 62 70 63 71 68 72 64 73 65 74 67 75 69 76
REMARK SMILES IDX 66 77 50 78 51 79 56 80 52 81 53 82 55 83 57 84 54 85
REMARK H PARENT 7 14 10 16 74 47 48 58
REMARK Flexibility Score: inf
ROOT
ATOM      1  C   UNL A   1      33.663  31.140  27.999  1.00  0.00     0.261 C 
ENDROOT
BRANCH   1   2
ATOM      2  O   UNL A   1      32.728  31.129  26.908  1.00  0.00    -0.461 OA
BRANCH   2   3
ATOM      3  C   UNL A   1      32.719  29.994  26.162  1.00  0.00     0.335 C 
ATOM      4  O   UNL A   1      32.659  29.991  24.937  1.00  0.00    -0.249 OA
BRANCH   3   5
ATOM      5  C   UNL A   1      32.854  28.724  27.021  1.00  0.00     0.228 C 
ATOM      6  C   UNL A   1      33.304  26.581  26.178  1.00  0.00     0.138 C 
ATOM      7  C   UNL A   1      31.804  26.810  26.111  1.00  0.00     0.037 C 
ATOM      8  O   UNL A   1      33.880  27.869  26.479  1.00  0.00    -0.361 OA
ATOM      9  C   UNL A   1      31.612  27.856  27.179  1.00  0.00     0.047 C 
BRANCH   6  10
ATOM     10  C   UNL A   1      33.976  25.959  24.941  1.00  0.00     0.149 C 
BRANCH  10  11
ATOM     11  N   UNL A   1      33.061  25.366  23.983  1.00  0.00    -0.336 N 
ATOM     12  N   UNL A   1      32.740  23.123  24.653  1.00  0.00    -0.333 N 
ATOM     13  C   UNL A   1      32.487  24.163  23.856  1.00  0.00     0.315 C 
ATOM     14  H   UNL A   1      32.192  22.336  24.428  1.00  0.00     0.165 HD
ATOM     15  O   UNL A   1      31.689  24.011  22.929  1.00  0.00    -0.249 OA
ATOM     16  H   UNL A   1      32.804  25.988  23.266  1.00  0.00     0.165 HD
BRANCH  12  17
ATOM     17  C   UNL A   1      33.638  22.875  25.781  1.00  0.00     0.109 C 
BRANCH  17  18
ATOM     18  C   UNL A   1      32.842  22.916  27.094  1.00  0.00     0.024 C 
ATOM     19  C   UNL A   1      31.349  23.127  26.878  1.00  0.00     0.006 C 
ENDBRANCH  17  18
BRANCH  17  20
ATOM     20  C   UNL A   1      34.395  21.552  25.550  1.00  0.00     0.184 C 
BRANCH  20  21
ATOM     21  O   UNL A   1      35.814  21.704  25.630  1.00  0.00    -0.383 OA
ATOM     22  C   UNL A   1      36.525  20.645  25.001  1.00  0.00     0.194 C 
ENDBRANCH  20  21
ENDBRANCH  17  20
ENDBRANCH  12  17
ENDBRANCH  10  11
ENDBRANCH   6  10
ENDBRANCH   3   5
ENDBRANCH   2   3
ENDBRANCH   1   2
BRANCH   1  23
ATOM     23  C   UNL A   1      34.907  31.953  27.637  1.00  0.00     0.202 C 
BRANCH  23  24
ATOM     24  O   UNL A   1      34.964  33.257  28.216  1.00  0.00    -0.374 OA
BRANCH  24  25
ATOM     25  C   UNL A   1      34.057  33.543  29.282  1.00  0.00     0.202 C 
BRANCH  25  26
ATOM     26  C   UNL A   1      34.663  33.573  30.692  1.00  0.00     0.261 C 
BRANCH  26  27
ATOM     27  O   UNL A   1      34.535  32.319  31.398  1.00  0.00    -0.460 OA
BRANCH  27  28
ATOM     28  C   UNL A   1      35.528  32.063  32.280  1.00  0.00     0.338 C 
ATOM     29  O   UNL A   1      35.596  32.448  33.447  1.00  0.00    -0.246 OA
BRANCH  28  30
ATOM     30  C   UNL A   1      36.543  31.153  31.727  1.00  0.00     0.060 A 
ATOM     31  C   UNL A   1      37.702  30.925  32.480  1.00  0.00     0.016 A 
ATOM     32  C   UNL A   1      36.462  30.707  30.406  1.00  0.00     0.016 A 
ATOM     33  C   UNL A   1      38.806  30.302  31.895  1.00  0.00     0.010 A 
ATOM     34  C   UNL A   1      37.574  30.085  29.820  1.00  0.00     0.010 A 
ATOM     35  C   UNL A   1      38.768  29.920  30.547  1.00  0.00    -0.014 A 
BRANCH  35  36
ATOM     36  C   UNL A   1      40.013  29.475  29.867  1.00  0.00     0.031 A 
ATOM     37  C   UNL A   1      41.147  30.450  29.674  1.00  0.00     0.074 A 
ATOM     38  C   UNL A   1      40.153  28.206  29.444  1.00  0.00     0.049 A 
ATOM     39  N   UNL A   1      42.304  30.274  29.084  1.00  0.00    -0.248 NA
ATOM     40  C   UNL A   1      40.955  31.801  30.225  1.00  0.00     0.031 C 
ATOM     41  C   UNL A   1      39.152  27.151  29.591  1.00  0.00     0.029 A 
ATOM     42  N   UNL A   1      41.196  27.596  28.793  1.00  0.00    -0.354 N 
ATOM     43  C   UNL A   1      42.971  31.488  29.184  1.00  0.00     0.074 A 
ATOM     44  C   UNL A   1      42.085  32.400  29.877  1.00  0.00     0.031 C 
ATOM     45  C   UNL A   1      39.625  26.025  29.029  1.00  0.00     0.029 A 
ATOM     46  C   UNL A   1      40.947  26.287  28.464  1.00  0.00     0.049 A 
ATOM     47  H   UNL A   1      42.042  28.054  28.581  1.00  0.00     0.167 HD
ATOM     48  C   UNL A   1      44.211  31.814  28.748  1.00  0.00     0.037 A 
ATOM     49  C   UNL A   1      41.693  25.406  27.769  1.00  0.00     0.037 A 
ATOM     50  C   UNL A   1      45.107  30.915  28.068  1.00  0.00     0.049 A 
ATOM     51  C   UNL A   1      43.042  25.811  27.241  1.00  0.00     0.074 A 
ATOM     52  C   UNL A   1      46.394  31.156  27.619  1.00  0.00     0.029 A 
ATOM     53  N   UNL A   1      44.806  29.605  27.735  1.00  0.00    -0.354 N 
ATOM     54  N   UNL A   1      43.674  26.952  27.370  1.00  0.00    -0.248 NA
ATOM     55  C   UNL A   1      43.785  24.800  26.471  1.00  0.00     0.031 C 
ATOM     56  C   UNL A   1      46.861  30.001  26.983  1.00  0.00     0.029 A 
ATOM     57  C   UNL A   1      45.876  29.031  27.067  1.00  0.00     0.049 A 
ATOM     58  H   UNL A   1      43.958  29.150  27.941  1.00  0.00     0.167 HD
ATOM     59  C   UNL A   1      44.892  26.789  26.720  1.00  0.00     0.074 A 
ATOM     60  C   UNL A   1      44.916  25.437  26.205  1.00  0.00     0.031 C 
ATOM     61  C   UNL A   1      45.899  27.683  26.567  1.00  0.00     0.037 A 
BRANCH  48  62
ATOM     62  C   UNL A   1      44.682  33.218  28.983  1.00  0.00     0.057 A 
ATOM     63  C   UNL A   1      45.390  33.572  30.138  1.00  0.00     0.134 A 
ATOM     64  C   UNL A   1      44.479  34.211  28.016  1.00  0.00     0.134 A 
ATOM     65  F   UNL A   1      45.609  32.667  31.105  1.00  0.00    -0.206 F 
ATOM     66  C   UNL A   1      45.870  34.868  30.328  1.00  0.00     0.040 A 
ATOM     67  C   UNL A   1      44.969  35.506  28.187  1.00  0.00     0.040 A 
ATOM     68  F   UNL A   1      43.814  33.933  26.885  1.00  0.00    -0.206 F 
ATOM     69  C   UNL A   1      45.666  35.837  29.348  1.00  0.00     0.006 A 
ENDBRANCH  48  62
BRANCH  49  70
ATOM     70  C   UNL A   1      41.171  24.043  27.507  1.00  0.00     0.057 A 
ATOM     71  C   UNL A   1      40.155  23.823  26.572  1.00  0.00     0.134 A 
ATOM     72  C   UNL A   1      41.655  22.935  28.212  1.00  0.00     0.134 A 
ATOM     73  F   UNL A   1      39.632  24.852  25.888  1.00  0.00    -0.206 F 
ATOM     74  C   UNL A   1      39.627  22.550  26.355  1.00  0.00     0.040 A 
ATOM     75  C   UNL A   1      41.153  21.653  27.989  1.00  0.00     0.040 A 
ATOM     76  F   UNL A   1      42.621  23.086  29.129  1.00  0.00    -0.206 F 
ATOM     77  C   UNL A   1      40.131  21.459  27.061  1.00  0.00     0.006 A 
ENDBRANCH  49  70
BRANCH  61  78
ATOM     78  C   UNL A   1      47.127  27.220  25.844  1.00  0.00     0.057 A 
ATOM     79  C   UNL A   1      47.327  27.486  24.484  1.00  0.00     0.134 A 
ATOM     80  C   UNL A   1      48.140  26.533  26.525  1.00  0.00     0.134 A 
ATOM     81  F   UNL A   1      46.388  28.129  23.773  1.00  0.00    -0.206 F 
ATOM     82  C   UNL A   1      48.485  27.072  23.822  1.00  0.00     0.040 A 
ATOM     83  C   UNL A   1      49.311  26.130  25.879  1.00  0.00     0.040 A 
ATOM     84  F   UNL A   1      48.014  26.253  27.830  1.00  0.00    -0.206 F 
ATOM     85  C   UNL A   1      49.484  26.397  24.522  1.00  0.00     0.006 A 
ENDBRANCH  61  78
ENDBRANCH  35  36
ENDBRANCH  28  30
ENDBRANCH  27  28
ENDBRANCH  26  27
ENDBRANCH  25  26
ENDBRANCH  24  25
ENDBRANCH  23  24
ENDBRANCH   1  23
TORSDOF 20
ENDMDL
MODEL 2
REMARK VINA RESULT:      -9.6      3.598      8.496
REMARK SMILES CC[C@@H](COC)NC(=O)NC[C@@H]1CC[C@H](C(=O)OCCOCCOC(=O)c2ccc(-c3c4nc(c(-c5c(F)cccc5F)c5ccc([nH]5)c(-c5c(F)cccc5F)c5nc(c(-c6c(F)cccc6F)c6ccc3[nH]6)C=C5)C=C4)cc2)O1
REMARK SMILES IDX 19 1 18 2 16 3 17 4 15 5 12 6 13 7 81 8 14 9 11 10 10 11
REMARK SMILES IDX 7 12 8 13 9 15 3 17 2 18 1 19 4 20 5 21 6 22 20 23 21 24
REMARK SMILES IDX 22 25 23 26 24 27 25 28 26 29 27 30 28 31 80 32 29 33 79 34
REMARK SMILES IDX 30 35 31 36 32 37 73 38 33 39 78 40 72 41 74 42 34 43 77 44
REMARK SMILES IDX 71 45 70 46 35 48 61 49 44 50 60 51 45 52 48 53 59 54 75 55
REMARK SMILES IDX 46 56 47 57 58 59 76 60 49 61 36 62 37 63 42 64 38 65 39 66
REMARK SMILES IDX 41 67 43 68 40 69 62 70 63 71 68 72 64 73 65 74 67 75 69 76
REMARK SMILES IDX 66 77 50 78 51 79 56 80 52 81 53 82 55 83 57 84 54 85
REMARK H PARENT 7 14 10 16 74 47 48 58
REMARK Flexibility Score: inf
ROOT
ATOM      1  C   UNL A   1      35.782  24.161  25.155  1.00  0.00     0.261 C 
ENDROOT
BRANCH   1   2
ATOM      2  O   UNL A   1      35.114  23.247  24.271  1.00  0.00    -0.461 OA
BRANCH   2   3
ATOM      3  C   UNL A   1      34.102  23.782  23.539  1.00  0.00     0.335 C 
ATOM      4  O   UNL A   1      34.265  24.667  22.706  1.00  0.00    -0.249 OA
BRANCH   3   5
ATOM      5  C   UNL A   1      32.747  23.111  23.829  1.00  0.00     0.228 C 
ATOM      6  C   UNL A   1      32.484  20.945  24.690  1.00  0.00     0.138 C 
ATOM      7  C   UNL A   1      32.618  20.840  23.181  1.00  0.00     0.037 C 
ATOM      8  O   UNL A   1      32.841  22.303  25.018  1.00  0.00    -0.361 OA
ATOM      9  C   UNL A   1      32.170  22.210  22.743  1.00  0.00     0.047 C 
BRANCH   6  10
ATOM     10  C   UNL A   1      33.293  19.947  25.539  1.00  0.00     0.149 C 
BRANCH  10  11
ATOM     11  N   UNL A   1      34.734  20.074  25.421  1.00  0.00    -0.336 N 
ATOM     12  N   UNL A   1      35.532  17.998  24.623  1.00  0.00    -0.333 N 
ATOM     13  C   UNL A   1      35.714  19.266  24.998  1.00  0.00     0.315 C 
ATOM     14  H   UNL A   1      36.365  17.578  24.305  1.00  0.00     0.165 HD
ATOM     15  O   UNL A   1      36.857  19.727  24.974  1.00  0.00    -0.249 OA
ATOM     16  H   UNL A   1      35.065  20.951  25.719  1.00  0.00     0.165 HD
BRANCH  12  17
ATOM     17  C   UNL A   1      34.390  17.085  24.571  1.00  0.00     0.109 C 
BRANCH  17  18
ATOM     18  C   UNL A   1      34.005  16.820  23.109  1.00  0.00     0.024 C 
ATOM     19  C   UNL A   1      32.655  17.416  22.732  1.00  0.00     0.006 C 
ENDBRANCH  17  18
BRANCH  17  20
ATOM     20  C   UNL A   1      34.720  15.810  25.373  1.00  0.00     0.184 C 
BRANCH  20  21
ATOM     21  O   UNL A   1      33.726  14.793  25.229  1.00  0.00    -0.383 OA
ATOM     22  C   UNL A   1      32.463  15.169  25.764  1.00  0.00     0.194 C 
ENDBRANCH  20  21
ENDBRANCH  17  20
ENDBRANCH  12  17
ENDBRANCH  10  11
ENDBRANCH   6  10
ENDBRANCH   3   5
ENDBRANCH   2   3
ENDBRANCH   1   2
BRANCH   1  23
ATOM     23  C   UNL A   1      36.736  23.412  26.086  1.00  0.00     0.202 C 
BRANCH  23  24
ATOM     24  O   UNL A   1      37.706  22.598  25.426  1.00  0.00    -0.374 OA
BRANCH  24  25
ATOM     25  C   UNL A   1      38.982  22.454  26.054  1.00  0.00     0.202 C 
BRANCH  25  26
ATOM     26  C   UNL A   1      39.354  21.035  26.505  1.00  0.00     0.261 C 
BRANCH  26  27
ATOM     27  O   UNL A   1      40.222  20.348  25.576  1.00  0.00    -0.460 OA
BRANCH  27  28
ATOM     28  C   UNL A   1      41.410  19.960  26.094  1.00  0.00     0.338 C 
ATOM     29  O   UNL A   1      41.814  18.805  26.231  1.00  0.00    -0.246 OA
BRANCH  28  30
ATOM     30  C   UNL A   1      42.275  21.104  26.419  1.00  0.00     0.060 A 
ATOM     31  C   UNL A   1      42.497  21.399  27.771  1.00  0.00     0.016 A 
ATOM     32  C   UNL A   1      42.683  21.999  25.427  1.00  0.00     0.016 A 
ATOM     33  C   UNL A   1      43.074  22.617  28.137  1.00  0.00     0.010 A 
ATOM     34  C   UNL A   1      43.258  23.223  25.798  1.00  0.00     0.010 A 
ATOM     35  C   UNL A   1      43.415  23.558  27.156  1.00  0.00    -0.014 A 
BRANCH  35  36
ATOM     36  C   UNL A   1      43.806  24.936  27.555  1.00  0.00     0.031 A 
ATOM     37  C   UNL A   1      42.743  25.929  27.950  1.00  0.00     0.074 A 
ATOM     38  C   UNL A   1      45.100  25.301  27.595  1.00  0.00     0.049 A 
ATOM     39  N   UNL A   1      42.868  27.185  28.303  1.00  0.00    -0.248 NA
ATOM     40  C   UNL A   1      41.354  25.441  27.953  1.00  0.00     0.031 C 
ATOM     41  C   UNL A   1      46.233  24.437  27.269  1.00  0.00     0.029 A 
ATOM     42  N   UNL A   1      45.674  26.506  27.918  1.00  0.00    -0.354 N 
ATOM     43  C   UNL A   1      41.580  27.638  28.561  1.00  0.00     0.074 A 
ATOM     44  C   UNL A   1      40.685  26.529  28.308  1.00  0.00     0.031 C 
ATOM     45  C   UNL A   1      47.368  25.146  27.393  1.00  0.00     0.029 A 
ATOM     46  C   UNL A   1      47.039  26.517  27.783  1.00  0.00     0.049 A 
ATOM     47  H   UNL A   1      45.155  27.288  28.218  1.00  0.00     0.167 HD
ATOM     48  C   UNL A   1      41.179  28.863  28.978  1.00  0.00     0.037 A 
ATOM     49  C   UNL A   1      47.923  27.522  27.936  1.00  0.00     0.037 A 
ATOM     50  C   UNL A   1      42.058  29.971  29.243  1.00  0.00     0.049 A 
ATOM     51  C   UNL A   1      47.445  28.890  28.341  1.00  0.00     0.074 A 
ATOM     52  C   UNL A   1      41.736  31.238  29.699  1.00  0.00     0.029 A 
ATOM     53  N   UNL A   1      43.432  29.945  29.071  1.00  0.00    -0.354 N 
ATOM     54  N   UNL A   1      46.229  29.296  28.612  1.00  0.00    -0.248 NA
ATOM     55  C   UNL A   1      48.468  29.941  28.464  1.00  0.00     0.031 C 
ATOM     56  C   UNL A   1      42.912  31.991  29.772  1.00  0.00     0.029 A 
ATOM     57  C   UNL A   1      43.970  31.182  29.393  1.00  0.00     0.049 A 
ATOM     58  H   UNL A   1      43.949  29.166  28.766  1.00  0.00     0.167 HD
ATOM     59  C   UNL A   1      46.343  30.638  28.958  1.00  0.00     0.074 A 
ATOM     60  C   UNL A   1      47.748  30.976  28.873  1.00  0.00     0.031 C 
ATOM     61  C   UNL A   1      45.369  31.508  29.316  1.00  0.00     0.037 A 
BRANCH  48  62
ATOM     62  C   UNL A   1      39.708  29.081  29.169  1.00  0.00     0.057 A 
ATOM     63  C   UNL A   1      38.865  29.389  28.094  1.00  0.00     0.134 A 
ATOM     64  C   UNL A   1      39.120  28.919  30.430  1.00  0.00     0.134 A 
ATOM     65  F   UNL A   1      39.370  29.565  26.863  1.00  0.00    -0.206 F 
ATOM     66  C   UNL A   1      37.488  29.540  28.269  1.00  0.00     0.040 A 
ATOM     67  C   UNL A   1      37.743  29.050  30.614  1.00  0.00     0.040 A 
ATOM     68  F   UNL A   1      39.873  28.615  31.497  1.00  0.00    -0.206 F 
ATOM     69  C   UNL A   1      36.924  29.364  29.531  1.00  0.00     0.006 A 
ENDBRANCH  48  62
BRANCH  49  70
ATOM     70  C   UNL A   1      49.365  27.283  27.685  1.00  0.00     0.057 A 
ATOM     71  C   UNL A   1      50.230  26.923  28.722  1.00  0.00     0.134 A 
ATOM     72  C   UNL A   1      49.913  27.442  26.408  1.00  0.00     0.134 A 
ATOM     73  F   UNL A   1      49.766  26.785  29.973  1.00  0.00    -0.206 F 
ATOM     74  C   UNL A   1      51.596  26.741  28.502  1.00  0.00     0.040 A 
ATOM     75  C   UNL A   1      51.272  27.242  26.168  1.00  0.00     0.040 A 
ATOM     76  F   UNL A   1      49.134  27.796  25.376  1.00  0.00    -0.206 F 
ATOM     77  C   UNL A   1      52.119  26.896  27.219  1.00  0.00     0.006 A 
ENDBRANCH  49  70
BRANCH  61  78
ATOM     78  C   UNL A   1      45.787  32.902  29.677  1.00  0.00     0.057 A 
ATOM     79  C   UNL A   1      46.166  33.244  30.980  1.00  0.00     0.134 A 
ATOM     80  C   UNL A   1      45.849  33.904  28.699  1.00  0.00     0.134 A 
ATOM     81  F   UNL A   1      46.116  32.333  31.963  1.00  0.00    -0.206 F 
ATOM     82  C   UNL A   1      46.576  34.539  31.304  1.00  0.00     0.040 A 
ATOM     83  C   UNL A   1      46.277  35.197  29.007  1.00  0.00     0.040 A 
ATOM     84  F   UNL A   1      45.507  33.639  27.430  1.00  0.00    -0.206 F 
ATOM     85  C   UNL A   1      46.639  35.518  30.313  1.00  0.00     0.006 A 
ENDBRANCH  61  78
ENDBRANCH  35  36
ENDBRANCH  28  30
ENDBRANCH  27  28
ENDBRANCH  26  27
ENDBRANCH  25  26
ENDBRANCH  24  25
ENDBRANCH  23  24
ENDBRANCH   1  23
TORSDOF 20
ENDMDL
MODEL 3
REMARK VINA RESULT:      -9.5      2.100      7.764
REMARK SMILES CC[C@@H](COC)NC(=O)NC[C@@H]1CC[C@H](C(=O)OCCOCCOC(=O)c2ccc(-c3c4nc(c(-c5c(F)cccc5F)c5ccc([nH]5)c(-c5c(F)cccc5F)c5nc(c(-c6c(F)cccc6F)c6ccc3[nH]6)C=C5)C=C4)cc2)O1
REMARK SMILES IDX 19 1 18 2 16 3 17 4 15 5 12 6 13 7 81 8 14 9 11 10 10 11
REMARK SMILES IDX 7 12 8 13 9 15 3 17 2 18 1 19 4 20 5 21 6 22 20 23 21 24
REMARK SMILES IDX 22 25 23 26 24 27 25 28 26 29 27 30 28 31 80 32 29 33 79 34
REMARK SMILES IDX 30 35 31 36 32 37 73 38 33 39 78 40 72 41 74 42 34 43 77 44
REMARK SMILES IDX 71 45 70 46 35 48 61 49 44 50 60 51 45 52 48 53 59 54 75 55
REMARK SMILES IDX 46 56 47 57 58 59 76 60 49 61 36 62 37 63 42 64 38 65 39 66
REMARK SMILES IDX 41 67 43 68 40 69 62 70 63 71 68 72 64 73 65 74 67 75 69 76
REMARK SMILES IDX 66 77 50 78 51 79 56 80 52 81 53 82 55 83 57 84 54 85
REMARK H PARENT 7 14 10 16 74 47 48 58
REMARK Flexibility Score: inf
ROOT
ATOM      1  C   UNL A   1      33.956  24.022  24.394  1.00  0.00     0.261 C 
ENDROOT
BRANCH   1   2
ATOM      2  O   UNL A   1      32.928  23.019  24.408  1.00  0.00    -0.461 OA
BRANCH   2   3
ATOM      3  C   UNL A   1      32.174  22.975  25.537  1.00  0.00     0.335 C 
ATOM      4  O   UNL A   1      32.572  22.506  26.598  1.00  0.00    -0.249 OA
BRANCH   3   5
ATOM      5  C   UNL A   1      30.794  23.631  25.349  1.00  0.00     0.228 C 
ATOM      6  C   UNL A   1      30.391  25.557  24.072  1.00  0.00     0.138 C 
ATOM      7  C   UNL A   1      30.807  25.993  25.467  1.00  0.00     0.037 C 
ATOM      8  O   UNL A   1      30.670  24.144  24.008  1.00  0.00    -0.361 OA
ATOM      9  C   UNL A   1      30.438  24.781  26.283  1.00  0.00     0.047 C 
BRANCH   6  10
ATOM     10  C   UNL A   1      31.034  26.295  22.885  1.00  0.00     0.149 C 
BRANCH  10  11
ATOM     11  N   UNL A   1      30.268  27.419  22.377  1.00  0.00    -0.336 N 
ATOM     12  N   UNL A   1      31.354  29.375  23.134  1.00  0.00    -0.333 N 
ATOM     13  C   UNL A   1      30.403  28.749  22.439  1.00  0.00     0.315 C 
ATOM     14  H   UNL A   1      31.316  30.353  23.026  1.00  0.00     0.165 HD
ATOM     15  O   UNL A   1      29.579  29.431  21.826  1.00  0.00    -0.249 OA
ATOM     16  H   UNL A   1      29.471  27.139  21.872  1.00  0.00     0.165 HD
BRANCH  12  17
ATOM     17  C   UNL A   1      32.441  28.953  24.018  1.00  0.00     0.109 C 
BRANCH  17  18
ATOM     18  C   UNL A   1      33.790  29.163  23.317  1.00  0.00     0.024 C 
ATOM     19  C   UNL A   1      34.020  28.190  22.167  1.00  0.00     0.006 C 
ENDBRANCH  17  18
BRANCH  17  20
ATOM     20  C   UNL A   1      32.317  29.690  25.367  1.00  0.00     0.184 C 
BRANCH  20  21
ATOM     21  O   UNL A   1      33.518  29.637  26.140  1.00  0.00    -0.383 OA
ATOM     22  C   UNL A   1      33.532  28.566  27.075  1.00  0.00     0.194 C 
ENDBRANCH  20  21
ENDBRANCH  17  20
ENDBRANCH  12  17
ENDBRANCH  10  11
ENDBRANCH   6  10
ENDBRANCH   3   5
ENDBRANCH   2   3
ENDBRANCH   1   2
BRANCH   1  23
ATOM     23  C   UNL A   1      35.260  23.467  24.970  1.00  0.00     0.202 C 
BRANCH  23  24
ATOM     24  O   UNL A   1      35.825  22.379  24.239  1.00  0.00    -0.374 OA
BRANCH  24  25
ATOM     25  C   UNL A   1      35.627  21.063  24.759  1.00  0.00     0.202 C 
BRANCH  25  26
ATOM     26  C   UNL A   1      36.882  20.346  25.273  1.00  0.00     0.261 C 
BRANCH  26  27
ATOM     27  O   UNL A   1      38.111  21.025  24.933  1.00  0.00    -0.460 OA
BRANCH  27  28
ATOM     28  C   UNL A   1      39.134  20.808  25.791  1.00  0.00     0.338 C 
ATOM     29  O   UNL A   1      39.752  19.755  25.950  1.00  0.00    -0.246 OA
BRANCH  28  30
ATOM     30  C   UNL A   1      39.535  22.032  26.501  1.00  0.00     0.060 A 
ATOM     31  C   UNL A   1      38.969  23.246  26.091  1.00  0.00     0.016 A 
ATOM     32  C   UNL A   1      40.603  22.020  27.401  1.00  0.00     0.016 A 
ATOM     33  C   UNL A   1      39.508  24.455  26.534  1.00  0.00     0.010 A 
ATOM     34  C   UNL A   1      41.145  23.236  27.841  1.00  0.00     0.010 A 
ATOM     35  C   UNL A   1      40.631  24.460  27.375  1.00  0.00    -0.014 A 
BRANCH  35  36
ATOM     36  C   UNL A   1      41.341  25.736  27.653  1.00  0.00     0.031 A 
ATOM     37  C   UNL A   1      40.635  26.834  28.408  1.00  0.00     0.074 A 
ATOM     38  C   UNL A   1      42.615  25.916  27.263  1.00  0.00     0.049 A 
ATOM     39  N   UNL A   1      41.063  28.030  28.729  1.00  0.00    -0.248 NA
ATOM     40  C   UNL A   1      39.267  26.544  28.867  1.00  0.00     0.031 C 
ATOM     41  C   UNL A   1      43.429  24.931  26.553  1.00  0.00     0.029 A 
ATOM     42  N   UNL A   1      43.444  27.002  27.404  1.00  0.00    -0.354 N 
ATOM     43  C   UNL A   1      40.019  28.637  29.417  1.00  0.00     0.074 A 
ATOM     44  C   UNL A   1      38.930  27.684  29.454  1.00  0.00     0.031 C 
ATOM     45  C   UNL A   1      44.637  25.465  26.305  1.00  0.00     0.029 A 
ATOM     46  C   UNL A   1      44.673  26.834  26.816  1.00  0.00     0.049 A 
ATOM     47  H   UNL A   1      43.181  27.823  27.880  1.00  0.00     0.167 HD
ATOM     48  C   UNL A   1      39.973  29.869  29.976  1.00  0.00     0.037 A 
ATOM     49  C   UNL A   1      45.702  27.693  26.688  1.00  0.00     0.037 A 
ATOM     50  C   UNL A   1      41.052  30.822  29.957  1.00  0.00     0.049 A 
ATOM     51  C   UNL A   1      45.603  29.080  27.264  1.00  0.00     0.074 A 
ATOM     52  C   UNL A   1      41.099  32.084  30.526  1.00  0.00     0.029 A 
ATOM     53  N   UNL A   1      42.271  30.620  29.331  1.00  0.00    -0.354 N 
ATOM     54  N   UNL A   1      44.623  29.628  27.940  1.00  0.00    -0.248 NA
ATOM     55  C   UNL A   1      46.760  29.967  27.062  1.00  0.00     0.031 C 
ATOM     56  C   UNL A   1      42.336  32.659  30.217  1.00  0.00     0.029 A 
ATOM     57  C   UNL A   1      43.070  31.743  29.483  1.00  0.00     0.049 A 
ATOM     58  H   UNL A   1      42.531  29.802  28.850  1.00  0.00     0.167 HD
ATOM     59  C   UNL A   1      45.052  30.911  28.260  1.00  0.00     0.074 A 
ATOM     60  C   UNL A   1      46.384  31.058  27.715  1.00  0.00     0.031 C 
ATOM     61  C   UNL A   1      44.398  31.878  28.948  1.00  0.00     0.037 A 
BRANCH  48  62
ATOM     62  C   UNL A   1      38.700  30.274  30.657  1.00  0.00     0.057 A 
ATOM     63  C   UNL A   1      38.480  30.018  32.016  1.00  0.00     0.134 A 
ATOM     64  C   UNL A   1      37.712  30.981  29.961  1.00  0.00     0.134 A 
ATOM     65  F   UNL A   1      39.386  29.337  32.734  1.00  0.00    -0.206 F 
ATOM     66  C   UNL A   1      37.316  30.443  32.657  1.00  0.00     0.040 A 
ATOM     67  C   UNL A   1      36.551  31.427  30.595  1.00  0.00     0.040 A 
ATOM     68  F   UNL A   1      37.867  31.265  28.659  1.00  0.00    -0.206 F 
ATOM     69  C   UNL A   1      36.351  31.155  31.948  1.00  0.00     0.006 A 
ENDBRANCH  48  62
BRANCH  49  70
ATOM     70  C   UNL A   1      46.925  27.277  25.959  1.00  0.00     0.057 A 
ATOM     71  C   UNL A   1      47.034  27.443  24.575  1.00  0.00     0.134 A 
ATOM     72  C   UNL A   1      47.995  26.674  26.628  1.00  0.00     0.134 A 
ATOM     73  F   UNL A   1      46.026  27.987  23.877  1.00  0.00    -0.206 F 
ATOM     74  C   UNL A   1      48.162  27.011  23.877  1.00  0.00     0.040 A 
ATOM     75  C   UNL A   1      49.139  26.258  25.946  1.00  0.00     0.040 A 
ATOM     76  F   UNL A   1      47.943  26.480  27.953  1.00  0.00    -0.206 F 
ATOM     77  C   UNL A   1      49.222  26.421  24.564  1.00  0.00     0.006 A 
ENDBRANCH  49  70
BRANCH  61  78
ATOM     78  C   UNL A   1      45.123  33.169  29.180  1.00  0.00     0.057 A 
ATOM     79  C   UNL A   1      45.932  33.368  30.306  1.00  0.00     0.134 A 
ATOM     80  C   UNL A   1      45.042  34.211  28.248  1.00  0.00     0.134 A 
ATOM     81  F   UNL A   1      46.040  32.413  31.241  1.00  0.00    -0.206 F 
ATOM     82  C   UNL A   1      46.622  34.565  30.504  1.00  0.00     0.040 A 
ATOM     83  C   UNL A   1      45.743  35.405  28.426  1.00  0.00     0.040 A 
ATOM     84  F   UNL A   1      44.290  34.082  27.145  1.00  0.00    -0.206 F 
ATOM     85  C   UNL A   1      46.534  35.586  29.559  1.00  0.00     0.006 A 
ENDBRANCH  61  78
ENDBRANCH  35  36
ENDBRANCH  28  30
ENDBRANCH  27  28
ENDBRANCH  26  27
ENDBRANCH  25  26
ENDBRANCH  24  25
ENDBRANCH  23  24
ENDBRANCH   1  23
TORSDOF 20
ENDMDL
