MODEL 1
REMARK VINA RESULT:     -11.3      0.000      0.000
REMARK SMILES CCCCCNC(=O)Oc1cccc(-c2ccc([C@@H](C)C(=O)OCCOCCOC(=O)c3ccc(-c4c5nc(c(-c6c(F)cccc6F)c6ccc([nH]6)c(-c6c(F)cccc6F)c6nc(c(-c7c(F)cccc7F)c7ccc4[nH]7)C=C6)C=C5)cc3)cc2F)c1
REMARK SMILES IDX 23 1 21 2 22 3 19 4 20 5 18 6 15 7 16 8 87 9 17 10 86 11
REMARK SMILES IDX 88 12 14 13 10 14 11 15 89 16 12 17 13 18 9 19 7 20 6 21
REMARK SMILES IDX 8 23 5 24 4 25 3 26 2 27 1 28 24 29 25 30 26 31 27 32 28 33
REMARK SMILES IDX 29 34 30 35 31 36 32 37 33 38 85 39 34 40 84 41 35 42 36 43
REMARK SMILES IDX 37 44 78 45 38 46 83 47 77 48 79 49 39 50 82 51 76 52 75 53
REMARK SMILES IDX 40 55 66 56 49 57 65 58 50 59 53 60 64 61 80 62 51 63 52 64
REMARK SMILES IDX 63 66 81 67 54 68 41 69 42 70 47 71 43 72 44 73 46 74 48 75
REMARK SMILES IDX 45 76 67 77 68 78 73 79 69 80 70 81 72 82 74 83 71 84 55 85
REMARK SMILES IDX 56 86 61 87 57 88 58 89 60 90 62 91 59 92
REMARK H PARENT 6 22 79 54 53 65
REMARK Flexibility Score: inf
ROOT
ATOM      1  O   UNL A   1      43.190  19.714  24.975  1.00  0.00    -0.463 OA
ENDROOT
BRANCH   1   2
ATOM      2  C   UNL A   1      42.434  19.701  26.102  1.00  0.00     0.313 C 
ATOM      3  O   UNL A   1      42.261  18.712  26.810  1.00  0.00    -0.252 OA
BRANCH   2   4
ATOM      4  C   UNL A   1      41.759  21.027  26.409  1.00  0.00     0.126 C 
ATOM      5  C   UNL A   1      42.139  21.464  27.821  1.00  0.00     0.025 C 
BRANCH   4   6
ATOM      6  C   UNL A   1      40.257  21.151  26.168  1.00  0.00    -0.031 A 
ATOM      7  C   UNL A   1      37.518  21.406  25.382  1.00  0.00     0.018 A 
ATOM      8  C   UNL A   1      38.196  22.453  26.032  1.00  0.00     0.012 A 
ATOM      9  C   UNL A   1      38.224  20.210  25.202  1.00  0.00     0.131 A 
ATOM     10  C   UNL A   1      39.542  22.330  26.416  1.00  0.00     0.005 A 
ATOM     11  C   UNL A   1      39.563  20.079  25.585  1.00  0.00     0.044 A 
ATOM     12  F   UNL A   1      37.645  19.164  24.592  1.00  0.00    -0.206 F 
BRANCH   7  13
ATOM     13  C   UNL A   1      36.159  21.597  24.835  1.00  0.00    -0.012 A 
ATOM     14  C   UNL A   1      34.467  22.932  23.709  1.00  0.00     0.133 A 
ATOM     15  C   UNL A   1      33.500  21.956  23.935  1.00  0.00     0.047 A 
ATOM     16  C   UNL A   1      35.781  22.770  24.159  1.00  0.00     0.056 A 
ATOM     17  C   UNL A   1      33.856  20.786  24.597  1.00  0.00     0.004 A 
ATOM     18  C   UNL A   1      35.171  20.611  25.040  1.00  0.00     0.009 A 
BRANCH  14  19
ATOM     19  O   UNL A   1      34.020  24.131  23.128  1.00  0.00    -0.410 OA
BRANCH  19  20
ATOM     20  C   UNL A   1      33.165  24.055  22.041  1.00  0.00     0.412 C 
ATOM     21  N   UNL A   1      31.937  24.608  22.278  1.00  0.00    -0.321 N 
ATOM     22  H   UNL A   1      31.302  24.606  21.526  1.00  0.00     0.167 HD
ATOM     23  O   UNL A   1      33.424  23.541  20.954  1.00  0.00    -0.224 OA
BRANCH  21  24
ATOM     24  C   UNL A   1      31.471  25.196  23.519  1.00  0.00     0.119 C 
BRANCH  24  25
ATOM     25  C   UNL A   1      30.359  26.220  23.293  1.00  0.00     0.021 C 
BRANCH  25  26
ATOM     26  C   UNL A   1      30.837  27.660  23.066  1.00  0.00     0.002 C 
BRANCH  26  27
ATOM     27  C   UNL A   1      29.753  28.739  23.127  1.00  0.00    -0.003 C 
ATOM     28  C   UNL A   1      29.868  29.781  22.025  1.00  0.00     0.004 C 
ENDBRANCH  26  27
ENDBRANCH  25  26
ENDBRANCH  24  25
ENDBRANCH  21  24
ENDBRANCH  19  20
ENDBRANCH  14  19
ENDBRANCH   7  13
ENDBRANCH   4   6
ENDBRANCH   2   4
ENDBRANCH   1   2
BRANCH   1  29
ATOM     29  C   UNL A   1      44.391  18.923  25.016  1.00  0.00     0.261 C 
BRANCH  29  30
ATOM     30  C   UNL A   1      45.539  19.624  24.289  1.00  0.00     0.202 C 
BRANCH  30  31
ATOM     31  O   UNL A   1      46.326  20.521  25.071  1.00  0.00    -0.374 OA
BRANCH  31  32
ATOM     32  C   UNL A   1      45.687  21.697  25.570  1.00  0.00     0.202 C 
BRANCH  32  33
ATOM     33  C   UNL A   1      46.010  23.014  24.851  1.00  0.00     0.261 C 
BRANCH  33  34
ATOM     34  O   UNL A   1      45.279  24.127  25.393  1.00  0.00    -0.460 OA
BRANCH  34  35
ATOM     35  C   UNL A   1      43.988  24.207  24.985  1.00  0.00     0.338 C 
ATOM     36  O   UNL A   1      43.441  23.547  24.121  1.00  0.00    -0.246 OA
BRANCH  35  37
ATOM     37  C   UNL A   1      43.231  25.103  25.881  1.00  0.00     0.060 A 
ATOM     38  C   UNL A   1      43.738  26.395  26.073  1.00  0.00     0.016 A 
ATOM     39  C   UNL A   1      42.106  24.670  26.586  1.00  0.00     0.016 A 
ATOM     40  C   UNL A   1      43.156  27.242  27.012  1.00  0.00     0.010 A 
ATOM     41  C   UNL A   1      41.526  25.521  27.536  1.00  0.00     0.010 A 
ATOM     42  C   UNL A   1      42.073  26.796  27.780  1.00  0.00    -0.014 A 
BRANCH  42  43
ATOM     43  C   UNL A   1      41.621  27.608  28.937  1.00  0.00     0.031 A 
ATOM     44  C   UNL A   1      42.368  27.506  30.238  1.00  0.00     0.074 A 
ATOM     45  C   UNL A   1      40.591  28.464  28.817  1.00  0.00     0.049 A 
ATOM     46  N   UNL A   1      42.142  28.114  31.375  1.00  0.00    -0.248 NA
ATOM     47  C   UNL A   1      43.526  26.597  30.261  1.00  0.00     0.031 C 
ATOM     48  C   UNL A   1      39.816  28.690  27.600  1.00  0.00     0.029 A 
ATOM     49  N   UNL A   1      40.020  29.304  29.741  1.00  0.00    -0.354 N 
ATOM     50  C   UNL A   1      43.124  27.658  32.247  1.00  0.00     0.074 A 
ATOM     51  C   UNL A   1      43.929  26.702  31.518  1.00  0.00     0.031 C 
ATOM     52  C   UNL A   1      38.863  29.604  27.853  1.00  0.00     0.029 A 
ATOM     53  C   UNL A   1      38.944  30.005  29.256  1.00  0.00     0.049 A 
ATOM     54  H   UNL A   1      40.352  29.395  30.663  1.00  0.00     0.167 HD
ATOM     55  C   UNL A   1      43.341  28.014  33.536  1.00  0.00     0.037 A 
ATOM     56  C   UNL A   1      38.108  30.857  29.880  1.00  0.00     0.037 A 
ATOM     57  C   UNL A   1      42.545  28.966  34.263  1.00  0.00     0.049 A 
ATOM     58  C   UNL A   1      38.328  31.180  31.335  1.00  0.00     0.074 A 
ATOM     59  C   UNL A   1      42.698  29.404  35.567  1.00  0.00     0.029 A 
ATOM     60  N   UNL A   1      41.439  29.625  33.747  1.00  0.00    -0.354 N 
ATOM     61  N   UNL A   1      39.270  30.761  32.142  1.00  0.00    -0.248 NA
ATOM     62  C   UNL A   1      37.364  32.098  31.962  1.00  0.00     0.031 C 
ATOM     63  C   UNL A   1      41.657  30.292  35.855  1.00  0.00     0.029 A 
ATOM     64  C   UNL A   1      40.885  30.446  34.716  1.00  0.00     0.049 A 
ATOM     65  H   UNL A   1      41.098  29.525  32.829  1.00  0.00     0.167 HD
ATOM     66  C   UNL A   1      39.033  31.384  33.362  1.00  0.00     0.074 A 
ATOM     67  C   UNL A   1      37.862  32.217  33.185  1.00  0.00     0.031 C 
ATOM     68  C   UNL A   1      39.723  31.275  34.523  1.00  0.00     0.037 A 
BRANCH  55  69
ATOM     69  C   UNL A   1      44.478  27.345  34.253  1.00  0.00     0.057 A 
ATOM     70  C   UNL A   1      45.763  27.904  34.288  1.00  0.00     0.134 A 
ATOM     71  C   UNL A   1      44.277  26.143  34.943  1.00  0.00     0.134 A 
ATOM     72  F   UNL A   1      46.025  29.047  33.636  1.00  0.00    -0.206 F 
ATOM     73  C   UNL A   1      46.811  27.280  34.967  1.00  0.00     0.040 A 
ATOM     74  C   UNL A   1      45.311  25.523  35.646  1.00  0.00     0.040 A 
ATOM     75  F   UNL A   1      43.069  25.558  34.954  1.00  0.00    -0.206 F 
ATOM     76  C   UNL A   1      46.584  26.088  35.654  1.00  0.00     0.006 A 
ENDBRANCH  55  69
BRANCH  56  77
ATOM     77  C   UNL A   1      36.973  31.460  29.138  1.00  0.00     0.057 A 
ATOM     78  C   UNL A   1      37.021  32.782  28.683  1.00  0.00     0.134 A 
ATOM     79  C   UNL A   1      35.802  30.734  28.887  1.00  0.00     0.134 A 
ATOM     80  F   UNL A   1      38.106  33.536  28.914  1.00  0.00    -0.206 F 
ATOM     81  C   UNL A   1      35.941  33.367  28.019  1.00  0.00     0.040 A 
ATOM     82  C   UNL A   1      34.724  31.298  28.203  1.00  0.00     0.040 A 
ATOM     83  F   UNL A   1      35.692  29.462  29.298  1.00  0.00    -0.206 F 
ATOM     84  C   UNL A   1      34.789  32.622  27.773  1.00  0.00     0.006 A 
ENDBRANCH  56  77
BRANCH  68  85
ATOM     85  C   UNL A   1      39.254  32.103  35.685  1.00  0.00     0.057 A 
ATOM     86  C   UNL A   1      39.670  33.428  35.866  1.00  0.00     0.134 A 
ATOM     87  C   UNL A   1      38.343  31.580  36.612  1.00  0.00     0.134 A 
ATOM     88  F   UNL A   1      40.552  33.985  35.021  1.00  0.00    -0.206 F 
ATOM     89  C   UNL A   1      39.212  34.196  36.938  1.00  0.00     0.040 A 
ATOM     90  C   UNL A   1      37.858  32.346  37.672  1.00  0.00     0.040 A 
ATOM     91  F   UNL A   1      37.896  30.319  36.491  1.00  0.00    -0.206 F 
ATOM     92  C   UNL A   1      38.298  33.657  37.841  1.00  0.00     0.006 A 
ENDBRANCH  68  85
ENDBRANCH  42  43
ENDBRANCH  35  37
ENDBRANCH  34  35
ENDBRANCH  33  34
ENDBRANCH  32  33
ENDBRANCH  31  32
ENDBRANCH  30  31
ENDBRANCH  29  30
ENDBRANCH   1  29
TORSDOF 22
ENDMDL
MODEL 2
REMARK VINA RESULT:     -11.1      0.689      1.538
REMARK SMILES CCCCCNC(=O)Oc1cccc(-c2ccc([C@@H](C)C(=O)OCCOCCOC(=O)c3ccc(-c4c5nc(c(-c6c(F)cccc6F)c6ccc([nH]6)c(-c6c(F)cccc6F)c6nc(c(-c7c(F)cccc7F)c7ccc4[nH]7)C=C6)C=C5)cc3)cc2F)c1
REMARK SMILES IDX 23 1 21 2 22 3 19 4 20 5 18 6 15 7 16 8 87 9 17 10 86 11
REMARK SMILES IDX 88 12 14 13 10 14 11 15 89 16 12 17 13 18 9 19 7 20 6 21
REMARK SMILES IDX 8 23 5 24 4 25 3 26 2 27 1 28 24 29 25 30 26 31 27 32 28 33
REMARK SMILES IDX 29 34 30 35 31 36 32 37 33 38 85 39 34 40 84 41 35 42 36 43
REMARK SMILES IDX 37 44 78 45 38 46 83 47 77 48 79 49 39 50 82 51 76 52 75 53
REMARK SMILES IDX 40 55 66 56 49 57 65 58 50 59 53 60 64 61 80 62 51 63 52 64
REMARK SMILES IDX 63 66 81 67 54 68 41 69 42 70 47 71 43 72 44 73 46 74 48 75
REMARK SMILES IDX 45 76 67 77 68 78 73 79 69 80 70 81 72 82 74 83 71 84 55 85
REMARK SMILES IDX 56 86 61 87 57 88 58 89 60 90 62 91 59 92
REMARK H PARENT 6 22 79 54 53 65
REMARK Flexibility Score: inf
ROOT
ATOM      1  O   UNL A   1      43.113  19.901  25.017  1.00  0.00    -0.463 OA
ENDROOT
BRANCH   1   2
ATOM      2  C   UNL A   1      42.343  19.828  26.133  1.00  0.00     0.313 C 
ATOM      3  O   UNL A   1      42.158  18.803  26.782  1.00  0.00    -0.252 OA
BRANCH   2   4
ATOM      4  C   UNL A   1      41.669  21.139  26.505  1.00  0.00     0.126 C 
ATOM      5  C   UNL A   1      41.998  21.473  27.957  1.00  0.00     0.025 C 
BRANCH   4   6
ATOM      6  C   UNL A   1      40.178  21.297  26.217  1.00  0.00    -0.031 A 
ATOM      7  C   UNL A   1      37.474  21.635  25.347  1.00  0.00     0.018 A 
ATOM      8  C   UNL A   1      38.140  22.632  26.082  1.00  0.00     0.012 A 
ATOM      9  C   UNL A   1      38.173  20.442  25.122  1.00  0.00     0.131 A 
ATOM     10  C   UNL A   1      39.468  22.469  26.507  1.00  0.00     0.005 A 
ATOM     11  C   UNL A   1      39.495  20.271  25.546  1.00  0.00     0.044 A 
ATOM     12  F   UNL A   1      37.605  19.442  24.430  1.00  0.00    -0.206 F 
BRANCH   7  13
ATOM     13  C   UNL A   1      36.139  21.876  24.762  1.00  0.00    -0.012 A 
ATOM     14  C   UNL A   1      34.583  23.193  23.437  1.00  0.00     0.133 A 
ATOM     15  C   UNL A   1      33.525  22.358  23.789  1.00  0.00     0.047 A 
ATOM     16  C   UNL A   1      35.876  22.971  23.921  1.00  0.00     0.056 A 
ATOM     17  C   UNL A   1      33.767  21.267  24.617  1.00  0.00     0.004 A 
ATOM     18  C   UNL A   1      35.059  21.031  25.095  1.00  0.00     0.009 A 
BRANCH  14  19
ATOM     19  O   UNL A   1      34.254  24.333  22.684  1.00  0.00    -0.410 OA
BRANCH  19  20
ATOM     20  C   UNL A   1      33.305  24.208  21.683  1.00  0.00     0.412 C 
ATOM     21  N   UNL A   1      32.225  25.028  21.854  1.00  0.00    -0.321 N 
ATOM     22  H   UNL A   1      31.534  24.998  21.153  1.00  0.00     0.167 HD
ATOM     23  O   UNL A   1      33.367  23.443  20.721  1.00  0.00    -0.224 OA
BRANCH  21  24
ATOM     24  C   UNL A   1      31.986  25.935  22.961  1.00  0.00     0.119 C 
BRANCH  24  25
ATOM     25  C   UNL A   1      32.749  27.250  22.806  1.00  0.00     0.021 C 
BRANCH  25  26
ATOM     26  C   UNL A   1      32.559  28.251  23.953  1.00  0.00     0.002 C 
BRANCH  26  27
ATOM     27  C   UNL A   1      33.684  28.297  24.990  1.00  0.00    -0.003 C 
ATOM     28  C   UNL A   1      33.588  27.203  26.043  1.00  0.00     0.004 C 
ENDBRANCH  26  27
ENDBRANCH  25  26
ENDBRANCH  24  25
ENDBRANCH  21  24
ENDBRANCH  19  20
ENDBRANCH  14  19
ENDBRANCH   7  13
ENDBRANCH   4   6
ENDBRANCH   2   4
ENDBRANCH   1   2
BRANCH   1  29
ATOM     29  C   UNL A   1      44.295  19.081  25.016  1.00  0.00     0.261 C 
BRANCH  29  30
ATOM     30  C   UNL A   1      45.442  19.767  24.271  1.00  0.00     0.202 C 
BRANCH  30  31
ATOM     31  O   UNL A   1      46.325  20.557  25.065  1.00  0.00    -0.374 OA
BRANCH  31  32
ATOM     32  C   UNL A   1      45.779  21.703  25.719  1.00  0.00     0.202 C 
BRANCH  32  33
ATOM     33  C   UNL A   1      46.190  23.073  25.166  1.00  0.00     0.261 C 
BRANCH  33  34
ATOM     34  O   UNL A   1      45.431  24.149  25.745  1.00  0.00    -0.460 OA
BRANCH  34  35
ATOM     35  C   UNL A   1      44.179  24.290  25.244  1.00  0.00     0.338 C 
ATOM     36  O   UNL A   1      43.683  23.692  24.307  1.00  0.00    -0.246 OA
BRANCH  35  37
ATOM     37  C   UNL A   1      43.379  25.163  26.125  1.00  0.00     0.060 A 
ATOM     38  C   UNL A   1      43.787  26.499  26.244  1.00  0.00     0.016 A 
ATOM     39  C   UNL A   1      42.314  24.677  26.884  1.00  0.00     0.016 A 
ATOM     40  C   UNL A   1      43.168  27.340  27.165  1.00  0.00     0.010 A 
ATOM     41  C   UNL A   1      41.696  25.522  27.815  1.00  0.00     0.010 A 
ATOM     42  C   UNL A   1      42.146  26.845  27.986  1.00  0.00    -0.014 A 
BRANCH  42  43
ATOM     43  C   UNL A   1      41.664  27.671  29.120  1.00  0.00     0.031 A 
ATOM     44  C   UNL A   1      42.403  27.617  30.430  1.00  0.00     0.074 A 
ATOM     45  C   UNL A   1      40.615  28.498  28.974  1.00  0.00     0.049 A 
ATOM     46  N   UNL A   1      42.153  28.244  31.551  1.00  0.00    -0.248 NA
ATOM     47  C   UNL A   1      43.583  26.738  30.481  1.00  0.00     0.031 C 
ATOM     48  C   UNL A   1      39.844  28.678  27.746  1.00  0.00     0.029 A 
ATOM     49  N   UNL A   1      40.016  29.344  29.874  1.00  0.00    -0.354 N 
ATOM     50  C   UNL A   1      43.139  27.833  32.440  1.00  0.00     0.074 A 
ATOM     51  C   UNL A   1      43.973  26.881  31.739  1.00  0.00     0.031 C 
ATOM     52  C   UNL A   1      38.867  29.573  27.971  1.00  0.00     0.029 A 
ATOM     53  C   UNL A   1      38.926  30.006  29.366  1.00  0.00     0.049 A 
ATOM     54  H   UNL A   1      40.337  29.464  30.797  1.00  0.00     0.167 HD
ATOM     55  C   UNL A   1      43.337  28.222  33.722  1.00  0.00     0.037 A 
ATOM     56  C   UNL A   1      38.065  30.851  29.964  1.00  0.00     0.037 A 
ATOM     57  C   UNL A   1      42.511  29.170  34.421  1.00  0.00     0.049 A 
ATOM     58  C   UNL A   1      38.264  31.212  31.413  1.00  0.00     0.074 A 
ATOM     59  C   UNL A   1      42.642  29.640  35.717  1.00  0.00     0.029 A 
ATOM     60  N   UNL A   1      41.393  29.789  33.883  1.00  0.00    -0.354 N 
ATOM     61  N   UNL A   1      39.210  30.835  32.237  1.00  0.00    -0.248 NA
ATOM     62  C   UNL A   1      37.273  32.119  32.012  1.00  0.00     0.031 C 
ATOM     63  C   UNL A   1      41.577  30.508  35.977  1.00  0.00     0.029 A 
ATOM     64  C   UNL A   1      40.811  30.617  34.829  1.00  0.00     0.049 A 
ATOM     65  H   UNL A   1      41.062  29.660  32.965  1.00  0.00     0.167 HD
ATOM     66  C   UNL A   1      38.947  31.478  33.440  1.00  0.00     0.074 A 
ATOM     67  C   UNL A   1      37.757  32.277  33.236  1.00  0.00     0.031 C 
ATOM     68  C   UNL A   1      39.630  31.412  34.609  1.00  0.00     0.037 A 
BRANCH  55  69
ATOM     69  C   UNL A   1      44.484  27.598  34.463  1.00  0.00     0.057 A 
ATOM     70  C   UNL A   1      45.761  28.175  34.471  1.00  0.00     0.134 A 
ATOM     71  C   UNL A   1      44.300  26.423  35.202  1.00  0.00     0.134 A 
ATOM     72  F   UNL A   1      46.007  29.293  33.772  1.00  0.00    -0.206 F 
ATOM     73  C   UNL A   1      46.819  27.593  35.172  1.00  0.00     0.040 A 
ATOM     74  C   UNL A   1      45.344  25.846  35.927  1.00  0.00     0.040 A 
ATOM     75  F   UNL A   1      43.101  25.823  35.240  1.00  0.00    -0.206 F 
ATOM     76  C   UNL A   1      46.609  26.428  35.907  1.00  0.00     0.006 A 
ENDBRANCH  55  69
BRANCH  56  77
ATOM     77  C   UNL A   1      36.921  31.409  29.200  1.00  0.00     0.057 A 
ATOM     78  C   UNL A   1      35.786  30.638  28.922  1.00  0.00     0.134 A 
ATOM     79  C   UNL A   1      36.945  32.721  28.710  1.00  0.00     0.134 A 
ATOM     80  F   UNL A   1      35.714  29.367  29.343  1.00  0.00    -0.206 F 
ATOM     81  C   UNL A   1      34.724  31.145  28.170  1.00  0.00     0.040 A 
ATOM     82  C   UNL A   1      35.880  33.248  27.978  1.00  0.00     0.040 A 
ATOM     83  F   UNL A   1      38.003  33.511  28.942  1.00  0.00    -0.206 F 
ATOM     84  C   UNL A   1      34.768  32.456  27.700  1.00  0.00     0.006 A 
ENDBRANCH  56  77
BRANCH  68  85
ATOM     85  C   UNL A   1      39.131  32.254  35.748  1.00  0.00     0.057 A 
ATOM     86  C   UNL A   1      38.288  31.734  36.738  1.00  0.00     0.134 A 
ATOM     87  C   UNL A   1      39.533  33.590  35.878  1.00  0.00     0.134 A 
ATOM     88  F   UNL A   1      37.856  30.465  36.667  1.00  0.00    -0.206 F 
ATOM     89  C   UNL A   1      37.846  32.519  37.806  1.00  0.00     0.040 A 
ATOM     90  C   UNL A   1      39.119  34.376  36.953  1.00  0.00     0.040 A 
ATOM     91  F   UNL A   1      40.348  34.147  34.969  1.00  0.00    -0.206 F 
ATOM     92  C   UNL A   1      38.268  33.842  37.918  1.00  0.00     0.006 A 
ENDBRANCH  68  85
ENDBRANCH  42  43
ENDBRANCH  35  37
ENDBRANCH  34  35
ENDBRANCH  33  34
ENDBRANCH  32  33
ENDBRANCH  31  32
ENDBRANCH  30  31
ENDBRANCH  29  30
ENDBRANCH   1  29
TORSDOF 22
ENDMDL
MODEL 3
REMARK VINA RESULT:     -11.1      2.469      9.146
REMARK SMILES CCCCCNC(=O)Oc1cccc(-c2ccc([C@@H](C)C(=O)OCCOCCOC(=O)c3ccc(-c4c5nc(c(-c6c(F)cccc6F)c6ccc([nH]6)c(-c6c(F)cccc6F)c6nc(c(-c7c(F)cccc7F)c7ccc4[nH]7)C=C6)C=C5)cc3)cc2F)c1
REMARK SMILES IDX 23 1 21 2 22 3 19 4 20 5 18 6 15 7 16 8 87 9 17 10 86 11
REMARK SMILES IDX 88 12 14 13 10 14 11 15 89 16 12 17 13 18 9 19 7 20 6 21
REMARK SMILES IDX 8 23 5 24 4 25 3 26 2 27 1 28 24 29 25 30 26 31 27 32 28 33
REMARK SMILES IDX 29 34 30 35 31 36 32 37 33 38 85 39 34 40 84 41 35 42 36 43
REMARK SMILES IDX 37 44 78 45 38 46 83 47 77 48 79 49 39 50 82 51 76 52 75 53
REMARK SMILES IDX 40 55 66 56 49 57 65 58 50 59 53 60 64 61 80 62 51 63 52 64
REMARK SMILES IDX 63 66 81 67 54 68 41 69 42 70 47 71 43 72 44 73 46 74 48 75
REMARK SMILES IDX 45 76 67 77 68 78 73 79 69 80 70 81 72 82 74 83 71 84 55 85
REMARK SMILES IDX 56 86 61 87 57 88 58 89 60 90 62 91 59 92
REMARK H PARENT 6 22 79 54 53 65
REMARK Flexibility Score: inf
ROOT
ATOM      1  O   UNL A   1      33.077  24.839  26.157  1.00  0.00    -0.463 OA
ENDROOT
BRANCH   1   2
ATOM      2  C   UNL A   1      33.219  23.519  25.870  1.00  0.00     0.313 C 
ATOM      3  O   UNL A   1      32.716  22.610  26.524  1.00  0.00    -0.252 OA
BRANCH   2   4
ATOM      4  C   UNL A   1      34.111  23.240  24.672  1.00  0.00     0.126 C 
ATOM      5  C   UNL A   1      33.432  22.205  23.778  1.00  0.00     0.025 C 
BRANCH   4   6
ATOM      6  C   UNL A   1      35.576  22.892  24.921  1.00  0.00    -0.031 A 
ATOM      7  C   UNL A   1      38.210  22.055  25.657  1.00  0.00     0.018 A 
ATOM      8  C   UNL A   1      37.774  23.376  25.865  1.00  0.00     0.012 A 
ATOM      9  C   UNL A   1      37.320  21.190  25.010  1.00  0.00     0.131 A 
ATOM     10  C   UNL A   1      36.480  23.788  25.508  1.00  0.00     0.005 A 
ATOM     11  C   UNL A   1      36.031  21.593  24.647  1.00  0.00     0.044 A 
ATOM     12  F   UNL A   1      37.664  19.914  24.773  1.00  0.00    -0.206 F 
BRANCH   7  13
ATOM     13  C   UNL A   1      39.509  21.585  26.183  1.00  0.00    -0.012 A 
ATOM     14  C   UNL A   1      41.358  20.007  26.236  1.00  0.00     0.133 A 
ATOM     15  C   UNL A   1      41.924  20.657  27.330  1.00  0.00     0.047 A 
ATOM     16  C   UNL A   1      40.158  20.450  25.668  1.00  0.00     0.056 A 
ATOM     17  C   UNL A   1      41.298  21.784  27.850  1.00  0.00     0.004 A 
ATOM     18  C   UNL A   1      40.104  22.241  27.281  1.00  0.00     0.009 A 
BRANCH  14  19
ATOM     19  O   UNL A   1      41.982  18.818  25.825  1.00  0.00    -0.410 OA
BRANCH  19  20
ATOM     20  C   UNL A   1      43.062  18.354  26.560  1.00  0.00     0.412 C 
ATOM     21  N   UNL A   1      44.268  18.605  25.967  1.00  0.00    -0.321 N 
ATOM     22  H   UNL A   1      45.069  18.322  26.463  1.00  0.00     0.167 HD
ATOM     23  O   UNL A   1      43.001  17.758  27.634  1.00  0.00    -0.224 OA
BRANCH  21  24
ATOM     24  C   UNL A   1      44.493  19.243  24.683  1.00  0.00     0.119 C 
BRANCH  24  25
ATOM     25  C   UNL A   1      45.390  20.476  24.798  1.00  0.00     0.021 C 
BRANCH  25  26
ATOM     26  C   UNL A   1      44.663  21.778  25.159  1.00  0.00     0.002 C 
BRANCH  26  27
ATOM     27  C   UNL A   1      45.481  22.799  25.953  1.00  0.00    -0.003 C 
ATOM     28  C   UNL A   1      44.976  23.013  27.372  1.00  0.00     0.004 C 
ENDBRANCH  26  27
ENDBRANCH  25  26
ENDBRANCH  24  25
ENDBRANCH  21  24
ENDBRANCH  19  20
ENDBRANCH  14  19
ENDBRANCH   7  13
ENDBRANCH   4   6
ENDBRANCH   2   4
ENDBRANCH   1   2
BRANCH   1  29
ATOM     29  C   UNL A   1      32.027  25.524  25.453  1.00  0.00     0.261 C 
BRANCH  29  30
ATOM     30  C   UNL A   1      31.520  26.727  26.251  1.00  0.00     0.202 C 
BRANCH  30  31
ATOM     31  O   UNL A   1      32.201  27.961  26.032  1.00  0.00    -0.374 OA
BRANCH  31  32
ATOM     32  C   UNL A   1      31.584  28.909  25.160  1.00  0.00     0.202 C 
BRANCH  32  33
ATOM     33  C   UNL A   1      31.621  30.378  25.603  1.00  0.00     0.261 C 
BRANCH  33  34
ATOM     34  O   UNL A   1      32.108  30.533  26.948  1.00  0.00    -0.460 OA
BRANCH  34  35
ATOM     35  C   UNL A   1      32.743  31.707  27.186  1.00  0.00     0.338 C 
ATOM     36  O   UNL A   1      32.259  32.824  27.196  1.00  0.00    -0.246 OA
BRANCH  35  37
ATOM     37  C   UNL A   1      34.124  31.450  27.638  1.00  0.00     0.060 A 
ATOM     38  C   UNL A   1      34.484  30.115  27.870  1.00  0.00     0.016 A 
ATOM     39  C   UNL A   1      35.020  32.484  27.913  1.00  0.00     0.016 A 
ATOM     40  C   UNL A   1      35.721  29.812  28.432  1.00  0.00     0.010 A 
ATOM     41  C   UNL A   1      36.262  32.178  28.486  1.00  0.00     0.010 A 
ATOM     42  C   UNL A   1      36.601  30.844  28.782  1.00  0.00    -0.014 A 
BRANCH  42  43
ATOM     43  C   UNL A   1      37.801  30.528  29.597  1.00  0.00     0.031 A 
ATOM     44  C   UNL A   1      38.888  29.678  28.999  1.00  0.00     0.074 A 
ATOM     45  C   UNL A   1      37.947  31.034  30.834  1.00  0.00     0.049 A 
ATOM     46  N   UNL A   1      40.013  29.272  29.531  1.00  0.00    -0.248 NA
ATOM     47  C   UNL A   1      38.679  29.225  27.613  1.00  0.00     0.031 C 
ATOM     48  C   UNL A   1      36.990  31.908  31.509  1.00  0.00     0.029 A 
ATOM     49  N   UNL A   1      38.962  30.880  31.745  1.00  0.00    -0.354 N 
ATOM     50  C   UNL A   1      40.641  28.514  28.550  1.00  0.00     0.074 A 
ATOM     51  C   UNL A   1      39.761  28.491  27.402  1.00  0.00     0.031 C 
ATOM     52  C   UNL A   1      37.459  32.207  32.732  1.00  0.00     0.029 A 
ATOM     53  C   UNL A   1      38.736  31.523  32.936  1.00  0.00     0.049 A 
ATOM     54  H   UNL A   1      39.776  30.357  31.560  1.00  0.00     0.167 HD
ATOM     55  C   UNL A   1      41.848  27.901  28.599  1.00  0.00     0.037 A 
ATOM     56  C   UNL A   1      39.465  31.541  34.067  1.00  0.00     0.037 A 
ATOM     57  C   UNL A   1      42.726  27.924  29.737  1.00  0.00     0.049 A 
ATOM     58  C   UNL A   1      40.770  30.791  34.121  1.00  0.00     0.074 A 
ATOM     59  C   UNL A   1      43.977  27.348  29.875  1.00  0.00     0.029 A 
ATOM     60  N   UNL A   1      42.443  28.555  30.939  1.00  0.00    -0.354 N 
ATOM     61  N   UNL A   1      41.365  30.096  33.183  1.00  0.00    -0.248 NA
ATOM     62  C   UNL A   1      41.506  30.830  35.395  1.00  0.00     0.031 C 
ATOM     63  C   UNL A   1      44.429  27.589  31.176  1.00  0.00     0.029 A 
ATOM     64  C   UNL A   1      43.483  28.359  31.832  1.00  0.00     0.049 A 
ATOM     65  H   UNL A   1      41.623  29.066  31.130  1.00  0.00     0.167 HD
ATOM     66  C   UNL A   1      42.553  29.641  33.739  1.00  0.00     0.074 A 
ATOM     67  C   UNL A   1      42.601  30.146  35.095  1.00  0.00     0.031 C 
ATOM     68  C   UNL A   1      43.519  28.873  33.178  1.00  0.00     0.037 A 
BRANCH  55  69
ATOM     69  C   UNL A   1      42.278  27.129  27.385  1.00  0.00     0.057 A 
ATOM     70  C   UNL A   1      43.048  27.712  26.371  1.00  0.00     0.134 A 
ATOM     71  C   UNL A   1      41.945  25.776  27.247  1.00  0.00     0.134 A 
ATOM     72  F   UNL A   1      43.390  29.008  26.436  1.00  0.00    -0.206 F 
ATOM     73  C   UNL A   1      43.453  26.983  25.251  1.00  0.00     0.040 A 
ATOM     74  C   UNL A   1      42.365  25.029  26.145  1.00  0.00     0.040 A 
ATOM     75  F   UNL A   1      41.215  25.155  28.186  1.00  0.00    -0.206 F 
ATOM     76  C   UNL A   1      43.116  25.635  25.140  1.00  0.00     0.006 A 
ENDBRANCH  55  69
BRANCH  56  77
ATOM     77  C   UNL A   1      38.976  32.285  35.255  1.00  0.00     0.057 A 
ATOM     78  C   UNL A   1      39.212  33.657  35.403  1.00  0.00     0.134 A 
ATOM     79  C   UNL A   1      38.280  31.636  36.283  1.00  0.00     0.134 A 
ATOM     80  F   UNL A   1      39.895  34.328  34.464  1.00  0.00    -0.206 F 
ATOM     81  C   UNL A   1      38.789  34.354  36.536  1.00  0.00     0.040 A 
ATOM     82  C   UNL A   1      37.829  32.326  37.409  1.00  0.00     0.040 A 
ATOM     83  F   UNL A   1      38.022  30.323  36.202  1.00  0.00    -0.206 F 
ATOM     84  C   UNL A   1      38.090  33.688  37.541  1.00  0.00     0.006 A 
ENDBRANCH  56  77
BRANCH  68  85
ATOM     85  C   UNL A   1      44.727  28.562  34.013  1.00  0.00     0.057 A 
ATOM     86  C   UNL A   1      44.812  27.397  34.786  1.00  0.00     0.134 A 
ATOM     87  C   UNL A   1      45.835  29.420  34.013  1.00  0.00     0.134 A 
ATOM     88  F   UNL A   1      43.781  26.540  34.840  1.00  0.00    -0.206 F 
ATOM     89  C   UNL A   1      45.949  27.106  35.544  1.00  0.00     0.040 A 
ATOM     90  C   UNL A   1      46.986  29.127  34.745  1.00  0.00     0.040 A 
ATOM     91  F   UNL A   1      45.823  30.548  33.287  1.00  0.00    -0.206 F 
ATOM     92  C   UNL A   1      47.042  27.969  35.519  1.00  0.00     0.006 A 
ENDBRANCH  68  85
ENDBRANCH  42  43
ENDBRANCH  35  37
ENDBRANCH  34  35
ENDBRANCH  33  34
ENDBRANCH  32  33
ENDBRANCH  31  32
ENDBRANCH  30  31
ENDBRANCH  29  30
ENDBRANCH   1  29
TORSDOF 22
ENDMDL
