MODEL 1
REMARK VINA RESULT:     -10.9      0.000      0.000
REMARK SMILES C[C@@H](C(=O)OCCOCCOC(=O)c1ccc(-c2c3nc(c(-c4c(F)cccc4F)c4ccc([nH]4)c(-c4c(F)cccc4F)c4nc(c(-c5c(F)cccc5F)c5ccc2[nH]5)C=C4)C=C3)cc1)c1ccc(C(=O)c2cccs2)cc1
REMARK SMILES IDX 7 1 6 2 5 3 3 4 4 5 2 6 1 7 68 8 69 9 80 10 70 11 79 12
REMARK SMILES IDX 71 13 72 14 73 15 74 16 75 17 78 18 76 19 77 20 8 21 9 22
REMARK SMILES IDX 10 23 11 24 12 25 13 26 14 27 15 28 67 29 16 30 66 31 17 32
REMARK SMILES IDX 18 33 19 34 60 35 20 36 65 37 59 38 61 39 21 40 64 41 58 42
REMARK SMILES IDX 57 43 22 45 48 46 31 47 47 48 32 49 35 50 46 51 62 52 33 53
REMARK SMILES IDX 34 54 45 56 63 57 36 58 23 59 24 60 29 61 25 62 26 63 28 64
REMARK SMILES IDX 30 65 27 66 49 67 50 68 55 69 51 70 52 71 54 72 56 73 53 74
REMARK SMILES IDX 37 75 38 76 43 77 39 78 40 79 42 80 44 81 41 82
REMARK H PARENT 61 44 35 55
REMARK Flexibility Score: inf
ROOT
ATOM      1  C   UNL A   1      33.637  34.638  29.370  1.00  0.00     0.202 C 
ENDROOT
BRANCH   1   2
ATOM      2  C   UNL A   1      33.582  33.873  28.045  1.00  0.00     0.261 C 
BRANCH   2   3
ATOM      3  O   UNL A   1      33.595  32.453  28.270  1.00  0.00    -0.463 OA
BRANCH   3   4
ATOM      4  C   UNL A   1      34.706  31.798  27.833  1.00  0.00     0.313 C 
ATOM      5  O   UNL A   1      35.754  32.357  27.528  1.00  0.00    -0.252 OA
BRANCH   4   6
ATOM      6  C   UNL A   1      34.522  30.271  27.787  1.00  0.00     0.126 C 
ATOM      7  C   UNL A   1      35.854  29.512  27.885  1.00  0.00     0.025 C 
BRANCH   6   8
ATOM      8  C   UNL A   1      33.605  29.826  26.638  1.00  0.00    -0.034 A 
ATOM      9  C   UNL A   1      34.090  28.899  25.697  1.00  0.00     0.005 A 
ATOM     10  C   UNL A   1      32.306  30.319  26.443  1.00  0.00     0.005 A 
ATOM     11  C   UNL A   1      33.303  28.464  24.626  1.00  0.00     0.012 A 
ATOM     12  C   UNL A   1      31.514  29.890  25.362  1.00  0.00     0.012 A 
ATOM     13  C   UNL A   1      32.009  28.959  24.441  1.00  0.00     0.023 A 
BRANCH  13  14
ATOM     14  C   UNL A   1      31.200  28.417  23.300  1.00  0.00     0.202 C 
ATOM     15  O   UNL A   1      31.747  27.613  22.545  1.00  0.00    -0.288 OA
BRANCH  14  16
ATOM     16  C   UNL A   1      29.821  28.836  23.124  1.00  0.00     0.075 A 
ATOM     17  C   UNL A   1      29.308  30.051  22.709  1.00  0.00     0.024 A 
ATOM     18  S   UNL A   1      28.576  27.691  23.402  1.00  0.00    -0.140 S 
ATOM     19  C   UNL A   1      27.882  30.043  22.650  1.00  0.00     0.012 A 
ATOM     20  C   UNL A   1      27.357  28.823  23.013  1.00  0.00     0.065 A 
ENDBRANCH  14  16
ENDBRANCH  13  14
ENDBRANCH   6   8
ENDBRANCH   4   6
ENDBRANCH   3   4
ENDBRANCH   2   3
ENDBRANCH   1   2
BRANCH   1  21
ATOM     21  O   UNL A   1      33.961  33.870  30.527  1.00  0.00    -0.374 OA
BRANCH  21  22
ATOM     22  C   UNL A   1      34.202  34.576  31.745  1.00  0.00     0.202 C 
BRANCH  22  23
ATOM     23  C   UNL A   1      34.405  33.721  33.004  1.00  0.00     0.261 C 
BRANCH  23  24
ATOM     24  O   UNL A   1      35.033  32.457  32.719  1.00  0.00    -0.460 OA
BRANCH  24  25
ATOM     25  C   UNL A   1      36.236  32.275  33.315  1.00  0.00     0.338 C 
ATOM     26  O   UNL A   1      36.543  32.549  34.467  1.00  0.00    -0.246 OA
BRANCH  25  27
ATOM     27  C   UNL A   1      37.143  31.520  32.431  1.00  0.00     0.060 A 
ATOM     28  C   UNL A   1      38.071  30.663  33.036  1.00  0.00     0.016 A 
ATOM     29  C   UNL A   1      37.161  31.722  31.049  1.00  0.00     0.016 A 
ATOM     30  C   UNL A   1      39.053  30.040  32.268  1.00  0.00     0.010 A 
ATOM     31  C   UNL A   1      38.155  31.104  30.281  1.00  0.00     0.010 A 
ATOM     32  C   UNL A   1      39.126  30.290  30.891  1.00  0.00    -0.014 A 
BRANCH  32  33
ATOM     33  C   UNL A   1      40.309  29.818  30.128  1.00  0.00     0.031 A 
ATOM     34  C   UNL A   1      41.457  30.763  29.901  1.00  0.00     0.074 A 
ATOM     35  C   UNL A   1      40.381  28.554  29.678  1.00  0.00     0.049 A 
ATOM     36  N   UNL A   1      42.577  30.569  29.253  1.00  0.00    -0.248 NA
ATOM     37  C   UNL A   1      41.324  32.108  30.485  1.00  0.00     0.031 C 
ATOM     38  C   UNL A   1      39.355  27.530  29.866  1.00  0.00     0.029 A 
ATOM     39  N   UNL A   1      41.366  27.918  28.964  1.00  0.00    -0.354 N 
ATOM     40  C   UNL A   1      43.282  31.762  29.352  1.00  0.00     0.074 A 
ATOM     41  C   UNL A   1      42.450  32.685  30.094  1.00  0.00     0.031 C 
ATOM     42  C   UNL A   1      39.760  26.395  29.271  1.00  0.00     0.029 A 
ATOM     43  C   UNL A   1      41.059  26.620  28.640  1.00  0.00     0.049 A 
ATOM     44  H   UNL A   1      42.213  28.352  28.709  1.00  0.00     0.167 HD
ATOM     45  C   UNL A   1      44.515  32.060  28.876  1.00  0.00     0.037 A 
ATOM     46  C   UNL A   1      41.741  25.723  27.902  1.00  0.00     0.037 A 
ATOM     47  C   UNL A   1      45.344  31.146  28.137  1.00  0.00     0.049 A 
ATOM     48  C   UNL A   1      43.079  26.099  27.324  1.00  0.00     0.074 A 
ATOM     49  C   UNL A   1      46.611  31.354  27.621  1.00  0.00     0.029 A 
ATOM     50  N   UNL A   1      44.984  29.850  27.801  1.00  0.00    -0.354 N 
ATOM     51  N   UNL A   1      43.743  27.224  27.439  1.00  0.00    -0.248 NA
ATOM     52  C   UNL A   1      43.765  25.078  26.517  1.00  0.00     0.031 C 
ATOM     53  C   UNL A   1      47.001  30.196  26.939  1.00  0.00     0.029 A 
ATOM     54  C   UNL A   1      45.995  29.253  27.068  1.00  0.00     0.049 A 
ATOM     55  H   UNL A   1      44.134  29.418  28.049  1.00  0.00     0.167 HD
ATOM     56  C   UNL A   1      44.931  27.038  26.743  1.00  0.00     0.074 A 
ATOM     57  C   UNL A   1      44.903  25.689  26.218  1.00  0.00     0.031 C 
ATOM     58  C   UNL A   1      45.955  27.908  26.556  1.00  0.00     0.037 A 
BRANCH  45  59
ATOM     59  C   UNL A   1      45.034  33.444  29.129  1.00  0.00     0.057 A 
ATOM     60  C   UNL A   1      44.768  34.504  28.252  1.00  0.00     0.134 A 
ATOM     61  C   UNL A   1      45.782  33.728  30.278  1.00  0.00     0.134 A 
ATOM     62  F   UNL A   1      44.068  34.295  27.126  1.00  0.00    -0.206 F 
ATOM     63  C   UNL A   1      45.246  35.792  28.498  1.00  0.00     0.040 A 
ATOM     64  C   UNL A   1      46.247  35.016  30.547  1.00  0.00     0.040 A 
ATOM     65  F   UNL A   1      46.069  32.759  31.161  1.00  0.00    -0.206 F 
ATOM     66  C   UNL A   1      45.984  36.052  29.653  1.00  0.00     0.006 A 
ENDBRANCH  45  59
BRANCH  46  67
ATOM     67  C   UNL A   1      41.162  24.379  27.649  1.00  0.00     0.057 A 
ATOM     68  C   UNL A   1      41.616  23.251  28.340  1.00  0.00     0.134 A 
ATOM     69  C   UNL A   1      40.156  24.191  26.693  1.00  0.00     0.134 A 
ATOM     70  F   UNL A   1      42.596  23.364  29.249  1.00  0.00    -0.206 F 
ATOM     71  C   UNL A   1      41.100  21.980  28.080  1.00  0.00     0.040 A 
ATOM     72  C   UNL A   1      39.615  22.930  26.440  1.00  0.00     0.040 A 
ATOM     73  F   UNL A   1      39.680  25.234  25.997  1.00  0.00    -0.206 F 
ATOM     74  C   UNL A   1      40.093  21.819  27.131  1.00  0.00     0.006 A 
ENDBRANCH  46  67
BRANCH  58  75
ATOM     75  C   UNL A   1      47.141  27.419  25.778  1.00  0.00     0.057 A 
ATOM     76  C   UNL A   1      48.210  26.759  26.396  1.00  0.00     0.134 A 
ATOM     77  C   UNL A   1      47.193  27.574  24.387  1.00  0.00     0.134 A 
ATOM     78  F   UNL A   1      48.225  26.590  27.727  1.00  0.00    -0.206 F 
ATOM     79  C   UNL A   1      49.298  26.286  25.661  1.00  0.00     0.040 A 
ATOM     80  C   UNL A   1      48.264  27.085  23.637  1.00  0.00     0.040 A 
ATOM     81  F   UNL A   1      46.197  28.188  23.731  1.00  0.00    -0.206 F 
ATOM     82  C   UNL A   1      49.324  26.444  24.275  1.00  0.00     0.006 A 
ENDBRANCH  58  75
ENDBRANCH  32  33
ENDBRANCH  25  27
ENDBRANCH  24  25
ENDBRANCH  23  24
ENDBRANCH  22  23
ENDBRANCH  21  22
ENDBRANCH   1  21
TORSDOF 17
ENDMDL
MODEL 2
REMARK VINA RESULT:     -10.8      3.761      6.546
REMARK SMILES C[C@@H](C(=O)OCCOCCOC(=O)c1ccc(-c2c3nc(c(-c4c(F)cccc4F)c4ccc([nH]4)c(-c4c(F)cccc4F)c4nc(c(-c5c(F)cccc5F)c5ccc2[nH]5)C=C4)C=C3)cc1)c1ccc(C(=O)c2cccs2)cc1
REMARK SMILES IDX 7 1 6 2 5 3 3 4 4 5 2 6 1 7 68 8 69 9 80 10 70 11 79 12
REMARK SMILES IDX 71 13 72 14 73 15 74 16 75 17 78 18 76 19 77 20 8 21 9 22
REMARK SMILES IDX 10 23 11 24 12 25 13 26 14 27 15 28 67 29 16 30 66 31 17 32
REMARK SMILES IDX 18 33 19 34 60 35 20 36 65 37 59 38 61 39 21 40 64 41 58 42
REMARK SMILES IDX 57 43 22 45 48 46 31 47 47 48 32 49 35 50 46 51 62 52 33 53
REMARK SMILES IDX 34 54 45 56 63 57 36 58 23 59 24 60 29 61 25 62 26 63 28 64
REMARK SMILES IDX 30 65 27 66 49 67 50 68 55 69 51 70 52 71 54 72 56 73 53 74
REMARK SMILES IDX 37 75 38 76 43 77 39 78 40 79 42 80 44 81 41 82
REMARK H PARENT 61 44 35 55
REMARK Flexibility Score: inf
ROOT
ATOM      1  C   UNL A   1      33.278  29.175  26.162  1.00  0.00     0.202 C 
ENDROOT
BRANCH   1   2
ATOM      2  C   UNL A   1      33.001  27.702  26.469  1.00  0.00     0.261 C 
BRANCH   2   3
ATOM      3  O   UNL A   1      33.601  26.848  25.480  1.00  0.00    -0.463 OA
BRANCH   3   4
ATOM      4  C   UNL A   1      32.913  25.709  25.191  1.00  0.00     0.313 C 
ATOM      5  O   UNL A   1      32.698  24.815  26.003  1.00  0.00    -0.252 OA
BRANCH   4   6
ATOM      6  C   UNL A   1      32.401  25.670  23.740  1.00  0.00     0.126 C 
ATOM      7  C   UNL A   1      33.516  25.926  22.714  1.00  0.00     0.025 C 
BRANCH   6   8
ATOM      8  C   UNL A   1      31.132  26.513  23.544  1.00  0.00    -0.034 A 
ATOM      9  C   UNL A   1      31.232  27.757  22.896  1.00  0.00     0.005 A 
ATOM     10  C   UNL A   1      29.864  26.130  24.009  1.00  0.00     0.005 A 
ATOM     11  C   UNL A   1      30.112  28.571  22.696  1.00  0.00     0.012 A 
ATOM     12  C   UNL A   1      28.736  26.949  23.816  1.00  0.00     0.012 A 
ATOM     13  C   UNL A   1      28.853  28.180  23.160  1.00  0.00     0.023 A 
BRANCH  13  14
ATOM     14  C   UNL A   1      27.684  29.076  22.873  1.00  0.00     0.202 C 
ATOM     15  O   UNL A   1      26.564  28.669  23.181  1.00  0.00    -0.288 OA
BRANCH  14  16
ATOM     16  C   UNL A   1      27.899  30.376  22.263  1.00  0.00     0.075 A 
ATOM     17  C   UNL A   1      27.944  30.735  20.929  1.00  0.00     0.024 A 
ATOM     18  S   UNL A   1      28.081  31.740  23.286  1.00  0.00    -0.140 S 
ATOM     19  C   UNL A   1      28.160  32.135  20.753  1.00  0.00     0.012 A 
ATOM     20  C   UNL A   1      28.263  32.797  21.956  1.00  0.00     0.065 A 
ENDBRANCH  14  16
ENDBRANCH  13  14
ENDBRANCH   6   8
ENDBRANCH   4   6
ENDBRANCH   3   4
ENDBRANCH   2   3
ENDBRANCH   1   2
BRANCH   1  21
ATOM     21  O   UNL A   1      32.594  30.128  26.975  1.00  0.00    -0.374 OA
BRANCH  21  22
ATOM     22  C   UNL A   1      31.683  31.018  26.327  1.00  0.00     0.202 C 
BRANCH  22  23
ATOM     23  C   UNL A   1      31.579  32.434  26.910  1.00  0.00     0.261 C 
BRANCH  23  24
ATOM     24  O   UNL A   1      32.797  33.188  26.753  1.00  0.00    -0.460 OA
BRANCH  24  25
ATOM     25  C   UNL A   1      33.328  33.653  27.909  1.00  0.00     0.338 C 
ATOM     26  O   UNL A   1      32.817  34.434  28.700  1.00  0.00    -0.246 OA
BRANCH  25  27
ATOM     27  C   UNL A   1      34.591  32.956  28.215  1.00  0.00     0.060 A 
ATOM     28  C   UNL A   1      34.509  31.615  28.613  1.00  0.00     0.016 A 
ATOM     29  C   UNL A   1      35.818  33.622  28.217  1.00  0.00     0.016 A 
ATOM     30  C   UNL A   1      35.647  30.948  29.061  1.00  0.00     0.010 A 
ATOM     31  C   UNL A   1      36.958  32.952  28.678  1.00  0.00     0.010 A 
ATOM     32  C   UNL A   1      36.871  31.625  29.136  1.00  0.00    -0.014 A 
BRANCH  32  33
ATOM     33  C   UNL A   1      38.014  30.986  29.833  1.00  0.00     0.031 A 
ATOM     34  C   UNL A   1      38.267  31.317  31.279  1.00  0.00     0.074 A 
ATOM     35  C   UNL A   1      38.796  30.091  29.204  1.00  0.00     0.049 A 
ATOM     36  N   UNL A   1      39.213  30.891  32.076  1.00  0.00    -0.248 NA
ATOM     37  C   UNL A   1      37.325  32.256  31.910  1.00  0.00     0.031 C 
ATOM     38  C   UNL A   1      38.632  29.654  27.818  1.00  0.00     0.029 A 
ATOM     39  N   UNL A   1      39.886  29.390  29.653  1.00  0.00    -0.354 N 
ATOM     40  C   UNL A   1      38.979  31.505  33.301  1.00  0.00     0.074 A 
ATOM     41  C   UNL A   1      37.823  32.359  33.133  1.00  0.00     0.031 C 
ATOM     42  C   UNL A   1      39.599  28.767  27.526  1.00  0.00     0.029 A 
ATOM     43  C   UNL A   1      40.461  28.594  28.694  1.00  0.00     0.049 A 
ATOM     44  H   UNL A   1      40.226  29.454  30.575  1.00  0.00     0.167 HD
ATOM     45  C   UNL A   1      39.661  31.363  34.463  1.00  0.00     0.037 A 
ATOM     46  C   UNL A   1      41.567  27.826  28.748  1.00  0.00     0.037 A 
ATOM     47  C   UNL A   1      40.811  30.517  34.633  1.00  0.00     0.049 A 
ATOM     48  C   UNL A   1      42.349  27.738  30.032  1.00  0.00     0.074 A 
ATOM     49  C   UNL A   1      41.562  30.301  35.776  1.00  0.00     0.029 A 
ATOM     50  N   UNL A   1      41.381  29.750  33.629  1.00  0.00    -0.354 N 
ATOM     51  N   UNL A   1      42.109  28.310  31.187  1.00  0.00    -0.248 NA
ATOM     52  C   UNL A   1      43.553  26.894  30.019  1.00  0.00     0.031 C 
ATOM     53  C   UNL A   1      42.611  29.434  35.451  1.00  0.00     0.029 A 
ATOM     54  C   UNL A   1      42.487  29.076  34.119  1.00  0.00     0.049 A 
ATOM     55  H   UNL A   1      41.048  29.692  32.704  1.00  0.00     0.167 HD
ATOM     56  C   UNL A   1      43.114  27.876  32.043  1.00  0.00     0.074 A 
ATOM     57  C   UNL A   1      43.960  26.986  31.277  1.00  0.00     0.031 C 
ATOM     58  C   UNL A   1      43.317  28.188  33.346  1.00  0.00     0.037 A 
BRANCH  45  59
ATOM     59  C   UNL A   1      39.184  32.161  35.640  1.00  0.00     0.057 A 
ATOM     60  C   UNL A   1      38.310  31.621  36.592  1.00  0.00     0.134 A 
ATOM     61  C   UNL A   1      39.628  33.474  35.840  1.00  0.00     0.134 A 
ATOM     62  F   UNL A   1      37.837  30.374  36.451  1.00  0.00    -0.206 F 
ATOM     63  C   UNL A   1      37.878  32.366  37.691  1.00  0.00     0.040 A 
ATOM     64  C   UNL A   1      39.221  34.221  36.946  1.00  0.00     0.040 A 
ATOM     65  F   UNL A   1      40.469  34.049  34.967  1.00  0.00    -0.206 F 
ATOM     66  C   UNL A   1      38.339  33.669  37.873  1.00  0.00     0.006 A 
ENDBRANCH  45  59
BRANCH  46  67
ATOM     67  C   UNL A   1      42.017  27.089  27.540  1.00  0.00     0.057 A 
ATOM     68  C   UNL A   1      42.810  27.705  26.566  1.00  0.00     0.134 A 
ATOM     69  C   UNL A   1      41.645  25.757  27.324  1.00  0.00     0.134 A 
ATOM     70  F   UNL A   1      43.176  28.988  26.706  1.00  0.00    -0.206 F 
ATOM     71  C   UNL A   1      43.206  27.027  25.412  1.00  0.00     0.040 A 
ATOM     72  C   UNL A   1      42.053  25.060  26.186  1.00  0.00     0.040 A 
ATOM     73  F   UNL A   1      40.886  25.111  28.221  1.00  0.00    -0.206 F 
ATOM     74  C   UNL A   1      42.831  25.699  25.222  1.00  0.00     0.006 A 
ENDBRANCH  46  67
BRANCH  58  75
ATOM     75  C   UNL A   1      44.481  27.539  34.037  1.00  0.00     0.057 A 
ATOM     76  C   UNL A   1      45.730  28.166  34.124  1.00  0.00     0.134 A 
ATOM     77  C   UNL A   1      44.337  26.292  34.656  1.00  0.00     0.134 A 
ATOM     78  F   UNL A   1      45.936  29.357  33.542  1.00  0.00    -0.206 F 
ATOM     79  C   UNL A   1      46.801  27.565  34.789  1.00  0.00     0.040 A 
ATOM     80  C   UNL A   1      45.393  25.691  35.343  1.00  0.00     0.040 A 
ATOM     81  F   UNL A   1      43.164  25.642  34.617  1.00  0.00    -0.206 F 
ATOM     82  C   UNL A   1      46.631  26.326  35.406  1.00  0.00     0.006 A 
ENDBRANCH  58  75
ENDBRANCH  32  33
ENDBRANCH  25  27
ENDBRANCH  24  25
ENDBRANCH  23  24
ENDBRANCH  22  23
ENDBRANCH  21  22
ENDBRANCH   1  21
TORSDOF 17
ENDMDL
MODEL 3
REMARK VINA RESULT:     -10.7      5.344     10.729
REMARK SMILES C[C@@H](C(=O)OCCOCCOC(=O)c1ccc(-c2c3nc(c(-c4c(F)cccc4F)c4ccc([nH]4)c(-c4c(F)cccc4F)c4nc(c(-c5c(F)cccc5F)c5ccc2[nH]5)C=C4)C=C3)cc1)c1ccc(C(=O)c2cccs2)cc1
REMARK SMILES IDX 7 1 6 2 5 3 3 4 4 5 2 6 1 7 68 8 69 9 80 10 70 11 79 12
REMARK SMILES IDX 71 13 72 14 73 15 74 16 75 17 78 18 76 19 77 20 8 21 9 22
REMARK SMILES IDX 10 23 11 24 12 25 13 26 14 27 15 28 67 29 16 30 66 31 17 32
REMARK SMILES IDX 18 33 19 34 60 35 20 36 65 37 59 38 61 39 21 40 64 41 58 42
REMARK SMILES IDX 57 43 22 45 48 46 31 47 47 48 32 49 35 50 46 51 62 52 33 53
REMARK SMILES IDX 34 54 45 56 63 57 36 58 23 59 24 60 29 61 25 62 26 63 28 64
REMARK SMILES IDX 30 65 27 66 49 67 50 68 55 69 51 70 52 71 54 72 56 73 53 74
REMARK SMILES IDX 37 75 38 76 43 77 39 78 40 79 42 80 44 81 41 82
REMARK H PARENT 61 44 35 55
REMARK Flexibility Score: inf
ROOT
ATOM      1  C   UNL A   1      44.096  19.601  24.755  1.00  0.00     0.202 C 
ENDROOT
BRANCH   1   2
ATOM      2  C   UNL A   1      43.018  19.301  25.798  1.00  0.00     0.261 C 
BRANCH   2   3
ATOM      3  O   UNL A   1      41.870  20.145  25.609  1.00  0.00    -0.463 OA
BRANCH   3   4
ATOM      4  C   UNL A   1      41.121  20.379  26.723  1.00  0.00     0.313 C 
ATOM      5  O   UNL A   1      40.867  19.526  27.567  1.00  0.00    -0.252 OA
BRANCH   4   6
ATOM      6  C   UNL A   1      40.648  21.839  26.831  1.00  0.00     0.126 C 
ATOM      7  C   UNL A   1      40.732  22.382  28.265  1.00  0.00     0.025 C 
BRANCH   6   8
ATOM      8  C   UNL A   1      39.303  22.072  26.126  1.00  0.00    -0.034 A 
ATOM      9  C   UNL A   1      38.682  23.328  26.239  1.00  0.00     0.005 A 
ATOM     10  C   UNL A   1      38.627  21.084  25.394  1.00  0.00     0.005 A 
ATOM     11  C   UNL A   1      37.453  23.596  25.626  1.00  0.00     0.012 A 
ATOM     12  C   UNL A   1      37.388  21.347  24.781  1.00  0.00     0.012 A 
ATOM     13  C   UNL A   1      36.789  22.606  24.896  1.00  0.00     0.023 A 
BRANCH  13  14
ATOM     14  C   UNL A   1      35.498  22.970  24.224  1.00  0.00     0.202 C 
ATOM     15  O   UNL A   1      35.561  23.477  23.104  1.00  0.00    -0.288 OA
BRANCH  14  16
ATOM     16  C   UNL A   1      34.234  22.711  24.891  1.00  0.00     0.075 A 
ATOM     17  C   UNL A   1      33.345  21.664  24.733  1.00  0.00     0.024 A 
ATOM     18  S   UNL A   1      33.718  23.794  26.116  1.00  0.00    -0.140 S 
ATOM     19  C   UNL A   1      32.220  21.775  25.605  1.00  0.00     0.012 A 
ATOM     20  C   UNL A   1      32.294  22.895  26.403  1.00  0.00     0.065 A 
ENDBRANCH  14  16
ENDBRANCH  13  14
ENDBRANCH   6   8
ENDBRANCH   4   6
ENDBRANCH   3   4
ENDBRANCH   2   3
ENDBRANCH   1   2
BRANCH   1  21
ATOM     21  O   UNL A   1      45.285  20.225  25.238  1.00  0.00    -0.374 OA
BRANCH  21  22
ATOM     22  C   UNL A   1      45.282  21.648  25.363  1.00  0.00     0.202 C 
BRANCH  22  23
ATOM     23  C   UNL A   1      44.665  22.436  24.199  1.00  0.00     0.261 C 
BRANCH  23  24
ATOM     24  O   UNL A   1      43.827  23.519  24.647  1.00  0.00    -0.460 OA
BRANCH  24  25
ATOM     25  C   UNL A   1      44.497  24.633  25.029  1.00  0.00     0.338 C 
ATOM     26  O   UNL A   1      45.583  25.023  24.623  1.00  0.00    -0.246 OA
BRANCH  25  27
ATOM     27  C   UNL A   1      43.661  25.460  25.919  1.00  0.00     0.060 A 
ATOM     28  C   UNL A   1      44.015  26.807  26.072  1.00  0.00     0.016 A 
ATOM     29  C   UNL A   1      42.619  24.912  26.669  1.00  0.00     0.016 A 
ATOM     30  C   UNL A   1      43.361  27.600  27.012  1.00  0.00     0.010 A 
ATOM     31  C   UNL A   1      41.970  25.708  27.621  1.00  0.00     0.010 A 
ATOM     32  C   UNL A   1      42.361  27.045  27.821  1.00  0.00    -0.014 A 
BRANCH  32  33
ATOM     33  C   UNL A   1      41.842  27.823  28.973  1.00  0.00     0.031 A 
ATOM     34  C   UNL A   1      42.562  27.748  30.291  1.00  0.00     0.074 A 
ATOM     35  C   UNL A   1      40.766  28.619  28.839  1.00  0.00     0.049 A 
ATOM     36  N   UNL A   1      42.276  28.329  31.429  1.00  0.00    -0.248 NA
ATOM     37  C   UNL A   1      43.768  26.905  30.332  1.00  0.00     0.031 C 
ATOM     38  C   UNL A   1      40.004  28.810  27.606  1.00  0.00     0.029 A 
ATOM     39  N   UNL A   1      40.129  29.415  29.758  1.00  0.00    -0.354 N 
ATOM     40  C   UNL A   1      43.265  27.926  32.317  1.00  0.00     0.074 A 
ATOM     41  C   UNL A   1      44.139  27.024  31.598  1.00  0.00     0.031 C 
ATOM     42  C   UNL A   1      38.992  29.661  27.850  1.00  0.00     0.029 A 
ATOM     43  C   UNL A   1      39.021  30.053  29.258  1.00  0.00     0.049 A 
ATOM     44  H   UNL A   1      40.437  29.518  30.688  1.00  0.00     0.167 HD
ATOM     45  C   UNL A   1      43.435  28.281  33.613  1.00  0.00     0.037 A 
ATOM     46  C   UNL A   1      38.123  30.848  29.871  1.00  0.00     0.037 A 
ATOM     47  C   UNL A   1      42.567  29.175  34.332  1.00  0.00     0.049 A 
ATOM     48  C   UNL A   1      38.294  31.173  31.331  1.00  0.00     0.074 A 
ATOM     49  C   UNL A   1      42.664  29.601  35.646  1.00  0.00     0.029 A 
ATOM     50  N   UNL A   1      41.438  29.776  33.799  1.00  0.00    -0.354 N 
ATOM     51  N   UNL A   1      39.242  30.800  32.156  1.00  0.00    -0.248 NA
ATOM     52  C   UNL A   1      37.272  32.036  31.943  1.00  0.00     0.031 C 
ATOM     53  C   UNL A   1      41.569  30.429  35.918  1.00  0.00     0.029 A 
ATOM     54  C   UNL A   1      40.816  30.552  34.762  1.00  0.00     0.049 A 
ATOM     55  H   UNL A   1      41.124  29.667  32.872  1.00  0.00     0.167 HD
ATOM     56  C   UNL A   1      38.945  31.399  33.374  1.00  0.00     0.074 A 
ATOM     57  C   UNL A   1      37.735  32.170  33.178  1.00  0.00     0.031 C 
ATOM     58  C   UNL A   1      39.615  31.319  34.550  1.00  0.00     0.037 A 
BRANCH  45  59
ATOM     59  C   UNL A   1      44.600  27.682  34.343  1.00  0.00     0.057 A 
ATOM     60  C   UNL A   1      45.843  28.326  34.404  1.00  0.00     0.134 A 
ATOM     61  C   UNL A   1      44.471  26.460  35.016  1.00  0.00     0.134 A 
ATOM     62  F   UNL A   1      46.036  29.492  33.769  1.00  0.00    -0.206 F 
ATOM     63  C   UNL A   1      46.921  27.767  35.093  1.00  0.00     0.040 A 
ATOM     64  C   UNL A   1      45.534  25.903  35.727  1.00  0.00     0.040 A 
ATOM     65  F   UNL A   1      43.307  25.794  34.999  1.00  0.00    -0.206 F 
ATOM     66  C   UNL A   1      46.766  26.554  35.762  1.00  0.00     0.006 A 
ENDBRANCH  45  59
BRANCH  46  67
ATOM     67  C   UNL A   1      36.965  31.382  29.111  1.00  0.00     0.057 A 
ATOM     68  C   UNL A   1      36.936  32.708  28.666  1.00  0.00     0.134 A 
ATOM     69  C   UNL A   1      35.851  30.581  28.830  1.00  0.00     0.134 A 
ATOM     70  F   UNL A   1      37.964  33.530  28.928  1.00  0.00    -0.206 F 
ATOM     71  C   UNL A   1      35.835  33.224  27.983  1.00  0.00     0.040 A 
ATOM     72  C   UNL A   1      34.753  31.078  28.127  1.00  0.00     0.040 A 
ATOM     73  F   UNL A   1      35.818  29.302  29.230  1.00  0.00    -0.206 F 
ATOM     74  C   UNL A   1      34.741  32.406  27.707  1.00  0.00     0.006 A 
ENDBRANCH  46  67
BRANCH  58  75
ATOM     75  C   UNL A   1      39.073  32.106  35.707  1.00  0.00     0.057 A 
ATOM     76  C   UNL A   1      38.249  31.522  36.677  1.00  0.00     0.134 A 
ATOM     77  C   UNL A   1      39.415  33.454  35.874  1.00  0.00     0.134 A 
ATOM     78  F   UNL A   1      37.876  30.238  36.568  1.00  0.00    -0.206 F 
ATOM     79  C   UNL A   1      37.769  32.256  37.763  1.00  0.00     0.040 A 
ATOM     80  C   UNL A   1      38.960  34.193  36.968  1.00  0.00     0.040 A 
ATOM     81  F   UNL A   1      40.209  34.072  34.986  1.00  0.00    -0.206 F 
ATOM     82  C   UNL A   1      38.130  33.595  37.913  1.00  0.00     0.006 A 
ENDBRANCH  58  75
ENDBRANCH  32  33
ENDBRANCH  25  27
ENDBRANCH  24  25
ENDBRANCH  23  24
ENDBRANCH  22  23
ENDBRANCH  21  22
ENDBRANCH   1  21
TORSDOF 17
ENDMDL
