MODEL 1
REMARK VINA RESULT:     -13.6      0.000      0.000
REMARK SMILES C[C@]12C(=O)N(c3ccc(C(=O)OCCOCCOC(=O)c4ccc(-c5c6nc(c(-c7c(F)cccc7F)c7ccc([nH]7)c(-c7c(F)cccc7F)c7nc(c(-c8c(F)cccc8F)c8ccc5[nH]8)C=C7)C=C6)cc4)cc3)C(=O)[C@H]1[C@H]1c3ccccc3[C@@H]2c2ccccc21
REMARK SMILES IDX 16 1 15 2 14 3 13 4 12 5 10 6 11 7 9 8 6 9 7 10 76 11 8 12
REMARK SMILES IDX 75 13 5 14 1 15 2 16 3 17 79 18 87 19 4 20 77 21 80 22 86 23
REMARK SMILES IDX 88 24 78 25 81 26 93 27 85 28 89 29 82 30 92 31 84 32 90 33
REMARK SMILES IDX 83 34 91 35 17 36 18 37 19 38 20 39 21 40 22 41 74 42 23 43
REMARK SMILES IDX 73 44 24 45 25 46 26 47 67 48 27 49 72 50 66 51 68 52 28 53
REMARK SMILES IDX 71 54 65 55 64 56 29 58 55 59 38 60 54 61 39 62 42 63 53 64
REMARK SMILES IDX 69 65 40 66 41 67 52 69 70 70 43 71 30 72 31 73 36 74 32 75
REMARK SMILES IDX 33 76 35 77 37 78 34 79 56 80 57 81 62 82 58 83 59 84 61 85
REMARK SMILES IDX 63 86 60 87 44 88 45 89 50 90 46 91 47 92 49 93 51 94 48 95
REMARK H PARENT 68 57 42 68
REMARK Flexibility Score: inf
ROOT
ATOM      1  C   UNL A   1      41.348  20.718  26.749  1.00  0.00     0.202 C 
ENDROOT
BRANCH   1   2
ATOM      2  O   UNL A   1      40.148  21.443  26.992  1.00  0.00    -0.374 OA
BRANCH   2   3
ATOM      3  C   UNL A   1      39.166  21.504  25.958  1.00  0.00     0.202 C 
BRANCH   3   4
ATOM      4  C   UNL A   1      38.199  22.691  25.950  1.00  0.00     0.261 C 
BRANCH   4   5
ATOM      5  O   UNL A   1      37.158  22.540  24.969  1.00  0.00    -0.460 OA
BRANCH   5   6
ATOM      6  C   UNL A   1      35.950  22.223  25.492  1.00  0.00     0.338 C 
ATOM      7  O   UNL A   1      35.714  21.434  26.392  1.00  0.00    -0.246 OA
BRANCH   6   8
ATOM      8  C   UNL A   1      34.912  23.129  24.971  1.00  0.00     0.060 A 
ATOM      9  C   UNL A   1      32.761  24.848  24.459  1.00  0.00     0.052 A 
ATOM     10  C   UNL A   1      33.883  25.298  25.171  1.00  0.00     0.028 A 
ATOM     11  C   UNL A   1      32.804  23.566  23.884  1.00  0.00     0.028 A 
ATOM     12  C   UNL A   1      34.929  24.433  25.464  1.00  0.00     0.018 A 
ATOM     13  C   UNL A   1      33.889  22.708  24.124  1.00  0.00     0.018 A 
BRANCH   9  14
ATOM     14  N   UNL A   1      31.559  25.577  24.583  1.00  0.00    -0.250 N 
ATOM     15  C   UNL A   1      28.394  26.772  23.905  1.00  0.00     0.024 C 
ATOM     16  C   UNL A   1      29.902  26.990  23.866  1.00  0.00     0.071 C 
ATOM     17  C   UNL A   1      30.580  25.665  23.659  1.00  0.00     0.241 C 
ATOM     18  C   UNL A   1      30.449  27.674  25.162  1.00  0.00     0.107 C 
ATOM     19  C   UNL A   1      30.395  27.788  22.565  1.00  0.00     0.066 C 
ATOM     20  O   UNL A   1      30.273  24.872  22.778  1.00  0.00    -0.273 OA
ATOM     21  C   UNL A   1      31.200  26.356  25.624  1.00  0.00     0.238 C 
ATOM     22  C   UNL A   1      30.961  29.091  24.740  1.00  0.00     0.063 C 
ATOM     23  C   UNL A   1      31.901  28.087  22.739  1.00  0.00    -0.036 A 
ATOM     24  C   UNL A   1      29.678  29.118  22.625  1.00  0.00    -0.036 A 
ATOM     25  O   UNL A   1      31.240  25.978  26.800  1.00  0.00    -0.274 OA
ATOM     26  C   UNL A   1      32.190  28.799  23.927  1.00  0.00    -0.036 A 
ATOM     27  C   UNL A   1      29.937  29.808  23.829  1.00  0.00    -0.036 A 
ATOM     28  C   UNL A   1      32.935  27.666  21.922  1.00  0.00     0.005 A 
ATOM     29  C   UNL A   1      28.881  29.658  21.624  1.00  0.00     0.005 A 
ATOM     30  C   UNL A   1      33.487  29.082  24.316  1.00  0.00     0.004 A 
ATOM     31  C   UNL A   1      29.377  31.064  24.027  1.00  0.00     0.004 A 
ATOM     32  C   UNL A   1      34.250  27.934  22.318  1.00  0.00     0.000 A 
ATOM     33  C   UNL A   1      28.329  30.919  21.826  1.00  0.00     0.000 A 
ATOM     34  C   UNL A   1      34.524  28.637  23.503  1.00  0.00     0.000 A 
ATOM     35  C   UNL A   1      28.573  31.616  23.019  1.00  0.00     0.000 A 
ENDBRANCH   9  14
ENDBRANCH   6   8
ENDBRANCH   5   6
ENDBRANCH   4   5
ENDBRANCH   3   4
ENDBRANCH   2   3
ENDBRANCH   1   2
BRANCH   1  36
ATOM     36  C   UNL A   1      42.506  21.435  26.041  1.00  0.00     0.261 C 
BRANCH  36  37
ATOM     37  O   UNL A   1      42.107  22.632  25.360  1.00  0.00    -0.460 OA
BRANCH  37  38
ATOM     38  C   UNL A   1      43.031  23.637  25.400  1.00  0.00     0.338 C 
ATOM     39  O   UNL A   1      44.006  23.770  24.713  1.00  0.00    -0.246 OA
BRANCH  38  40
ATOM     40  C   UNL A   1      42.549  24.682  26.337  1.00  0.00     0.060 A 
ATOM     41  C   UNL A   1      41.497  24.436  27.217  1.00  0.00     0.016 A 
ATOM     42  C   UNL A   1      43.208  25.918  26.339  1.00  0.00     0.016 A 
ATOM     43  C   UNL A   1      41.123  25.429  28.124  1.00  0.00     0.010 A 
ATOM     44  C   UNL A   1      42.836  26.907  27.253  1.00  0.00     0.010 A 
ATOM     45  C   UNL A   1      41.803  26.662  28.166  1.00  0.00    -0.014 A 
BRANCH  45  46
ATOM     46  C   UNL A   1      41.496  27.626  29.253  1.00  0.00     0.031 A 
ATOM     47  C   UNL A   1      40.359  28.598  29.149  1.00  0.00     0.074 A 
ATOM     48  C   UNL A   1      42.253  27.592  30.366  1.00  0.00     0.049 A 
ATOM     49  N   UNL A   1      39.877  29.401  30.066  1.00  0.00    -0.248 NA
ATOM     50  C   UNL A   1      39.677  28.688  27.851  1.00  0.00     0.031 C 
ATOM     51  C   UNL A   1      43.414  26.723  30.568  1.00  0.00     0.029 A 
ATOM     52  N   UNL A   1      42.148  28.285  31.544  1.00  0.00    -0.354 N 
ATOM     53  C   UNL A   1      38.814  30.065  29.471  1.00  0.00     0.074 A 
ATOM     54  C   UNL A   1      38.764  29.621  28.093  1.00  0.00     0.031 C 
ATOM     55  C   UNL A   1      43.882  26.897  31.813  1.00  0.00     0.029 A 
ATOM     56  C   UNL A   1      43.075  27.910  32.486  1.00  0.00     0.049 A 
ATOM     57  H   UNL A   1      41.473  28.985  31.701  1.00  0.00     0.167 HD
ATOM     58  C   UNL A   1      37.946  30.945  30.029  1.00  0.00     0.037 A 
ATOM     59  C   UNL A   1      43.247  28.327  33.753  1.00  0.00     0.037 A 
ATOM     60  C   UNL A   1      38.024  31.418  31.390  1.00  0.00     0.049 A 
ATOM     61  C   UNL A   1      42.306  29.352  34.322  1.00  0.00     0.074 A 
ATOM     62  C   UNL A   1      37.190  32.307  32.046  1.00  0.00     0.029 A 
ATOM     63  N   UNL A   1      39.005  31.052  32.300  1.00  0.00    -0.354 N 
ATOM     64  N   UNL A   1      41.255  29.912  33.774  1.00  0.00    -0.248 NA
ATOM     65  C   UNL A   1      42.570  29.792  35.699  1.00  0.00     0.031 C 
ATOM     66  C   UNL A   1      37.693  32.517  33.335  1.00  0.00     0.029 A 
ATOM     67  C   UNL A   1      38.805  31.710  33.505  1.00  0.00     0.049 A 
ATOM     68  H   UNL A   1      39.735  30.417  32.119  1.00  0.00     0.167 HD
ATOM     69  C   UNL A   1      40.711  30.736  34.751  1.00  0.00     0.074 A 
ATOM     70  C   UNL A   1      41.537  30.584  35.931  1.00  0.00     0.031 C 
ATOM     71  C   UNL A   1      39.626  31.547  34.679  1.00  0.00     0.037 A 
BRANCH  58  72
ATOM     72  C   UNL A   1      36.827  31.452  29.163  1.00  0.00     0.057 A 
ATOM     73  C   UNL A   1      36.813  32.772  28.695  1.00  0.00     0.134 A 
ATOM     74  C   UNL A   1      35.735  30.639  28.829  1.00  0.00     0.134 A 
ATOM     75  F   UNL A   1      37.819  33.610  28.987  1.00  0.00    -0.206 F 
ATOM     76  C   UNL A   1      35.755  33.264  27.927  1.00  0.00     0.040 A 
ATOM     77  C   UNL A   1      34.684  31.111  28.038  1.00  0.00     0.040 A 
ATOM     78  F   UNL A   1      35.686  29.362  29.239  1.00  0.00    -0.206 F 
ATOM     79  C   UNL A   1      34.690  32.430  27.591  1.00  0.00     0.006 A 
ENDBRANCH  58  72
BRANCH  59  80
ATOM     80  C   UNL A   1      44.338  27.767  34.593  1.00  0.00     0.057 A 
ATOM     81  C   UNL A   1      45.577  28.410  34.700  1.00  0.00     0.134 A 
ATOM     82  C   UNL A   1      44.142  26.612  35.360  1.00  0.00     0.134 A 
ATOM     83  F   UNL A   1      45.833  29.513  33.984  1.00  0.00    -0.206 F 
ATOM     84  C   UNL A   1      46.576  27.933  35.550  1.00  0.00     0.040 A 
ATOM     85  C   UNL A   1      45.119  26.144  36.240  1.00  0.00     0.040 A 
ATOM     86  F   UNL A   1      42.971  25.960  35.314  1.00  0.00    -0.206 F 
ATOM     87  C   UNL A   1      46.340  26.807  36.337  1.00  0.00     0.006 A 
ENDBRANCH  59  80
BRANCH  71  88
ATOM     88  C   UNL A   1      39.241  32.280  35.935  1.00  0.00     0.057 A 
ATOM     89  C   UNL A   1      39.745  33.561  36.191  1.00  0.00     0.134 A 
ATOM     90  C   UNL A   1      38.360  31.735  36.880  1.00  0.00     0.134 A 
ATOM     91  F   UNL A   1      40.602  34.141  35.337  1.00  0.00    -0.206 F 
ATOM     92  C   UNL A   1      39.376  34.279  37.330  1.00  0.00     0.040 A 
ATOM     93  C   UNL A   1      37.955  32.458  38.005  1.00  0.00     0.040 A 
ATOM     94  F   UNL A   1      37.828  30.517  36.691  1.00  0.00    -0.206 F 
ATOM     95  C   UNL A   1      38.466  33.733  38.233  1.00  0.00     0.006 A 
ENDBRANCH  71  88
ENDBRANCH  45  46
ENDBRANCH  38  40
ENDBRANCH  37  38
ENDBRANCH  36  37
ENDBRANCH   1  36
TORSDOF 15
ENDMDL
MODEL 2
REMARK VINA RESULT:     -13.5      1.120      1.762
REMARK SMILES C[C@]12C(=O)N(c3ccc(C(=O)OCCOCCOC(=O)c4ccc(-c5c6nc(c(-c7c(F)cccc7F)c7ccc([nH]7)c(-c7c(F)cccc7F)c7nc(c(-c8c(F)cccc8F)c8ccc5[nH]8)C=C7)C=C6)cc4)cc3)C(=O)[C@H]1[C@H]1c3ccccc3[C@@H]2c2ccccc21
REMARK SMILES IDX 16 1 15 2 14 3 13 4 12 5 10 6 11 7 9 8 6 9 7 10 76 11 8 12
REMARK SMILES IDX 75 13 5 14 1 15 2 16 3 17 79 18 87 19 4 20 77 21 80 22 86 23
REMARK SMILES IDX 88 24 78 25 81 26 93 27 85 28 89 29 82 30 92 31 84 32 90 33
REMARK SMILES IDX 83 34 91 35 17 36 18 37 19 38 20 39 21 40 22 41 74 42 23 43
REMARK SMILES IDX 73 44 24 45 25 46 26 47 67 48 27 49 72 50 66 51 68 52 28 53
REMARK SMILES IDX 71 54 65 55 64 56 29 58 55 59 38 60 54 61 39 62 42 63 53 64
REMARK SMILES IDX 69 65 40 66 41 67 52 69 70 70 43 71 30 72 31 73 36 74 32 75
REMARK SMILES IDX 33 76 35 77 37 78 34 79 56 80 57 81 62 82 58 83 59 84 61 85
REMARK SMILES IDX 63 86 60 87 44 88 45 89 50 90 46 91 47 92 49 93 51 94 48 95
REMARK H PARENT 68 57 42 68
REMARK Flexibility Score: inf
ROOT
ATOM      1  C   UNL A   1      42.633  20.671  26.216  1.00  0.00     0.202 C 
ENDROOT
BRANCH   1   2
ATOM      2  O   UNL A   1      41.313  20.557  25.697  1.00  0.00    -0.374 OA
BRANCH   2   3
ATOM      3  C   UNL A   1      40.214  20.886  26.545  1.00  0.00     0.202 C 
BRANCH   3   4
ATOM      4  C   UNL A   1      39.660  22.313  26.490  1.00  0.00     0.261 C 
BRANCH   4   5
ATOM      5  O   UNL A   1      38.362  22.370  25.873  1.00  0.00    -0.460 OA
BRANCH   5   6
ATOM      6  C   UNL A   1      37.703  23.534  26.084  1.00  0.00     0.338 C 
ATOM      7  O   UNL A   1      38.154  24.569  26.545  1.00  0.00    -0.246 OA
BRANCH   6   8
ATOM      8  C   UNL A   1      36.363  23.481  25.477  1.00  0.00     0.060 A 
ATOM      9  C   UNL A   1      33.973  23.779  24.048  1.00  0.00     0.052 A 
ATOM     10  C   UNL A   1      35.114  23.246  23.431  1.00  0.00     0.028 A 
ATOM     11  C   UNL A   1      34.013  24.023  25.431  1.00  0.00     0.028 A 
ATOM     12  C   UNL A   1      36.310  23.139  24.127  1.00  0.00     0.018 A 
ATOM     13  C   UNL A   1      35.205  23.858  26.155  1.00  0.00     0.018 A 
BRANCH   9  14
ATOM     14  N   UNL A   1      32.951  24.296  23.222  1.00  0.00    -0.250 N 
ATOM     15  C   UNL A   1      31.385  26.033  20.686  1.00  0.00     0.024 C 
ATOM     16  C   UNL A   1      31.782  25.955  22.156  1.00  0.00     0.071 C 
ATOM     17  C   UNL A   1      33.097  25.237  22.266  1.00  0.00     0.241 C 
ATOM     18  C   UNL A   1      30.705  25.239  23.036  1.00  0.00     0.107 C 
ATOM     19  C   UNL A   1      32.161  27.379  22.788  1.00  0.00     0.066 C 
ATOM     20  O   UNL A   1      34.088  25.521  21.605  1.00  0.00    -0.273 OA
ATOM     21  C   UNL A   1      31.641  23.981  23.279  1.00  0.00     0.238 C 
ATOM     22  C   UNL A   1      30.119  26.323  23.999  1.00  0.00     0.063 C 
ATOM     23  C   UNL A   1      32.371  27.178  24.305  1.00  0.00    -0.036 A 
ATOM     24  C   UNL A   1      30.916  28.223  22.629  1.00  0.00    -0.036 A 
ATOM     25  O   UNL A   1      31.222  22.818  23.283  1.00  0.00    -0.274 OA
ATOM     26  C   UNL A   1      31.249  26.605  24.949  1.00  0.00    -0.036 A 
ATOM     27  C   UNL A   1      29.790  27.629  23.238  1.00  0.00    -0.036 A 
ATOM     28  C   UNL A   1      33.527  27.419  25.026  1.00  0.00     0.005 A 
ATOM     29  C   UNL A   1      30.848  29.461  22.002  1.00  0.00     0.005 A 
ATOM     30  C   UNL A   1      31.268  26.258  26.288  1.00  0.00     0.004 A 
ATOM     31  C   UNL A   1      28.571  28.295  23.209  1.00  0.00     0.004 A 
ATOM     32  C   UNL A   1      33.559  27.054  26.378  1.00  0.00     0.000 A 
ATOM     33  C   UNL A   1      29.625  30.125  21.984  1.00  0.00     0.000 A 
ATOM     34  C   UNL A   1      32.440  26.480  27.002  1.00  0.00     0.000 A 
ATOM     35  C   UNL A   1      28.495  29.546  22.579  1.00  0.00     0.000 A 
ENDBRANCH   9  14
ENDBRANCH   6   8
ENDBRANCH   5   6
ENDBRANCH   4   5
ENDBRANCH   3   4
ENDBRANCH   2   3
ENDBRANCH   1   2
BRANCH   1  36
ATOM     36  C   UNL A   1      43.525  21.811  25.707  1.00  0.00     0.261 C 
BRANCH  36  37
ATOM     37  O   UNL A   1      42.794  22.986  25.331  1.00  0.00    -0.460 OA
BRANCH  37  38
ATOM     38  C   UNL A   1      43.542  24.128  25.293  1.00  0.00     0.338 C 
ATOM     39  O   UNL A   1      44.427  24.403  24.531  1.00  0.00    -0.246 OA
BRANCH  38  40
ATOM     40  C   UNL A   1      42.971  25.098  26.260  1.00  0.00     0.060 A 
ATOM     41  C   UNL A   1      42.006  24.713  27.187  1.00  0.00     0.016 A 
ATOM     42  C   UNL A   1      43.457  26.412  26.239  1.00  0.00     0.016 A 
ATOM     43  C   UNL A   1      41.546  25.646  28.119  1.00  0.00     0.010 A 
ATOM     44  C   UNL A   1      43.001  27.341  27.175  1.00  0.00     0.010 A 
ATOM     45  C   UNL A   1      42.056  26.959  28.136  1.00  0.00    -0.014 A 
BRANCH  45  46
ATOM     46  C   UNL A   1      41.675  27.873  29.243  1.00  0.00     0.031 A 
ATOM     47  C   UNL A   1      40.484  28.778  29.146  1.00  0.00     0.074 A 
ATOM     48  C   UNL A   1      42.416  27.854  30.367  1.00  0.00     0.049 A 
ATOM     49  N   UNL A   1      39.941  29.525  30.077  1.00  0.00    -0.248 NA
ATOM     50  C   UNL A   1      39.816  28.863  27.840  1.00  0.00     0.031 C 
ATOM     51  C   UNL A   1      43.625  27.050  30.564  1.00  0.00     0.029 A 
ATOM     52  N   UNL A   1      42.252  28.507  31.561  1.00  0.00    -0.354 N 
ATOM     53  C   UNL A   1      38.849  30.141  29.482  1.00  0.00     0.074 A 
ATOM     54  C   UNL A   1      38.846  29.733  28.091  1.00  0.00     0.031 C 
ATOM     55  C   UNL A   1      44.063  27.217  31.822  1.00  0.00     0.029 A 
ATOM     56  C   UNL A   1      43.186  28.162  32.508  1.00  0.00     0.049 A 
ATOM     57  H   UNL A   1      41.535  29.161  31.725  1.00  0.00     0.167 HD
ATOM     58  C   UNL A   1      37.921  30.953  30.048  1.00  0.00     0.037 A 
ATOM     59  C   UNL A   1      43.315  28.553  33.788  1.00  0.00     0.037 A 
ATOM     60  C   UNL A   1      37.951  31.391  31.423  1.00  0.00     0.049 A 
ATOM     61  C   UNL A   1      42.306  29.504  34.369  1.00  0.00     0.074 A 
ATOM     62  C   UNL A   1      37.055  32.210  32.089  1.00  0.00     0.029 A 
ATOM     63  N   UNL A   1      38.938  31.059  32.339  1.00  0.00    -0.354 N 
ATOM     64  N   UNL A   1      41.231  30.015  33.819  1.00  0.00    -0.248 NA
ATOM     65  C   UNL A   1      42.522  29.921  35.761  1.00  0.00     0.031 C 
ATOM     66  C   UNL A   1      37.526  32.414  33.391  1.00  0.00     0.029 A 
ATOM     67  C   UNL A   1      38.682  31.671  33.557  1.00  0.00     0.049 A 
ATOM     68  H   UNL A   1      39.708  30.475  32.153  1.00  0.00     0.167 HD
ATOM     69  C   UNL A   1      40.624  30.779  34.808  1.00  0.00     0.074 A 
ATOM     70  C   UNL A   1      41.439  30.643  35.997  1.00  0.00     0.031 C 
ATOM     71  C   UNL A   1      39.494  31.525  34.739  1.00  0.00     0.037 A 
BRANCH  58  72
ATOM     72  C   UNL A   1      36.787  31.415  29.178  1.00  0.00     0.057 A 
ATOM     73  C   UNL A   1      36.734  32.728  28.693  1.00  0.00     0.134 A 
ATOM     74  C   UNL A   1      35.718  30.566  28.856  1.00  0.00     0.134 A 
ATOM     75  F   UNL A   1      37.716  33.598  28.971  1.00  0.00    -0.206 F 
ATOM     76  C   UNL A   1      35.661  33.179  27.920  1.00  0.00     0.040 A 
ATOM     77  C   UNL A   1      34.653  30.998  28.062  1.00  0.00     0.040 A 
ATOM     78  F   UNL A   1      35.707  29.295  29.283  1.00  0.00    -0.206 F 
ATOM     79  C   UNL A   1      34.620  32.311  27.597  1.00  0.00     0.006 A 
ENDBRANCH  58  72
BRANCH  59  80
ATOM     80  C   UNL A   1      44.425  28.037  34.630  1.00  0.00     0.057 A 
ATOM     81  C   UNL A   1      45.652  28.704  34.707  1.00  0.00     0.134 A 
ATOM     82  C   UNL A   1      44.258  26.900  35.431  1.00  0.00     0.134 A 
ATOM     83  F   UNL A   1      45.880  29.792  33.958  1.00  0.00    -0.206 F 
ATOM     84  C   UNL A   1      46.669  28.269  35.558  1.00  0.00     0.040 A 
ATOM     85  C   UNL A   1      45.253  26.474  36.313  1.00  0.00     0.040 A 
ATOM     86  F   UNL A   1      43.099  26.225  35.415  1.00  0.00    -0.206 F 
ATOM     87  C   UNL A   1      46.463  27.161  36.378  1.00  0.00     0.006 A 
ENDBRANCH  59  80
BRANCH  71  88
ATOM     88  C   UNL A   1      39.047  32.199  36.008  1.00  0.00     0.057 A 
ATOM     89  C   UNL A   1      39.463  33.502  36.303  1.00  0.00     0.134 A 
ATOM     90  C   UNL A   1      38.192  31.574  36.927  1.00  0.00     0.134 A 
ATOM     91  F   UNL A   1      40.292  34.158  35.476  1.00  0.00    -0.206 F 
ATOM     92  C   UNL A   1      39.035  34.165  37.455  1.00  0.00     0.040 A 
ATOM     93  C   UNL A   1      37.727  32.239  38.064  1.00  0.00     0.040 A 
ATOM     94  F   UNL A   1      37.742  30.330  36.700  1.00  0.00    -0.206 F 
ATOM     95  C   UNL A   1      38.152  33.539  38.331  1.00  0.00     0.006 A 
ENDBRANCH  71  88
ENDBRANCH  45  46
ENDBRANCH  38  40
ENDBRANCH  37  38
ENDBRANCH  36  37
ENDBRANCH   1  36
TORSDOF 15
ENDMDL
MODEL 3
REMARK VINA RESULT:     -13.4      4.707      8.499
REMARK SMILES C[C@]12C(=O)N(c3ccc(C(=O)OCCOCCOC(=O)c4ccc(-c5c6nc(c(-c7c(F)cccc7F)c7ccc([nH]7)c(-c7c(F)cccc7F)c7nc(c(-c8c(F)cccc8F)c8ccc5[nH]8)C=C7)C=C6)cc4)cc3)C(=O)[C@H]1[C@H]1c3ccccc3[C@@H]2c2ccccc21
REMARK SMILES IDX 16 1 15 2 14 3 13 4 12 5 10 6 11 7 9 8 6 9 7 10 76 11 8 12
REMARK SMILES IDX 75 13 5 14 1 15 2 16 3 17 79 18 87 19 4 20 77 21 80 22 86 23
REMARK SMILES IDX 88 24 78 25 81 26 93 27 85 28 89 29 82 30 92 31 84 32 90 33
REMARK SMILES IDX 83 34 91 35 17 36 18 37 19 38 20 39 21 40 22 41 74 42 23 43
REMARK SMILES IDX 73 44 24 45 25 46 26 47 67 48 27 49 72 50 66 51 68 52 28 53
REMARK SMILES IDX 71 54 65 55 64 56 29 58 55 59 38 60 54 61 39 62 42 63 53 64
REMARK SMILES IDX 69 65 40 66 41 67 52 69 70 70 43 71 30 72 31 73 36 74 32 75
REMARK SMILES IDX 33 76 35 77 37 78 34 79 56 80 57 81 62 82 58 83 59 84 61 85
REMARK SMILES IDX 63 86 60 87 44 88 45 89 50 90 46 91 47 92 49 93 51 94 48 95
REMARK H PARENT 68 57 42 68
REMARK Flexibility Score: inf
ROOT
ATOM      1  C   UNL A   1      40.766  21.064  27.158  1.00  0.00     0.202 C 
ENDROOT
BRANCH   1   2
ATOM      2  O   UNL A   1      41.163  19.938  26.383  1.00  0.00    -0.374 OA
BRANCH   2   3
ATOM      3  C   UNL A   1      42.284  19.170  26.817  1.00  0.00     0.202 C 
BRANCH   3   4
ATOM      4  C   UNL A   1      43.216  18.584  25.752  1.00  0.00     0.261 C 
BRANCH   4   5
ATOM      5  O   UNL A   1      43.595  19.557  24.764  1.00  0.00    -0.460 OA
BRANCH   5   6
ATOM      6  C   UNL A   1      44.748  20.208  25.045  1.00  0.00     0.338 C 
ATOM      7  O   UNL A   1      45.840  19.716  25.278  1.00  0.00    -0.246 OA
BRANCH   6   8
ATOM      8  C   UNL A   1      44.586  21.655  24.830  1.00  0.00     0.060 A 
ATOM      9  C   UNL A   1      44.570  24.456  24.836  1.00  0.00     0.052 A 
ATOM     10  C   UNL A   1      45.714  23.747  24.442  1.00  0.00     0.028 A 
ATOM     11  C   UNL A   1      43.390  23.734  25.086  1.00  0.00     0.028 A 
ATOM     12  C   UNL A   1      45.737  22.360  24.482  1.00  0.00     0.018 A 
ATOM     13  C   UNL A   1      43.389  22.330  25.067  1.00  0.00     0.018 A 
BRANCH   9  14
ATOM     14  N   UNL A   1      44.724  25.804  25.225  1.00  0.00    -0.250 N 
ATOM     15  C   UNL A   1      46.218  28.814  26.009  1.00  0.00     0.024 C 
ATOM     16  C   UNL A   1      45.574  27.518  26.489  1.00  0.00     0.071 C 
ATOM     17  C   UNL A   1      45.888  26.426  25.505  1.00  0.00     0.241 C 
ATOM     18  C   UNL A   1      44.025  27.644  26.673  1.00  0.00     0.107 C 
ATOM     19  C   UNL A   1      46.247  26.929  27.819  1.00  0.00     0.066 C 
ATOM     20  O   UNL A   1      47.015  26.178  25.097  1.00  0.00    -0.273 OA
ATOM     21  C   UNL A   1      43.732  26.694  25.437  1.00  0.00     0.238 C 
ATOM     22  C   UNL A   1      43.743  27.504  28.205  1.00  0.00     0.063 C 
ATOM     23  C   UNL A   1      45.395  25.727  28.284  1.00  0.00    -0.036 A 
ATOM     24  C   UNL A   1      46.073  28.012  28.860  1.00  0.00    -0.036 A 
ATOM     25  O   UNL A   1      42.821  26.899  24.627  1.00  0.00    -0.274 OA
ATOM     26  C   UNL A   1      44.036  26.058  28.492  1.00  0.00    -0.036 A 
ATOM     27  C   UNL A   1      44.719  28.369  29.036  1.00  0.00    -0.036 A 
ATOM     28  C   UNL A   1      45.811  24.414  28.423  1.00  0.00     0.005 A 
ATOM     29  C   UNL A   1      47.091  28.591  29.608  1.00  0.00     0.005 A 
ATOM     30  C   UNL A   1      43.088  25.104  28.818  1.00  0.00     0.004 A 
ATOM     31  C   UNL A   1      44.387  29.332  29.981  1.00  0.00     0.004 A 
ATOM     32  C   UNL A   1      44.854  23.441  28.736  1.00  0.00     0.000 A 
ATOM     33  C   UNL A   1      46.750  29.548  30.558  1.00  0.00     0.000 A 
ATOM     34  C   UNL A   1      43.507  23.783  28.934  1.00  0.00     0.000 A 
ATOM     35  C   UNL A   1      45.409  29.918  30.742  1.00  0.00     0.000 A 
ENDBRANCH   9  14
ENDBRANCH   6   8
ENDBRANCH   5   6
ENDBRANCH   4   5
ENDBRANCH   3   4
ENDBRANCH   2   3
ENDBRANCH   1   2
BRANCH   1  36
ATOM     36  C   UNL A   1      39.779  22.065  26.543  1.00  0.00     0.261 C 
BRANCH  36  37
ATOM     37  O   UNL A   1      40.263  23.414  26.533  1.00  0.00    -0.460 OA
BRANCH  37  38
ATOM     38  C   UNL A   1      39.286  24.363  26.438  1.00  0.00     0.338 C 
ATOM     39  O   UNL A   1      38.282  24.323  25.782  1.00  0.00    -0.246 OA
BRANCH  38  40
ATOM     40  C   UNL A   1      39.563  25.426  27.436  1.00  0.00     0.060 A 
ATOM     41  C   UNL A   1      40.248  26.587  27.086  1.00  0.00     0.016 A 
ATOM     42  C   UNL A   1      39.082  25.246  28.740  1.00  0.00     0.016 A 
ATOM     43  C   UNL A   1      40.427  27.587  28.043  1.00  0.00     0.010 A 
ATOM     44  C   UNL A   1      39.257  26.250  29.694  1.00  0.00     0.010 A 
ATOM     45  C   UNL A   1      39.914  27.438  29.347  1.00  0.00    -0.014 A 
BRANCH  45  46
ATOM     46  C   UNL A   1      39.970  28.586  30.287  1.00  0.00     0.031 A 
ATOM     47  C   UNL A   1      39.029  29.747  30.174  1.00  0.00     0.074 A 
ATOM     48  C   UNL A   1      40.880  28.551  31.280  1.00  0.00     0.049 A 
ATOM     49  N   UNL A   1      38.859  30.751  30.999  1.00  0.00    -0.248 NA
ATOM     50  C   UNL A   1      38.172  29.796  28.981  1.00  0.00     0.031 C 
ATOM     51  C   UNL A   1      41.879  27.497  31.468  1.00  0.00     0.029 A 
ATOM     52  N   UNL A   1      41.097  29.407  32.328  1.00  0.00    -0.354 N 
ATOM     53  C   UNL A   1      37.853  31.532  30.447  1.00  0.00     0.074 A 
ATOM     54  C   UNL A   1      37.498  30.921  29.182  1.00  0.00     0.031 C 
ATOM     55  C   UNL A   1      42.568  27.741  32.593  1.00  0.00     0.029 A 
ATOM     56  C   UNL A   1      42.081  28.982  33.188  1.00  0.00     0.049 A 
ATOM     57  H   UNL A   1      40.597  30.246  32.453  1.00  0.00     0.167 HD
ATOM     58  C   UNL A   1      37.264  32.641  30.960  1.00  0.00     0.037 A 
ATOM     59  C   UNL A   1      42.532  29.525  34.333  1.00  0.00     0.037 A 
ATOM     60  C   UNL A   1      37.648  33.271  32.200  1.00  0.00     0.049 A 
ATOM     61  C   UNL A   1      41.900  30.791  34.842  1.00  0.00     0.074 A 
ATOM     62  C   UNL A   1      37.109  34.394  32.803  1.00  0.00     0.029 A 
ATOM     63  N   UNL A   1      38.680  32.839  33.020  1.00  0.00    -0.354 N 
ATOM     64  N   UNL A   1      40.894  31.475  34.352  1.00  0.00    -0.248 NA
ATOM     65  C   UNL A   1      42.461  31.353  36.078  1.00  0.00     0.031 C 
ATOM     66  C   UNL A   1      37.846  34.672  33.960  1.00  0.00     0.029 A 
ATOM     67  C   UNL A   1      38.805  33.685  34.113  1.00  0.00     0.049 A 
ATOM     68  H   UNL A   1      39.243  32.049  32.852  1.00  0.00     0.167 HD
ATOM     69  C   UNL A   1      40.677  32.521  35.240  1.00  0.00     0.074 A 
ATOM     70  C   UNL A   1      41.642  32.366  36.309  1.00  0.00     0.031 C 
ATOM     71  C   UNL A   1      39.762  33.520  35.178  1.00  0.00     0.037 A 
BRANCH  58  72
ATOM     72  C   UNL A   1      36.130  33.243  30.178  1.00  0.00     0.057 A 
ATOM     73  C   UNL A   1      36.368  34.018  29.036  1.00  0.00     0.134 A 
ATOM     74  C   UNL A   1      34.797  33.090  30.586  1.00  0.00     0.134 A 
ATOM     75  F   UNL A   1      37.620  34.216  28.595  1.00  0.00    -0.206 F 
ATOM     76  C   UNL A   1      35.324  34.618  28.328  1.00  0.00     0.040 A 
ATOM     77  C   UNL A   1      33.742  33.662  29.871  1.00  0.00     0.040 A 
ATOM     78  F   UNL A   1      34.497  32.356  31.667  1.00  0.00    -0.206 F 
ATOM     79  C   UNL A   1      34.006  34.435  28.743  1.00  0.00     0.006 A 
ENDBRANCH  58  72
BRANCH  59  80
ATOM     80  C   UNL A   1      43.624  28.874  35.102  1.00  0.00     0.057 A 
ATOM     81  C   UNL A   1      43.351  27.937  36.105  1.00  0.00     0.134 A 
ATOM     82  C   UNL A   1      44.969  29.125  34.802  1.00  0.00     0.134 A 
ATOM     83  F   UNL A   1      42.085  27.660  36.446  1.00  0.00    -0.206 F 
ATOM     84  C   UNL A   1      44.373  27.263  36.773  1.00  0.00     0.040 A 
ATOM     85  C   UNL A   1      46.001  28.433  35.438  1.00  0.00     0.040 A 
ATOM     86  F   UNL A   1      45.296  30.000  33.840  1.00  0.00    -0.206 F 
ATOM     87  C   UNL A   1      45.703  27.498  36.427  1.00  0.00     0.006 A 
ENDBRANCH  59  80
BRANCH  71  88
ATOM     88  C   UNL A   1      39.728  34.483  36.333  1.00  0.00     0.057 A 
ATOM     89  C   UNL A   1      38.981  34.188  37.480  1.00  0.00     0.134 A 
ATOM     90  C   UNL A   1      40.447  35.686  36.326  1.00  0.00     0.134 A 
ATOM     91  F   UNL A   1      38.258  33.060  37.553  1.00  0.00    -0.206 F 
ATOM     92  C   UNL A   1      38.961  35.046  38.582  1.00  0.00     0.040 A 
ATOM     93  C   UNL A   1      40.465  36.535  37.436  1.00  0.00     0.040 A 
ATOM     94  F   UNL A   1      41.197  36.025  35.266  1.00  0.00    -0.206 F 
ATOM     95  C   UNL A   1      39.717  36.215  38.567  1.00  0.00     0.006 A 
ENDBRANCH  71  88
ENDBRANCH  45  46
ENDBRANCH  38  40
ENDBRANCH  37  38
ENDBRANCH  36  37
ENDBRANCH   1  36
TORSDOF 15
ENDMDL
