MODEL 1
REMARK VINA RESULT:     -12.7      0.000      0.000
REMARK SMILES Cc1ccccc1/C=C1\SC(=O)N(CC(=O)Nc2ccccc2C(=O)OCCOCCOC(=O)c2ccc(-c3c4nc(c(-c5c(F)cccc5F)c5ccc([nH]5)c(-c5c(F)cccc5F)c5nc(c(-c6c(F)cccc6F)c6ccc3[nH]6)C=C5)C=C4)cc2)C1=O
REMARK SMILES IDX 28 1 27 2 26 3 24 4 25 5 23 6 18 7 19 8 20 9 22 10 21 11
REMARK SMILES IDX 17 12 15 13 16 14 14 16 13 17 8 18 9 19 10 20 89 21 11 22
REMARK SMILES IDX 90 23 12 24 7 25 1 26 2 27 3 28 4 29 6 30 5 31 29 32 30 33
REMARK SMILES IDX 31 34 32 35 33 36 34 37 35 38 36 39 88 40 37 41 87 42 38 43
REMARK SMILES IDX 39 44 40 45 81 46 41 47 86 48 80 49 82 50 42 51 85 52 79 53
REMARK SMILES IDX 78 54 43 56 69 57 52 58 68 59 53 60 56 61 67 62 83 63 54 64
REMARK SMILES IDX 55 65 66 67 84 68 57 69 44 70 45 71 50 72 46 73 47 74 49 75
REMARK SMILES IDX 51 76 48 77 70 78 71 79 76 80 72 81 73 82 75 83 77 84 74 85
REMARK SMILES IDX 58 86 59 87 64 88 60 89 61 90 63 91 65 92 62 93
REMARK H PARENT 17 15 82 55 56 66
REMARK Flexibility Score: inf
ROOT
ATOM      1  C   UNL A   1      36.899  23.837  25.267  1.00  0.00     0.202 C 
ENDROOT
BRANCH   1   2
ATOM      2  C   UNL A   1      35.284  24.006  25.374  1.00  0.00     0.261 C 
BRANCH   2   3
ATOM      3  O   UNL A   1      34.087  25.624  25.034  1.00  0.00    -0.460 OA
BRANCH   3   4
ATOM      4  C   UNL A   1      33.845  27.009  24.609  1.00  0.00     0.340 C 
ATOM      5  O   UNL A   1      34.189  27.423  23.515  1.00  0.00    -0.246 OA
BRANCH   4   6
ATOM      6  C   UNL A   1      33.031  27.947  25.384  1.00  0.00     0.083 A 
ATOM      7  C   UNL A   1      32.123  28.811  24.731  1.00  0.00     0.055 A 
ATOM      8  C   UNL A   1      31.538  29.859  25.441  1.00  0.00     0.027 A 
ATOM      9  C   UNL A   1      31.817  30.008  26.797  1.00  0.00     0.002 A 
ATOM     10  C   UNL A   1      33.390  28.168  26.708  1.00  0.00     0.018 A 
ATOM     11  C   UNL A   1      32.751  29.177  27.422  1.00  0.00     0.001 A 
BRANCH   7  12
ATOM     12  N   UNL A   1      31.755  28.702  23.383  1.00  0.00    -0.324 N 
ATOM     13  C   UNL A   1      30.791  27.890  22.853  1.00  0.00     0.244 C 
ATOM     14  O   UNL A   1      30.547  27.979  21.645  1.00  0.00    -0.273 OA
ATOM     15  H   UNL A   1      32.242  29.275  22.748  1.00  0.00     0.170 HD
BRANCH  13  16
ATOM     16  C   UNL A   1      29.855  27.118  23.795  1.00  0.00     0.230 C 
BRANCH  16  17
ATOM     17  N   UNL A   1      30.317  25.854  24.361  1.00  0.00    -0.259 N 
ATOM     18  C   UNL A   1      32.115  21.868  23.736  1.00  0.00     0.029 C 
ATOM     19  C   UNL A   1      31.673  23.053  24.256  1.00  0.00     0.083 C 
ATOM     20  S   UNL A   1      31.652  23.554  26.445  1.00  0.00    -0.022 SA
ATOM     21  C   UNL A   1      30.896  24.588  23.224  1.00  0.00     0.268 C 
ATOM     22  C   UNL A   1      30.561  25.573  26.096  1.00  0.00     0.294 C 
ATOM     23  O   UNL A   1      31.065  24.918  22.055  1.00  0.00    -0.268 OA
ATOM     24  O   UNL A   1      30.267  26.273  27.054  1.00  0.00    -0.261 OA
BRANCH  18  25
ATOM     25  C   UNL A   1      32.745  20.497  23.743  1.00  0.00    -0.021 A 
ATOM     26  C   UNL A   1      34.057  20.788  25.885  1.00  0.00     0.045 C 
ATOM     27  C   UNL A   1      33.662  20.008  24.673  1.00  0.00    -0.044 A 
ATOM     28  C   UNL A   1      34.142  18.668  24.577  1.00  0.00     0.004 A 
ATOM     29  C   UNL A   1      33.629  17.757  23.654  1.00  0.00     0.000 A 
ATOM     30  C   UNL A   1      32.144  19.490  22.921  1.00  0.00     0.008 A 
ATOM     31  C   UNL A   1      32.573  18.153  22.863  1.00  0.00     0.001 A 
ENDBRANCH  18  25
ENDBRANCH  16  17
ENDBRANCH  13  16
ENDBRANCH   7  12
ENDBRANCH   4   6
ENDBRANCH   3   4
ENDBRANCH   2   3
ENDBRANCH   1   2
BRANCH   1  32
ATOM     32  O   UNL A   1      37.278  22.547  25.737  1.00  0.00    -0.374 OA
BRANCH  32  33
ATOM     33  C   UNL A   1      38.650  22.433  26.098  1.00  0.00     0.202 C 
BRANCH  33  34
ATOM     34  C   UNL A   1      39.170  21.023  25.801  1.00  0.00     0.261 C 
BRANCH  34  35
ATOM     35  O   UNL A   1      40.272  20.746  26.702  1.00  0.00    -0.460 OA
BRANCH  35  36
ATOM     36  C   UNL A   1      41.513  20.632  26.147  1.00  0.00     0.338 C 
ATOM     37  O   UNL A   1      41.895  19.699  25.459  1.00  0.00    -0.246 OA
BRANCH  36  38
ATOM     38  C   UNL A   1      42.432  21.679  26.713  1.00  0.00     0.060 A 
ATOM     39  C   UNL A   1      42.931  21.630  28.020  1.00  0.00     0.016 A 
ATOM     40  C   UNL A   1      42.554  22.876  26.036  1.00  0.00     0.016 A 
ATOM     41  C   UNL A   1      43.365  22.817  28.687  1.00  0.00     0.010 A 
ATOM     42  C   UNL A   1      42.815  24.040  26.759  1.00  0.00     0.010 A 
ATOM     43  C   UNL A   1      43.091  24.080  28.145  1.00  0.00    -0.014 A 
BRANCH  43  44
ATOM     44  C   UNL A   1      43.004  25.461  28.888  1.00  0.00     0.031 A 
ATOM     45  C   UNL A   1      41.799  26.201  28.474  1.00  0.00     0.074 A 
ATOM     46  C   UNL A   1      43.740  26.188  29.830  1.00  0.00     0.049 A 
ATOM     47  N   UNL A   1      41.825  27.363  27.895  1.00  0.00    -0.248 NA
ATOM     48  C   UNL A   1      40.471  25.587  28.540  1.00  0.00     0.031 C 
ATOM     49  C   UNL A   1      43.236  27.310  30.646  1.00  0.00     0.029 A 
ATOM     50  N   UNL A   1      45.026  26.055  30.439  1.00  0.00    -0.354 N 
ATOM     51  C   UNL A   1      40.499  27.724  27.843  1.00  0.00     0.074 A 
ATOM     52  C   UNL A   1      39.781  26.476  27.837  1.00  0.00     0.031 C 
ATOM     53  C   UNL A   1      44.219  27.853  31.399  1.00  0.00     0.029 A 
ATOM     54  C   UNL A   1      45.492  27.196  31.109  1.00  0.00     0.049 A 
ATOM     55  H   UNL A   1      45.549  25.221  30.392  1.00  0.00     0.167 HD
ATOM     56  C   UNL A   1      40.062  28.909  28.366  1.00  0.00     0.037 A 
ATOM     57  C   UNL A   1      46.755  27.740  31.173  1.00  0.00     0.037 A 
ATOM     58  C   UNL A   1      41.143  29.653  29.036  1.00  0.00     0.049 A 
ATOM     59  C   UNL A   1      46.644  29.086  30.493  1.00  0.00     0.074 A 
ATOM     60  C   UNL A   1      41.342  30.002  30.366  1.00  0.00     0.029 A 
ATOM     61  N   UNL A   1      42.351  29.927  28.396  1.00  0.00    -0.354 N 
ATOM     62  N   UNL A   1      45.516  29.443  29.958  1.00  0.00    -0.248 NA
ATOM     63  C   UNL A   1      47.677  30.092  30.263  1.00  0.00     0.031 C 
ATOM     64  C   UNL A   1      42.621  30.589  30.496  1.00  0.00     0.029 A 
ATOM     65  C   UNL A   1      43.229  30.564  29.253  1.00  0.00     0.049 A 
ATOM     66  H   UNL A   1      42.552  29.696  27.460  1.00  0.00     0.167 HD
ATOM     67  C   UNL A   1      45.606  30.644  29.360  1.00  0.00     0.074 A 
ATOM     68  C   UNL A   1      46.999  31.010  29.538  1.00  0.00     0.031 C 
ATOM     69  C   UNL A   1      44.483  31.150  28.784  1.00  0.00     0.037 A 
BRANCH  56  70
ATOM     70  C   UNL A   1      38.582  29.177  28.640  1.00  0.00     0.057 A 
ATOM     71  C   UNL A   1      37.747  29.737  27.658  1.00  0.00     0.134 A 
ATOM     72  C   UNL A   1      37.910  28.901  29.849  1.00  0.00     0.134 A 
ATOM     73  F   UNL A   1      38.141  29.874  26.387  1.00  0.00    -0.206 F 
ATOM     74  C   UNL A   1      36.428  30.140  27.907  1.00  0.00     0.040 A 
ATOM     75  C   UNL A   1      36.613  29.351  30.138  1.00  0.00     0.040 A 
ATOM     76  F   UNL A   1      38.430  28.094  30.782  1.00  0.00    -0.206 F 
ATOM     77  C   UNL A   1      35.869  29.988  29.164  1.00  0.00     0.006 A 
ENDBRANCH  56  70
BRANCH  57  78
ATOM     78  C   UNL A   1      48.032  26.942  31.224  1.00  0.00     0.057 A 
ATOM     79  C   UNL A   1      48.673  26.633  32.436  1.00  0.00     0.134 A 
ATOM     80  C   UNL A   1      48.655  26.396  30.104  1.00  0.00     0.134 A 
ATOM     81  F   UNL A   1      48.322  27.263  33.568  1.00  0.00    -0.206 F 
ATOM     82  C   UNL A   1      49.715  25.684  32.530  1.00  0.00     0.040 A 
ATOM     83  C   UNL A   1      49.596  25.352  30.183  1.00  0.00     0.040 A 
ATOM     84  F   UNL A   1      48.393  26.895  28.893  1.00  0.00    -0.206 F 
ATOM     85  C   UNL A   1      50.102  24.958  31.411  1.00  0.00     0.006 A 
ENDBRANCH  57  78
BRANCH  69  86
ATOM     86  C   UNL A   1      44.413  32.319  27.865  1.00  0.00     0.057 A 
ATOM     87  C   UNL A   1      44.806  32.278  26.525  1.00  0.00     0.134 A 
ATOM     88  C   UNL A   1      43.790  33.513  28.289  1.00  0.00     0.134 A 
ATOM     89  F   UNL A   1      45.305  31.165  25.970  1.00  0.00    -0.206 F 
ATOM     90  C   UNL A   1      44.652  33.381  25.681  1.00  0.00     0.040 A 
ATOM     91  C   UNL A   1      43.575  34.593  27.442  1.00  0.00     0.040 A 
ATOM     92  F   UNL A   1      43.344  33.684  29.543  1.00  0.00    -0.206 F 
ATOM     93  C   UNL A   1      44.027  34.538  26.137  1.00  0.00     0.006 A 
ENDBRANCH  69  86
ENDBRANCH  43  44
ENDBRANCH  36  38
ENDBRANCH  35  36
ENDBRANCH  34  35
ENDBRANCH  33  34
ENDBRANCH  32  33
ENDBRANCH   1  32
TORSDOF 18
ENDMDL
MODEL 2
REMARK VINA RESULT:     -11.9      1.367      2.115
REMARK SMILES Cc1ccccc1/C=C1\SC(=O)N(CC(=O)Nc2ccccc2C(=O)OCCOCCOC(=O)c2ccc(-c3c4nc(c(-c5c(F)cccc5F)c5ccc([nH]5)c(-c5c(F)cccc5F)c5nc(c(-c6c(F)cccc6F)c6ccc3[nH]6)C=C5)C=C4)cc2)C1=O
REMARK SMILES IDX 28 1 27 2 26 3 24 4 25 5 23 6 18 7 19 8 20 9 22 10 21 11
REMARK SMILES IDX 17 12 15 13 16 14 14 16 13 17 8 18 9 19 10 20 89 21 11 22
REMARK SMILES IDX 90 23 12 24 7 25 1 26 2 27 3 28 4 29 6 30 5 31 29 32 30 33
REMARK SMILES IDX 31 34 32 35 33 36 34 37 35 38 36 39 88 40 37 41 87 42 38 43
REMARK SMILES IDX 39 44 40 45 81 46 41 47 86 48 80 49 82 50 42 51 85 52 79 53
REMARK SMILES IDX 78 54 43 56 69 57 52 58 68 59 53 60 56 61 67 62 83 63 54 64
REMARK SMILES IDX 55 65 66 67 84 68 57 69 44 70 45 71 50 72 46 73 47 74 49 75
REMARK SMILES IDX 51 76 48 77 70 78 71 79 76 80 72 81 73 82 75 83 77 84 74 85
REMARK SMILES IDX 58 86 59 87 64 88 60 89 61 90 63 91 65 92 62 93
REMARK H PARENT 17 15 82 55 56 66
REMARK Flexibility Score: inf
ROOT
ATOM      1  C   UNL A   1      35.281  24.074  24.635  1.00  0.00     0.202 C 
ENDROOT
BRANCH   1   2
ATOM      2  C   UNL A   1      34.467  25.278  25.369  1.00  0.00     0.261 C 
BRANCH   2   3
ATOM      3  O   UNL A   1      33.911  27.121  24.688  1.00  0.00    -0.460 OA
BRANCH   3   4
ATOM      4  C   UNL A   1      33.552  28.073  23.629  1.00  0.00     0.340 C 
ATOM      5  O   UNL A   1      34.331  28.390  22.746  1.00  0.00    -0.246 OA
BRANCH   4   6
ATOM      6  C   UNL A   1      32.192  28.582  23.448  1.00  0.00     0.083 A 
ATOM      7  C   UNL A   1      31.180  28.260  24.380  1.00  0.00     0.055 A 
ATOM      8  C   UNL A   1      29.848  28.540  24.075  1.00  0.00     0.027 A 
ATOM      9  C   UNL A   1      29.539  29.179  22.878  1.00  0.00     0.002 A 
ATOM     10  C   UNL A   1      31.866  29.120  22.208  1.00  0.00     0.018 A 
ATOM     11  C   UNL A   1      30.541  29.452  21.943  1.00  0.00     0.001 A 
BRANCH   7  12
ATOM     12  N   UNL A   1      31.411  27.657  25.624  1.00  0.00    -0.324 N 
ATOM     13  C   UNL A   1      30.963  26.435  26.045  1.00  0.00     0.244 C 
ATOM     14  O   UNL A   1      31.327  26.027  27.153  1.00  0.00    -0.273 OA
ATOM     15  H   UNL A   1      31.956  28.168  26.264  1.00  0.00     0.170 HD
BRANCH  13  16
ATOM     16  C   UNL A   1      30.279  25.497  25.040  1.00  0.00     0.230 C 
BRANCH  16  17
ATOM     17  N   UNL A   1      31.082  24.467  24.385  1.00  0.00    -0.259 N 
ATOM     18  C   UNL A   1      32.527  20.294  24.290  1.00  0.00     0.029 C 
ATOM     19  C   UNL A   1      32.162  21.575  23.979  1.00  0.00     0.083 C 
ATOM     20  S   UNL A   1      32.620  22.594  22.032  1.00  0.00    -0.022 SA
ATOM     21  C   UNL A   1      31.195  22.860  25.180  1.00  0.00     0.268 C 
ATOM     22  C   UNL A   1      31.758  24.625  22.752  1.00  0.00     0.294 C 
ATOM     23  O   UNL A   1      30.436  22.643  26.118  1.00  0.00    -0.268 OA
ATOM     24  O   UNL A   1      31.799  25.595  22.009  1.00  0.00    -0.261 OA
BRANCH  18  25
ATOM     25  C   UNL A   1      33.097  18.917  24.056  1.00  0.00    -0.021 A 
ATOM     26  C   UNL A   1      32.193  18.620  21.712  1.00  0.00     0.045 C 
ATOM     27  C   UNL A   1      32.917  18.124  22.923  1.00  0.00    -0.044 A 
ATOM     28  C   UNL A   1      33.557  16.853  22.823  1.00  0.00     0.004 A 
ATOM     29  C   UNL A   1      34.482  16.408  23.766  1.00  0.00     0.000 A 
ATOM     30  C   UNL A   1      34.162  18.489  24.912  1.00  0.00     0.008 A 
ATOM     31  C   UNL A   1      34.838  17.263  24.785  1.00  0.00     0.001 A 
ENDBRANCH  18  25
ENDBRANCH  16  17
ENDBRANCH  13  16
ENDBRANCH   7  12
ENDBRANCH   4   6
ENDBRANCH   3   4
ENDBRANCH   2   3
ENDBRANCH   1   2
BRANCH   1  32
ATOM     32  O   UNL A   1      35.961  23.292  25.611  1.00  0.00    -0.374 OA
BRANCH  32  33
ATOM     33  C   UNL A   1      37.378  23.430  25.592  1.00  0.00     0.202 C 
BRANCH  33  34
ATOM     34  C   UNL A   1      38.054  22.056  25.596  1.00  0.00     0.261 C 
BRANCH  34  35
ATOM     35  O   UNL A   1      39.049  22.043  26.650  1.00  0.00    -0.460 OA
BRANCH  35  36
ATOM     36  C   UNL A   1      40.275  21.532  26.340  1.00  0.00     0.338 C 
ATOM     37  O   UNL A   1      40.480  20.419  25.880  1.00  0.00    -0.246 OA
BRANCH  36  38
ATOM     38  C   UNL A   1      41.360  22.420  26.884  1.00  0.00     0.060 A 
ATOM     39  C   UNL A   1      41.889  22.275  28.172  1.00  0.00     0.016 A 
ATOM     40  C   UNL A   1      41.638  23.595  26.216  1.00  0.00     0.016 A 
ATOM     41  C   UNL A   1      42.519  23.372  28.836  1.00  0.00     0.010 A 
ATOM     42  C   UNL A   1      42.096  24.695  26.942  1.00  0.00     0.010 A 
ATOM     43  C   UNL A   1      42.421  24.671  28.317  1.00  0.00    -0.014 A 
BRANCH  43  44
ATOM     44  C   UNL A   1      42.568  26.037  29.077  1.00  0.00     0.031 A 
ATOM     45  C   UNL A   1      41.343  26.845  28.940  1.00  0.00     0.074 A 
ATOM     46  C   UNL A   1      43.525  26.705  29.849  1.00  0.00     0.049 A 
ATOM     47  N   UNL A   1      41.308  28.018  28.382  1.00  0.00    -0.248 NA
ATOM     48  C   UNL A   1      40.029  26.297  29.281  1.00  0.00     0.031 C 
ATOM     49  C   UNL A   1      43.267  27.832  30.767  1.00  0.00     0.029 A 
ATOM     50  N   UNL A   1      44.903  26.494  30.168  1.00  0.00    -0.354 N 
ATOM     51  C   UNL A   1      40.022  28.445  28.618  1.00  0.00     0.074 A 
ATOM     52  C   UNL A   1      39.254  27.235  28.752  1.00  0.00     0.031 C 
ATOM     53  C   UNL A   1      44.415  28.308  31.299  1.00  0.00     0.029 A 
ATOM     54  C   UNL A   1      45.560  27.595  30.736  1.00  0.00     0.049 A 
ATOM     55  H   UNL A   1      45.358  25.637  30.000  1.00  0.00     0.167 HD
ATOM     56  C   UNL A   1      39.771  29.638  29.237  1.00  0.00     0.037 A 
ATOM     57  C   UNL A   1      46.836  28.074  30.535  1.00  0.00     0.037 A 
ATOM     58  C   UNL A   1      41.008  30.312  29.669  1.00  0.00     0.049 A 
ATOM     59  C   UNL A   1      46.654  29.439  29.910  1.00  0.00     0.074 A 
ATOM     60  C   UNL A   1      41.503  30.621  30.929  1.00  0.00     0.029 A 
ATOM     61  N   UNL A   1      42.065  30.540  28.788  1.00  0.00    -0.354 N 
ATOM     62  N   UNL A   1      45.458  29.864  29.633  1.00  0.00    -0.248 NA
ATOM     63  C   UNL A   1      47.667  30.398  29.476  1.00  0.00     0.031 C 
ATOM     64  C   UNL A   1      42.811  31.139  30.790  1.00  0.00     0.029 A 
ATOM     65  C   UNL A   1      43.137  31.114  29.445  1.00  0.00     0.049 A 
ATOM     66  H   UNL A   1      42.049  30.321  27.829  1.00  0.00     0.167 HD
ATOM     67  C   UNL A   1      45.484  31.073  29.043  1.00  0.00     0.074 A 
ATOM     68  C   UNL A   1      46.900  31.364  28.924  1.00  0.00     0.031 C 
ATOM     69  C   UNL A   1      44.292  31.646  28.726  1.00  0.00     0.037 A 
BRANCH  56  70
ATOM     70  C   UNL A   1      38.400  29.974  29.824  1.00  0.00     0.057 A 
ATOM     71  C   UNL A   1      37.371  30.501  29.024  1.00  0.00     0.134 A 
ATOM     72  C   UNL A   1      38.019  29.795  31.171  1.00  0.00     0.134 A 
ATOM     73  F   UNL A   1      37.464  30.545  27.690  1.00  0.00    -0.206 F 
ATOM     74  C   UNL A   1      36.153  30.963  29.541  1.00  0.00     0.040 A 
ATOM     75  C   UNL A   1      36.833  30.306  31.718  1.00  0.00     0.040 A 
ATOM     76  F   UNL A   1      38.725  29.029  32.012  1.00  0.00    -0.206 F 
ATOM     77  C   UNL A   1      35.896  30.908  30.900  1.00  0.00     0.006 A 
ENDBRANCH  56  70
BRANCH  57  78
ATOM     78  C   UNL A   1      48.050  27.213  30.302  1.00  0.00     0.057 A 
ATOM     79  C   UNL A   1      48.938  26.876  31.339  1.00  0.00     0.134 A 
ATOM     80  C   UNL A   1      48.370  26.631  29.078  1.00  0.00     0.134 A 
ATOM     81  F   UNL A   1      48.888  27.529  32.511  1.00  0.00    -0.206 F 
ATOM     82  C   UNL A   1      49.926  25.876  31.205  1.00  0.00     0.040 A 
ATOM     83  C   UNL A   1      49.251  25.541  28.954  1.00  0.00     0.040 A 
ATOM     84  F   UNL A   1      47.859  27.137  27.952  1.00  0.00    -0.206 F 
ATOM     85  C   UNL A   1      50.008  25.127  30.038  1.00  0.00     0.006 A 
ENDBRANCH  57  78
BRANCH  69  86
ATOM     86  C   UNL A   1      44.091  32.838  27.857  1.00  0.00     0.057 A 
ATOM     87  C   UNL A   1      44.292  32.834  26.474  1.00  0.00     0.134 A 
ATOM     88  C   UNL A   1      43.531  34.018  28.396  1.00  0.00     0.134 A 
ATOM     89  F   UNL A   1      44.711  31.738  25.826  1.00  0.00    -0.206 F 
ATOM     90  C   UNL A   1      44.018  33.957  25.690  1.00  0.00     0.040 A 
ATOM     91  C   UNL A   1      43.196  35.117  27.616  1.00  0.00     0.040 A 
ATOM     92  F   UNL A   1      43.265  34.153  29.704  1.00  0.00    -0.206 F 
ATOM     93  C   UNL A   1      43.461  35.098  26.259  1.00  0.00     0.006 A 
ENDBRANCH  69  86
ENDBRANCH  43  44
ENDBRANCH  36  38
ENDBRANCH  35  36
ENDBRANCH  34  35
ENDBRANCH  33  34
ENDBRANCH  32  33
ENDBRANCH   1  32
TORSDOF 18
ENDMDL
MODEL 3
REMARK VINA RESULT:     -11.8      2.391      5.252
REMARK SMILES Cc1ccccc1/C=C1\SC(=O)N(CC(=O)Nc2ccccc2C(=O)OCCOCCOC(=O)c2ccc(-c3c4nc(c(-c5c(F)cccc5F)c5ccc([nH]5)c(-c5c(F)cccc5F)c5nc(c(-c6c(F)cccc6F)c6ccc3[nH]6)C=C5)C=C4)cc2)C1=O
REMARK SMILES IDX 28 1 27 2 26 3 24 4 25 5 23 6 18 7 19 8 20 9 22 10 21 11
REMARK SMILES IDX 17 12 15 13 16 14 14 16 13 17 8 18 9 19 10 20 89 21 11 22
REMARK SMILES IDX 90 23 12 24 7 25 1 26 2 27 3 28 4 29 6 30 5 31 29 32 30 33
REMARK SMILES IDX 31 34 32 35 33 36 34 37 35 38 36 39 88 40 37 41 87 42 38 43
REMARK SMILES IDX 39 44 40 45 81 46 41 47 86 48 80 49 82 50 42 51 85 52 79 53
REMARK SMILES IDX 78 54 43 56 69 57 52 58 68 59 53 60 56 61 67 62 83 63 54 64
REMARK SMILES IDX 55 65 66 67 84 68 57 69 44 70 45 71 50 72 46 73 47 74 49 75
REMARK SMILES IDX 51 76 48 77 70 78 71 79 76 80 72 81 73 82 75 83 77 84 74 85
REMARK SMILES IDX 58 86 59 87 64 88 60 89 61 90 63 91 65 92 62 93
REMARK H PARENT 17 15 82 55 56 66
REMARK Flexibility Score: inf
ROOT
ATOM      1  C   UNL A   1      39.687  21.348  26.072  1.00  0.00     0.202 C 
ENDROOT
BRANCH   1   2
ATOM      2  C   UNL A   1      38.734  22.657  26.246  1.00  0.00     0.261 C 
BRANCH   2   3
ATOM      3  O   UNL A   1      37.087  23.255  25.200  1.00  0.00    -0.460 OA
BRANCH   3   4
ATOM      4  C   UNL A   1      35.682  23.671  25.093  1.00  0.00     0.340 C 
ATOM      5  O   UNL A   1      35.329  24.597  24.383  1.00  0.00    -0.246 OA
BRANCH   4   6
ATOM      6  C   UNL A   1      34.582  22.910  25.689  1.00  0.00     0.083 A 
ATOM      7  C   UNL A   1      33.552  22.389  24.874  1.00  0.00     0.055 A 
ATOM      8  C   UNL A   1      32.394  21.885  25.466  1.00  0.00     0.027 A 
ATOM      9  C   UNL A   1      32.291  21.854  26.853  1.00  0.00     0.002 A 
ATOM     10  C   UNL A   1      34.426  22.978  27.068  1.00  0.00     0.018 A 
ATOM     11  C   UNL A   1      33.295  22.413  27.649  1.00  0.00     0.001 A 
BRANCH   7  12
ATOM     12  N   UNL A   1      33.596  22.343  23.474  1.00  0.00    -0.324 N 
ATOM     13  C   UNL A   1      32.802  23.032  22.599  1.00  0.00     0.244 C 
ATOM     14  O   UNL A   1      33.031  22.926  21.390  1.00  0.00    -0.273 OA
ATOM     15  H   UNL A   1      34.273  21.750  23.076  1.00  0.00     0.170 HD
BRANCH  13  16
ATOM     16  C   UNL A   1      31.861  24.121  23.134  1.00  0.00     0.230 C 
BRANCH  16  17
ATOM     17  N   UNL A   1      32.390  25.468  23.335  1.00  0.00    -0.259 N 
ATOM     18  C   UNL A   1      33.493  28.718  26.115  1.00  0.00     0.029 C 
ATOM     19  C   UNL A   1      33.373  27.879  25.041  1.00  0.00     0.083 C 
ATOM     20  S   UNL A   1      34.195  28.303  22.995  1.00  0.00    -0.022 SA
ATOM     21  C   UNL A   1      32.405  26.122  25.008  1.00  0.00     0.268 C 
ATOM     22  C   UNL A   1      33.226  26.403  22.080  1.00  0.00     0.294 C 
ATOM     23  O   UNL A   1      32.163  25.339  25.920  1.00  0.00    -0.268 OA
ATOM     24  O   UNL A   1      33.363  26.172  20.887  1.00  0.00    -0.261 OA
BRANCH  18  25
ATOM     25  C   UNL A   1      33.965  29.924  26.889  1.00  0.00    -0.021 A 
ATOM     26  C   UNL A   1      31.786  31.206  26.790  1.00  0.00     0.045 C 
ATOM     27  C   UNL A   1      33.229  31.078  27.161  1.00  0.00    -0.044 A 
ATOM     28  C   UNL A   1      33.794  32.125  27.947  1.00  0.00     0.004 A 
ATOM     29  C   UNL A   1      35.027  31.997  28.584  1.00  0.00     0.000 A 
ATOM     30  C   UNL A   1      35.148  29.779  27.682  1.00  0.00     0.008 A 
ATOM     31  C   UNL A   1      35.680  30.786  28.505  1.00  0.00     0.001 A 
ENDBRANCH  18  25
ENDBRANCH  16  17
ENDBRANCH  13  16
ENDBRANCH   7  12
ENDBRANCH   4   6
ENDBRANCH   3   4
ENDBRANCH   2   3
ENDBRANCH   1   2
BRANCH   1  32
ATOM     32  O   UNL A   1      40.554  21.234  27.196  1.00  0.00    -0.374 OA
BRANCH  32  33
ATOM     33  C   UNL A   1      41.199  19.971  27.314  1.00  0.00     0.202 C 
BRANCH  33  34
ATOM     34  C   UNL A   1      42.409  19.894  26.378  1.00  0.00     0.261 C 
BRANCH  34  35
ATOM     35  O   UNL A   1      42.854  21.245  26.100  1.00  0.00    -0.460 OA
BRANCH  35  36
ATOM     36  C   UNL A   1      43.865  21.392  25.196  1.00  0.00     0.338 C 
ATOM     37  O   UNL A   1      44.249  20.530  24.421  1.00  0.00    -0.246 OA
BRANCH  36  38
ATOM     38  C   UNL A   1      44.617  22.667  25.461  1.00  0.00     0.060 A 
ATOM     39  C   UNL A   1      45.680  22.751  26.368  1.00  0.00     0.016 A 
ATOM     40  C   UNL A   1      44.062  23.854  25.029  1.00  0.00     0.016 A 
ATOM     41  C   UNL A   1      46.041  23.997  26.966  1.00  0.00     0.010 A 
ATOM     42  C   UNL A   1      44.313  25.022  25.750  1.00  0.00     0.010 A 
ATOM     43  C   UNL A   1      45.205  25.115  26.843  1.00  0.00    -0.014 A 
BRANCH  43  44
ATOM     44  C   UNL A   1      45.117  26.374  27.778  1.00  0.00     0.031 A 
ATOM     45  C   UNL A   1      43.711  26.722  28.053  1.00  0.00     0.074 A 
ATOM     46  C   UNL A   1      45.988  27.257  28.425  1.00  0.00     0.049 A 
ATOM     47  N   UNL A   1      43.169  27.857  27.728  1.00  0.00    -0.248 NA
ATOM     48  C   UNL A   1      42.770  25.728  28.572  1.00  0.00     0.031 C 
ATOM     49  C   UNL A   1      45.645  28.138  29.559  1.00  0.00     0.029 A 
ATOM     50  N   UNL A   1      47.396  27.502  28.395  1.00  0.00    -0.354 N 
ATOM     51  C   UNL A   1      41.925  27.794  28.310  1.00  0.00     0.074 A 
ATOM     52  C   UNL A   1      41.632  26.387  28.395  1.00  0.00     0.031 C 
ATOM     53  C   UNL A   1      46.687  28.928  29.903  1.00  0.00     0.029 A 
ATOM     54  C   UNL A   1      47.806  28.705  28.989  1.00  0.00     0.049 A 
ATOM     55  H   UNL A   1      48.033  26.872  27.986  1.00  0.00     0.167 HD
ATOM     56  C   UNL A   1      41.489  28.767  29.165  1.00  0.00     0.037 A 
ATOM     57  C   UNL A   1      48.770  29.609  28.600  1.00  0.00     0.037 A 
ATOM     58  C   UNL A   1      42.524  29.782  29.427  1.00  0.00     0.049 A 
ATOM     59  C   UNL A   1      48.017  30.880  28.276  1.00  0.00     0.074 A 
ATOM     60  C   UNL A   1      43.214  30.125  30.584  1.00  0.00     0.029 A 
ATOM     61  N   UNL A   1      43.188  30.438  28.391  1.00  0.00    -0.354 N 
ATOM     62  N   UNL A   1      46.721  30.892  28.344  1.00  0.00    -0.248 NA
ATOM     63  C   UNL A   1      48.532  32.162  27.805  1.00  0.00     0.031 C 
ATOM     64  C   UNL A   1      44.211  31.071  30.255  1.00  0.00     0.029 A 
ATOM     65  C   UNL A   1      44.163  31.282  28.888  1.00  0.00     0.049 A 
ATOM     66  H   UNL A   1      42.989  30.315  27.435  1.00  0.00     0.167 HD
ATOM     67  C   UNL A   1      46.215  32.085  27.982  1.00  0.00     0.074 A 
ATOM     68  C   UNL A   1      47.387  32.854  27.610  1.00  0.00     0.031 C 
ATOM     69  C   UNL A   1      44.864  32.241  28.038  1.00  0.00     0.037 A 
BRANCH  56  70
ATOM     70  C   UNL A   1      40.287  28.557  30.086  1.00  0.00     0.057 A 
ATOM     71  C   UNL A   1      38.970  28.686  29.611  1.00  0.00     0.134 A 
ATOM     72  C   UNL A   1      40.353  28.217  31.454  1.00  0.00     0.134 A 
ATOM     73  F   UNL A   1      38.696  28.795  28.306  1.00  0.00    -0.206 F 
ATOM     74  C   UNL A   1      37.844  28.653  30.443  1.00  0.00     0.040 A 
ATOM     75  C   UNL A   1      39.245  28.241  32.315  1.00  0.00     0.040 A 
ATOM     76  F   UNL A   1      41.473  27.747  32.016  1.00  0.00    -0.206 F 
ATOM     77  C   UNL A   1      37.980  28.473  31.809  1.00  0.00     0.006 A 
ENDBRANCH  56  70
BRANCH  57  78
ATOM     78  C   UNL A   1      50.085  29.241  27.963  1.00  0.00     0.057 A 
ATOM     79  C   UNL A   1      50.195  28.948  26.592  1.00  0.00     0.134 A 
ATOM     80  C   UNL A   1      51.300  29.213  28.643  1.00  0.00     0.134 A 
ATOM     81  F   UNL A   1      49.095  28.721  25.858  1.00  0.00    -0.206 F 
ATOM     82  C   UNL A   1      51.438  28.852  25.928  1.00  0.00     0.040 A 
ATOM     83  C   UNL A   1      52.546  29.256  27.988  1.00  0.00     0.040 A 
ATOM     84  F   UNL A   1      51.311  29.102  29.974  1.00  0.00    -0.206 F 
ATOM     85  C   UNL A   1      52.617  29.119  26.612  1.00  0.00     0.006 A 
ENDBRANCH  57  78
BRANCH  69  86
ATOM     86  C   UNL A   1      44.084  33.366  27.453  1.00  0.00     0.057 A 
ATOM     87  C   UNL A   1      43.533  34.404  28.208  1.00  0.00     0.134 A 
ATOM     88  C   UNL A   1      43.992  33.507  26.050  1.00  0.00     0.134 A 
ATOM     89  F   UNL A   1      43.653  34.446  29.542  1.00  0.00    -0.206 F 
ATOM     90  C   UNL A   1      42.872  35.478  27.607  1.00  0.00     0.040 A 
ATOM     91  C   UNL A   1      43.393  34.602  25.441  1.00  0.00     0.040 A 
ATOM     92  F   UNL A   1      44.496  32.597  25.203  1.00  0.00    -0.206 F 
ATOM     93  C   UNL A   1      42.809  35.583  26.221  1.00  0.00     0.006 A 
ENDBRANCH  69  86
ENDBRANCH  43  44
ENDBRANCH  36  38
ENDBRANCH  35  36
ENDBRANCH  34  35
ENDBRANCH  33  34
ENDBRANCH  32  33
ENDBRANCH   1  32
TORSDOF 18
ENDMDL
