MODEL 1
REMARK VINA RESULT:     -11.1      0.000      0.000
REMARK SMILES O=C(OCCOCCOC(=O)[C@@]1(CCc2ccccc2)CCC[N@@H+](Cc2cccnc2)C1)c1ccc(-c2c3nc(c(-c4c(F)cccc4F)c4ccc([nH]4)c(-c4c(F)cccc4F)c4nc(c(-c5c(F)cccc5F)c5ccc2[nH]5)C=C4)C=C3)cc1
REMARK SMILES IDX 7 1 6 2 5 3 4 4 3 5 2 6 1 7 33 8 34 9 86 10 35 11 85 12
REMARK SMILES IDX 36 13 37 14 38 15 79 16 39 17 84 18 78 19 80 20 40 21 83 22
REMARK SMILES IDX 77 23 76 24 41 26 67 27 50 28 66 29 51 30 54 31 65 32 81 33
REMARK SMILES IDX 52 34 53 35 64 37 82 38 55 39 42 40 43 41 48 42 44 43 45 44
REMARK SMILES IDX 47 45 49 46 46 47 68 48 69 49 74 50 70 51 71 52 73 53 75 54
REMARK SMILES IDX 72 55 56 56 57 57 62 58 58 59 59 60 61 61 63 62 60 63 8 64
REMARK SMILES IDX 9 65 10 66 11 67 12 68 21 69 32 70 22 71 24 72 23 73 13 75
REMARK SMILES IDX 14 76 15 77 16 78 20 79 17 80 19 81 18 82 25 83 26 84 27 85
REMARK SMILES IDX 31 86 28 87 30 88 29 89
REMARK H PARENT 80 25 54 36 24 74
REMARK Flexibility Score: inf
ROOT
ATOM      1  C   UNL A   1      39.643  20.879  26.108  1.00  0.00     0.202 C 
ENDROOT
BRANCH   1   2
ATOM      2  O   UNL A   1      40.909  21.275  26.644  1.00  0.00    -0.374 OA
BRANCH   2   3
ATOM      3  C   UNL A   1      42.011  20.484  26.193  1.00  0.00     0.202 C 
BRANCH   3   4
ATOM      4  C   UNL A   1      43.182  21.325  25.690  1.00  0.00     0.261 C 
BRANCH   4   5
ATOM      5  O   UNL A   1      42.728  22.575  25.164  1.00  0.00    -0.460 OA
BRANCH   5   6
ATOM      6  C   UNL A   1      43.346  23.773  25.295  1.00  0.00     0.338 C 
ATOM      7  O   UNL A   1      44.206  24.079  24.470  1.00  0.00    -0.246 OA
BRANCH   6   8
ATOM      8  C   UNL A   1      42.987  24.792  26.333  1.00  0.00     0.060 A 
ATOM      9  C   UNL A   1      43.422  26.123  26.376  1.00  0.00     0.016 A 
ATOM     10  C   UNL A   1      42.048  24.380  27.294  1.00  0.00     0.016 A 
ATOM     11  C   UNL A   1      42.958  27.011  27.340  1.00  0.00     0.010 A 
ATOM     12  C   UNL A   1      41.563  25.268  28.256  1.00  0.00     0.010 A 
ATOM     13  C   UNL A   1      42.023  26.586  28.279  1.00  0.00    -0.014 A 
BRANCH  13  14
ATOM     14  C   UNL A   1      41.618  27.518  29.342  1.00  0.00     0.031 A 
ATOM     15  C   UNL A   1      42.428  27.553  30.596  1.00  0.00     0.074 A 
ATOM     16  C   UNL A   1      40.594  28.364  29.136  1.00  0.00     0.049 A 
ATOM     17  N   UNL A   1      42.214  28.210  31.702  1.00  0.00    -0.248 NA
ATOM     18  C   UNL A   1      43.656  26.738  30.599  1.00  0.00     0.031 C 
ATOM     19  C   UNL A   1      39.828  28.478  27.893  1.00  0.00     0.029 A 
ATOM     20  N   UNL A   1      40.032  29.298  29.964  1.00  0.00    -0.354 N 
ATOM     21  C   UNL A   1      43.264  27.871  32.543  1.00  0.00     0.074 A 
ATOM     22  C   UNL A   1      44.117  26.953  31.821  1.00  0.00     0.031 C 
ATOM     23  C   UNL A   1      38.893  29.431  28.042  1.00  0.00     0.029 A 
ATOM     24  C   UNL A   1      38.960  29.949  29.405  1.00  0.00     0.049 A 
ATOM     25  H   UNL A   1      40.363  29.483  30.872  1.00  0.00     0.167 HD
ATOM     26  C   UNL A   1      43.483  28.287  33.811  1.00  0.00     0.037 A 
ATOM     27  C   UNL A   1      38.113  30.836  29.958  1.00  0.00     0.037 A 
ATOM     28  C   UNL A   1      42.607  29.189  34.506  1.00  0.00     0.049 A 
ATOM     29  C   UNL A   1      38.322  31.211  31.401  1.00  0.00     0.074 A 
ATOM     30  C   UNL A   1      42.672  29.628  35.814  1.00  0.00     0.029 A 
ATOM     31  N   UNL A   1      41.497  29.794  33.930  1.00  0.00    -0.354 N 
ATOM     32  N   UNL A   1      39.273  30.832  32.223  1.00  0.00    -0.248 NA
ATOM     33  C   UNL A   1      37.334  32.115  32.001  1.00  0.00     0.031 C 
ATOM     34  C   UNL A   1      41.581  30.475  36.039  1.00  0.00     0.029 A 
ATOM     35  C   UNL A   1      40.860  30.595  34.859  1.00  0.00     0.049 A 
ATOM     36  H   UNL A   1      41.207  29.670  32.998  1.00  0.00     0.167 HD
ATOM     37  C   UNL A   1      39.008  31.460  33.431  1.00  0.00     0.074 A 
ATOM     38  C   UNL A   1      37.815  32.259  33.228  1.00  0.00     0.031 C 
ATOM     39  C   UNL A   1      39.679  31.382  34.607  1.00  0.00     0.037 A 
BRANCH  26  40
ATOM     40  C   UNL A   1      44.668  27.704  34.517  1.00  0.00     0.057 A 
ATOM     41  C   UNL A   1      45.925  28.322  34.496  1.00  0.00     0.134 A 
ATOM     42  C   UNL A   1      44.561  26.477  35.184  1.00  0.00     0.134 A 
ATOM     43  F   UNL A   1      46.100  29.482  33.846  1.00  0.00    -0.206 F 
ATOM     44  C   UNL A   1      47.039  27.727  35.090  1.00  0.00     0.040 A 
ATOM     45  C   UNL A   1      45.663  25.883  35.800  1.00  0.00     0.040 A 
ATOM     46  F   UNL A   1      43.388  25.828  35.231  1.00  0.00    -0.206 F 
ATOM     47  C   UNL A   1      46.910  26.504  35.746  1.00  0.00     0.006 A 
ENDBRANCH  26  40
BRANCH  27  48
ATOM     48  C   UNL A   1      36.981  31.389  29.172  1.00  0.00     0.057 A 
ATOM     49  C   UNL A   1      37.002  32.702  28.691  1.00  0.00     0.134 A 
ATOM     50  C   UNL A   1      35.842  30.622  28.893  1.00  0.00     0.134 A 
ATOM     51  F   UNL A   1      38.054  33.495  28.942  1.00  0.00    -0.206 F 
ATOM     52  C   UNL A   1      35.931  33.237  27.971  1.00  0.00     0.040 A 
ATOM     53  C   UNL A   1      34.774  31.134  28.153  1.00  0.00     0.040 A 
ATOM     54  F   UNL A   1      35.755  29.355  29.327  1.00  0.00    -0.206 F 
ATOM     55  C   UNL A   1      34.815  32.448  27.696  1.00  0.00     0.006 A 
ENDBRANCH  27  48
BRANCH  39  56
ATOM     56  C   UNL A   1      39.150  32.203  35.741  1.00  0.00     0.057 A 
ATOM     57  C   UNL A   1      38.281  31.663  36.696  1.00  0.00     0.134 A 
ATOM     58  C   UNL A   1      39.558  33.532  35.905  1.00  0.00     0.134 A 
ATOM     59  F   UNL A   1      37.846  30.399  36.583  1.00  0.00    -0.206 F 
ATOM     60  C   UNL A   1      37.821  32.424  37.771  1.00  0.00     0.040 A 
ATOM     61  C   UNL A   1      39.123  34.295  36.987  1.00  0.00     0.040 A 
ATOM     62  F   UNL A   1      40.396  34.101  35.025  1.00  0.00    -0.206 F 
ATOM     63  C   UNL A   1      38.250  33.742  37.922  1.00  0.00     0.006 A 
ENDBRANCH  39  56
ENDBRANCH  13  14
ENDBRANCH   6   8
ENDBRANCH   5   6
ENDBRANCH   4   5
ENDBRANCH   3   4
ENDBRANCH   2   3
ENDBRANCH   1   2
BRANCH   1  64
ATOM     64  C   UNL A   1      38.822  22.115  25.765  1.00  0.00     0.261 C 
BRANCH  64  65
ATOM     65  O   UNL A   1      37.453  21.891  26.144  1.00  0.00    -0.463 OA
BRANCH  65  66
ATOM     66  C   UNL A   1      36.576  22.860  25.752  1.00  0.00     0.317 C 
ATOM     67  O   UNL A   1      36.696  24.042  26.048  1.00  0.00    -0.251 OA
BRANCH  66  68
ATOM     68  C   UNL A   1      35.385  22.297  24.952  1.00  0.00     0.117 C 
ATOM     69  C   UNL A   1      35.496  20.746  24.882  1.00  0.00     0.030 C 
ATOM     70  C   UNL A   1      34.179  22.652  25.828  1.00  0.00     0.281 C 
ATOM     71  C   UNL A   1      34.163  20.069  24.561  1.00  0.00     0.063 C 
ATOM     72  N   UNL A   1      32.918  22.002  25.445  1.00  0.00    -0.330 N 
ATOM     73  C   UNL A   1      33.052  20.543  25.499  1.00  0.00     0.262 C 
ATOM     74  H   UNL A   1      32.701  22.239  24.477  1.00  0.00     0.348 HD
BRANCH  68  75
ATOM     75  C   UNL A   1      35.325  22.883  23.509  1.00  0.00     0.029 C 
BRANCH  75  76
ATOM     76  C   UNL A   1      34.046  23.555  22.968  1.00  0.00     0.037 C 
BRANCH  76  77
ATOM     77  C   UNL A   1      33.817  25.041  23.100  1.00  0.00    -0.048 A 
ATOM     78  C   UNL A   1      33.352  25.858  22.066  1.00  0.00     0.004 A 
ATOM     79  C   UNL A   1      34.029  25.633  24.358  1.00  0.00     0.004 A 
ATOM     80  C   UNL A   1      33.211  27.238  22.250  1.00  0.00     0.000 A 
ATOM     81  C   UNL A   1      33.853  27.004  24.554  1.00  0.00     0.000 A 
ATOM     82  C   UNL A   1      33.464  27.812  23.491  1.00  0.00     0.000 A 
ENDBRANCH  76  77
ENDBRANCH  75  76
ENDBRANCH  68  75
BRANCH  72  83
ATOM     83  C   UNL A   1      31.793  22.514  26.263  1.00  0.00     0.300 C 
BRANCH  83  84
ATOM     84  C   UNL A   1      31.136  23.782  25.764  1.00  0.00     0.025 A 
ATOM     85  C   UNL A   1      30.690  23.904  24.440  1.00  0.00     0.013 A 
ATOM     86  C   UNL A   1      31.046  24.913  26.567  1.00  0.00     0.120 A 
ATOM     87  C   UNL A   1      30.261  25.137  23.959  1.00  0.00     0.021 A 
ATOM     88  N   UNL A   1      30.605  26.117  26.137  1.00  0.00    -0.264 NA
ATOM     89  C   UNL A   1      30.240  26.204  24.838  1.00  0.00     0.111 A 
ENDBRANCH  83  84
ENDBRANCH  72  83
ENDBRANCH  66  68
ENDBRANCH  65  66
ENDBRANCH  64  65
ENDBRANCH   1  64
TORSDOF 19
ENDMDL
MODEL 2
REMARK VINA RESULT:     -11.0      5.150     10.863
REMARK SMILES O=C(OCCOCCOC(=O)[C@@]1(CCc2ccccc2)CCC[N@@H+](Cc2cccnc2)C1)c1ccc(-c2c3nc(c(-c4c(F)cccc4F)c4ccc([nH]4)c(-c4c(F)cccc4F)c4nc(c(-c5c(F)cccc5F)c5ccc2[nH]5)C=C4)C=C3)cc1
REMARK SMILES IDX 7 1 6 2 5 3 4 4 3 5 2 6 1 7 33 8 34 9 86 10 35 11 85 12
REMARK SMILES IDX 36 13 37 14 38 15 79 16 39 17 84 18 78 19 80 20 40 21 83 22
REMARK SMILES IDX 77 23 76 24 41 26 67 27 50 28 66 29 51 30 54 31 65 32 81 33
REMARK SMILES IDX 52 34 53 35 64 37 82 38 55 39 42 40 43 41 48 42 44 43 45 44
REMARK SMILES IDX 47 45 49 46 46 47 68 48 69 49 74 50 70 51 71 52 73 53 75 54
REMARK SMILES IDX 72 55 56 56 57 57 62 58 58 59 59 60 61 61 63 62 60 63 8 64
REMARK SMILES IDX 9 65 10 66 11 67 12 68 21 69 32 70 22 71 24 72 23 73 13 75
REMARK SMILES IDX 14 76 15 77 16 78 20 79 17 80 19 81 18 82 25 83 26 84 27 85
REMARK SMILES IDX 31 86 28 87 30 88 29 89
REMARK H PARENT 80 25 54 36 24 74
REMARK Flexibility Score: inf
ROOT
ATOM      1  C   UNL A   1      44.816  22.111  23.757  1.00  0.00     0.202 C 
ENDROOT
BRANCH   1   2
ATOM      2  O   UNL A   1      44.499  20.716  23.739  1.00  0.00    -0.374 OA
BRANCH   2   3
ATOM      3  C   UNL A   1      44.912  20.005  24.908  1.00  0.00     0.202 C 
BRANCH   3   4
ATOM      4  C   UNL A   1      43.896  18.958  25.361  1.00  0.00     0.261 C 
BRANCH   4   5
ATOM      5  O   UNL A   1      42.559  19.397  25.104  1.00  0.00    -0.460 OA
BRANCH   5   6
ATOM      6  C   UNL A   1      41.758  20.073  25.962  1.00  0.00     0.338 C 
ATOM      7  O   UNL A   1      40.740  19.517  26.371  1.00  0.00    -0.246 OA
BRANCH   6   8
ATOM      8  C   UNL A   1      42.079  21.428  26.516  1.00  0.00     0.060 A 
ATOM      9  C   UNL A   1      42.265  22.604  25.779  1.00  0.00     0.016 A 
ATOM     10  C   UNL A   1      42.097  21.525  27.918  1.00  0.00     0.016 A 
ATOM     11  C   UNL A   1      42.476  23.829  26.401  1.00  0.00     0.010 A 
ATOM     12  C   UNL A   1      42.291  22.753  28.553  1.00  0.00     0.010 A 
ATOM     13  C   UNL A   1      42.483  23.907  27.790  1.00  0.00    -0.014 A 
BRANCH  13  14
ATOM     14  C   UNL A   1      42.798  25.197  28.422  1.00  0.00     0.031 A 
ATOM     15  C   UNL A   1      41.688  26.176  28.618  1.00  0.00     0.074 A 
ATOM     16  C   UNL A   1      44.041  25.433  28.877  1.00  0.00     0.049 A 
ATOM     17  N   UNL A   1      41.734  27.404  29.056  1.00  0.00    -0.248 NA
ATOM     18  C   UNL A   1      40.335  25.701  28.281  1.00  0.00     0.031 C 
ATOM     19  C   UNL A   1      45.153  24.482  28.833  1.00  0.00     0.029 A 
ATOM     20  N   UNL A   1      44.571  26.543  29.478  1.00  0.00    -0.354 N 
ATOM     21  C   UNL A   1      40.423  27.857  29.025  1.00  0.00     0.074 A 
ATOM     22  C   UNL A   1      39.603  26.775  28.528  1.00  0.00     0.031 C 
ATOM     23  C   UNL A   1      46.236  25.051  29.386  1.00  0.00     0.029 A 
ATOM     24  C   UNL A   1      45.907  26.421  29.768  1.00  0.00     0.049 A 
ATOM     25  H   UNL A   1      44.045  27.350  29.682  1.00  0.00     0.167 HD
ATOM     26  C   UNL A   1      39.957  29.078  29.372  1.00  0.00     0.037 A 
ATOM     27  C   UNL A   1      46.766  27.337  30.253  1.00  0.00     0.037 A 
ATOM     28  C   UNL A   1      40.801  30.138  29.848  1.00  0.00     0.049 A 
ATOM     29  C   UNL A   1      46.241  28.718  30.542  1.00  0.00     0.074 A 
ATOM     30  C   UNL A   1      40.467  31.442  30.160  1.00  0.00     0.029 A 
ATOM     31  N   UNL A   1      42.164  30.002  30.082  1.00  0.00    -0.354 N 
ATOM     32  N   UNL A   1      45.013  29.172  30.441  1.00  0.00    -0.248 NA
ATOM     33  C   UNL A   1      47.218  29.717  30.990  1.00  0.00     0.031 C 
ATOM     34  C   UNL A   1      41.636  32.104  30.553  1.00  0.00     0.029 A 
ATOM     35  C   UNL A   1      42.690  31.201  30.525  1.00  0.00     0.049 A 
ATOM     36  H   UNL A   1      42.679  29.173  29.952  1.00  0.00     0.167 HD
ATOM     37  C   UNL A   1      45.065  30.504  30.825  1.00  0.00     0.074 A 
ATOM     38  C   UNL A   1      46.445  30.779  31.178  1.00  0.00     0.031 C 
ATOM     39  C   UNL A   1      44.070  31.424  30.875  1.00  0.00     0.037 A 
BRANCH  26  40
ATOM     40  C   UNL A   1      38.493  29.322  29.172  1.00  0.00     0.057 A 
ATOM     41  C   UNL A   1      37.957  29.637  27.917  1.00  0.00     0.134 A 
ATOM     42  C   UNL A   1      37.615  29.295  30.262  1.00  0.00     0.134 A 
ATOM     43  F   UNL A   1      38.751  29.713  26.838  1.00  0.00    -0.206 F 
ATOM     44  C   UNL A   1      36.603  29.941  27.758  1.00  0.00     0.040 A 
ATOM     45  C   UNL A   1      36.256  29.575  30.113  1.00  0.00     0.040 A 
ATOM     46  F   UNL A   1      38.067  29.010  31.493  1.00  0.00    -0.206 F 
ATOM     47  C   UNL A   1      35.748  29.910  28.859  1.00  0.00     0.006 A 
ENDBRANCH  26  40
BRANCH  27  48
ATOM     48  C   UNL A   1      48.198  26.998  30.450  1.00  0.00     0.057 A 
ATOM     49  C   UNL A   1      48.629  26.287  31.575  1.00  0.00     0.134 A 
ATOM     50  C   UNL A   1      49.175  27.386  29.525  1.00  0.00     0.134 A 
ATOM     51  F   UNL A   1      47.747  25.903  32.510  1.00  0.00    -0.206 F 
ATOM     52  C   UNL A   1      49.978  25.984  31.780  1.00  0.00     0.040 A 
ATOM     53  C   UNL A   1      50.524  27.070  29.703  1.00  0.00     0.040 A 
ATOM     54  F   UNL A   1      48.832  28.073  28.424  1.00  0.00    -0.206 F 
ATOM     55  C   UNL A   1      50.928  26.372  30.837  1.00  0.00     0.006 A 
ENDBRANCH  27  48
BRANCH  39  56
ATOM     56  C   UNL A   1      44.441  32.792  31.355  1.00  0.00     0.057 A 
ATOM     57  C   UNL A   1      44.825  33.803  30.466  1.00  0.00     0.134 A 
ATOM     58  C   UNL A   1      44.361  33.113  32.715  1.00  0.00     0.134 A 
ATOM     59  F   UNL A   1      44.932  33.550  29.153  1.00  0.00    -0.206 F 
ATOM     60  C   UNL A   1      45.134  35.086  30.917  1.00  0.00     0.040 A 
ATOM     61  C   UNL A   1      44.646  34.398  33.175  1.00  0.00     0.040 A 
ATOM     62  F   UNL A   1      43.992  32.187  33.612  1.00  0.00    -0.206 F 
ATOM     63  C   UNL A   1      45.036  35.388  32.275  1.00  0.00     0.006 A 
ENDBRANCH  39  56
ENDBRANCH  13  14
ENDBRANCH   6   8
ENDBRANCH   5   6
ENDBRANCH   4   5
ENDBRANCH   3   4
ENDBRANCH   2   3
ENDBRANCH   1   2
BRANCH   1  64
ATOM     64  C   UNL A   1      46.267  22.301  24.177  1.00  0.00     0.261 C 
BRANCH  64  65
ATOM     65  O   UNL A   1      46.587  23.703  24.145  1.00  0.00    -0.463 OA
BRANCH  65  66
ATOM     66  C   UNL A   1      47.117  24.204  25.298  1.00  0.00     0.317 C 
ATOM     67  O   UNL A   1      47.105  23.604  26.366  1.00  0.00    -0.251 OA
BRANCH  66  68
ATOM     68  C   UNL A   1      47.674  25.630  25.127  1.00  0.00     0.117 C 
ATOM     69  C   UNL A   1      48.930  25.807  26.030  1.00  0.00     0.030 C 
ATOM     70  C   UNL A   1      48.131  25.653  23.664  1.00  0.00     0.281 C 
ATOM     71  C   UNL A   1      49.825  26.964  25.584  1.00  0.00     0.063 C 
ATOM     72  N   UNL A   1      48.954  26.809  23.285  1.00  0.00    -0.330 N 
ATOM     73  C   UNL A   1      50.172  26.865  24.098  1.00  0.00     0.262 C 
ATOM     74  H   UNL A   1      48.435  27.666  23.480  1.00  0.00     0.348 HD
BRANCH  68  75
ATOM     75  C   UNL A   1      46.615  26.716  25.485  1.00  0.00     0.029 C 
BRANCH  75  76
ATOM     76  C   UNL A   1      45.105  26.404  25.457  1.00  0.00     0.037 C 
BRANCH  76  77
ATOM     77  C   UNL A   1      44.073  27.462  25.767  1.00  0.00    -0.048 A 
ATOM     78  C   UNL A   1      42.760  27.441  25.291  1.00  0.00     0.004 A 
ATOM     79  C   UNL A   1      44.438  28.505  26.638  1.00  0.00     0.004 A 
ATOM     80  C   UNL A   1      41.874  28.484  25.581  1.00  0.00     0.000 A 
ATOM     81  C   UNL A   1      43.543  29.528  26.960  1.00  0.00     0.000 A 
ATOM     82  C   UNL A   1      42.265  29.528  26.413  1.00  0.00     0.000 A 
ENDBRANCH  76  77
ENDBRANCH  75  76
ENDBRANCH  68  75
BRANCH  72  83
ATOM     83  C   UNL A   1      49.225  26.807  21.828  1.00  0.00     0.300 C 
BRANCH  83  84
ATOM     84  C   UNL A   1      50.291  27.769  21.352  1.00  0.00     0.025 A 
ATOM     85  C   UNL A   1      50.007  29.124  21.126  1.00  0.00     0.013 A 
ATOM     86  C   UNL A   1      51.565  27.327  21.017  1.00  0.00     0.120 A 
ATOM     87  C   UNL A   1      50.952  29.942  20.515  1.00  0.00     0.021 A 
ATOM     88  N   UNL A   1      52.515  28.105  20.449  1.00  0.00    -0.264 NA
ATOM     89  C   UNL A   1      52.178  29.389  20.196  1.00  0.00     0.111 A 
ENDBRANCH  83  84
ENDBRANCH  72  83
ENDBRANCH  66  68
ENDBRANCH  65  66
ENDBRANCH  64  65
ENDBRANCH   1  64
TORSDOF 19
ENDMDL
MODEL 3
REMARK VINA RESULT:     -10.9      1.254      2.833
REMARK SMILES O=C(OCCOCCOC(=O)[C@@]1(CCc2ccccc2)CCC[N@@H+](Cc2cccnc2)C1)c1ccc(-c2c3nc(c(-c4c(F)cccc4F)c4ccc([nH]4)c(-c4c(F)cccc4F)c4nc(c(-c5c(F)cccc5F)c5ccc2[nH]5)C=C4)C=C3)cc1
REMARK SMILES IDX 7 1 6 2 5 3 4 4 3 5 2 6 1 7 33 8 34 9 86 10 35 11 85 12
REMARK SMILES IDX 36 13 37 14 38 15 79 16 39 17 84 18 78 19 80 20 40 21 83 22
REMARK SMILES IDX 77 23 76 24 41 26 67 27 50 28 66 29 51 30 54 31 65 32 81 33
REMARK SMILES IDX 52 34 53 35 64 37 82 38 55 39 42 40 43 41 48 42 44 43 45 44
REMARK SMILES IDX 47 45 49 46 46 47 68 48 69 49 74 50 70 51 71 52 73 53 75 54
REMARK SMILES IDX 72 55 56 56 57 57 62 58 58 59 59 60 61 61 63 62 60 63 8 64
REMARK SMILES IDX 9 65 10 66 11 67 12 68 21 69 32 70 22 71 24 72 23 73 13 75
REMARK SMILES IDX 14 76 15 77 16 78 20 79 17 80 19 81 18 82 25 83 26 84 27 85
REMARK SMILES IDX 31 86 28 87 30 88 29 89
REMARK H PARENT 80 25 54 36 24 74
REMARK Flexibility Score: inf
ROOT
ATOM      1  C   UNL A   1      38.929  21.513  25.939  1.00  0.00     0.202 C 
ENDROOT
BRANCH   1   2
ATOM      2  O   UNL A   1      40.223  21.840  26.451  1.00  0.00    -0.374 OA
BRANCH   2   3
ATOM      3  C   UNL A   1      41.206  20.821  26.256  1.00  0.00     0.202 C 
BRANCH   3   4
ATOM      4  C   UNL A   1      42.564  21.375  25.831  1.00  0.00     0.261 C 
BRANCH   4   5
ATOM      5  O   UNL A   1      42.420  22.634  25.167  1.00  0.00    -0.460 OA
BRANCH   5   6
ATOM      6  C   UNL A   1      43.167  23.743  25.380  1.00  0.00     0.338 C 
ATOM      7  O   UNL A   1      44.116  23.960  24.628  1.00  0.00    -0.246 OA
BRANCH   6   8
ATOM      8  C   UNL A   1      42.858  24.774  26.422  1.00  0.00     0.060 A 
ATOM      9  C   UNL A   1      43.370  26.077  26.480  1.00  0.00     0.016 A 
ATOM     10  C   UNL A   1      41.886  24.412  27.370  1.00  0.00     0.016 A 
ATOM     11  C   UNL A   1      42.950  26.984  27.446  1.00  0.00     0.010 A 
ATOM     12  C   UNL A   1      41.445  25.320  28.334  1.00  0.00     0.010 A 
ATOM     13  C   UNL A   1      41.981  26.609  28.371  1.00  0.00    -0.014 A 
BRANCH  13  14
ATOM     14  C   UNL A   1      41.621  27.556  29.437  1.00  0.00     0.031 A 
ATOM     15  C   UNL A   1      42.448  27.567  30.680  1.00  0.00     0.074 A 
ATOM     16  C   UNL A   1      40.622  28.434  29.242  1.00  0.00     0.049 A 
ATOM     17  N   UNL A   1      42.270  28.232  31.788  1.00  0.00    -0.248 NA
ATOM     18  C   UNL A   1      43.648  26.713  30.670  1.00  0.00     0.031 C 
ATOM     19  C   UNL A   1      39.844  28.570  28.010  1.00  0.00     0.029 A 
ATOM     20  N   UNL A   1      40.102  29.387  30.075  1.00  0.00    -0.354 N 
ATOM     21  C   UNL A   1      43.320  27.862  32.615  1.00  0.00     0.074 A 
ATOM     22  C   UNL A   1      44.132  26.914  31.886  1.00  0.00     0.031 C 
ATOM     23  C   UNL A   1      38.943  29.553  28.168  1.00  0.00     0.029 A 
ATOM     24  C   UNL A   1      39.045  30.072  29.529  1.00  0.00     0.049 A 
ATOM     25  H   UNL A   1      40.451  29.564  30.979  1.00  0.00     0.167 HD
ATOM     26  C   UNL A   1      43.568  28.273  33.880  1.00  0.00     0.037 A 
ATOM     27  C   UNL A   1      38.234  30.988  30.091  1.00  0.00     0.037 A 
ATOM     28  C   UNL A   1      42.732  29.205  34.584  1.00  0.00     0.049 A 
ATOM     29  C   UNL A   1      38.474  31.358  31.530  1.00  0.00     0.074 A 
ATOM     30  C   UNL A   1      42.828  29.644  35.890  1.00  0.00     0.029 A 
ATOM     31  N   UNL A   1      41.634  29.844  34.021  1.00  0.00    -0.354 N 
ATOM     32  N   UNL A   1      39.424  30.951  32.341  1.00  0.00    -0.248 NA
ATOM     33  C   UNL A   1      37.524  32.296  32.140  1.00  0.00     0.031 C 
ATOM     34  C   UNL A   1      41.768  30.527  36.127  1.00  0.00     0.029 A 
ATOM     35  C   UNL A   1      41.036  30.668  34.956  1.00  0.00     0.049 A 
ATOM     36  H   UNL A   1      41.328  29.728  33.093  1.00  0.00     0.167 HD
ATOM     37  C   UNL A   1      39.194  31.590  33.550  1.00  0.00     0.074 A 
ATOM     38  C   UNL A   1      38.025  32.427  33.361  1.00  0.00     0.031 C 
ATOM     39  C   UNL A   1      39.878  31.492  34.718  1.00  0.00     0.037 A 
BRANCH  26  40
ATOM     40  C   UNL A   1      44.743  27.653  34.572  1.00  0.00     0.057 A 
ATOM     41  C   UNL A   1      46.043  28.154  34.424  1.00  0.00     0.134 A 
ATOM     42  C   UNL A   1      44.577  26.504  35.356  1.00  0.00     0.134 A 
ATOM     43  F   UNL A   1      46.273  29.231  33.659  1.00  0.00    -0.206 F 
ATOM     44  C   UNL A   1      47.139  27.518  35.010  1.00  0.00     0.040 A 
ATOM     45  C   UNL A   1      45.662  25.873  35.964  1.00  0.00     0.040 A 
ATOM     46  F   UNL A   1      43.359  25.968  35.528  1.00  0.00    -0.206 F 
ATOM     47  C   UNL A   1      46.950  26.374  35.784  1.00  0.00     0.006 A 
ENDBRANCH  26  40
BRANCH  27  48
ATOM     48  C   UNL A   1      37.110  31.575  29.319  1.00  0.00     0.057 A 
ATOM     49  C   UNL A   1      35.927  30.863  29.101  1.00  0.00     0.134 A 
ATOM     50  C   UNL A   1      37.196  32.861  28.768  1.00  0.00     0.134 A 
ATOM     51  F   UNL A   1      35.789  29.619  29.583  1.00  0.00    -0.206 F 
ATOM     52  C   UNL A   1      34.874  31.400  28.355  1.00  0.00     0.040 A 
ATOM     53  C   UNL A   1      36.143  33.421  28.042  1.00  0.00     0.040 A 
ATOM     54  F   UNL A   1      38.304  33.598  28.937  1.00  0.00    -0.206 F 
ATOM     55  C   UNL A   1      34.979  32.686  27.828  1.00  0.00     0.006 A 
ENDBRANCH  27  48
BRANCH  39  56
ATOM     56  C   UNL A   1      39.391  32.332  35.856  1.00  0.00     0.057 A 
ATOM     57  C   UNL A   1      39.851  33.640  36.053  1.00  0.00     0.134 A 
ATOM     58  C   UNL A   1      38.412  31.845  36.731  1.00  0.00     0.134 A 
ATOM     59  F   UNL A   1      40.797  34.155  35.255  1.00  0.00    -0.206 F 
ATOM     60  C   UNL A   1      39.365  34.430  37.094  1.00  0.00     0.040 A 
ATOM     61  C   UNL A   1      37.903  32.633  37.761  1.00  0.00     0.040 A 
ATOM     62  F   UNL A   1      37.928  30.602  36.586  1.00  0.00    -0.206 F 
ATOM     63  C   UNL A   1      38.382  33.929  37.947  1.00  0.00     0.006 A 
ENDBRANCH  39  56
ENDBRANCH  13  14
ENDBRANCH   6   8
ENDBRANCH   5   6
ENDBRANCH   4   5
ENDBRANCH   3   4
ENDBRANCH   2   3
ENDBRANCH   1   2
BRANCH   1  64
ATOM     64  C   UNL A   1      38.115  22.786  25.750  1.00  0.00     0.261 C 
BRANCH  64  65
ATOM     65  O   UNL A   1      36.753  22.435  25.447  1.00  0.00    -0.463 OA
BRANCH  65  66
ATOM     66  C   UNL A   1      36.293  22.881  24.243  1.00  0.00     0.317 C 
ATOM     67  O   UNL A   1      37.015  23.087  23.276  1.00  0.00    -0.251 OA
BRANCH  66  68
ATOM     68  C   UNL A   1      34.777  23.159  24.251  1.00  0.00     0.117 C 
ATOM     69  C   UNL A   1      34.317  23.556  22.818  1.00  0.00     0.030 C 
ATOM     70  C   UNL A   1      34.173  21.791  24.584  1.00  0.00     0.281 C 
ATOM     71  C   UNL A   1      32.814  23.373  22.603  1.00  0.00     0.063 C 
ATOM     72  N   UNL A   1      32.720  21.688  24.398  1.00  0.00    -0.330 N 
ATOM     73  C   UNL A   1      32.356  21.970  23.006  1.00  0.00     0.262 C 
ATOM     74  H   UNL A   1      32.260  22.397  24.969  1.00  0.00     0.348 HD
BRANCH  68  75
ATOM     75  C   UNL A   1      34.398  24.290  25.255  1.00  0.00     0.029 C 
BRANCH  75  76
ATOM     76  C   UNL A   1      33.808  25.630  24.769  1.00  0.00     0.037 C 
BRANCH  76  77
ATOM     77  C   UNL A   1      33.138  26.590  25.722  1.00  0.00    -0.048 A 
ATOM     78  C   UNL A   1      31.792  26.520  26.090  1.00  0.00     0.004 A 
ATOM     79  C   UNL A   1      33.931  27.583  26.325  1.00  0.00     0.004 A 
ATOM     80  C   UNL A   1      31.229  27.476  26.941  1.00  0.00     0.000 A 
ATOM     81  C   UNL A   1      33.380  28.516  27.205  1.00  0.00     0.000 A 
ATOM     82  C   UNL A   1      32.021  28.476  27.498  1.00  0.00     0.000 A 
ENDBRANCH  76  77
ENDBRANCH  75  76
ENDBRANCH  68  75
BRANCH  72  83
ATOM     83  C   UNL A   1      32.220  20.378  24.876  1.00  0.00     0.300 C 
BRANCH  83  84
ATOM     84  C   UNL A   1      32.882  19.157  24.276  1.00  0.00     0.025 A 
ATOM     85  C   UNL A   1      32.494  18.653  23.026  1.00  0.00     0.013 A 
ATOM     86  C   UNL A   1      33.825  18.424  24.986  1.00  0.00     0.120 A 
ATOM     87  C   UNL A   1      32.986  17.431  22.583  1.00  0.00     0.021 A 
ATOM     88  N   UNL A   1      34.345  17.247  24.568  1.00  0.00    -0.264 NA
ATOM     89  C   UNL A   1      33.899  16.770  23.385  1.00  0.00     0.111 A 
ENDBRANCH  83  84
ENDBRANCH  72  83
ENDBRANCH  66  68
ENDBRANCH  65  66
ENDBRANCH  64  65
ENDBRANCH   1  64
TORSDOF 19
ENDMDL
