MODEL 1
REMARK VINA RESULT:     -11.0      0.000      0.000
REMARK SMILES O=C(OCCOCCOC(=O)[C@@H]1CC[C@@H](CS(=O)(=O)c2cccc(F)c2)O1)c1ccc(-c2c3nc(c(-c4c(F)cccc4F)c4ccc([nH]4)c(-c4c(F)cccc4F)c4nc(c(-c5c(F)cccc5F)c5ccc2[nH]5)C=C4)C=C3)cc1
REMARK SMILES IDX 7 1 6 2 5 3 4 4 3 5 2 6 1 7 28 8 29 9 81 10 30 11 80 12
REMARK SMILES IDX 31 13 32 14 33 15 74 16 34 17 79 18 73 19 75 20 35 21 78 22
REMARK SMILES IDX 72 23 71 24 36 26 62 27 45 28 61 29 46 30 49 31 60 32 76 33
REMARK SMILES IDX 47 34 48 35 59 37 77 38 50 39 37 40 38 41 43 42 39 43 40 44
REMARK SMILES IDX 42 45 44 46 41 47 63 48 64 49 69 50 65 51 66 52 68 53 70 54
REMARK SMILES IDX 67 55 51 56 52 57 57 58 53 59 54 60 56 61 58 62 55 63 8 64
REMARK SMILES IDX 9 65 10 66 11 67 12 68 13 69 27 70 14 71 15 72 16 73 17 74
REMARK SMILES IDX 18 75 19 76 20 77 21 78 26 79 22 80 24 81 23 82 25 83
REMARK H PARENT 75 25 49 36
REMARK Flexibility Score: inf
ROOT
ATOM      1  C   UNL A   1      36.860  21.621  25.253  1.00  0.00     0.202 C 
ENDROOT
BRANCH   1   2
ATOM      2  O   UNL A   1      36.712  20.231  24.937  1.00  0.00    -0.374 OA
BRANCH   2   3
ATOM      3  C   UNL A   1      37.886  19.419  24.975  1.00  0.00     0.202 C 
BRANCH   3   4
ATOM      4  C   UNL A   1      39.149  19.983  25.645  1.00  0.00     0.261 C 
BRANCH   4   5
ATOM      5  O   UNL A   1      40.198  19.006  25.748  1.00  0.00    -0.460 OA
BRANCH   5   6
ATOM      6  C   UNL A   1      41.513  19.263  25.970  1.00  0.00     0.338 C 
ATOM      7  O   UNL A   1      42.339  18.365  25.844  1.00  0.00    -0.246 OA
BRANCH   6   8
ATOM      8  C   UNL A   1      41.981  20.615  26.385  1.00  0.00     0.060 A 
ATOM      9  C   UNL A   1      42.238  21.636  25.474  1.00  0.00     0.016 A 
ATOM     10  C   UNL A   1      42.080  20.906  27.751  1.00  0.00     0.016 A 
ATOM     11  C   UNL A   1      42.681  22.877  25.868  1.00  0.00     0.010 A 
ATOM     12  C   UNL A   1      42.442  22.191  28.171  1.00  0.00     0.010 A 
ATOM     13  C   UNL A   1      42.740  23.175  27.221  1.00  0.00    -0.014 A 
BRANCH  13  14
ATOM     14  C   UNL A   1      43.118  24.549  27.562  1.00  0.00     0.031 A 
ATOM     15  C   UNL A   1      44.537  24.966  27.385  1.00  0.00     0.074 A 
ATOM     16  C   UNL A   1      42.138  25.426  27.851  1.00  0.00     0.049 A 
ATOM     17  N   UNL A   1      45.094  26.109  27.672  1.00  0.00    -0.248 NA
ATOM     18  C   UNL A   1      45.451  23.978  26.786  1.00  0.00     0.031 C 
ATOM     19  C   UNL A   1      40.703  25.108  27.875  1.00  0.00     0.029 A 
ATOM     20  N   UNL A   1      42.183  26.761  28.137  1.00  0.00    -0.354 N 
ATOM     21  C   UNL A   1      46.428  25.965  27.328  1.00  0.00     0.074 A 
ATOM     22  C   UNL A   1      46.602  24.636  26.790  1.00  0.00     0.031 C 
ATOM     23  C   UNL A   1      40.008  26.225  28.139  1.00  0.00     0.029 A 
ATOM     24  C   UNL A   1      40.947  27.306  28.399  1.00  0.00     0.049 A 
ATOM     25  H   UNL A   1      43.018  27.283  28.153  1.00  0.00     0.167 HD
ATOM     26  C   UNL A   1      47.411  26.878  27.477  1.00  0.00     0.037 A 
ATOM     27  C   UNL A   1      40.628  28.528  28.860  1.00  0.00     0.037 A 
ATOM     28  C   UNL A   1      47.182  28.194  28.004  1.00  0.00     0.049 A 
ATOM     29  C   UNL A   1      41.759  29.480  29.127  1.00  0.00     0.074 A 
ATOM     30  C   UNL A   1      48.101  29.193  28.255  1.00  0.00     0.029 A 
ATOM     31  N   UNL A   1      45.933  28.687  28.360  1.00  0.00    -0.354 N 
ATOM     32  N   UNL A   1      43.039  29.322  28.880  1.00  0.00    -0.248 NA
ATOM     33  C   UNL A   1      41.422  30.756  29.767  1.00  0.00     0.031 C 
ATOM     34  C   UNL A   1      47.413  30.277  28.809  1.00  0.00     0.029 A 
ATOM     35  C   UNL A   1      46.060  29.967  28.861  1.00  0.00     0.049 A 
ATOM     36  H   UNL A   1      45.084  28.197  28.268  1.00  0.00     0.167 HD
ATOM     37  C   UNL A   1      43.661  30.472  29.339  1.00  0.00     0.074 A 
ATOM     38  C   UNL A   1      42.612  31.334  29.851  1.00  0.00     0.031 C 
ATOM     39  C   UNL A   1      44.979  30.785  29.352  1.00  0.00     0.037 A 
BRANCH  26  40
ATOM     40  C   UNL A   1      48.808  26.462  27.144  1.00  0.00     0.057 A 
ATOM     41  C   UNL A   1      49.344  26.758  25.884  1.00  0.00     0.134 A 
ATOM     42  C   UNL A   1      49.605  25.737  28.035  1.00  0.00     0.134 A 
ATOM     43  F   UNL A   1      48.633  27.461  24.990  1.00  0.00    -0.206 F 
ATOM     44  C   UNL A   1      50.618  26.327  25.514  1.00  0.00     0.040 A 
ATOM     45  C   UNL A   1      50.889  25.314  27.682  1.00  0.00     0.040 A 
ATOM     46  F   UNL A   1      49.160  25.448  29.267  1.00  0.00    -0.206 F 
ATOM     47  C   UNL A   1      51.394  25.601  26.413  1.00  0.00     0.006 A 
ENDBRANCH  26  40
BRANCH  27  48
ATOM     48  C   UNL A   1      39.219  28.864  29.189  1.00  0.00     0.057 A 
ATOM     49  C   UNL A   1      38.364  29.432  28.231  1.00  0.00     0.134 A 
ATOM     50  C   UNL A   1      38.683  28.631  30.460  1.00  0.00     0.134 A 
ATOM     51  F   UNL A   1      38.808  29.682  26.989  1.00  0.00    -0.206 F 
ATOM     52  C   UNL A   1      37.045  29.775  28.529  1.00  0.00     0.040 A 
ATOM     53  C   UNL A   1      37.354  28.940  30.764  1.00  0.00     0.040 A 
ATOM     54  F   UNL A   1      39.437  28.071  31.417  1.00  0.00    -0.206 F 
ATOM     55  C   UNL A   1      36.533  29.521  29.799  1.00  0.00     0.006 A 
ENDBRANCH  27  48
BRANCH  39  56
ATOM     56  C   UNL A   1      45.358  32.106  29.941  1.00  0.00     0.057 A 
ATOM     57  C   UNL A   1      45.448  33.246  29.132  1.00  0.00     0.134 A 
ATOM     58  C   UNL A   1      45.753  32.216  31.278  1.00  0.00     0.134 A 
ATOM     59  F   UNL A   1      45.095  33.194  27.839  1.00  0.00    -0.206 F 
ATOM     60  C   UNL A   1      45.950  34.447  29.630  1.00  0.00     0.040 A 
ATOM     61  C   UNL A   1      46.234  33.418  31.793  1.00  0.00     0.040 A 
ATOM     62  F   UNL A   1      45.677  31.156  32.098  1.00  0.00    -0.206 F 
ATOM     63  C   UNL A   1      46.347  34.533  30.963  1.00  0.00     0.006 A 
ENDBRANCH  39  56
ENDBRANCH  13  14
ENDBRANCH   6   8
ENDBRANCH   5   6
ENDBRANCH   4   5
ENDBRANCH   3   4
ENDBRANCH   2   3
ENDBRANCH   1   2
BRANCH   1  64
ATOM     64  C   UNL A   1      35.508  22.207  25.671  1.00  0.00     0.261 C 
BRANCH  64  65
ATOM     65  O   UNL A   1      35.409  23.521  25.099  1.00  0.00    -0.461 OA
BRANCH  65  66
ATOM     66  C   UNL A   1      34.640  23.569  23.975  1.00  0.00     0.335 C 
ATOM     67  O   UNL A   1      35.055  23.370  22.839  1.00  0.00    -0.249 OA
BRANCH  66  68
ATOM     68  C   UNL A   1      33.180  23.855  24.328  1.00  0.00     0.228 C 
ATOM     69  C   UNL A   1      32.192  22.740  24.029  1.00  0.00     0.047 C 
ATOM     70  O   UNL A   1      32.700  24.987  23.577  1.00  0.00    -0.362 OA
ATOM     71  C   UNL A   1      30.890  23.492  23.896  1.00  0.00     0.036 C 
ATOM     72  C   UNL A   1      31.291  24.831  23.301  1.00  0.00     0.135 C 
BRANCH  72  73
ATOM     73  C   UNL A   1      30.618  26.087  23.823  1.00  0.00     0.174 C 
BRANCH  73  74
ATOM     74  S   UNL A   1      30.968  27.615  23.028  1.00  0.00     0.181 S 
ATOM     75  O   UNL A   1      32.075  28.234  23.736  1.00  0.00    -0.224 OA
ATOM     76  O   UNL A   1      31.074  27.344  21.607  1.00  0.00    -0.224 OA
BRANCH  74  77
ATOM     77  C   UNL A   1      29.594  28.719  23.190  1.00  0.00     0.070 A 
ATOM     78  C   UNL A   1      28.278  28.319  22.943  1.00  0.00     0.020 A 
ATOM     79  C   UNL A   1      29.886  30.050  23.514  1.00  0.00     0.059 A 
ATOM     80  C   UNL A   1      27.249  29.262  23.030  1.00  0.00     0.004 A 
ATOM     81  C   UNL A   1      28.854  30.974  23.580  1.00  0.00     0.124 A 
ATOM     82  C   UNL A   1      27.539  30.593  23.344  1.00  0.00     0.039 A 
ATOM     83  F   UNL A   1      29.132  32.253  23.861  1.00  0.00    -0.207 F 
ENDBRANCH  74  77
ENDBRANCH  73  74
ENDBRANCH  72  73
ENDBRANCH  66  68
ENDBRANCH  65  66
ENDBRANCH  64  65
ENDBRANCH   1  64
TORSDOF 17
ENDMDL
MODEL 2
REMARK VINA RESULT:     -10.9      4.528      7.318
REMARK SMILES O=C(OCCOCCOC(=O)[C@@H]1CC[C@@H](CS(=O)(=O)c2cccc(F)c2)O1)c1ccc(-c2c3nc(c(-c4c(F)cccc4F)c4ccc([nH]4)c(-c4c(F)cccc4F)c4nc(c(-c5c(F)cccc5F)c5ccc2[nH]5)C=C4)C=C3)cc1
REMARK SMILES IDX 7 1 6 2 5 3 4 4 3 5 2 6 1 7 28 8 29 9 81 10 30 11 80 12
REMARK SMILES IDX 31 13 32 14 33 15 74 16 34 17 79 18 73 19 75 20 35 21 78 22
REMARK SMILES IDX 72 23 71 24 36 26 62 27 45 28 61 29 46 30 49 31 60 32 76 33
REMARK SMILES IDX 47 34 48 35 59 37 77 38 50 39 37 40 38 41 43 42 39 43 40 44
REMARK SMILES IDX 42 45 44 46 41 47 63 48 64 49 69 50 65 51 66 52 68 53 70 54
REMARK SMILES IDX 67 55 51 56 52 57 57 58 53 59 54 60 56 61 58 62 55 63 8 64
REMARK SMILES IDX 9 65 10 66 11 67 12 68 13 69 27 70 14 71 15 72 16 73 17 74
REMARK SMILES IDX 18 75 19 76 20 77 21 78 26 79 22 80 24 81 23 82 25 83
REMARK H PARENT 75 25 49 36
REMARK Flexibility Score: inf
ROOT
ATOM      1  C   UNL A   1      43.527  20.272  25.953  1.00  0.00     0.202 C 
ENDROOT
BRANCH   1   2
ATOM      2  O   UNL A   1      44.290  20.456  24.755  1.00  0.00    -0.374 OA
BRANCH   2   3
ATOM      3  C   UNL A   1      45.491  21.223  24.850  1.00  0.00     0.202 C 
BRANCH   3   4
ATOM      4  C   UNL A   1      45.454  22.700  24.428  1.00  0.00     0.261 C 
BRANCH   4   5
ATOM      5  O   UNL A   1      44.874  23.544  25.437  1.00  0.00    -0.460 OA
BRANCH   5   6
ATOM      6  C   UNL A   1      43.571  23.918  25.515  1.00  0.00     0.338 C 
ATOM      7  O   UNL A   1      42.757  23.464  24.716  1.00  0.00    -0.246 OA
BRANCH   6   8
ATOM      8  C   UNL A   1      43.102  24.891  26.541  1.00  0.00     0.060 A 
ATOM      9  C   UNL A   1      42.379  24.507  27.668  1.00  0.00     0.016 A 
ATOM     10  C   UNL A   1      43.477  26.235  26.421  1.00  0.00     0.016 A 
ATOM     11  C   UNL A   1      41.941  25.415  28.603  1.00  0.00     0.010 A 
ATOM     12  C   UNL A   1      43.117  27.156  27.412  1.00  0.00     0.010 A 
ATOM     13  C   UNL A   1      42.349  26.736  28.504  1.00  0.00    -0.014 A 
BRANCH  13  14
ATOM     14  C   UNL A   1      41.931  27.623  29.594  1.00  0.00     0.031 A 
ATOM     15  C   UNL A   1      42.782  27.706  30.815  1.00  0.00     0.074 A 
ATOM     16  C   UNL A   1      40.897  28.456  29.376  1.00  0.00     0.049 A 
ATOM     17  N   UNL A   1      42.574  28.381  31.909  1.00  0.00    -0.248 NA
ATOM     18  C   UNL A   1      44.046  26.948  30.798  1.00  0.00     0.031 C 
ATOM     19  C   UNL A   1      40.127  28.535  28.127  1.00  0.00     0.029 A 
ATOM     20  N   UNL A   1      40.337  29.420  30.167  1.00  0.00    -0.354 N 
ATOM     21  C   UNL A   1      43.656  28.099  32.727  1.00  0.00     0.074 A 
ATOM     22  C   UNL A   1      44.534  27.211  32.002  1.00  0.00     0.031 C 
ATOM     23  C   UNL A   1      39.212  29.510  28.233  1.00  0.00     0.029 A 
ATOM     24  C   UNL A   1      39.266  30.053  29.583  1.00  0.00     0.049 A 
ATOM     25  H   UNL A   1      40.670  29.640  31.068  1.00  0.00     0.167 HD
ATOM     26  C   UNL A   1      43.866  28.545  33.984  1.00  0.00     0.037 A 
ATOM     27  C   UNL A   1      38.391  30.926  30.112  1.00  0.00     0.037 A 
ATOM     28  C   UNL A   1      42.968  29.442  34.655  1.00  0.00     0.049 A 
ATOM     29  C   UNL A   1      38.586  31.310  31.551  1.00  0.00     0.074 A 
ATOM     30  C   UNL A   1      43.039  29.925  35.946  1.00  0.00     0.029 A 
ATOM     31  N   UNL A   1      41.831  29.989  34.075  1.00  0.00    -0.354 N 
ATOM     32  N   UNL A   1      39.567  30.981  32.361  1.00  0.00    -0.248 NA
ATOM     33  C   UNL A   1      37.550  32.145  32.167  1.00  0.00     0.031 C 
ATOM     34  C   UNL A   1      41.916  30.729  36.164  1.00  0.00     0.029 A 
ATOM     35  C   UNL A   1      41.170  30.781  34.993  1.00  0.00     0.049 A 
ATOM     36  H   UNL A   1      41.539  29.835  33.148  1.00  0.00     0.167 HD
ATOM     37  C   UNL A   1      39.264  31.562  33.581  1.00  0.00     0.074 A 
ATOM     38  C   UNL A   1      38.024  32.291  33.397  1.00  0.00     0.031 C 
ATOM     39  C   UNL A   1      39.939  31.491  34.754  1.00  0.00     0.037 A 
BRANCH  26  40
ATOM     40  C   UNL A   1      45.051  28.014  34.725  1.00  0.00     0.057 A 
ATOM     41  C   UNL A   1      46.285  28.672  34.633  1.00  0.00     0.134 A 
ATOM     42  C   UNL A   1      44.995  26.842  35.486  1.00  0.00     0.134 A 
ATOM     43  F   UNL A   1      46.400  29.807  33.928  1.00  0.00    -0.206 F 
ATOM     44  C   UNL A   1      47.428  28.169  35.254  1.00  0.00     0.040 A 
ATOM     45  C   UNL A   1      46.129  26.337  36.128  1.00  0.00     0.040 A 
ATOM     46  F   UNL A   1      43.836  26.184  35.637  1.00  0.00    -0.206 F 
ATOM     47  C   UNL A   1      47.352  26.997  36.003  1.00  0.00     0.006 A 
ENDBRANCH  26  40
BRANCH  27  48
ATOM     48  C   UNL A   1      37.223  31.395  29.321  1.00  0.00     0.057 A 
ATOM     49  C   UNL A   1      36.103  30.573  29.123  1.00  0.00     0.134 A 
ATOM     50  C   UNL A   1      37.188  32.668  28.743  1.00  0.00     0.134 A 
ATOM     51  F   UNL A   1      36.064  29.340  29.651  1.00  0.00    -0.206 F 
ATOM     52  C   UNL A   1      35.007  30.989  28.365  1.00  0.00     0.040 A 
ATOM     53  C   UNL A   1      36.085  33.109  28.007  1.00  0.00     0.040 A 
ATOM     54  F   UNL A   1      38.216  33.513  28.909  1.00  0.00    -0.206 F 
ATOM     55  C   UNL A   1      34.993  32.265  27.810  1.00  0.00     0.006 A 
ENDBRANCH  27  48
BRANCH  39  56
ATOM     56  C   UNL A   1      39.348  32.211  35.924  1.00  0.00     0.057 A 
ATOM     57  C   UNL A   1      38.364  31.601  36.711  1.00  0.00     0.134 A 
ATOM     58  C   UNL A   1      39.666  33.548  36.187  1.00  0.00     0.134 A 
ATOM     59  F   UNL A   1      38.011  30.325  36.494  1.00  0.00    -0.206 F 
ATOM     60  C   UNL A   1      37.692  32.310  37.704  1.00  0.00     0.040 A 
ATOM     61  C   UNL A   1      39.017  34.260  37.194  1.00  0.00     0.040 A 
ATOM     62  F   UNL A   1      40.609  34.176  35.468  1.00  0.00    -0.206 F 
ATOM     63  C   UNL A   1      38.017  33.644  37.945  1.00  0.00     0.006 A 
ENDBRANCH  39  56
ENDBRANCH  13  14
ENDBRANCH   6   8
ENDBRANCH   5   6
ENDBRANCH   4   5
ENDBRANCH   3   4
ENDBRANCH   2   3
ENDBRANCH   1   2
BRANCH   1  64
ATOM     64  C   UNL A   1      42.586  19.074  25.793  1.00  0.00     0.261 C 
BRANCH  64  65
ATOM     65  O   UNL A   1      41.273  19.586  25.515  1.00  0.00    -0.461 OA
BRANCH  65  66
ATOM     66  C   UNL A   1      40.737  20.298  26.546  1.00  0.00     0.335 C 
ATOM     67  O   UNL A   1      40.834  19.992  27.729  1.00  0.00    -0.249 OA
BRANCH  66  68
ATOM     68  C   UNL A   1      40.041  21.558  26.031  1.00  0.00     0.228 C 
ATOM     69  C   UNL A   1      39.813  22.659  27.055  1.00  0.00     0.047 C 
ATOM     70  O   UNL A   1      38.728  21.234  25.537  1.00  0.00    -0.362 OA
ATOM     71  C   UNL A   1      38.651  23.416  26.459  1.00  0.00     0.036 C 
ATOM     72  C   UNL A   1      37.834  22.348  25.751  1.00  0.00     0.135 C 
BRANCH  72  73
ATOM     73  C   UNL A   1      37.234  22.674  24.396  1.00  0.00     0.174 C 
BRANCH  73  74
ATOM     74  S   UNL A   1      35.583  23.275  24.336  1.00  0.00     0.181 S 
ATOM     75  O   UNL A   1      35.441  24.270  25.385  1.00  0.00    -0.224 OA
ATOM     76  O   UNL A   1      35.305  23.627  22.957  1.00  0.00    -0.224 OA
BRANCH  74  77
ATOM     77  C   UNL A   1      34.444  21.977  24.724  1.00  0.00     0.070 A 
ATOM     78  C   UNL A   1      34.790  20.626  24.639  1.00  0.00     0.020 A 
ATOM     79  C   UNL A   1      33.138  22.359  25.059  1.00  0.00     0.059 A 
ATOM     80  C   UNL A   1      33.818  19.653  24.900  1.00  0.00     0.004 A 
ATOM     81  C   UNL A   1      32.186  21.381  25.299  1.00  0.00     0.124 A 
ATOM     82  C   UNL A   1      32.513  20.032  25.226  1.00  0.00     0.039 A 
ATOM     83  F   UNL A   1      30.929  21.742  25.591  1.00  0.00    -0.207 F 
ENDBRANCH  74  77
ENDBRANCH  73  74
ENDBRANCH  72  73
ENDBRANCH  66  68
ENDBRANCH  65  66
ENDBRANCH  64  65
ENDBRANCH   1  64
TORSDOF 17
ENDMDL
MODEL 3
REMARK VINA RESULT:     -10.7      1.470      6.495
REMARK SMILES O=C(OCCOCCOC(=O)[C@@H]1CC[C@@H](CS(=O)(=O)c2cccc(F)c2)O1)c1ccc(-c2c3nc(c(-c4c(F)cccc4F)c4ccc([nH]4)c(-c4c(F)cccc4F)c4nc(c(-c5c(F)cccc5F)c5ccc2[nH]5)C=C4)C=C3)cc1
REMARK SMILES IDX 7 1 6 2 5 3 4 4 3 5 2 6 1 7 28 8 29 9 81 10 30 11 80 12
REMARK SMILES IDX 31 13 32 14 33 15 74 16 34 17 79 18 73 19 75 20 35 21 78 22
REMARK SMILES IDX 72 23 71 24 36 26 62 27 45 28 61 29 46 30 49 31 60 32 76 33
REMARK SMILES IDX 47 34 48 35 59 37 77 38 50 39 37 40 38 41 43 42 39 43 40 44
REMARK SMILES IDX 42 45 44 46 41 47 63 48 64 49 69 50 65 51 66 52 68 53 70 54
REMARK SMILES IDX 67 55 51 56 52 57 57 58 53 59 54 60 56 61 58 62 55 63 8 64
REMARK SMILES IDX 9 65 10 66 11 67 12 68 13 69 27 70 14 71 15 72 16 73 17 74
REMARK SMILES IDX 18 75 19 76 20 77 21 78 26 79 22 80 24 81 23 82 25 83
REMARK H PARENT 75 25 49 36
REMARK Flexibility Score: inf
ROOT
ATOM      1  C   UNL A   1      36.457  21.544  24.724  1.00  0.00     0.202 C 
ENDROOT
BRANCH   1   2
ATOM      2  O   UNL A   1      36.473  20.146  25.038  1.00  0.00    -0.374 OA
BRANCH   2   3
ATOM      3  C   UNL A   1      37.716  19.456  24.907  1.00  0.00     0.202 C 
BRANCH   3   4
ATOM      4  C   UNL A   1      38.989  20.124  25.454  1.00  0.00     0.261 C 
BRANCH   4   5
ATOM      5  O   UNL A   1      39.970  19.165  25.882  1.00  0.00    -0.460 OA
BRANCH   5   6
ATOM      6  C   UNL A   1      41.311  19.368  25.949  1.00  0.00     0.338 C 
ATOM      7  O   UNL A   1      42.080  18.440  25.719  1.00  0.00    -0.246 OA
BRANCH   6   8
ATOM      8  C   UNL A   1      41.879  20.695  26.316  1.00  0.00     0.060 A 
ATOM      9  C   UNL A   1      42.163  21.681  25.374  1.00  0.00     0.016 A 
ATOM     10  C   UNL A   1      42.053  21.005  27.671  1.00  0.00     0.016 A 
ATOM     11  C   UNL A   1      42.698  22.898  25.724  1.00  0.00     0.010 A 
ATOM     12  C   UNL A   1      42.511  22.272  28.049  1.00  0.00     0.010 A 
ATOM     13  C   UNL A   1      42.830  23.217  27.067  1.00  0.00    -0.014 A 
BRANCH  13  14
ATOM     14  C   UNL A   1      43.307  24.571  27.364  1.00  0.00     0.031 A 
ATOM     15  C   UNL A   1      42.339  25.570  27.897  1.00  0.00     0.074 A 
ATOM     16  C   UNL A   1      44.632  24.804  27.311  1.00  0.00     0.049 A 
ATOM     17  N   UNL A   1      42.535  26.827  28.176  1.00  0.00    -0.248 NA
ATOM     18  C   UNL A   1      40.974  25.090  28.176  1.00  0.00     0.031 C 
ATOM     19  C   UNL A   1      45.651  23.807  26.954  1.00  0.00     0.029 A 
ATOM     20  N   UNL A   1      45.358  25.927  27.594  1.00  0.00    -0.354 N 
ATOM     21  C   UNL A   1      41.312  27.300  28.623  1.00  0.00     0.074 A 
ATOM     22  C   UNL A   1      40.381  26.196  28.603  1.00  0.00     0.031 C 
ATOM     23  C   UNL A   1      46.867  24.361  27.062  1.00  0.00     0.029 A 
ATOM     24  C   UNL A   1      46.710  25.769  27.396  1.00  0.00     0.049 A 
ATOM     25  H   UNL A   1      44.953  26.768  27.909  1.00  0.00     0.167 HD
ATOM     26  C   UNL A   1      41.013  28.563  28.997  1.00  0.00     0.037 A 
ATOM     27  C   UNL A   1      47.694  26.684  27.422  1.00  0.00     0.037 A 
ATOM     28  C   UNL A   1      41.983  29.622  29.013  1.00  0.00     0.049 A 
ATOM     29  C   UNL A   1      47.308  28.103  27.725  1.00  0.00     0.074 A 
ATOM     30  C   UNL A   1      41.795  30.955  29.320  1.00  0.00     0.029 A 
ATOM     31  N   UNL A   1      43.327  29.457  28.708  1.00  0.00    -0.354 N 
ATOM     32  N   UNL A   1      46.132  28.576  28.071  1.00  0.00    -0.248 NA
ATOM     33  C   UNL A   1      48.357  29.121  27.609  1.00  0.00     0.031 C 
ATOM     34  C   UNL A   1      43.020  31.607  29.154  1.00  0.00     0.029 A 
ATOM     35  C   UNL A   1      43.979  30.672  28.786  1.00  0.00     0.049 A 
ATOM     36  H   UNL A   1      43.753  28.602  28.471  1.00  0.00     0.167 HD
ATOM     37  C   UNL A   1      46.297  29.945  28.208  1.00  0.00     0.074 A 
ATOM     38  C   UNL A   1      47.695  30.222  27.938  1.00  0.00     0.031 C 
ATOM     39  C   UNL A   1      45.377  30.891  28.513  1.00  0.00     0.037 A 
BRANCH  26  40
ATOM     40  C   UNL A   1      39.591  28.873  29.334  1.00  0.00     0.057 A 
ATOM     41  C   UNL A   1      38.722  29.341  28.339  1.00  0.00     0.134 A 
ATOM     42  C   UNL A   1      39.088  28.759  30.634  1.00  0.00     0.134 A 
ATOM     43  F   UNL A   1      39.142  29.461  27.070  1.00  0.00    -0.206 F 
ATOM     44  C   UNL A   1      37.408  29.705  28.630  1.00  0.00     0.040 A 
ATOM     45  C   UNL A   1      37.768  29.104  30.935  1.00  0.00     0.040 A 
ATOM     46  F   UNL A   1      39.861  28.289  31.624  1.00  0.00    -0.206 F 
ATOM     47  C   UNL A   1      36.927  29.589  29.933  1.00  0.00     0.006 A 
ENDBRANCH  26  40
BRANCH  27  48
ATOM     48  C   UNL A   1      49.083  26.305  27.054  1.00  0.00     0.057 A 
ATOM     49  C   UNL A   1      50.015  25.921  28.031  1.00  0.00     0.134 A 
ATOM     50  C   UNL A   1      49.523  26.315  25.726  1.00  0.00     0.134 A 
ATOM     51  F   UNL A   1      49.664  25.885  29.326  1.00  0.00    -0.206 F 
ATOM     52  C   UNL A   1      51.329  25.584  27.706  1.00  0.00     0.040 A 
ATOM     53  C   UNL A   1      50.828  25.950  25.382  1.00  0.00     0.040 A 
ATOM     54  F   UNL A   1      48.680  26.653  24.739  1.00  0.00    -0.206 F 
ATOM     55  C   UNL A   1      51.738  25.591  26.375  1.00  0.00     0.006 A 
ENDBRANCH  27  48
BRANCH  39  56
ATOM     56  C   UNL A   1      45.851  32.309  28.564  1.00  0.00     0.057 A 
ATOM     57  C   UNL A   1      45.856  33.099  27.409  1.00  0.00     0.134 A 
ATOM     58  C   UNL A   1      46.415  32.841  29.729  1.00  0.00     0.134 A 
ATOM     59  F   UNL A   1      45.340  32.632  26.261  1.00  0.00    -0.206 F 
ATOM     60  C   UNL A   1      46.438  34.365  27.402  1.00  0.00     0.040 A 
ATOM     61  C   UNL A   1      46.978  34.116  29.740  1.00  0.00     0.040 A 
ATOM     62  F   UNL A   1      46.426  32.129  30.866  1.00  0.00    -0.206 F 
ATOM     63  C   UNL A   1      47.003  34.874  28.570  1.00  0.00     0.006 A 
ENDBRANCH  39  56
ENDBRANCH  13  14
ENDBRANCH   6   8
ENDBRANCH   5   6
ENDBRANCH   4   5
ENDBRANCH   3   4
ENDBRANCH   2   3
ENDBRANCH   1   2
BRANCH   1  64
ATOM     64  C   UNL A   1      35.023  22.077  24.789  1.00  0.00     0.261 C 
BRANCH  64  65
ATOM     65  O   UNL A   1      35.021  23.392  24.211  1.00  0.00    -0.461 OA
BRANCH  65  66
ATOM     66  C   UNL A   1      34.126  23.539  23.194  1.00  0.00     0.335 C 
ATOM     67  O   UNL A   1      34.374  23.327  22.013  1.00  0.00    -0.249 OA
BRANCH  66  68
ATOM     68  C   UNL A   1      32.756  23.953  23.732  1.00  0.00     0.228 C 
ATOM     69  C   UNL A   1      31.560  23.233  23.133  1.00  0.00     0.047 C 
ATOM     70  O   UNL A   1      32.520  25.349  23.466  1.00  0.00    -0.362 OA
ATOM     71  C   UNL A   1      30.440  24.218  23.371  1.00  0.00     0.036 C 
ATOM     72  C   UNL A   1      31.109  25.578  23.258  1.00  0.00     0.135 C 
BRANCH  72  73
ATOM     73  C   UNL A   1      30.709  26.666  24.237  1.00  0.00     0.174 C 
BRANCH  73  74
ATOM     74  S   UNL A   1      31.039  28.338  23.808  1.00  0.00     0.181 S 
ATOM     75  O   UNL A   1      32.023  28.331  22.740  1.00  0.00    -0.224 OA
ATOM     76  O   UNL A   1      29.759  28.990  23.613  1.00  0.00    -0.224 OA
BRANCH  74  77
ATOM     77  C   UNL A   1      31.790  29.183  25.171  1.00  0.00     0.070 A 
ATOM     78  C   UNL A   1      31.401  30.467  25.562  1.00  0.00     0.020 A 
ATOM     79  C   UNL A   1      32.854  28.534  25.810  1.00  0.00     0.059 A 
ATOM     80  C   UNL A   1      32.082  31.099  26.608  1.00  0.00     0.004 A 
ATOM     81  C   UNL A   1      33.526  29.182  26.834  1.00  0.00     0.124 A 
ATOM     82  C   UNL A   1      33.149  30.456  27.242  1.00  0.00     0.039 A 
ATOM     83  F   UNL A   1      34.563  28.577  27.429  1.00  0.00    -0.207 F 
ENDBRANCH  74  77
ENDBRANCH  73  74
ENDBRANCH  72  73
ENDBRANCH  66  68
ENDBRANCH  65  66
ENDBRANCH  64  65
ENDBRANCH   1  64
TORSDOF 17
ENDMDL
