MODEL 1
REMARK VINA RESULT:      -9.9      0.000      0.000
REMARK SMILES [N-]=[N+]=NC[C@H](Nc1ccc(Br)cc1)C(=O)OCCOCCOC(=O)c1ccc(-c2c3nc(c(-c4c(F)cccc4F)c4ccc([nH]4)c(-c4c(F)cccc4F)c4nc(c(-c5c(F)cccc5F)c5ccc2[nH]5)C=C4)C=C3)cc1
REMARK SMILES IDX 19 1 18 2 17 3 16 4 14 5 15 6 5 7 4 8 3 9 1 10 2 11 6 12
REMARK SMILES IDX 7 14 8 15 13 16 9 17 12 18 10 19 11 20 20 21 21 22 22 23
REMARK SMILES IDX 23 24 24 25 25 26 26 27 78 28 27 29 77 30 28 31 29 32 30 33
REMARK SMILES IDX 71 34 31 35 76 36 70 37 72 38 32 39 75 40 69 41 68 42 33 44
REMARK SMILES IDX 59 45 42 46 58 47 43 48 46 49 57 50 73 51 44 52 45 53 56 55
REMARK SMILES IDX 74 56 47 57 34 58 35 59 40 60 36 61 37 62 39 63 41 64 38 65
REMARK SMILES IDX 60 66 61 67 66 68 62 69 63 70 65 71 67 72 64 73 48 74 49 75
REMARK SMILES IDX 54 76 50 77 51 78 53 79 55 80 52 81
REMARK H PARENT 6 13 72 43 46 54
REMARK Flexibility Score: inf
ROOT
ATOM      1  O   UNL A   1      44.457  20.244  23.976  1.00  0.00    -0.374 OA
ENDROOT
BRANCH   1   2
ATOM      2  C   UNL A   1      44.498  19.001  24.664  1.00  0.00     0.202 C 
BRANCH   2   3
ATOM      3  C   UNL A   1      43.527  18.717  25.818  1.00  0.00     0.261 C 
BRANCH   3   4
ATOM      4  O   UNL A   1      42.180  19.188  25.629  1.00  0.00    -0.462 OA
BRANCH   4   5
ATOM      5  C   UNL A   1      41.705  19.957  26.648  1.00  0.00     0.328 C 
ATOM      6  O   UNL A   1      40.963  19.538  27.536  1.00  0.00    -0.250 OA
BRANCH   5   7
ATOM      7  C   UNL A   1      42.075  21.436  26.578  1.00  0.00     0.195 C 
BRANCH   7   8
ATOM      8  C   UNL A   1      42.146  21.896  28.051  1.00  0.00     0.127 C 
BRANCH   8   9
ATOM      9  N   UNL A   1      43.403  22.619  28.330  1.00  0.00    -0.091 NA
ATOM     10  N   UNL A   1      43.697  23.218  30.619  1.00  0.00    -0.003 NA
ATOM     11  N   UNL A   1      43.570  22.941  29.519  1.00  0.00     0.001 N 
ENDBRANCH   8   9
ENDBRANCH   7   8
BRANCH   7  12
ATOM     12  N   UNL A   1      41.169  22.330  25.839  1.00  0.00    -0.372 N 
ATOM     13  H   UNL A   1      41.578  22.877  25.130  1.00  0.00     0.161 HD
BRANCH  12  14
ATOM     14  C   UNL A   1      39.811  22.487  26.029  1.00  0.00     0.035 A 
ATOM     15  C   UNL A   1      39.221  23.600  26.636  1.00  0.00     0.027 A 
ATOM     16  C   UNL A   1      38.950  21.493  25.534  1.00  0.00     0.027 A 
ATOM     17  C   UNL A   1      37.832  23.802  26.578  1.00  0.00     0.018 A 
ATOM     18  C   UNL A   1      37.562  21.658  25.522  1.00  0.00     0.018 A 
ATOM     19  C   UNL A   1      37.012  22.840  25.995  1.00  0.00     0.018 A 
ATOM     20  Br  UNL A   1      35.159  23.160  25.800  1.00  0.00    -0.051 Br
ENDBRANCH  12  14
ENDBRANCH   7  12
ENDBRANCH   5   7
ENDBRANCH   4   5
ENDBRANCH   3   4
ENDBRANCH   2   3
ENDBRANCH   1   2
BRANCH   1  21
ATOM     21  C   UNL A   1      44.841  21.429  24.657  1.00  0.00     0.202 C 
BRANCH  21  22
ATOM     22  C   UNL A   1      44.616  22.803  24.012  1.00  0.00     0.261 C 
BRANCH  22  23
ATOM     23  O   UNL A   1      43.868  23.729  24.785  1.00  0.00    -0.460 OA
BRANCH  23  24
ATOM     24  C   UNL A   1      44.547  24.864  25.054  1.00  0.00     0.338 C 
ATOM     25  O   UNL A   1      45.620  25.232  24.614  1.00  0.00    -0.246 OA
BRANCH  24  26
ATOM     26  C   UNL A   1      43.694  25.696  25.902  1.00  0.00     0.060 A 
ATOM     27  C   UNL A   1      44.152  26.979  26.211  1.00  0.00     0.016 A 
ATOM     28  C   UNL A   1      42.505  25.187  26.428  1.00  0.00     0.016 A 
ATOM     29  C   UNL A   1      43.449  27.741  27.127  1.00  0.00     0.010 A 
ATOM     30  C   UNL A   1      41.799  25.956  27.347  1.00  0.00     0.010 A 
ATOM     31  C   UNL A   1      42.304  27.207  27.736  1.00  0.00    -0.014 A 
BRANCH  31  32
ATOM     32  C   UNL A   1      41.762  27.891  28.922  1.00  0.00     0.031 A 
ATOM     33  C   UNL A   1      42.506  27.770  30.220  1.00  0.00     0.074 A 
ATOM     34  C   UNL A   1      40.673  28.667  28.804  1.00  0.00     0.049 A 
ATOM     35  N   UNL A   1      42.243  28.312  31.380  1.00  0.00    -0.248 NA
ATOM     36  C   UNL A   1      43.709  26.920  30.214  1.00  0.00     0.031 C 
ATOM     37  C   UNL A   1      39.912  28.869  27.571  1.00  0.00     0.029 A 
ATOM     38  N   UNL A   1      40.030  29.438  29.731  1.00  0.00    -0.354 N 
ATOM     39  C   UNL A   1      43.242  27.868  32.236  1.00  0.00     0.074 A 
ATOM     40  C   UNL A   1      44.090  26.974  31.480  1.00  0.00     0.031 C 
ATOM     41  C   UNL A   1      38.904  29.722  27.818  1.00  0.00     0.029 A 
ATOM     42  C   UNL A   1      38.935  30.095  29.230  1.00  0.00     0.049 A 
ATOM     43  H   UNL A   1      40.323  29.516  30.668  1.00  0.00     0.167 HD
ATOM     44  C   UNL A   1      43.440  28.194  33.534  1.00  0.00     0.037 A 
ATOM     45  C   UNL A   1      38.054  30.895  29.855  1.00  0.00     0.037 A 
ATOM     46  C   UNL A   1      42.583  29.088  34.266  1.00  0.00     0.049 A 
ATOM     47  C   UNL A   1      38.262  31.190  31.316  1.00  0.00     0.074 A 
ATOM     48  C   UNL A   1      42.688  29.501  35.581  1.00  0.00     0.029 A 
ATOM     49  N   UNL A   1      41.457  29.704  33.739  1.00  0.00    -0.354 N 
ATOM     50  N   UNL A   1      39.222  30.786  32.115  1.00  0.00    -0.248 NA
ATOM     51  C   UNL A   1      37.269  32.059  31.959  1.00  0.00     0.031 C 
ATOM     52  C   UNL A   1      41.591  30.319  35.867  1.00  0.00     0.029 A 
ATOM     53  C   UNL A   1      40.840  30.472  34.711  1.00  0.00     0.049 A 
ATOM     54  H   UNL A   1      41.143  29.608  32.811  1.00  0.00     0.167 HD
ATOM     55  C   UNL A   1      38.966  31.375  33.346  1.00  0.00     0.074 A 
ATOM     56  C   UNL A   1      37.773  32.181  33.178  1.00  0.00     0.031 C 
ATOM     57  C   UNL A   1      39.651  31.264  34.512  1.00  0.00     0.037 A 
BRANCH  44  58
ATOM     58  C   UNL A   1      44.603  27.557  34.240  1.00  0.00     0.057 A 
ATOM     59  C   UNL A   1      45.860  28.174  34.314  1.00  0.00     0.134 A 
ATOM     60  C   UNL A   1      44.458  26.316  34.873  1.00  0.00     0.134 A 
ATOM     61  F   UNL A   1      46.075  29.355  33.715  1.00  0.00    -0.206 F 
ATOM     62  C   UNL A   1      46.935  27.566  34.967  1.00  0.00     0.040 A 
ATOM     63  C   UNL A   1      45.517  25.713  35.555  1.00  0.00     0.040 A 
ATOM     64  F   UNL A   1      43.283  25.668  34.842  1.00  0.00    -0.206 F 
ATOM     65  C   UNL A   1      46.762  26.336  35.597  1.00  0.00     0.006 A 
ENDBRANCH  44  58
BRANCH  45  66
ATOM     66  C   UNL A   1      36.903  31.464  29.109  1.00  0.00     0.057 A 
ATOM     67  C   UNL A   1      36.900  32.796  28.680  1.00  0.00     0.134 A 
ATOM     68  C   UNL A   1      35.771  30.692  28.820  1.00  0.00     0.134 A 
ATOM     69  F   UNL A   1      37.949  33.591  28.937  1.00  0.00    -0.206 F 
ATOM     70  C   UNL A   1      35.803  33.348  28.016  1.00  0.00     0.040 A 
ATOM     71  C   UNL A   1      34.680  31.221  28.130  1.00  0.00     0.040 A 
ATOM     72  F   UNL A   1      35.714  29.405  29.195  1.00  0.00    -0.206 F 
ATOM     73  C   UNL A   1      34.690  32.557  27.735  1.00  0.00     0.006 A 
ENDBRANCH  45  66
BRANCH  57  74
ATOM     74  C   UNL A   1      39.144  32.064  35.678  1.00  0.00     0.057 A 
ATOM     75  C   UNL A   1      39.472  33.415  35.851  1.00  0.00     0.134 A 
ATOM     76  C   UNL A   1      38.299  31.476  36.628  1.00  0.00     0.134 A 
ATOM     77  F   UNL A   1      40.285  34.035  34.982  1.00  0.00    -0.206 F 
ATOM     78  C   UNL A   1      39.011  34.141  36.949  1.00  0.00     0.040 A 
ATOM     79  C   UNL A   1      37.802  32.202  37.711  1.00  0.00     0.040 A 
ATOM     80  F   UNL A   1      37.934  30.190  36.515  1.00  0.00    -0.206 F 
ATOM     81  C   UNL A   1      38.168  33.536  37.880  1.00  0.00     0.006 A 
ENDBRANCH  57  74
ENDBRANCH  31  32
ENDBRANCH  24  26
ENDBRANCH  23  24
ENDBRANCH  22  23
ENDBRANCH  21  22
ENDBRANCH   1  21
TORSDOF 18
ENDMDL
MODEL 2
REMARK VINA RESULT:      -9.8      2.415      3.676
REMARK SMILES [N-]=[N+]=NC[C@H](Nc1ccc(Br)cc1)C(=O)OCCOCCOC(=O)c1ccc(-c2c3nc(c(-c4c(F)cccc4F)c4ccc([nH]4)c(-c4c(F)cccc4F)c4nc(c(-c5c(F)cccc5F)c5ccc2[nH]5)C=C4)C=C3)cc1
REMARK SMILES IDX 19 1 18 2 17 3 16 4 14 5 15 6 5 7 4 8 3 9 1 10 2 11 6 12
REMARK SMILES IDX 7 14 8 15 13 16 9 17 12 18 10 19 11 20 20 21 21 22 22 23
REMARK SMILES IDX 23 24 24 25 25 26 26 27 78 28 27 29 77 30 28 31 29 32 30 33
REMARK SMILES IDX 71 34 31 35 76 36 70 37 72 38 32 39 75 40 69 41 68 42 33 44
REMARK SMILES IDX 59 45 42 46 58 47 43 48 46 49 57 50 73 51 44 52 45 53 56 55
REMARK SMILES IDX 74 56 47 57 34 58 35 59 40 60 36 61 37 62 39 63 41 64 38 65
REMARK SMILES IDX 60 66 61 67 66 68 62 69 63 70 65 71 67 72 64 73 48 74 49 75
REMARK SMILES IDX 54 76 50 77 51 78 53 79 55 80 52 81
REMARK H PARENT 6 13 72 43 46 54
REMARK Flexibility Score: inf
ROOT
ATOM      1  O   UNL A   1      42.025  21.063  25.721  1.00  0.00    -0.374 OA
ENDROOT
BRANCH   1   2
ATOM      2  C   UNL A   1      40.826  21.654  26.201  1.00  0.00     0.202 C 
BRANCH   2   3
ATOM      3  C   UNL A   1      39.463  21.025  25.879  1.00  0.00     0.261 C 
BRANCH   3   4
ATOM      4  O   UNL A   1      38.314  21.835  26.188  1.00  0.00    -0.462 OA
BRANCH   4   5
ATOM      5  C   UNL A   1      37.273  21.688  25.322  1.00  0.00     0.328 C 
ATOM      6  O   UNL A   1      37.379  21.776  24.100  1.00  0.00    -0.250 OA
BRANCH   5   7
ATOM      7  C   UNL A   1      35.906  21.496  25.972  1.00  0.00     0.195 C 
BRANCH   7   8
ATOM      8  C   UNL A   1      34.946  21.206  24.796  1.00  0.00     0.127 C 
BRANCH   8   9
ATOM      9  N   UNL A   1      34.511  19.796  24.790  1.00  0.00    -0.091 NA
ATOM     10  N   UNL A   1      32.155  19.499  25.003  1.00  0.00    -0.003 NA
ATOM     11  N   UNL A   1      33.285  19.623  24.903  1.00  0.00     0.001 N 
ENDBRANCH   8   9
ENDBRANCH   7   8
BRANCH   7  12
ATOM     12  N   UNL A   1      35.367  22.612  26.767  1.00  0.00    -0.372 N 
ATOM     13  H   UNL A   1      35.832  22.811  27.611  1.00  0.00     0.161 HD
BRANCH  12  14
ATOM     14  C   UNL A   1      34.284  23.411  26.460  1.00  0.00     0.035 A 
ATOM     15  C   UNL A   1      32.970  23.150  26.860  1.00  0.00     0.027 A 
ATOM     16  C   UNL A   1      34.514  24.598  25.745  1.00  0.00     0.027 A 
ATOM     17  C   UNL A   1      31.967  24.122  26.721  1.00  0.00     0.018 A 
ATOM     18  C   UNL A   1      33.509  25.550  25.551  1.00  0.00     0.018 A 
ATOM     19  C   UNL A   1      32.249  25.330  26.091  1.00  0.00     0.018 A 
ATOM     20  Br  UNL A   1      30.942  26.692  26.011  1.00  0.00    -0.051 Br
ENDBRANCH  12  14
ENDBRANCH   7  12
ENDBRANCH   5   7
ENDBRANCH   4   5
ENDBRANCH   3   4
ENDBRANCH   2   3
ENDBRANCH   1   2
BRANCH   1  21
ATOM     21  C   UNL A   1      43.263  21.721  25.946  1.00  0.00     0.202 C 
BRANCH  21  22
ATOM     22  C   UNL A   1      43.968  22.462  24.802  1.00  0.00     0.261 C 
BRANCH  22  23
ATOM     23  O   UNL A   1      43.484  23.767  24.524  1.00  0.00    -0.460 OA
BRANCH  23  24
ATOM     24  C   UNL A   1      44.252  24.741  25.053  1.00  0.00     0.338 C 
ATOM     25  O   UNL A   1      45.416  25.006  24.815  1.00  0.00    -0.246 OA
BRANCH  24  26
ATOM     26  C   UNL A   1      43.396  25.561  25.908  1.00  0.00     0.060 A 
ATOM     27  C   UNL A   1      43.782  26.886  26.121  1.00  0.00     0.016 A 
ATOM     28  C   UNL A   1      42.278  25.006  26.533  1.00  0.00     0.016 A 
ATOM     29  C   UNL A   1      43.084  27.651  27.039  1.00  0.00     0.010 A 
ATOM     30  C   UNL A   1      41.576  25.777  27.453  1.00  0.00     0.010 A 
ATOM     31  C   UNL A   1      42.016  27.078  27.745  1.00  0.00    -0.014 A 
BRANCH  31  32
ATOM     32  C   UNL A   1      41.498  27.791  28.925  1.00  0.00     0.031 A 
ATOM     33  C   UNL A   1      42.243  27.659  30.222  1.00  0.00     0.074 A 
ATOM     34  C   UNL A   1      40.434  28.599  28.802  1.00  0.00     0.049 A 
ATOM     35  N   UNL A   1      42.000  28.220  31.377  1.00  0.00    -0.248 NA
ATOM     36  C   UNL A   1      43.419  26.772  30.221  1.00  0.00     0.031 C 
ATOM     37  C   UNL A   1      39.677  28.813  27.569  1.00  0.00     0.029 A 
ATOM     38  N   UNL A   1      39.818  29.399  29.724  1.00  0.00    -0.354 N 
ATOM     39  C   UNL A   1      42.987  27.753  32.235  1.00  0.00     0.074 A 
ATOM     40  C   UNL A   1      43.804  26.826  31.486  1.00  0.00     0.031 C 
ATOM     41  C   UNL A   1      38.697  29.700  27.811  1.00  0.00     0.029 A 
ATOM     42  C   UNL A   1      38.743  30.084  29.219  1.00  0.00     0.049 A 
ATOM     43  H   UNL A   1      40.117  29.477  30.659  1.00  0.00     0.167 HD
ATOM     44  C   UNL A   1      43.199  28.086  33.530  1.00  0.00     0.037 A 
ATOM     45  C   UNL A   1      37.889  30.918  29.838  1.00  0.00     0.037 A 
ATOM     46  C   UNL A   1      42.373  29.014  34.255  1.00  0.00     0.049 A 
ATOM     47  C   UNL A   1      38.110  31.221  31.295  1.00  0.00     0.074 A 
ATOM     48  C   UNL A   1      42.494  29.436  35.565  1.00  0.00     0.029 A 
ATOM     49  N   UNL A   1      41.264  29.659  33.724  1.00  0.00    -0.354 N 
ATOM     50  N   UNL A   1      39.060  30.795  32.096  1.00  0.00    -0.248 NA
ATOM     51  C   UNL A   1      37.147  32.126  31.932  1.00  0.00     0.031 C 
ATOM     52  C   UNL A   1      41.424  30.291  35.846  1.00  0.00     0.029 A 
ATOM     53  C   UNL A   1      40.674  30.456  34.691  1.00  0.00     0.049 A 
ATOM     54  H   UNL A   1      40.945  29.565  32.798  1.00  0.00     0.167 HD
ATOM     55  C   UNL A   1      38.826  31.404  33.322  1.00  0.00     0.074 A 
ATOM     56  C   UNL A   1      37.658  32.245  33.149  1.00  0.00     0.031 C 
ATOM     57  C   UNL A   1      39.511  31.283  34.487  1.00  0.00     0.037 A 
BRANCH  44  58
ATOM     58  C   UNL A   1      44.343  27.420  34.239  1.00  0.00     0.057 A 
ATOM     59  C   UNL A   1      44.209  26.173  34.865  1.00  0.00     0.134 A 
ATOM     60  C   UNL A   1      45.605  28.028  34.282  1.00  0.00     0.134 A 
ATOM     61  F   UNL A   1      43.024  25.543  34.879  1.00  0.00    -0.206 F 
ATOM     62  C   UNL A   1      45.279  25.569  35.529  1.00  0.00     0.040 A 
ATOM     63  C   UNL A   1      46.689  27.419  34.916  1.00  0.00     0.040 A 
ATOM     64  F   UNL A   1      45.806  29.223  33.705  1.00  0.00    -0.206 F 
ATOM     65  C   UNL A   1      46.526  26.189  35.548  1.00  0.00     0.006 A 
ENDBRANCH  44  58
BRANCH  45  66
ATOM     66  C   UNL A   1      36.755  31.516  29.089  1.00  0.00     0.057 A 
ATOM     67  C   UNL A   1      36.778  32.853  28.676  1.00  0.00     0.134 A 
ATOM     68  C   UNL A   1      35.612  30.766  28.782  1.00  0.00     0.134 A 
ATOM     69  F   UNL A   1      37.838  33.627  28.951  1.00  0.00    -0.206 F 
ATOM     70  C   UNL A   1      35.696  33.431  28.010  1.00  0.00     0.040 A 
ATOM     71  C   UNL A   1      34.536  31.323  28.089  1.00  0.00     0.040 A 
ATOM     72  F   UNL A   1      35.530  29.477  29.141  1.00  0.00    -0.206 F 
ATOM     73  C   UNL A   1      34.572  32.663  27.710  1.00  0.00     0.006 A 
ENDBRANCH  45  66
BRANCH  57  74
ATOM     74  C   UNL A   1      39.032  32.110  35.646  1.00  0.00     0.057 A 
ATOM     75  C   UNL A   1      38.199  31.583  36.641  1.00  0.00     0.134 A 
ATOM     76  C   UNL A   1      39.427  33.448  35.774  1.00  0.00     0.134 A 
ATOM     77  F   UNL A   1      37.776  30.312  36.573  1.00  0.00    -0.206 F 
ATOM     78  C   UNL A   1      37.745  32.369  37.701  1.00  0.00     0.040 A 
ATOM     79  C   UNL A   1      39.009  34.233  36.848  1.00  0.00     0.040 A 
ATOM     80  F   UNL A   1      40.235  34.012  34.863  1.00  0.00    -0.206 F 
ATOM     81  C   UNL A   1      38.155  33.696  37.810  1.00  0.00     0.006 A 
ENDBRANCH  57  74
ENDBRANCH  31  32
ENDBRANCH  24  26
ENDBRANCH  23  24
ENDBRANCH  22  23
ENDBRANCH  21  22
ENDBRANCH   1  21
TORSDOF 18
ENDMDL
MODEL 3
REMARK VINA RESULT:      -9.6      4.992      9.490
REMARK SMILES [N-]=[N+]=NC[C@H](Nc1ccc(Br)cc1)C(=O)OCCOCCOC(=O)c1ccc(-c2c3nc(c(-c4c(F)cccc4F)c4ccc([nH]4)c(-c4c(F)cccc4F)c4nc(c(-c5c(F)cccc5F)c5ccc2[nH]5)C=C4)C=C3)cc1
REMARK SMILES IDX 19 1 18 2 17 3 16 4 14 5 15 6 5 7 4 8 3 9 1 10 2 11 6 12
REMARK SMILES IDX 7 14 8 15 13 16 9 17 12 18 10 19 11 20 20 21 21 22 22 23
REMARK SMILES IDX 23 24 24 25 25 26 26 27 78 28 27 29 77 30 28 31 29 32 30 33
REMARK SMILES IDX 71 34 31 35 76 36 70 37 72 38 32 39 75 40 69 41 68 42 33 44
REMARK SMILES IDX 59 45 42 46 58 47 43 48 46 49 57 50 73 51 44 52 45 53 56 55
REMARK SMILES IDX 74 56 47 57 34 58 35 59 40 60 36 61 37 62 39 63 41 64 38 65
REMARK SMILES IDX 60 66 61 67 66 68 62 69 63 70 65 71 67 72 64 73 48 74 49 75
REMARK SMILES IDX 54 76 50 77 51 78 53 79 55 80 52 81
REMARK H PARENT 6 13 72 43 46 54
REMARK Flexibility Score: inf
ROOT
ATOM      1  O   UNL A   1      31.884  30.616  27.006  1.00  0.00    -0.374 OA
ENDROOT
BRANCH   1   2
ATOM      2  C   UNL A   1      33.066  30.088  26.421  1.00  0.00     0.202 C 
BRANCH   2   3
ATOM      3  C   UNL A   1      32.983  29.006  25.336  1.00  0.00     0.261 C 
BRANCH   3   4
ATOM      4  O   UNL A   1      31.660  28.522  25.038  1.00  0.00    -0.462 OA
BRANCH   4   5
ATOM      5  C   UNL A   1      31.406  27.264  25.492  1.00  0.00     0.328 C 
ATOM      6  O   UNL A   1      31.003  27.011  26.627  1.00  0.00    -0.250 OA
BRANCH   5   7
ATOM      7  C   UNL A   1      31.747  26.138  24.520  1.00  0.00     0.195 C 
BRANCH   7   8
ATOM      8  C   UNL A   1      31.609  26.770  23.117  1.00  0.00     0.127 C 
BRANCH   8   9
ATOM      9  N   UNL A   1      32.897  26.769  22.396  1.00  0.00    -0.091 NA
ATOM     10  N   UNL A   1      32.906  25.441  20.415  1.00  0.00    -0.003 NA
ATOM     11  N   UNL A   1      32.919  26.079  21.362  1.00  0.00     0.001 N 
ENDBRANCH   8   9
ENDBRANCH   7   8
BRANCH   7  12
ATOM     12  N   UNL A   1      30.926  24.917  24.579  1.00  0.00    -0.372 N 
ATOM     13  H   UNL A   1      29.968  25.044  24.765  1.00  0.00     0.161 HD
BRANCH  12  14
ATOM     14  C   UNL A   1      31.349  23.615  24.402  1.00  0.00     0.035 A 
ATOM     15  C   UNL A   1      32.024  23.150  23.269  1.00  0.00     0.027 A 
ATOM     16  C   UNL A   1      31.140  22.700  25.446  1.00  0.00     0.027 A 
ATOM     17  C   UNL A   1      32.633  21.884  23.261  1.00  0.00     0.018 A 
ATOM     18  C   UNL A   1      31.694  21.416  25.425  1.00  0.00     0.018 A 
ATOM     19  C   UNL A   1      32.487  21.034  24.353  1.00  0.00     0.018 A 
ATOM     20  Br  UNL A   1      33.404  19.382  24.403  1.00  0.00    -0.051 Br
ENDBRANCH  12  14
ENDBRANCH   7  12
ENDBRANCH   5   7
ENDBRANCH   4   5
ENDBRANCH   3   4
ENDBRANCH   2   3
ENDBRANCH   1   2
BRANCH   1  21
ATOM     21  C   UNL A   1      31.353  31.839  26.518  1.00  0.00     0.202 C 
BRANCH  21  22
ATOM     22  C   UNL A   1      32.031  33.172  26.862  1.00  0.00     0.261 C 
BRANCH  22  23
ATOM     23  O   UNL A   1      32.324  33.375  28.236  1.00  0.00    -0.460 OA
BRANCH  23  24
ATOM     24  C   UNL A   1      33.343  34.236  28.439  1.00  0.00     0.338 C 
ATOM     25  O   UNL A   1      33.305  35.446  28.558  1.00  0.00    -0.246 OA
BRANCH  24  26
ATOM     26  C   UNL A   1      34.556  33.443  28.636  1.00  0.00     0.060 A 
ATOM     27  C   UNL A   1      34.401  32.142  29.120  1.00  0.00     0.016 A 
ATOM     28  C   UNL A   1      35.814  34.004  28.409  1.00  0.00     0.016 A 
ATOM     29  C   UNL A   1      35.526  31.413  29.460  1.00  0.00     0.010 A 
ATOM     30  C   UNL A   1      36.944  33.268  28.749  1.00  0.00     0.010 A 
ATOM     31  C   UNL A   1      36.794  31.997  29.327  1.00  0.00    -0.014 A 
BRANCH  31  32
ATOM     32  C   UNL A   1      37.938  31.339  29.982  1.00  0.00     0.031 A 
ATOM     33  C   UNL A   1      38.208  31.646  31.426  1.00  0.00     0.074 A 
ATOM     34  C   UNL A   1      38.656  30.427  29.309  1.00  0.00     0.049 A 
ATOM     35  N   UNL A   1      39.128  31.162  32.218  1.00  0.00    -0.248 NA
ATOM     36  C   UNL A   1      37.325  32.637  32.066  1.00  0.00     0.031 C 
ATOM     37  C   UNL A   1      38.436  30.042  27.915  1.00  0.00     0.029 A 
ATOM     38  N   UNL A   1      39.706  29.651  29.715  1.00  0.00    -0.354 N 
ATOM     39  C   UNL A   1      38.935  31.789  33.442  1.00  0.00     0.074 A 
ATOM     40  C   UNL A   1      37.845  32.723  33.280  1.00  0.00     0.031 C 
ATOM     41  C   UNL A   1      39.324  29.090  27.582  1.00  0.00     0.029 A 
ATOM     42  C   UNL A   1      40.190  28.829  28.729  1.00  0.00     0.049 A 
ATOM     43  H   UNL A   1      40.080  29.680  30.625  1.00  0.00     0.167 HD
ATOM     44  C   UNL A   1      39.602  31.585  34.602  1.00  0.00     0.037 A 
ATOM     45  C   UNL A   1      41.226  27.973  28.757  1.00  0.00     0.037 A 
ATOM     46  C   UNL A   1      40.684  30.647  34.741  1.00  0.00     0.049 A 
ATOM     47  C   UNL A   1      41.991  27.814  30.044  1.00  0.00     0.074 A 
ATOM     48  C   UNL A   1      41.428  30.347  35.866  1.00  0.00     0.029 A 
ATOM     49  N   UNL A   1      41.176  29.859  33.710  1.00  0.00    -0.354 N 
ATOM     50  N   UNL A   1      41.790  28.391  31.206  1.00  0.00    -0.248 NA
ATOM     51  C   UNL A   1      43.120  26.877  30.025  1.00  0.00     0.031 C 
ATOM     52  C   UNL A   1      42.411  29.422  35.502  1.00  0.00     0.029 A 
ATOM     53  C   UNL A   1      42.236  29.093  34.166  1.00  0.00     0.049 A 
ATOM     54  H   UNL A   1      40.825  29.846  32.790  1.00  0.00     0.167 HD
ATOM     55  C   UNL A   1      42.747  27.866  32.063  1.00  0.00     0.074 A 
ATOM     56  C   UNL A   1      43.513  26.908  31.290  1.00  0.00     0.031 C 
ATOM     57  C   UNL A   1      42.978  28.147  33.370  1.00  0.00     0.037 A 
BRANCH  44  58
ATOM     58  C   UNL A   1      39.197  32.411  35.789  1.00  0.00     0.057 A 
ATOM     59  C   UNL A   1      38.293  31.942  36.752  1.00  0.00     0.134 A 
ATOM     60  C   UNL A   1      39.735  33.691  35.983  1.00  0.00     0.134 A 
ATOM     61  F   UNL A   1      37.724  30.734  36.620  1.00  0.00    -0.206 F 
ATOM     62  C   UNL A   1      37.919  32.725  37.847  1.00  0.00     0.040 A 
ATOM     63  C   UNL A   1      39.393  34.469  37.089  1.00  0.00     0.040 A 
ATOM     64  F   UNL A   1      40.606  34.204  35.100  1.00  0.00    -0.206 F 
ATOM     65  C   UNL A   1      38.476  33.989  38.022  1.00  0.00     0.006 A 
ENDBRANCH  44  58
BRANCH  45  66
ATOM     66  C   UNL A   1      41.599  27.211  27.538  1.00  0.00     0.057 A 
ATOM     67  C   UNL A   1      41.131  25.911  27.321  1.00  0.00     0.134 A 
ATOM     68  C   UNL A   1      42.445  27.763  26.568  1.00  0.00     0.134 A 
ATOM     69  F   UNL A   1      40.329  25.321  28.218  1.00  0.00    -0.206 F 
ATOM     70  C   UNL A   1      41.513  25.175  26.197  1.00  0.00     0.040 A 
ATOM     71  C   UNL A   1      42.811  27.051  25.425  1.00  0.00     0.040 A 
ATOM     72  F   UNL A   1      42.920  29.009  26.712  1.00  0.00    -0.206 F 
ATOM     73  C   UNL A   1      42.353  25.748  25.242  1.00  0.00     0.006 A 
ENDBRANCH  45  66
BRANCH  57  74
ATOM     74  C   UNL A   1      44.076  27.376  34.048  1.00  0.00     0.057 A 
ATOM     75  C   UNL A   1      45.398  27.836  34.075  1.00  0.00     0.134 A 
ATOM     76  C   UNL A   1      43.797  26.166  34.696  1.00  0.00     0.134 A 
ATOM     77  F   UNL A   1      45.733  28.983  33.464  1.00  0.00    -0.206 F 
ATOM     78  C   UNL A   1      46.412  27.100  34.690  1.00  0.00     0.040 A 
ATOM     79  C   UNL A   1      44.796  25.440  35.345  1.00  0.00     0.040 A 
ATOM     80  F   UNL A   1      42.549  25.675  34.719  1.00  0.00    -0.206 F 
ATOM     81  C   UNL A   1      46.110  25.902  35.333  1.00  0.00     0.006 A 
ENDBRANCH  57  74
ENDBRANCH  31  32
ENDBRANCH  24  26
ENDBRANCH  23  24
ENDBRANCH  22  23
ENDBRANCH  21  22
ENDBRANCH   1  21
TORSDOF 18
ENDMDL
