MODEL 1
REMARK VINA RESULT:     -11.3      0.000      0.000
REMARK SMILES Cc1cc(=O)cc(C)n1C[C@H]1CCCC[C@@H]1C(=O)OCCOCCOC(=O)c1ccc(-c2c3nc(c(-c4c(F)cccc4F)c4ccc([nH]4)c(-c4c(F)cccc4F)c4nc(c(-c5c(F)cccc5F)c5ccc2[nH]5)C=C4)C=C3)cc1
REMARK SMILES IDX 22 1 21 2 20 3 19 4 17 5 18 6 16 7 11 8 12 9 13 10 15 11
REMARK SMILES IDX 14 12 10 13 9 14 1 15 2 16 3 17 4 18 7 19 5 20 6 21 8 22
REMARK SMILES IDX 23 23 24 24 25 25 26 26 27 27 28 28 29 29 81 30 30 31 80 32
REMARK SMILES IDX 31 33 32 34 33 35 74 36 34 37 79 38 73 39 75 40 35 41 78 42
REMARK SMILES IDX 72 43 71 44 36 46 62 47 45 48 61 49 46 50 49 51 60 52 76 53
REMARK SMILES IDX 47 54 48 55 59 57 77 58 50 59 37 60 38 61 43 62 39 63 40 64
REMARK SMILES IDX 42 65 44 66 41 67 63 68 64 69 69 70 65 71 66 72 68 73 70 74
REMARK SMILES IDX 67 75 51 76 52 77 57 78 53 79 54 80 56 81 58 82 55 83
REMARK H PARENT 75 45 49 56
REMARK Flexibility Score: inf
ROOT
ATOM      1  O   UNL A   1      42.196  20.443  26.502  1.00  0.00    -0.374 OA
ENDROOT
BRANCH   1   2
ATOM      2  C   UNL A   1      40.774  20.461  26.381  1.00  0.00     0.202 C 
BRANCH   2   3
ATOM      3  C   UNL A   1      40.074  21.793  26.666  1.00  0.00     0.261 C 
BRANCH   3   4
ATOM      4  O   UNL A   1      38.979  22.020  25.747  1.00  0.00    -0.463 OA
BRANCH   4   5
ATOM      5  C   UNL A   1      38.202  23.106  25.985  1.00  0.00     0.309 C 
ATOM      6  O   UNL A   1      38.432  23.936  26.858  1.00  0.00    -0.252 OA
BRANCH   5   7
ATOM      7  C   UNL A   1      36.984  23.224  25.053  1.00  0.00     0.104 C 
ATOM      8  C   UNL A   1      35.629  23.679  25.674  1.00  0.00     0.023 C 
ATOM      9  C   UNL A   1      35.082  22.547  26.549  1.00  0.00     0.006 C 
ATOM     10  C   UNL A   1      34.882  21.241  25.780  1.00  0.00     0.000 C 
ATOM     11  C   UNL A   1      36.830  21.914  24.253  1.00  0.00     0.016 C 
ATOM     12  C   UNL A   1      36.106  20.790  24.993  1.00  0.00     0.001 C 
BRANCH   8  13
ATOM     13  C   UNL A   1      34.617  24.086  24.556  1.00  0.00     0.126 C 
BRANCH  13  14
ATOM     14  N   UNL A   1      33.237  24.395  25.047  1.00  0.00    -0.349 N 
ATOM     15  C   UNL A   1      34.058  26.677  25.839  1.00  0.00     0.064 C 
ATOM     16  C   UNL A   1      32.975  25.632  25.705  1.00  0.00     0.018 A 
ATOM     17  C   UNL A   1      31.762  25.956  26.190  1.00  0.00     0.073 A 
ATOM     18  C   UNL A   1      30.641  25.017  26.051  1.00  0.00     0.182 A 
ATOM     19  C   UNL A   1      32.123  23.538  24.800  1.00  0.00     0.018 A 
ATOM     20  O   UNL A   1      29.532  25.266  26.510  1.00  0.00    -0.290 OA
ATOM     21  C   UNL A   1      30.895  23.791  25.288  1.00  0.00     0.073 A 
ATOM     22  C   UNL A   1      32.210  22.334  23.894  1.00  0.00     0.064 C 
ENDBRANCH  13  14
ENDBRANCH   8  13
ENDBRANCH   5   7
ENDBRANCH   4   5
ENDBRANCH   3   4
ENDBRANCH   2   3
ENDBRANCH   1   2
BRANCH   1  23
ATOM     23  C   UNL A   1      42.838  21.714  26.538  1.00  0.00     0.202 C 
BRANCH  23  24
ATOM     24  C   UNL A   1      43.705  22.068  25.320  1.00  0.00     0.261 C 
BRANCH  24  25
ATOM     25  O   UNL A   1      43.272  23.295  24.699  1.00  0.00    -0.460 OA
BRANCH  25  26
ATOM     26  C   UNL A   1      44.007  24.384  25.019  1.00  0.00     0.338 C 
ATOM     27  O   UNL A   1      45.081  24.718  24.541  1.00  0.00    -0.246 OA
BRANCH  26  28
ATOM     28  C   UNL A   1      43.213  25.282  25.881  1.00  0.00     0.060 A 
ATOM     29  C   UNL A   1      43.870  26.414  26.377  1.00  0.00     0.016 A 
ATOM     30  C   UNL A   1      41.887  25.019  26.234  1.00  0.00     0.016 A 
ATOM     31  C   UNL A   1      43.228  27.258  27.276  1.00  0.00     0.010 A 
ATOM     32  C   UNL A   1      41.246  25.862  27.153  1.00  0.00     0.010 A 
ATOM     33  C   UNL A   1      41.932  26.957  27.713  1.00  0.00    -0.014 A 
BRANCH  33  34
ATOM     34  C   UNL A   1      41.422  27.674  28.908  1.00  0.00     0.031 A 
ATOM     35  C   UNL A   1      42.199  27.565  30.193  1.00  0.00     0.074 A 
ATOM     36  C   UNL A   1      40.375  28.515  28.823  1.00  0.00     0.049 A 
ATOM     37  N   UNL A   1      42.019  28.193  31.327  1.00  0.00    -0.248 NA
ATOM     38  C   UNL A   1      43.339  26.634  30.196  1.00  0.00     0.031 C 
ATOM     39  C   UNL A   1      39.578  28.750  27.621  1.00  0.00     0.029 A 
ATOM     40  N   UNL A   1      39.819  29.346  29.764  1.00  0.00    -0.354 N 
ATOM     41  C   UNL A   1      43.029  27.744  32.169  1.00  0.00     0.074 A 
ATOM     42  C   UNL A   1      43.787  26.755  31.437  1.00  0.00     0.031 C 
ATOM     43  C   UNL A   1      38.646  29.681  27.892  1.00  0.00     0.029 A 
ATOM     44  C   UNL A   1      38.765  30.090  29.292  1.00  0.00     0.049 A 
ATOM     45  H   UNL A   1      40.147  29.405  30.691  1.00  0.00     0.167 HD
ATOM     46  C   UNL A   1      43.318  28.140  33.430  1.00  0.00     0.037 A 
ATOM     47  C   UNL A   1      37.985  30.994  29.919  1.00  0.00     0.037 A 
ATOM     48  C   UNL A   1      42.571  29.128  34.157  1.00  0.00     0.049 A 
ATOM     49  C   UNL A   1      38.260  31.337  31.360  1.00  0.00     0.074 A 
ATOM     50  C   UNL A   1      42.795  29.604  35.437  1.00  0.00     0.029 A 
ATOM     51  N   UNL A   1      41.450  29.786  33.673  1.00  0.00    -0.354 N 
ATOM     52  N   UNL A   1      39.241  30.936  32.133  1.00  0.00    -0.248 NA
ATOM     53  C   UNL A   1      37.319  32.257  32.020  1.00  0.00     0.031 C 
ATOM     54  C   UNL A   1      41.776  30.506  35.750  1.00  0.00     0.029 A 
ATOM     55  C   UNL A   1      40.947  30.633  34.645  1.00  0.00     0.049 A 
ATOM     56  H   UNL A   1      41.070  29.668  32.773  1.00  0.00     0.167 HD
ATOM     57  C   UNL A   1      39.044  31.560  33.359  1.00  0.00     0.074 A 
ATOM     58  C   UNL A   1      37.864  32.388  33.223  1.00  0.00     0.031 C 
ATOM     59  C   UNL A   1      39.772  31.453  34.497  1.00  0.00     0.037 A 
BRANCH  46  60
ATOM     60  C   UNL A   1      44.493  27.500  34.109  1.00  0.00     0.057 A 
ATOM     61  C   UNL A   1      44.362  26.318  34.848  1.00  0.00     0.134 A 
ATOM     62  C   UNL A   1      45.778  28.039  33.973  1.00  0.00     0.134 A 
ATOM     63  F   UNL A   1      43.156  25.758  35.028  1.00  0.00    -0.206 F 
ATOM     64  C   UNL A   1      45.465  25.701  35.439  1.00  0.00     0.040 A 
ATOM     65  C   UNL A   1      46.893  27.417  34.536  1.00  0.00     0.040 A 
ATOM     66  F   UNL A   1      45.973  29.167  33.273  1.00  0.00    -0.206 F 
ATOM     67  C   UNL A   1      46.737  26.247  35.275  1.00  0.00     0.006 A 
ENDBRANCH  46  60
BRANCH  47  68
ATOM     68  C   UNL A   1      36.865  31.643  29.186  1.00  0.00     0.057 A 
ATOM     69  C   UNL A   1      36.961  32.963  28.733  1.00  0.00     0.134 A 
ATOM     70  C   UNL A   1      35.670  30.959  28.927  1.00  0.00     0.134 A 
ATOM     71  F   UNL A   1      38.069  33.680  28.971  1.00  0.00    -0.206 F 
ATOM     72  C   UNL A   1      35.909  33.583  28.056  1.00  0.00     0.040 A 
ATOM     73  C   UNL A   1      34.621  31.557  28.228  1.00  0.00     0.040 A 
ATOM     74  F   UNL A   1      35.511  29.693  29.338  1.00  0.00    -0.206 F 
ATOM     75  C   UNL A   1      34.736  32.876  27.795  1.00  0.00     0.006 A 
ENDBRANCH  47  68
BRANCH  59  76
ATOM     76  C   UNL A   1      39.324  32.231  35.699  1.00  0.00     0.057 A 
ATOM     77  C   UNL A   1      39.732  33.555  35.904  1.00  0.00     0.134 A 
ATOM     78  C   UNL A   1      38.385  31.698  36.593  1.00  0.00     0.134 A 
ATOM     79  F   UNL A   1      40.635  34.121  35.089  1.00  0.00    -0.206 F 
ATOM     80  C   UNL A   1      39.223  34.321  36.953  1.00  0.00     0.040 A 
ATOM     81  C   UNL A   1      37.848  32.463  37.629  1.00  0.00     0.040 A 
ATOM     82  F   UNL A   1      37.941  30.440  36.445  1.00  0.00    -0.206 F 
ATOM     83  C   UNL A   1      38.267  33.780  37.811  1.00  0.00     0.006 A 
ENDBRANCH  59  76
ENDBRANCH  33  34
ENDBRANCH  26  28
ENDBRANCH  25  26
ENDBRANCH  24  25
ENDBRANCH  23  24
ENDBRANCH   1  23
TORSDOF 16
ENDMDL
MODEL 2
REMARK VINA RESULT:     -11.1      2.287      8.012
REMARK SMILES Cc1cc(=O)cc(C)n1C[C@H]1CCCC[C@@H]1C(=O)OCCOCCOC(=O)c1ccc(-c2c3nc(c(-c4c(F)cccc4F)c4ccc([nH]4)c(-c4c(F)cccc4F)c4nc(c(-c5c(F)cccc5F)c5ccc2[nH]5)C=C4)C=C3)cc1
REMARK SMILES IDX 22 1 21 2 20 3 19 4 17 5 18 6 16 7 11 8 12 9 13 10 15 11
REMARK SMILES IDX 14 12 10 13 9 14 1 15 2 16 3 17 4 18 7 19 5 20 6 21 8 22
REMARK SMILES IDX 23 23 24 24 25 25 26 26 27 27 28 28 29 29 81 30 30 31 80 32
REMARK SMILES IDX 31 33 32 34 33 35 74 36 34 37 79 38 73 39 75 40 35 41 78 42
REMARK SMILES IDX 72 43 71 44 36 46 62 47 45 48 61 49 46 50 49 51 60 52 76 53
REMARK SMILES IDX 47 54 48 55 59 57 77 58 50 59 37 60 38 61 43 62 39 63 40 64
REMARK SMILES IDX 42 65 44 66 41 67 63 68 64 69 69 70 65 71 66 72 68 73 70 74
REMARK SMILES IDX 67 75 51 76 52 77 57 78 53 79 54 80 56 81 58 82 55 83
REMARK H PARENT 75 45 49 56
REMARK Flexibility Score: inf
ROOT
ATOM      1  O   UNL A   1      30.977  29.326  24.403  1.00  0.00    -0.374 OA
ENDROOT
BRANCH   1   2
ATOM      2  C   UNL A   1      31.250  28.975  23.047  1.00  0.00     0.202 C 
BRANCH   2   3
ATOM      3  C   UNL A   1      31.744  27.547  22.790  1.00  0.00     0.261 C 
BRANCH   3   4
ATOM      4  O   UNL A   1      33.110  27.374  23.237  1.00  0.00    -0.463 OA
BRANCH   4   5
ATOM      5  C   UNL A   1      33.623  26.122  23.151  1.00  0.00     0.309 C 
ATOM      6  O   UNL A   1      33.669  25.470  22.114  1.00  0.00    -0.252 OA
BRANCH   5   7
ATOM      7  C   UNL A   1      34.159  25.569  24.482  1.00  0.00     0.104 C 
ATOM      8  C   UNL A   1      33.835  24.087  24.843  1.00  0.00     0.023 C 
ATOM      9  C   UNL A   1      32.346  23.976  25.183  1.00  0.00     0.006 C 
ATOM     10  C   UNL A   1      31.927  24.888  26.337  1.00  0.00     0.000 C 
ATOM     11  C   UNL A   1      33.766  26.529  25.624  1.00  0.00     0.016 C 
ATOM     12  C   UNL A   1      32.348  26.342  26.162  1.00  0.00     0.001 C 
BRANCH   8  13
ATOM     13  C   UNL A   1      34.736  23.595  26.019  1.00  0.00     0.126 C 
BRANCH  13  14
ATOM     14  N   UNL A   1      35.660  22.470  25.669  1.00  0.00    -0.349 N 
ATOM     15  C   UNL A   1      37.650  24.018  26.058  1.00  0.00     0.064 C 
ATOM     16  C   UNL A   1      37.069  22.686  25.647  1.00  0.00     0.018 A 
ATOM     17  C   UNL A   1      37.947  21.722  25.315  1.00  0.00     0.073 A 
ATOM     18  C   UNL A   1      37.465  20.381  24.955  1.00  0.00     0.182 A 
ATOM     19  C   UNL A   1      35.199  21.139  25.443  1.00  0.00     0.018 A 
ATOM     20  O   UNL A   1      38.236  19.490  24.617  1.00  0.00    -0.290 OA
ATOM     21  C   UNL A   1      36.024  20.141  25.075  1.00  0.00     0.073 A 
ATOM     22  C   UNL A   1      33.771  20.720  25.692  1.00  0.00     0.064 C 
ENDBRANCH  13  14
ENDBRANCH   8  13
ENDBRANCH   5   7
ENDBRANCH   4   5
ENDBRANCH   3   4
ENDBRANCH   2   3
ENDBRANCH   1   2
BRANCH   1  23
ATOM     23  C   UNL A   1      32.075  29.841  25.150  1.00  0.00     0.202 C 
BRANCH  23  24
ATOM     24  C   UNL A   1      31.723  30.791  26.304  1.00  0.00     0.261 C 
BRANCH  24  25
ATOM     25  O   UNL A   1      32.694  30.720  27.366  1.00  0.00    -0.460 OA
BRANCH  25  26
ATOM     26  C   UNL A   1      33.406  31.853  27.563  1.00  0.00     0.338 C 
ATOM     27  O   UNL A   1      32.972  32.991  27.659  1.00  0.00    -0.246 OA
BRANCH  26  28
ATOM     28  C   UNL A   1      34.802  31.509  27.897  1.00  0.00     0.060 A 
ATOM     29  C   UNL A   1      35.077  30.155  28.120  1.00  0.00     0.016 A 
ATOM     30  C   UNL A   1      35.808  32.469  28.030  1.00  0.00     0.016 A 
ATOM     31  C   UNL A   1      36.342  29.757  28.538  1.00  0.00     0.010 A 
ATOM     32  C   UNL A   1      37.080  32.069  28.466  1.00  0.00     0.010 A 
ATOM     33  C   UNL A   1      37.336  30.717  28.767  1.00  0.00    -0.014 A 
BRANCH  33  34
ATOM     34  C   UNL A   1      38.540  30.297  29.525  1.00  0.00     0.031 A 
ATOM     35  C   UNL A   1      38.692  30.772  30.946  1.00  0.00     0.074 A 
ATOM     36  C   UNL A   1      39.408  29.404  29.017  1.00  0.00     0.049 A 
ATOM     37  N   UNL A   1      39.589  30.442  31.840  1.00  0.00    -0.248 NA
ATOM     38  C   UNL A   1      37.691  31.737  31.428  1.00  0.00     0.031 C 
ATOM     39  C   UNL A   1      39.337  28.827  27.676  1.00  0.00     0.029 A 
ATOM     40  N   UNL A   1      40.508  28.807  29.583  1.00  0.00    -0.354 N 
ATOM     41  C   UNL A   1      39.252  31.146  32.988  1.00  0.00     0.074 A 
ATOM     42  C   UNL A   1      38.101  31.960  32.668  1.00  0.00     0.031 C 
ATOM     43  C   UNL A   1      40.340  27.943  27.529  1.00  0.00     0.029 A 
ATOM     44  C   UNL A   1      41.138  27.909  28.755  1.00  0.00     0.049 A 
ATOM     45  H   UNL A   1      40.816  29.003  30.498  1.00  0.00     0.167 HD
ATOM     46  C   UNL A   1      39.830  31.099  34.211  1.00  0.00     0.037 A 
ATOM     47  C   UNL A   1      42.232  27.149  28.963  1.00  0.00     0.037 A 
ATOM     48  C   UNL A   1      40.969  30.286  34.534  1.00  0.00     0.049 A 
ATOM     49  C   UNL A   1      42.925  27.198  30.301  1.00  0.00     0.074 A 
ATOM     50  C   UNL A   1      41.619  30.163  35.750  1.00  0.00     0.029 A 
ATOM     51  N   UNL A   1      41.634  29.464  33.637  1.00  0.00    -0.354 N 
ATOM     52  N   UNL A   1      42.574  27.837  31.391  1.00  0.00    -0.248 NA
ATOM     53  C   UNL A   1      44.168  26.423  30.438  1.00  0.00     0.031 C 
ATOM     54  C   UNL A   1      42.712  29.312  35.574  1.00  0.00     0.029 A 
ATOM     55  C   UNL A   1      42.712  28.863  34.262  1.00  0.00     0.049 A 
ATOM     56  H   UNL A   1      41.377  29.329  32.696  1.00  0.00     0.167 HD
ATOM     57  C   UNL A   1      43.539  27.533  32.342  1.00  0.00     0.074 A 
ATOM     58  C   UNL A   1      44.480  26.632  31.711  1.00  0.00     0.031 C 
ATOM     59  C   UNL A   1      43.641  27.966  33.622  1.00  0.00     0.037 A 
BRANCH  46  60
ATOM     60  C   UNL A   1      39.243  31.956  35.293  1.00  0.00     0.057 A 
ATOM     61  C   UNL A   1      38.355  31.438  36.244  1.00  0.00     0.134 A 
ATOM     62  C   UNL A   1      39.616  33.300  35.422  1.00  0.00     0.134 A 
ATOM     63  F   UNL A   1      37.947  30.162  36.168  1.00  0.00    -0.206 F 
ATOM     64  C   UNL A   1      37.848  32.227  37.276  1.00  0.00     0.040 A 
ATOM     65  C   UNL A   1      39.138  34.093  36.466  1.00  0.00     0.040 A 
ATOM     66  F   UNL A   1      40.467  33.858  34.547  1.00  0.00    -0.206 F 
ATOM     67  C   UNL A   1      38.248  33.557  37.395  1.00  0.00     0.006 A 
ENDBRANCH  46  60
BRANCH  47  68
ATOM     68  C   UNL A   1      42.745  26.274  27.876  1.00  0.00     0.057 A 
ATOM     69  C   UNL A   1      43.689  26.738  26.954  1.00  0.00     0.134 A 
ATOM     70  C   UNL A   1      42.298  24.953  27.731  1.00  0.00     0.134 A 
ATOM     71  F   UNL A   1      44.138  28.000  27.023  1.00  0.00    -0.206 F 
ATOM     72  C   UNL A   1      44.166  25.925  25.923  1.00  0.00     0.040 A 
ATOM     73  C   UNL A   1      42.786  24.122  26.721  1.00  0.00     0.040 A 
ATOM     74  F   UNL A   1      41.391  24.448  28.578  1.00  0.00    -0.206 F 
ATOM     75  C   UNL A   1      43.719  24.610  25.809  1.00  0.00     0.006 A 
ENDBRANCH  47  68
BRANCH  59  76
ATOM     76  C   UNL A   1      44.808  27.493  34.439  1.00  0.00     0.057 A 
ATOM     77  C   UNL A   1      45.983  28.249  34.537  1.00  0.00     0.134 A 
ATOM     78  C   UNL A   1      44.714  26.339  35.229  1.00  0.00     0.134 A 
ATOM     79  F   UNL A   1      46.139  29.360  33.801  1.00  0.00    -0.206 F 
ATOM     80  C   UNL A   1      47.021  27.875  35.391  1.00  0.00     0.040 A 
ATOM     81  C   UNL A   1      45.734  25.971  36.107  1.00  0.00     0.040 A 
ATOM     82  F   UNL A   1      43.610  25.577  35.193  1.00  0.00    -0.206 F 
ATOM     83  C   UNL A   1      46.893  26.741  36.190  1.00  0.00     0.006 A 
ENDBRANCH  59  76
ENDBRANCH  33  34
ENDBRANCH  26  28
ENDBRANCH  25  26
ENDBRANCH  24  25
ENDBRANCH  23  24
ENDBRANCH   1  23
TORSDOF 16
ENDMDL
MODEL 3
REMARK VINA RESULT:     -11.1      3.325      8.265
REMARK SMILES Cc1cc(=O)cc(C)n1C[C@H]1CCCC[C@@H]1C(=O)OCCOCCOC(=O)c1ccc(-c2c3nc(c(-c4c(F)cccc4F)c4ccc([nH]4)c(-c4c(F)cccc4F)c4nc(c(-c5c(F)cccc5F)c5ccc2[nH]5)C=C4)C=C3)cc1
REMARK SMILES IDX 22 1 21 2 20 3 19 4 17 5 18 6 16 7 11 8 12 9 13 10 15 11
REMARK SMILES IDX 14 12 10 13 9 14 1 15 2 16 3 17 4 18 7 19 5 20 6 21 8 22
REMARK SMILES IDX 23 23 24 24 25 25 26 26 27 27 28 28 29 29 81 30 30 31 80 32
REMARK SMILES IDX 31 33 32 34 33 35 74 36 34 37 79 38 73 39 75 40 35 41 78 42
REMARK SMILES IDX 72 43 71 44 36 46 62 47 45 48 61 49 46 50 49 51 60 52 76 53
REMARK SMILES IDX 47 54 48 55 59 57 77 58 50 59 37 60 38 61 43 62 39 63 40 64
REMARK SMILES IDX 42 65 44 66 41 67 63 68 64 69 69 70 65 71 66 72 68 73 70 74
REMARK SMILES IDX 67 75 51 76 52 77 57 78 53 79 54 80 56 81 58 82 55 83
REMARK H PARENT 75 45 49 56
REMARK Flexibility Score: inf
ROOT
ATOM      1  O   UNL A   1      31.914  30.826  26.144  1.00  0.00    -0.374 OA
ENDROOT
BRANCH   1   2
ATOM      2  C   UNL A   1      33.264  30.485  26.462  1.00  0.00     0.202 C 
BRANCH   2   3
ATOM      3  C   UNL A   1      33.478  29.575  27.676  1.00  0.00     0.261 C 
BRANCH   3   4
ATOM      4  O   UNL A   1      33.366  28.178  27.313  1.00  0.00    -0.463 OA
BRANCH   4   5
ATOM      5  C   UNL A   1      32.115  27.709  27.079  1.00  0.00     0.309 C 
ATOM      6  O   UNL A   1      31.233  27.660  27.929  1.00  0.00    -0.252 OA
BRANCH   5   7
ATOM      7  C   UNL A   1      31.880  27.238  25.634  1.00  0.00     0.104 C 
ATOM      8  C   UNL A   1      30.532  26.528  25.306  1.00  0.00     0.023 C 
ATOM      9  C   UNL A   1      30.534  25.141  25.954  1.00  0.00     0.006 C 
ATOM     10  C   UNL A   1      31.700  24.267  25.491  1.00  0.00     0.000 C 
ATOM     11  C   UNL A   1      33.089  26.399  25.172  1.00  0.00     0.016 C 
ATOM     12  C   UNL A   1      33.063  24.936  25.613  1.00  0.00     0.001 C 
BRANCH   8  13
ATOM     13  C   UNL A   1      30.312  26.446  23.763  1.00  0.00     0.126 C 
BRANCH  13  14
ATOM     14  N   UNL A   1      29.664  27.653  23.160  1.00  0.00    -0.349 N 
ATOM     15  C   UNL A   1      27.408  26.847  24.035  1.00  0.00     0.064 C 
ATOM     16  C   UNL A   1      28.252  27.827  23.256  1.00  0.00     0.018 A 
ATOM     17  C   UNL A   1      27.610  28.877  22.712  1.00  0.00     0.073 A 
ATOM     18  C   UNL A   1      28.367  29.905  21.984  1.00  0.00     0.182 A 
ATOM     19  C   UNL A   1      30.414  28.711  22.564  1.00  0.00     0.018 A 
ATOM     20  O   UNL A   1      27.810  30.857  21.449  1.00  0.00    -0.290 OA
ATOM     21  C   UNL A   1      29.827  29.770  21.975  1.00  0.00     0.073 A 
ATOM     22  C   UNL A   1      31.920  28.778  22.631  1.00  0.00     0.064 C 
ENDBRANCH  13  14
ENDBRANCH   8  13
ENDBRANCH   5   7
ENDBRANCH   4   5
ENDBRANCH   3   4
ENDBRANCH   2   3
ENDBRANCH   1   2
BRANCH   1  23
ATOM     23  C   UNL A   1      31.374  31.950  26.832  1.00  0.00     0.202 C 
BRANCH  23  24
ATOM     24  C   UNL A   1      32.328  33.135  27.048  1.00  0.00     0.261 C 
BRANCH  24  25
ATOM     25  O   UNL A   1      32.221  33.666  28.383  1.00  0.00    -0.460 OA
BRANCH  25  26
ATOM     26  C   UNL A   1      33.227  34.493  28.748  1.00  0.00     0.338 C 
ATOM     27  O   UNL A   1      33.135  35.659  29.102  1.00  0.00    -0.246 OA
BRANCH  26  28
ATOM     28  C   UNL A   1      34.474  33.719  28.900  1.00  0.00     0.060 A 
ATOM     29  C   UNL A   1      34.368  32.482  29.547  1.00  0.00     0.016 A 
ATOM     30  C   UNL A   1      35.717  34.189  28.467  1.00  0.00     0.016 A 
ATOM     31  C   UNL A   1      35.509  31.735  29.821  1.00  0.00     0.010 A 
ATOM     32  C   UNL A   1      36.868  33.443  28.757  1.00  0.00     0.010 A 
ATOM     33  C   UNL A   1      36.771  32.237  29.478  1.00  0.00    -0.014 A 
BRANCH  33  34
ATOM     34  C   UNL A   1      37.960  31.586  30.081  1.00  0.00     0.031 A 
ATOM     35  C   UNL A   1      38.289  31.891  31.519  1.00  0.00     0.074 A 
ATOM     36  C   UNL A   1      38.650  30.640  29.418  1.00  0.00     0.049 A 
ATOM     37  N   UNL A   1      39.198  31.357  32.293  1.00  0.00    -0.248 NA
ATOM     38  C   UNL A   1      37.476  32.927  32.175  1.00  0.00     0.031 C 
ATOM     39  C   UNL A   1      38.392  30.216  28.044  1.00  0.00     0.029 A 
ATOM     40  N   UNL A   1      39.696  29.848  29.825  1.00  0.00    -0.354 N 
ATOM     41  C   UNL A   1      39.056  31.981  33.526  1.00  0.00     0.074 A 
ATOM     42  C   UNL A   1      38.010  32.969  33.386  1.00  0.00     0.031 C 
ATOM     43  C   UNL A   1      39.245  29.225  27.727  1.00  0.00     0.029 A 
ATOM     44  C   UNL A   1      40.125  28.962  28.867  1.00  0.00     0.049 A 
ATOM     45  H   UNL A   1      40.100  29.909  30.722  1.00  0.00     0.167 HD
ATOM     46  C   UNL A   1      39.716  31.735  34.681  1.00  0.00     0.037 A 
ATOM     47  C   UNL A   1      41.114  28.047  28.905  1.00  0.00     0.037 A 
ATOM     48  C   UNL A   1      40.751  30.748  34.825  1.00  0.00     0.049 A 
ATOM     49  C   UNL A   1      41.910  27.869  30.172  1.00  0.00     0.074 A 
ATOM     50  C   UNL A   1      41.471  30.419  35.960  1.00  0.00     0.029 A 
ATOM     51  N   UNL A   1      41.220  29.940  33.801  1.00  0.00    -0.354 N 
ATOM     52  N   UNL A   1      41.740  28.436  31.342  1.00  0.00    -0.248 NA
ATOM     53  C   UNL A   1      43.038  26.925  30.126  1.00  0.00     0.031 C 
ATOM     54  C   UNL A   1      42.416  29.452  35.609  1.00  0.00     0.029 A 
ATOM     55  C   UNL A   1      42.249  29.141  34.268  1.00  0.00     0.049 A 
ATOM     56  H   UNL A   1      40.873  29.935  32.880  1.00  0.00     0.167 HD
ATOM     57  C   UNL A   1      42.725  27.912  32.170  1.00  0.00     0.074 A 
ATOM     58  C   UNL A   1      43.477  26.961  31.378  1.00  0.00     0.031 C 
ATOM     59  C   UNL A   1      42.988  28.196  33.468  1.00  0.00     0.037 A 
BRANCH  46  60
ATOM     60  C   UNL A   1      39.343  32.549  35.884  1.00  0.00     0.057 A 
ATOM     61  C   UNL A   1      38.437  32.077  36.842  1.00  0.00     0.134 A 
ATOM     62  C   UNL A   1      39.943  33.793  36.120  1.00  0.00     0.134 A 
ATOM     63  F   UNL A   1      37.818  30.899  36.669  1.00  0.00    -0.206 F 
ATOM     64  C   UNL A   1      38.129  32.818  37.983  1.00  0.00     0.040 A 
ATOM     65  C   UNL A   1      39.665  34.531  37.270  1.00  0.00     0.040 A 
ATOM     66  F   UNL A   1      40.825  34.300  35.244  1.00  0.00    -0.206 F 
ATOM     67  C   UNL A   1      38.752  34.045  38.204  1.00  0.00     0.006 A 
ENDBRANCH  46  60
BRANCH  47  68
ATOM     68  C   UNL A   1      41.410  27.224  27.702  1.00  0.00     0.057 A 
ATOM     69  C   UNL A   1      42.274  27.684  26.702  1.00  0.00     0.134 A 
ATOM     70  C   UNL A   1      40.832  25.961  27.521  1.00  0.00     0.134 A 
ATOM     71  F   UNL A   1      42.840  28.896  26.803  1.00  0.00    -0.206 F 
ATOM     72  C   UNL A   1      42.547  26.923  25.564  1.00  0.00     0.040 A 
ATOM     73  C   UNL A   1      41.117  25.178  26.402  1.00  0.00     0.040 A 
ATOM     74  F   UNL A   1      39.992  25.463  28.440  1.00  0.00    -0.206 F 
ATOM     75  C   UNL A   1      41.974  25.662  25.415  1.00  0.00     0.006 A 
ENDBRANCH  47  68
BRANCH  59  76
ATOM     76  C   UNL A   1      44.137  27.493  34.129  1.00  0.00     0.057 A 
ATOM     77  C   UNL A   1      45.405  28.083  34.206  1.00  0.00     0.134 A 
ATOM     78  C   UNL A   1      43.948  26.276  34.799  1.00  0.00     0.134 A 
ATOM     79  F   UNL A   1      45.654  29.243  33.581  1.00  0.00    -0.206 F 
ATOM     80  C   UNL A   1      46.443  27.488  34.925  1.00  0.00     0.040 A 
ATOM     81  C   UNL A   1      44.970  25.686  35.543  1.00  0.00     0.040 A 
ATOM     82  F   UNL A   1      42.754  25.665  34.776  1.00  0.00    -0.206 F 
ATOM     83  C   UNL A   1      46.223  26.294  35.608  1.00  0.00     0.006 A 
ENDBRANCH  59  76
ENDBRANCH  33  34
ENDBRANCH  26  28
ENDBRANCH  25  26
ENDBRANCH  24  25
ENDBRANCH  23  24
ENDBRANCH   1  23
TORSDOF 16
ENDMDL
