MODEL 1
REMARK VINA RESULT:     -10.3      0.000      0.000
REMARK SMILES CC(C)[NH2+][C@]1(C(=O)OCCOCCOC(=O)c2ccc(-c3c4nc(c(-c5c(F)cccc5F)c5ccc([nH]5)c(-c5c(F)cccc5F)c5nc(c(-c6c(F)cccc6F)c6ccc3[nH]6)C=C5)C=C4)cc2)CCC[C@@H](Sc2nnnn2C)C1
REMARK SMILES IDX 11 1 10 2 9 3 8 4 6 5 7 6 5 7 71 8 82 9 72 10 74 11 73 12
REMARK SMILES IDX 4 13 2 16 1 17 3 18 75 19 76 20 77 21 80 22 78 23 79 24
REMARK SMILES IDX 81 25 12 26 13 27 14 28 15 29 16 30 17 31 18 32 70 33 19 34
REMARK SMILES IDX 69 35 20 36 21 37 22 38 63 39 23 40 68 41 62 42 64 43 24 44
REMARK SMILES IDX 67 45 61 46 60 47 25 49 51 50 34 51 50 52 35 53 38 54 49 55
REMARK SMILES IDX 65 56 36 57 37 58 48 60 66 61 39 62 26 63 27 64 32 65 28 66
REMARK SMILES IDX 29 67 31 68 33 69 30 70 52 71 53 72 58 73 54 74 55 75 57 76
REMARK SMILES IDX 59 77 56 78 40 79 41 80 46 81 42 82 43 83 45 84 47 85 44 86
REMARK H PARENT 4 14 4 15 64 48 38 59
REMARK Flexibility Score: inf
ROOT
ATOM      1  O   UNL A   1      31.967  30.175  27.427  1.00  0.00    -0.374 OA
ENDROOT
BRANCH   1   2
ATOM      2  C   UNL A   1      32.286  28.881  26.926  1.00  0.00     0.202 C 
BRANCH   2   3
ATOM      3  C   UNL A   1      33.447  28.780  25.935  1.00  0.00     0.261 C 
BRANCH   3   4
ATOM      4  O   UNL A   1      33.220  27.825  24.884  1.00  0.00    -0.459 OA
BRANCH   4   5
ATOM      5  C   UNL A   1      32.558  28.323  23.799  1.00  0.00     0.368 C 
ATOM      6  O   UNL A   1      32.873  29.359  23.218  1.00  0.00    -0.245 OA
BRANCH   5   7
ATOM      7  C   UNL A   1      31.347  27.426  23.335  1.00  0.00     0.195 C 
ATOM      8  C   UNL A   1      31.088  26.343  24.400  1.00  0.00     0.081 C 
ATOM      9  C   UNL A   1      30.113  28.353  23.241  1.00  0.00     0.096 C 
ATOM     10  C   UNL A   1      29.780  25.570  24.223  1.00  0.00     0.008 C 
ATOM     11  C   UNL A   1      28.761  27.641  23.131  1.00  0.00     0.061 C 
ATOM     12  C   UNL A   1      28.581  26.502  24.143  1.00  0.00     0.015 C 
BRANCH   7  13
ATOM     13  N   UNL A   1      31.751  26.986  21.978  1.00  0.00    -0.330 N 
ATOM     14  H   UNL A   1      30.920  27.103  21.399  1.00  0.00     0.347 HD
ATOM     15  H   UNL A   1      32.591  27.552  21.851  1.00  0.00     0.347 HD
BRANCH  13  16
ATOM     16  C   UNL A   1      32.275  25.676  21.634  1.00  0.00     0.176 C 
ATOM     17  C   UNL A   1      32.494  25.721  20.112  1.00  0.00     0.075 C 
ATOM     18  C   UNL A   1      33.623  25.331  22.277  1.00  0.00     0.075 C 
ENDBRANCH  13  16
ENDBRANCH   7  13
BRANCH  11  19
ATOM     19  S   UNL A   1      27.433  28.925  23.232  1.00  0.00    -0.081 SA
BRANCH  19  20
ATOM     20  C   UNL A   1      28.020  30.202  22.224  1.00  0.00     0.209 A 
ATOM     21  N   UNL A   1      27.953  30.218  20.912  1.00  0.00    -0.102 NA
ATOM     22  N   UNL A   1      28.574  31.378  22.643  1.00  0.00    -0.224 N 
ATOM     23  N   UNL A   1      28.446  31.441  20.524  1.00  0.00    -0.023 NA
ATOM     24  N   UNL A   1      28.807  32.164  21.575  1.00  0.00    -0.045 NA
ATOM     25  C   UNL A   1      28.868  31.882  23.953  1.00  0.00     0.179 C 
ENDBRANCH  19  20
ENDBRANCH  11  19
ENDBRANCH   5   7
ENDBRANCH   4   5
ENDBRANCH   3   4
ENDBRANCH   2   3
ENDBRANCH   1   2
BRANCH   1  26
ATOM     26  C   UNL A   1      31.856  31.237  26.482  1.00  0.00     0.202 C 
BRANCH  26  27
ATOM     27  C   UNL A   1      31.585  32.637  27.045  1.00  0.00     0.261 C 
BRANCH  27  28
ATOM     28  O   UNL A   1      32.731  33.501  26.917  1.00  0.00    -0.460 OA
BRANCH  28  29
ATOM     29  C   UNL A   1      33.132  34.089  28.069  1.00  0.00     0.338 C 
ATOM     30  O   UNL A   1      32.520  34.914  28.734  1.00  0.00    -0.246 OA
BRANCH  29  31
ATOM     31  C   UNL A   1      34.369  33.449  28.553  1.00  0.00     0.060 A 
ATOM     32  C   UNL A   1      34.257  32.184  29.145  1.00  0.00     0.016 A 
ATOM     33  C   UNL A   1      35.605  34.093  28.479  1.00  0.00     0.016 A 
ATOM     34  C   UNL A   1      35.380  31.568  29.693  1.00  0.00     0.010 A 
ATOM     35  C   UNL A   1      36.729  33.478  29.040  1.00  0.00     0.010 A 
ATOM     36  C   UNL A   1      36.618  32.223  29.668  1.00  0.00    -0.014 A 
BRANCH  36  37
ATOM     37  C   UNL A   1      37.784  31.631  30.364  1.00  0.00     0.031 A 
ATOM     38  C   UNL A   1      38.622  30.601  29.663  1.00  0.00     0.074 A 
ATOM     39  C   UNL A   1      38.087  32.011  31.617  1.00  0.00     0.049 A 
ATOM     40  N   UNL A   1      39.635  29.909  30.118  1.00  0.00    -0.248 NA
ATOM     41  C   UNL A   1      38.276  30.316  28.262  1.00  0.00     0.031 C 
ATOM     42  C   UNL A   1      37.376  33.032  32.383  1.00  0.00     0.029 A 
ATOM     43  N   UNL A   1      39.065  31.567  32.471  1.00  0.00    -0.354 N 
ATOM     44  C   UNL A   1      40.046  29.103  29.064  1.00  0.00     0.074 A 
ATOM     45  C   UNL A   1      39.161  29.378  27.952  1.00  0.00     0.031 C 
ATOM     46  C   UNL A   1      37.921  33.115  33.609  1.00  0.00     0.029 A 
ATOM     47  C   UNL A   1      38.996  32.132  33.720  1.00  0.00     0.049 A 
ATOM     48  H   UNL A   1      39.748  30.907  32.214  1.00  0.00     0.167 HD
ATOM     49  C   UNL A   1      41.071  28.219  29.029  1.00  0.00     0.037 A 
ATOM     50  C   UNL A   1      39.699  31.861  34.838  1.00  0.00     0.037 A 
ATOM     51  C   UNL A   1      41.945  27.944  30.139  1.00  0.00     0.049 A 
ATOM     52  C   UNL A   1      40.770  30.804  34.799  1.00  0.00     0.074 A 
ATOM     53  C   UNL A   1      43.036  27.093  30.188  1.00  0.00     0.029 A 
ATOM     54  N   UNL A   1      41.816  28.501  31.402  1.00  0.00    -0.354 N 
ATOM     55  N   UNL A   1      41.177  30.076  33.788  1.00  0.00    -0.248 NA
ATOM     56  C   UNL A   1      41.474  30.527  36.060  1.00  0.00     0.031 C 
ATOM     57  C   UNL A   1      43.535  27.096  31.495  1.00  0.00     0.029 A 
ATOM     58  C   UNL A   1      42.784  27.986  32.248  1.00  0.00     0.049 A 
ATOM     59  H   UNL A   1      41.138  29.167  31.659  1.00  0.00     0.167 HD
ATOM     60  C   UNL A   1      42.193  29.269  34.284  1.00  0.00     0.074 A 
ATOM     61  C   UNL A   1      42.353  29.610  35.682  1.00  0.00     0.031 C 
ATOM     62  C   UNL A   1      42.926  28.328  33.640  1.00  0.00     0.037 A 
BRANCH  49  63
ATOM     63  C   UNL A   1      41.289  27.461  27.753  1.00  0.00     0.057 A 
ATOM     64  C   UNL A   1      42.124  27.946  26.739  1.00  0.00     0.134 A 
ATOM     65  C   UNL A   1      40.692  26.210  27.557  1.00  0.00     0.134 A 
ATOM     66  F   UNL A   1      42.717  29.143  26.860  1.00  0.00    -0.206 F 
ATOM     67  C   UNL A   1      42.345  27.219  25.567  1.00  0.00     0.040 A 
ATOM     68  C   UNL A   1      40.921  25.464  26.400  1.00  0.00     0.040 A 
ATOM     69  F   UNL A   1      39.884  25.687  28.492  1.00  0.00    -0.206 F 
ATOM     70  C   UNL A   1      41.748  25.971  25.399  1.00  0.00     0.006 A 
ENDBRANCH  49  63
BRANCH  50  71
ATOM     71  C   UNL A   1      39.389  32.577  36.100  1.00  0.00     0.057 A 
ATOM     72  C   UNL A   1      40.024  33.778  36.429  1.00  0.00     0.134 A 
ATOM     73  C   UNL A   1      38.461  32.065  37.016  1.00  0.00     0.134 A 
ATOM     74  F   UNL A   1      40.939  34.307  35.601  1.00  0.00    -0.206 F 
ATOM     75  C   UNL A   1      39.761  34.439  37.630  1.00  0.00     0.040 A 
ATOM     76  C   UNL A   1      38.171  32.726  38.210  1.00  0.00     0.040 A 
ATOM     77  F   UNL A   1      37.815  30.919  36.757  1.00  0.00    -0.206 F 
ATOM     78  C   UNL A   1      38.827  33.914  38.523  1.00  0.00     0.006 A 
ENDBRANCH  50  71
BRANCH  62  79
ATOM     79  C   UNL A   1      43.976  27.611  34.436  1.00  0.00     0.057 A 
ATOM     80  C   UNL A   1      45.254  28.154  34.625  1.00  0.00     0.134 A 
ATOM     81  C   UNL A   1      43.696  26.384  35.051  1.00  0.00     0.134 A 
ATOM     82  F   UNL A   1      45.590  29.318  34.050  1.00  0.00    -0.206 F 
ATOM     83  C   UNL A   1      46.221  27.493  35.385  1.00  0.00     0.040 A 
ATOM     84  C   UNL A   1      44.647  25.726  35.834  1.00  0.00     0.040 A 
ATOM     85  F   UNL A   1      42.490  25.814  34.916  1.00  0.00    -0.206 F 
ATOM     86  C   UNL A   1      45.915  26.279  35.997  1.00  0.00     0.006 A 
ENDBRANCH  62  79
ENDBRANCH  36  37
ENDBRANCH  29  31
ENDBRANCH  28  29
ENDBRANCH  27  28
ENDBRANCH  26  27
ENDBRANCH   1  26
TORSDOF 18
ENDMDL
MODEL 2
REMARK VINA RESULT:     -10.3      1.402      2.303
REMARK SMILES CC(C)[NH2+][C@]1(C(=O)OCCOCCOC(=O)c2ccc(-c3c4nc(c(-c5c(F)cccc5F)c5ccc([nH]5)c(-c5c(F)cccc5F)c5nc(c(-c6c(F)cccc6F)c6ccc3[nH]6)C=C5)C=C4)cc2)CCC[C@@H](Sc2nnnn2C)C1
REMARK SMILES IDX 11 1 10 2 9 3 8 4 6 5 7 6 5 7 71 8 82 9 72 10 74 11 73 12
REMARK SMILES IDX 4 13 2 16 1 17 3 18 75 19 76 20 77 21 80 22 78 23 79 24
REMARK SMILES IDX 81 25 12 26 13 27 14 28 15 29 16 30 17 31 18 32 70 33 19 34
REMARK SMILES IDX 69 35 20 36 21 37 22 38 63 39 23 40 68 41 62 42 64 43 24 44
REMARK SMILES IDX 67 45 61 46 60 47 25 49 51 50 34 51 50 52 35 53 38 54 49 55
REMARK SMILES IDX 65 56 36 57 37 58 48 60 66 61 39 62 26 63 27 64 32 65 28 66
REMARK SMILES IDX 29 67 31 68 33 69 30 70 52 71 53 72 58 73 54 74 55 75 57 76
REMARK SMILES IDX 59 77 56 78 40 79 41 80 46 81 42 82 43 83 45 84 47 85 44 86
REMARK H PARENT 4 14 4 15 64 48 38 59
REMARK Flexibility Score: inf
ROOT
ATOM      1  O   UNL A   1      31.925  30.935  26.597  1.00  0.00    -0.374 OA
ENDROOT
BRANCH   1   2
ATOM      2  C   UNL A   1      33.303  30.597  26.713  1.00  0.00     0.202 C 
BRANCH   2   3
ATOM      3  C   UNL A   1      33.666  29.452  27.661  1.00  0.00     0.261 C 
BRANCH   3   4
ATOM      4  O   UNL A   1      33.476  28.150  27.081  1.00  0.00    -0.459 OA
BRANCH   4   5
ATOM      5  C   UNL A   1      32.186  27.705  27.097  1.00  0.00     0.368 C 
ATOM      6  O   UNL A   1      31.410  27.879  28.034  1.00  0.00    -0.245 OA
BRANCH   5   7
ATOM      7  C   UNL A   1      31.763  26.955  25.776  1.00  0.00     0.195 C 
ATOM      8  C   UNL A   1      30.438  26.207  26.025  1.00  0.00     0.081 C 
ATOM      9  C   UNL A   1      31.539  28.041  24.697  1.00  0.00     0.096 C 
ATOM     10  C   UNL A   1      29.765  25.659  24.766  1.00  0.00     0.008 C 
ATOM     11  C   UNL A   1      30.805  27.574  23.436  1.00  0.00     0.061 C 
ATOM     12  C   UNL A   1      29.546  26.746  23.725  1.00  0.00     0.015 C 
BRANCH   7  13
ATOM     13  N   UNL A   1      32.963  26.152  25.441  1.00  0.00    -0.330 N 
ATOM     14  H   UNL A   1      33.500  26.729  24.794  1.00  0.00     0.347 HD
ATOM     15  H   UNL A   1      33.295  25.930  26.380  1.00  0.00     0.347 HD
BRANCH  13  16
ATOM     16  C   UNL A   1      32.957  24.824  24.856  1.00  0.00     0.176 C 
ATOM     17  C   UNL A   1      34.190  24.786  23.938  1.00  0.00     0.075 C 
ATOM     18  C   UNL A   1      33.103  23.675  25.859  1.00  0.00     0.075 C 
ENDBRANCH  13  16
ENDBRANCH   7  13
BRANCH  11  19
ATOM     19  S   UNL A   1      30.476  29.062  22.386  1.00  0.00    -0.081 SA
BRANCH  19  20
ATOM     20  C   UNL A   1      28.858  29.506  22.802  1.00  0.00     0.209 A 
ATOM     21  N   UNL A   1      27.798  28.753  22.616  1.00  0.00    -0.102 NA
ATOM     22  N   UNL A   1      28.466  30.658  23.422  1.00  0.00    -0.224 N 
ATOM     23  N   UNL A   1      26.743  29.444  23.163  1.00  0.00    -0.023 NA
ATOM     24  N   UNL A   1      27.145  30.597  23.677  1.00  0.00    -0.045 NA
ATOM     25  C   UNL A   1      29.205  31.806  23.861  1.00  0.00     0.179 C 
ENDBRANCH  19  20
ENDBRANCH  11  19
ENDBRANCH   5   7
ENDBRANCH   4   5
ENDBRANCH   3   4
ENDBRANCH   2   3
ENDBRANCH   1   2
BRANCH   1  26
ATOM     26  C   UNL A   1      31.551  32.281  26.885  1.00  0.00     0.202 C 
BRANCH  26  27
ATOM     27  C   UNL A   1      32.681  33.243  27.273  1.00  0.00     0.261 C 
BRANCH  27  28
ATOM     28  O   UNL A   1      32.255  34.208  28.253  1.00  0.00    -0.460 OA
BRANCH  28  29
ATOM     29  C   UNL A   1      33.219  35.067  28.663  1.00  0.00     0.338 C 
ATOM     30  O   UNL A   1      33.128  36.280  28.790  1.00  0.00    -0.246 OA
BRANCH  29  31
ATOM     31  C   UNL A   1      34.391  34.311  29.142  1.00  0.00     0.060 A 
ATOM     32  C   UNL A   1      34.190  33.390  30.178  1.00  0.00     0.016 A 
ATOM     33  C   UNL A   1      35.668  34.536  28.627  1.00  0.00     0.016 A 
ATOM     34  C   UNL A   1      35.275  32.707  30.725  1.00  0.00     0.010 A 
ATOM     35  C   UNL A   1      36.757  33.858  29.186  1.00  0.00     0.010 A 
ATOM     36  C   UNL A   1      36.569  32.958  30.250  1.00  0.00    -0.014 A 
BRANCH  36  37
ATOM     37  C   UNL A   1      37.736  32.334  30.917  1.00  0.00     0.031 A 
ATOM     38  C   UNL A   1      38.457  31.201  30.244  1.00  0.00     0.074 A 
ATOM     39  C   UNL A   1      38.145  32.777  32.117  1.00  0.00     0.049 A 
ATOM     40  N   UNL A   1      39.449  30.472  30.686  1.00  0.00    -0.248 NA
ATOM     41  C   UNL A   1      38.002  30.845  28.890  1.00  0.00     0.031 C 
ATOM     42  C   UNL A   1      37.555  33.896  32.848  1.00  0.00     0.029 A 
ATOM     43  N   UNL A   1      39.145  32.325  32.941  1.00  0.00    -0.354 N 
ATOM     44  C   UNL A   1      39.736  29.569  29.671  1.00  0.00     0.074 A 
ATOM     45  C   UNL A   1      38.800  29.827  28.597  1.00  0.00     0.031 C 
ATOM     46  C   UNL A   1      38.183  34.025  34.030  1.00  0.00     0.029 A 
ATOM     47  C   UNL A   1      39.196  32.978  34.148  1.00  0.00     0.049 A 
ATOM     48  H   UNL A   1      39.765  31.602  32.692  1.00  0.00     0.167 HD
ATOM     49  C   UNL A   1      40.695  28.614  29.640  1.00  0.00     0.037 A 
ATOM     50  C   UNL A   1      39.950  32.736  35.237  1.00  0.00     0.037 A 
ATOM     51  C   UNL A   1      41.619  28.355  30.712  1.00  0.00     0.049 A 
ATOM     52  C   UNL A   1      40.944  31.606  35.212  1.00  0.00     0.074 A 
ATOM     53  C   UNL A   1      42.653  27.434  30.757  1.00  0.00     0.029 A 
ATOM     54  N   UNL A   1      41.611  29.006  31.935  1.00  0.00    -0.354 N 
ATOM     55  N   UNL A   1      41.235  30.783  34.234  1.00  0.00    -0.248 NA
ATOM     56  C   UNL A   1      41.709  31.368  36.445  1.00  0.00     0.031 C 
ATOM     57  C   UNL A   1      43.235  27.492  32.028  1.00  0.00     0.029 A 
ATOM     58  C   UNL A   1      42.596  28.482  32.757  1.00  0.00     0.049 A 
ATOM     59  H   UNL A   1      40.996  29.734  32.184  1.00  0.00     0.167 HD
ATOM     60  C   UNL A   1      42.226  29.942  34.725  1.00  0.00     0.074 A 
ATOM     61  C   UNL A   1      42.499  30.366  36.083  1.00  0.00     0.031 C 
ATOM     62  C   UNL A   1      42.851  28.910  34.109  1.00  0.00     0.037 A 
BRANCH  49  63
ATOM     63  C   UNL A   1      40.778  27.756  28.412  1.00  0.00     0.057 A 
ATOM     64  C   UNL A   1      40.075  26.550  28.303  1.00  0.00     0.134 A 
ATOM     65  C   UNL A   1      41.534  28.166  27.306  1.00  0.00     0.134 A 
ATOM     66  F   UNL A   1      39.341  26.095  29.330  1.00  0.00    -0.206 F 
ATOM     67  C   UNL A   1      40.134  25.773  27.144  1.00  0.00     0.040 A 
ATOM     68  C   UNL A   1      41.585  27.409  26.135  1.00  0.00     0.040 A 
ATOM     69  F   UNL A   1      42.227  29.314  27.344  1.00  0.00    -0.206 F 
ATOM     70  C   UNL A   1      40.886  26.206  26.053  1.00  0.00     0.006 A 
ENDBRANCH  49  63
BRANCH  50  71
ATOM     71  C   UNL A   1      39.772  33.558  36.460  1.00  0.00     0.057 A 
ATOM     72  C   UNL A   1      38.863  33.190  37.457  1.00  0.00     0.134 A 
ATOM     73  C   UNL A   1      40.494  34.743  36.649  1.00  0.00     0.134 A 
ATOM     74  F   UNL A   1      38.126  32.077  37.321  1.00  0.00    -0.206 F 
ATOM     75  C   UNL A   1      38.667  33.977  38.593  1.00  0.00     0.040 A 
ATOM     76  C   UNL A   1      40.325  35.528  37.791  1.00  0.00     0.040 A 
ATOM     77  F   UNL A   1      41.384  35.148  35.732  1.00  0.00    -0.206 F 
ATOM     78  C   UNL A   1      39.404  35.149  38.764  1.00  0.00     0.006 A 
ENDBRANCH  50  71
BRANCH  62  79
ATOM     79  C   UNL A   1      43.901  28.176  34.891  1.00  0.00     0.057 A 
ATOM     80  C   UNL A   1      43.595  27.029  35.634  1.00  0.00     0.134 A 
ATOM     81  C   UNL A   1      45.237  28.598  34.870  1.00  0.00     0.134 A 
ATOM     82  F   UNL A   1      42.332  26.583  35.708  1.00  0.00    -0.206 F 
ATOM     83  C   UNL A   1      44.579  26.336  36.344  1.00  0.00     0.040 A 
ATOM     84  C   UNL A   1      46.233  27.899  35.555  1.00  0.00     0.040 A 
ATOM     85  F   UNL A   1      45.597  29.684  34.171  1.00  0.00    -0.206 F 
ATOM     86  C   UNL A   1      45.903  26.768  36.298  1.00  0.00     0.006 A 
ENDBRANCH  62  79
ENDBRANCH  36  37
ENDBRANCH  29  31
ENDBRANCH  28  29
ENDBRANCH  27  28
ENDBRANCH  26  27
ENDBRANCH   1  26
TORSDOF 18
ENDMDL
MODEL 3
REMARK VINA RESULT:     -10.3      4.191      8.977
REMARK SMILES CC(C)[NH2+][C@]1(C(=O)OCCOCCOC(=O)c2ccc(-c3c4nc(c(-c5c(F)cccc5F)c5ccc([nH]5)c(-c5c(F)cccc5F)c5nc(c(-c6c(F)cccc6F)c6ccc3[nH]6)C=C5)C=C4)cc2)CCC[C@@H](Sc2nnnn2C)C1
REMARK SMILES IDX 11 1 10 2 9 3 8 4 6 5 7 6 5 7 71 8 82 9 72 10 74 11 73 12
REMARK SMILES IDX 4 13 2 16 1 17 3 18 75 19 76 20 77 21 80 22 78 23 79 24
REMARK SMILES IDX 81 25 12 26 13 27 14 28 15 29 16 30 17 31 18 32 70 33 19 34
REMARK SMILES IDX 69 35 20 36 21 37 22 38 63 39 23 40 68 41 62 42 64 43 24 44
REMARK SMILES IDX 67 45 61 46 60 47 25 49 51 50 34 51 50 52 35 53 38 54 49 55
REMARK SMILES IDX 65 56 36 57 37 58 48 60 66 61 39 62 26 63 27 64 32 65 28 66
REMARK SMILES IDX 29 67 31 68 33 69 30 70 52 71 53 72 58 73 54 74 55 75 57 76
REMARK SMILES IDX 59 77 56 78 40 79 41 80 46 81 42 82 43 83 45 84 47 85 44 86
REMARK H PARENT 4 14 4 15 64 48 38 59
REMARK Flexibility Score: inf
ROOT
ATOM      1  O   UNL A   1      34.491  21.765  25.753  1.00  0.00    -0.374 OA
ENDROOT
BRANCH   1   2
ATOM      2  C   UNL A   1      33.878  22.865  25.088  1.00  0.00     0.202 C 
BRANCH   2   3
ATOM      3  C   UNL A   1      32.835  23.664  25.872  1.00  0.00     0.261 C 
BRANCH   3   4
ATOM      4  O   UNL A   1      33.250  25.009  26.166  1.00  0.00    -0.459 OA
BRANCH   4   5
ATOM      5  C   UNL A   1      32.230  25.912  26.248  1.00  0.00     0.368 C 
ATOM      6  O   UNL A   1      31.191  25.720  26.876  1.00  0.00    -0.245 OA
BRANCH   5   7
ATOM      7  C   UNL A   1      32.515  27.255  25.473  1.00  0.00     0.195 C 
ATOM      8  C   UNL A   1      33.783  27.081  24.615  1.00  0.00     0.081 C 
ATOM      9  C   UNL A   1      31.303  27.501  24.544  1.00  0.00     0.096 C 
ATOM     10  C   UNL A   1      34.032  28.200  23.603  1.00  0.00     0.008 C 
ATOM     11  C   UNL A   1      31.509  28.564  23.460  1.00  0.00     0.061 C 
ATOM     12  C   UNL A   1      32.831  28.416  22.696  1.00  0.00     0.015 C 
BRANCH   7  13
ATOM     13  N   UNL A   1      32.538  28.272  26.551  1.00  0.00    -0.330 N 
ATOM     14  H   UNL A   1      31.583  28.626  26.608  1.00  0.00     0.347 HD
ATOM     15  H   UNL A   1      32.965  27.726  27.300  1.00  0.00     0.347 HD
BRANCH  13  16
ATOM     16  C   UNL A   1      33.385  29.451  26.585  1.00  0.00     0.176 C 
ATOM     17  C   UNL A   1      32.510  30.554  27.204  1.00  0.00     0.075 C 
ATOM     18  C   UNL A   1      34.637  29.321  27.458  1.00  0.00     0.075 C 
ENDBRANCH  13  16
ENDBRANCH   7  13
BRANCH  11  19
ATOM     19  S   UNL A   1      30.022  28.549  22.359  1.00  0.00    -0.081 SA
BRANCH  19  20
ATOM     20  C   UNL A   1      29.033  29.820  22.988  1.00  0.00     0.209 A 
ATOM     21  N   UNL A   1      29.402  31.076  23.101  1.00  0.00    -0.102 NA
ATOM     22  N   UNL A   1      27.734  29.713  23.395  1.00  0.00    -0.224 N 
ATOM     23  N   UNL A   1      28.297  31.755  23.556  1.00  0.00    -0.023 NA
ATOM     24  N   UNL A   1      27.268  30.935  23.717  1.00  0.00    -0.045 NA
ATOM     25  C   UNL A   1      26.845  28.590  23.468  1.00  0.00     0.179 C 
ENDBRANCH  19  20
ENDBRANCH  11  19
ENDBRANCH   5   7
ENDBRANCH   4   5
ENDBRANCH   3   4
ENDBRANCH   2   3
ENDBRANCH   1   2
BRANCH   1  26
ATOM     26  C   UNL A   1      34.948  20.681  24.946  1.00  0.00     0.202 C 
BRANCH  26  27
ATOM     27  C   UNL A   1      36.450  20.372  24.993  1.00  0.00     0.261 C 
BRANCH  27  28
ATOM     28  O   UNL A   1      37.200  21.434  25.612  1.00  0.00    -0.460 OA
BRANCH  28  29
ATOM     29  C   UNL A   1      38.500  21.146  25.856  1.00  0.00     0.338 C 
ATOM     30  O   UNL A   1      39.111  20.137  25.531  1.00  0.00    -0.246 OA
BRANCH  29  31
ATOM     31  C   UNL A   1      39.178  22.327  26.421  1.00  0.00     0.060 A 
ATOM     32  C   UNL A   1      38.662  23.589  26.096  1.00  0.00     0.016 A 
ATOM     33  C   UNL A   1      40.324  22.209  27.207  1.00  0.00     0.016 A 
ATOM     34  C   UNL A   1      39.309  24.742  26.535  1.00  0.00     0.010 A 
ATOM     35  C   UNL A   1      40.979  23.368  27.637  1.00  0.00     0.010 A 
ATOM     36  C   UNL A   1      40.487  24.638  27.285  1.00  0.00    -0.014 A 
BRANCH  36  37
ATOM     37  C   UNL A   1      41.249  25.859  27.641  1.00  0.00     0.031 A 
ATOM     38  C   UNL A   1      40.567  26.967  28.391  1.00  0.00     0.074 A 
ATOM     39  C   UNL A   1      42.541  25.974  27.291  1.00  0.00     0.049 A 
ATOM     40  N   UNL A   1      41.029  28.142  28.732  1.00  0.00    -0.248 NA
ATOM     41  C   UNL A   1      39.181  26.715  28.817  1.00  0.00     0.031 C 
ATOM     42  C   UNL A   1      43.323  24.950  26.601  1.00  0.00     0.029 A 
ATOM     43  N   UNL A   1      43.419  27.016  27.454  1.00  0.00    -0.354 N 
ATOM     44  C   UNL A   1      39.994  28.774  29.408  1.00  0.00     0.074 A 
ATOM     45  C   UNL A   1      38.872  27.859  29.412  1.00  0.00     0.031 C 
ATOM     46  C   UNL A   1      44.558  25.426  26.370  1.00  0.00     0.029 A 
ATOM     47  C   UNL A   1      44.641  26.797  26.868  1.00  0.00     0.049 A 
ATOM     48  H   UNL A   1      43.194  27.841  27.942  1.00  0.00     0.167 HD
ATOM     49  C   UNL A   1      39.984  30.003  29.975  1.00  0.00     0.037 A 
ATOM     50  C   UNL A   1      45.695  27.624  26.719  1.00  0.00     0.037 A 
ATOM     51  C   UNL A   1      41.099  30.912  29.963  1.00  0.00     0.049 A 
ATOM     52  C   UNL A   1      45.624  29.020  27.275  1.00  0.00     0.074 A 
ATOM     53  C   UNL A   1      41.198  32.165  30.546  1.00  0.00     0.029 A 
ATOM     54  N   UNL A   1      42.305  30.674  29.321  1.00  0.00    -0.354 N 
ATOM     55  N   UNL A   1      44.656  29.594  27.947  1.00  0.00    -0.248 NA
ATOM     56  C   UNL A   1      46.791  29.885  27.047  1.00  0.00     0.031 C 
ATOM     57  C   UNL A   1      42.445  32.706  30.211  1.00  0.00     0.029 A 
ATOM     58  C   UNL A   1      43.140  31.770  29.461  1.00  0.00     0.049 A 
ATOM     59  H   UNL A   1      42.534  29.847  28.838  1.00  0.00     0.167 HD
ATOM     60  C   UNL A   1      45.100  30.878  28.235  1.00  0.00     0.074 A 
ATOM     61  C   UNL A   1      46.434  30.993  27.682  1.00  0.00     0.031 C 
ATOM     62  C   UNL A   1      44.462  31.874  28.897  1.00  0.00     0.037 A 
BRANCH  49  63
ATOM     63  C   UNL A   1      38.714  30.450  30.637  1.00  0.00     0.057 A 
ATOM     64  C   UNL A   1      37.688  31.078  29.921  1.00  0.00     0.134 A 
ATOM     65  C   UNL A   1      38.497  30.206  31.999  1.00  0.00     0.134 A 
ATOM     66  F   UNL A   1      37.838  31.350  28.616  1.00  0.00    -0.206 F 
ATOM     67  C   UNL A   1      36.497  31.464  30.540  1.00  0.00     0.040 A 
ATOM     68  C   UNL A   1      37.303  30.567  32.624  1.00  0.00     0.040 A 
ATOM     69  F   UNL A   1      39.439  29.604  32.741  1.00  0.00    -0.206 F 
ATOM     70  C   UNL A   1      36.299  31.202  31.894  1.00  0.00     0.006 A 
ENDBRANCH  49  63
BRANCH  50  71
ATOM     71  C   UNL A   1      46.898  27.164  25.981  1.00  0.00     0.057 A 
ATOM     72  C   UNL A   1      47.962  26.542  26.640  1.00  0.00     0.134 A 
ATOM     73  C   UNL A   1      47.018  27.356  24.598  1.00  0.00     0.134 A 
ATOM     74  F   UNL A   1      47.914  26.350  27.968  1.00  0.00    -0.206 F 
ATOM     75  C   UNL A   1      49.110  26.137  25.956  1.00  0.00     0.040 A 
ATOM     76  C   UNL A   1      48.150  26.937  23.898  1.00  0.00     0.040 A 
ATOM     77  F   UNL A   1      46.030  27.943  23.908  1.00  0.00    -0.206 F 
ATOM     78  C   UNL A   1      49.203  26.331  24.578  1.00  0.00     0.006 A 
ENDBRANCH  50  71
BRANCH  62  79
ATOM     79  C   UNL A   1      45.200  33.169  29.070  1.00  0.00     0.057 A 
ATOM     80  C   UNL A   1      45.061  34.221  28.157  1.00  0.00     0.134 A 
ATOM     81  C   UNL A   1      46.028  33.379  30.181  1.00  0.00     0.134 A 
ATOM     82  F   UNL A   1      44.295  34.077  27.064  1.00  0.00    -0.206 F 
ATOM     83  C   UNL A   1      45.733  35.432  28.332  1.00  0.00     0.040 A 
ATOM     84  C   UNL A   1      46.685  34.595  30.380  1.00  0.00     0.040 A 
ATOM     85  F   UNL A   1      46.198  32.415  31.097  1.00  0.00    -0.206 F 
ATOM     86  C   UNL A   1      46.542  35.623  29.451  1.00  0.00     0.006 A 
ENDBRANCH  62  79
ENDBRANCH  36  37
ENDBRANCH  29  31
ENDBRANCH  28  29
ENDBRANCH  27  28
ENDBRANCH  26  27
ENDBRANCH   1  26
TORSDOF 18
ENDMDL
