MODEL 1
REMARK VINA RESULT:     -10.1      0.000      0.000
REMARK SMILES Cc1cc(C)c2c(c1)C=C(C(=O)OCCOCCOC(=O)c1ccc(-c3c4nc(c(-c5c(F)cccc5F)c5ccc([nH]5)c(-c5c(F)cccc5F)c5nc(c(-c6c(F)cccc6F)c6ccc3[nH]6)C=C5)C=C4)cc1)[C@@H](C(F)(F)F)O2
REMARK SMILES IDX 17 1 16 2 15 3 14 4 13 5 11 6 12 7 10 8 1 9 2 10 3 11 8 12
REMARK SMILES IDX 4 13 7 14 5 15 6 16 9 17 81 18 76 19 77 20 78 21 79 22 80 23
REMARK SMILES IDX 18 24 19 25 20 26 21 27 22 28 23 29 75 30 24 31 74 32 25 33
REMARK SMILES IDX 26 34 27 35 68 36 28 37 73 38 67 39 69 40 29 41 72 42 66 43
REMARK SMILES IDX 65 44 30 46 56 47 39 48 55 49 40 50 43 51 54 52 70 53 41 54
REMARK SMILES IDX 42 55 53 57 71 58 44 59 31 60 32 61 37 62 33 63 34 64 36 65
REMARK SMILES IDX 38 66 35 67 57 68 58 69 63 70 59 71 60 72 62 73 64 74 61 75
REMARK SMILES IDX 45 76 46 77 51 78 47 79 48 80 50 81 52 82 49 83
REMARK H PARENT 69 45 43 56
REMARK Flexibility Score: inf
ROOT
ATOM      1  C   UNL A   1      44.702  18.746  24.185  1.00  0.00     0.202 C 
ENDROOT
BRANCH   1   2
ATOM      2  O   UNL A   1      46.080  18.782  24.560  1.00  0.00    -0.374 OA
BRANCH   2   3
ATOM      3  C   UNL A   1      46.703  20.060  24.674  1.00  0.00     0.202 C 
BRANCH   3   4
ATOM      4  C   UNL A   1      45.900  21.144  25.397  1.00  0.00     0.261 C 
BRANCH   4   5
ATOM      5  O   UNL A   1      46.483  22.443  25.201  1.00  0.00    -0.460 OA
BRANCH   5   6
ATOM      6  C   UNL A   1      45.757  23.273  24.418  1.00  0.00     0.338 C 
ATOM      7  O   UNL A   1      45.213  22.992  23.360  1.00  0.00    -0.246 OA
BRANCH   6   8
ATOM      8  C   UNL A   1      45.599  24.581  25.081  1.00  0.00     0.087 C 
ATOM      9  C   UNL A   1      41.349  28.961  25.817  1.00  0.00     0.044 C 
ATOM     10  C   UNL A   1      42.693  28.312  25.963  1.00  0.00    -0.050 A 
ATOM     11  C   UNL A   1      43.792  29.047  26.424  1.00  0.00     0.010 A 
ATOM     12  C   UNL A   1      42.886  26.988  25.559  1.00  0.00     0.015 A 
ATOM     13  C   UNL A   1      45.068  28.464  26.515  1.00  0.00    -0.008 A 
ATOM     14  C   UNL A   1      44.154  26.401  25.628  1.00  0.00     0.018 A 
ATOM     15  C   UNL A   1      46.233  29.286  26.991  1.00  0.00     0.048 C 
ATOM     16  C   UNL A   1      45.238  27.127  26.125  1.00  0.00     0.130 A 
ATOM     17  C   UNL A   1      44.351  25.061  25.110  1.00  0.00     0.027 C 
ATOM     18  O   UNL A   1      46.490  26.591  26.260  1.00  0.00    -0.475 OA
ATOM     19  C   UNL A   1      46.788  25.308  25.641  1.00  0.00     0.316 C 
BRANCH  19  20
ATOM     20  C   UNL A   1      47.894  25.521  24.597  1.00  0.00     0.430 C 
ATOM     21  F   UNL A   1      49.119  25.547  25.180  1.00  0.00    -0.167 F 
ATOM     22  F   UNL A   1      47.925  24.520  23.687  1.00  0.00    -0.167 F 
ATOM     23  F   UNL A   1      47.743  26.680  23.919  1.00  0.00    -0.167 F 
ENDBRANCH  19  20
ENDBRANCH   6   8
ENDBRANCH   5   6
ENDBRANCH   4   5
ENDBRANCH   3   4
ENDBRANCH   2   3
ENDBRANCH   1   2
BRANCH   1  24
ATOM     24  C   UNL A   1      43.675  18.812  25.321  1.00  0.00     0.261 C 
BRANCH  24  25
ATOM     25  O   UNL A   1      42.546  19.639  24.981  1.00  0.00    -0.460 OA
BRANCH  25  26
ATOM     26  C   UNL A   1      41.571  19.674  25.918  1.00  0.00     0.338 C 
ATOM     27  O   UNL A   1      40.897  18.738  26.325  1.00  0.00    -0.246 OA
BRANCH  26  28
ATOM     28  C   UNL A   1      41.517  21.004  26.548  1.00  0.00     0.060 A 
ATOM     29  C   UNL A   1      41.770  22.116  25.734  1.00  0.00     0.016 A 
ATOM     30  C   UNL A   1      41.336  21.153  27.924  1.00  0.00     0.016 A 
ATOM     31  C   UNL A   1      41.909  23.379  26.303  1.00  0.00     0.010 A 
ATOM     32  C   UNL A   1      41.492  22.419  28.497  1.00  0.00     0.010 A 
ATOM     33  C   UNL A   1      41.823  23.525  27.693  1.00  0.00    -0.014 A 
BRANCH  33  34
ATOM     34  C   UNL A   1      42.280  24.787  28.322  1.00  0.00     0.031 A 
ATOM     35  C   UNL A   1      41.280  25.894  28.517  1.00  0.00     0.074 A 
ATOM     36  C   UNL A   1      43.545  24.934  28.748  1.00  0.00     0.049 A 
ATOM     37  N   UNL A   1      41.462  27.108  28.967  1.00  0.00    -0.248 NA
ATOM     38  C   UNL A   1      39.886  25.586  28.159  1.00  0.00     0.031 C 
ATOM     39  C   UNL A   1      44.585  23.908  28.683  1.00  0.00     0.029 A 
ATOM     40  N   UNL A   1      44.168  26.014  29.318  1.00  0.00    -0.354 N 
ATOM     41  C   UNL A   1      40.210  27.708  28.945  1.00  0.00     0.074 A 
ATOM     42  C   UNL A   1      39.280  26.735  28.416  1.00  0.00     0.031 C 
ATOM     43  C   UNL A   1      45.723  24.414  29.187  1.00  0.00     0.029 A 
ATOM     44  C   UNL A   1      45.501  25.806  29.574  1.00  0.00     0.049 A 
ATOM     45  H   UNL A   1      43.704  26.857  29.525  1.00  0.00     0.167 HD
ATOM     46  C   UNL A   1      39.865  28.957  29.339  1.00  0.00     0.037 A 
ATOM     47  C   UNL A   1      46.436  26.655  30.042  1.00  0.00     0.037 A 
ATOM     48  C   UNL A   1      40.793  29.927  29.856  1.00  0.00     0.049 A 
ATOM     49  C   UNL A   1      46.049  28.071  30.375  1.00  0.00     0.074 A 
ATOM     50  C   UNL A   1      40.547  31.228  30.259  1.00  0.00     0.029 A 
ATOM     51  N   UNL A   1      42.148  29.699  30.041  1.00  0.00    -0.354 N 
ATOM     52  N   UNL A   1      44.871  28.643  30.319  1.00  0.00    -0.248 NA
ATOM     53  C   UNL A   1      47.128  28.962  30.828  1.00  0.00     0.031 C 
ATOM     54  C   UNL A   1      41.762  31.799  30.652  1.00  0.00     0.029 A 
ATOM     55  C   UNL A   1      42.755  30.841  30.535  1.00  0.00     0.049 A 
ATOM     56  H   UNL A   1      42.609  28.852  29.849  1.00  0.00     0.167 HD
ATOM     57  C   UNL A   1      45.062  29.952  30.742  1.00  0.00     0.074 A 
ATOM     58  C   UNL A   1      46.466  30.085  31.071  1.00  0.00     0.031 C 
ATOM     59  C   UNL A   1      44.156  30.956  30.849  1.00  0.00     0.037 A 
BRANCH  46  60
ATOM     60  C   UNL A   1      38.426  29.350  29.199  1.00  0.00     0.057 A 
ATOM     61  C   UNL A   1      37.556  29.361  30.297  1.00  0.00     0.134 A 
ATOM     62  C   UNL A   1      37.911  29.754  27.961  1.00  0.00     0.134 A 
ATOM     63  F   UNL A   1      37.983  28.966  31.506  1.00  0.00    -0.206 F 
ATOM     64  C   UNL A   1      36.220  29.748  30.166  1.00  0.00     0.040 A 
ATOM     65  C   UNL A   1      36.584  30.164  27.822  1.00  0.00     0.040 A 
ATOM     66  F   UNL A   1      38.692  29.766  26.870  1.00  0.00    -0.206 F 
ATOM     67  C   UNL A   1      35.734  30.158  28.926  1.00  0.00     0.006 A 
ENDBRANCH  46  60
BRANCH  47  68
ATOM     68  C   UNL A   1      47.838  26.195  30.204  1.00  0.00     0.057 A 
ATOM     69  C   UNL A   1      48.770  26.345  29.171  1.00  0.00     0.134 A 
ATOM     70  C   UNL A   1      48.274  25.586  31.386  1.00  0.00     0.134 A 
ATOM     71  F   UNL A   1      48.404  26.896  28.006  1.00  0.00    -0.206 F 
ATOM     72  C   UNL A   1      50.087  25.899  29.307  1.00  0.00     0.040 A 
ATOM     73  C   UNL A   1      49.592  25.156  31.543  1.00  0.00     0.040 A 
ATOM     74  F   UNL A   1      47.426  25.409  32.410  1.00  0.00    -0.206 F 
ATOM     75  C   UNL A   1      50.502  25.309  30.499  1.00  0.00     0.006 A 
ENDBRANCH  47  68
BRANCH  59  76
ATOM     76  C   UNL A   1      44.655  32.279  31.351  1.00  0.00     0.057 A 
ATOM     77  C   UNL A   1      45.111  33.274  30.477  1.00  0.00     0.134 A 
ATOM     78  C   UNL A   1      44.642  32.576  32.720  1.00  0.00     0.134 A 
ATOM     79  F   UNL A   1      45.158  33.048  29.155  1.00  0.00    -0.206 F 
ATOM     80  C   UNL A   1      45.558  34.509  30.949  1.00  0.00     0.040 A 
ATOM     81  C   UNL A   1      45.062  33.816  33.202  1.00  0.00     0.040 A 
ATOM     82  F   UNL A   1      44.207  31.671  33.609  1.00  0.00    -0.206 F 
ATOM     83  C   UNL A   1      45.528  34.784  32.315  1.00  0.00     0.006 A 
ENDBRANCH  59  76
ENDBRANCH  33  34
ENDBRANCH  26  28
ENDBRANCH  25  26
ENDBRANCH  24  25
ENDBRANCH   1  24
TORSDOF 15
ENDMDL
MODEL 2
REMARK VINA RESULT:      -9.6      0.882      6.230
REMARK SMILES Cc1cc(C)c2c(c1)C=C(C(=O)OCCOCCOC(=O)c1ccc(-c3c4nc(c(-c5c(F)cccc5F)c5ccc([nH]5)c(-c5c(F)cccc5F)c5nc(c(-c6c(F)cccc6F)c6ccc3[nH]6)C=C5)C=C4)cc1)[C@@H](C(F)(F)F)O2
REMARK SMILES IDX 17 1 16 2 15 3 14 4 13 5 11 6 12 7 10 8 1 9 2 10 3 11 8 12
REMARK SMILES IDX 4 13 7 14 5 15 6 16 9 17 81 18 76 19 77 20 78 21 79 22 80 23
REMARK SMILES IDX 18 24 19 25 20 26 21 27 22 28 23 29 75 30 24 31 74 32 25 33
REMARK SMILES IDX 26 34 27 35 68 36 28 37 73 38 67 39 69 40 29 41 72 42 66 43
REMARK SMILES IDX 65 44 30 46 56 47 39 48 55 49 40 50 43 51 54 52 70 53 41 54
REMARK SMILES IDX 42 55 53 57 71 58 44 59 31 60 32 61 37 62 33 63 34 64 36 65
REMARK SMILES IDX 38 66 35 67 57 68 58 69 63 70 59 71 60 72 62 73 64 74 61 75
REMARK SMILES IDX 45 76 46 77 51 78 47 79 48 80 50 81 52 82 49 83
REMARK H PARENT 69 45 43 56
REMARK Flexibility Score: inf
ROOT
ATOM      1  C   UNL A   1      44.884  19.118  23.779  1.00  0.00     0.202 C 
ENDROOT
BRANCH   1   2
ATOM      2  O   UNL A   1      46.219  19.121  24.286  1.00  0.00    -0.374 OA
BRANCH   2   3
ATOM      3  C   UNL A   1      46.785  20.377  24.656  1.00  0.00     0.202 C 
BRANCH   3   4
ATOM      4  C   UNL A   1      45.887  21.604  24.477  1.00  0.00     0.261 C 
BRANCH   4   5
ATOM      5  O   UNL A   1      46.334  22.699  25.293  1.00  0.00    -0.460 OA
BRANCH   5   6
ATOM      6  C   UNL A   1      46.660  23.817  24.605  1.00  0.00     0.338 C 
ATOM      7  O   UNL A   1      47.180  23.870  23.501  1.00  0.00    -0.246 OA
BRANCH   6   8
ATOM      8  C   UNL A   1      46.189  25.011  25.331  1.00  0.00     0.087 C 
ATOM      9  C   UNL A   1      41.239  28.643  25.632  1.00  0.00     0.044 C 
ATOM     10  C   UNL A   1      42.625  28.179  25.966  1.00  0.00    -0.050 A 
ATOM     11  C   UNL A   1      43.501  29.008  26.677  1.00  0.00     0.010 A 
ATOM     12  C   UNL A   1      43.089  26.946  25.499  1.00  0.00     0.015 A 
ATOM     13  C   UNL A   1      44.819  28.605  26.952  1.00  0.00    -0.008 A 
ATOM     14  C   UNL A   1      44.404  26.540  25.750  1.00  0.00     0.018 A 
ATOM     15  C   UNL A   1      45.743  29.527  27.696  1.00  0.00     0.048 C 
ATOM     16  C   UNL A   1      45.261  27.354  26.494  1.00  0.00     0.130 A 
ATOM     17  C   UNL A   1      44.894  25.304  25.171  1.00  0.00     0.027 C 
ATOM     18  O   UNL A   1      46.542  26.989  26.810  1.00  0.00    -0.475 OA
ATOM     19  C   UNL A   1      47.138  25.835  26.154  1.00  0.00     0.316 C 
BRANCH  19  20
ATOM     20  C   UNL A   1      48.356  26.312  25.350  1.00  0.00     0.430 C 
ATOM     21  F   UNL A   1      49.313  25.352  25.294  1.00  0.00    -0.167 F 
ATOM     22  F   UNL A   1      48.030  26.602  24.069  1.00  0.00    -0.167 F 
ATOM     23  F   UNL A   1      48.921  27.417  25.885  1.00  0.00    -0.167 F 
ENDBRANCH  19  20
ENDBRANCH   6   8
ENDBRANCH   5   6
ENDBRANCH   4   5
ENDBRANCH   3   4
ENDBRANCH   2   3
ENDBRANCH   1   2
BRANCH   1  24
ATOM     24  C   UNL A   1      43.791  18.583  24.713  1.00  0.00     0.261 C 
BRANCH  24  25
ATOM     25  O   UNL A   1      42.832  19.600  25.059  1.00  0.00    -0.460 OA
BRANCH  25  26
ATOM     26  C   UNL A   1      42.449  19.595  26.356  1.00  0.00     0.338 C 
ATOM     27  O   UNL A   1      42.451  18.647  27.129  1.00  0.00    -0.246 OA
BRANCH  26  28
ATOM     28  C   UNL A   1      42.167  20.967  26.810  1.00  0.00     0.060 A 
ATOM     29  C   UNL A   1      42.675  22.021  26.038  1.00  0.00     0.016 A 
ATOM     30  C   UNL A   1      41.521  21.217  28.022  1.00  0.00     0.016 A 
ATOM     31  C   UNL A   1      42.595  23.329  26.507  1.00  0.00     0.010 A 
ATOM     32  C   UNL A   1      41.457  22.530  28.500  1.00  0.00     0.010 A 
ATOM     33  C   UNL A   1      42.034  23.582  27.764  1.00  0.00    -0.014 A 
BRANCH  33  34
ATOM     34  C   UNL A   1      42.233  24.906  28.398  1.00  0.00     0.031 A 
ATOM     35  C   UNL A   1      43.586  25.231  28.970  1.00  0.00     0.074 A 
ATOM     36  C   UNL A   1      41.247  25.817  28.432  1.00  0.00     0.049 A 
ATOM     37  N   UNL A   1      43.974  26.285  29.639  1.00  0.00    -0.248 NA
ATOM     38  C   UNL A   1      44.646  24.232  28.751  1.00  0.00     0.031 C 
ATOM     39  C   UNL A   1      39.919  25.647  27.847  1.00  0.00     0.029 A 
ATOM     40  N   UNL A   1      41.216  27.069  28.989  1.00  0.00    -0.354 N 
ATOM     41  C   UNL A   1      45.317  26.077  29.923  1.00  0.00     0.074 A 
ATOM     42  C   UNL A   1      45.674  24.787  29.375  1.00  0.00     0.031 C 
ATOM     43  C   UNL A   1      39.196  26.755  28.085  1.00  0.00     0.029 A 
ATOM     44  C   UNL A   1      39.999  27.692  28.869  1.00  0.00     0.049 A 
ATOM     45  H   UNL A   1      41.992  27.482  29.433  1.00  0.00     0.167 HD
ATOM     46  C   UNL A   1      46.179  26.893  30.576  1.00  0.00     0.037 A 
ATOM     47  C   UNL A   1      39.578  28.873  29.362  1.00  0.00     0.037 A 
ATOM     48  C   UNL A   1      45.820  28.171  31.128  1.00  0.00     0.049 A 
ATOM     49  C   UNL A   1      40.524  29.716  30.174  1.00  0.00     0.074 A 
ATOM     50  C   UNL A   1      46.614  29.061  31.830  1.00  0.00     0.029 A 
ATOM     51  N   UNL A   1      44.559  28.741  31.042  1.00  0.00    -0.354 N 
ATOM     52  N   UNL A   1      41.783  29.497  30.469  1.00  0.00    -0.248 NA
ATOM     53  C   UNL A   1      39.987  30.966  30.730  1.00  0.00     0.031 C 
ATOM     54  C   UNL A   1      45.822  30.154  32.200  1.00  0.00     0.029 A 
ATOM     55  C   UNL A   1      44.548  29.963  31.692  1.00  0.00     0.049 A 
ATOM     56  H   UNL A   1      43.787  28.335  30.585  1.00  0.00     0.167 HD
ATOM     57  C   UNL A   1      42.192  30.586  31.229  1.00  0.00     0.074 A 
ATOM     58  C   UNL A   1      41.052  31.473  31.334  1.00  0.00     0.031 C 
ATOM     59  C   UNL A   1      43.402  30.829  31.792  1.00  0.00     0.037 A 
BRANCH  46  60
ATOM     60  C   UNL A   1      47.588  26.410  30.748  1.00  0.00     0.057 A 
ATOM     61  C   UNL A   1      48.606  26.783  29.862  1.00  0.00     0.134 A 
ATOM     62  C   UNL A   1      47.936  25.591  31.829  1.00  0.00     0.134 A 
ATOM     63  F   UNL A   1      48.333  27.549  28.795  1.00  0.00    -0.206 F 
ATOM     64  C   UNL A   1      49.921  26.347  30.038  1.00  0.00     0.040 A 
ATOM     65  C   UNL A   1      49.251  25.168  32.028  1.00  0.00     0.040 A 
ATOM     66  F   UNL A   1      47.007  25.198  32.713  1.00  0.00    -0.206 F 
ATOM     67  C   UNL A   1      50.248  25.544  31.129  1.00  0.00     0.006 A 
ENDBRANCH  46  60
BRANCH  47  68
ATOM     68  C   UNL A   1      38.184  29.321  29.120  1.00  0.00     0.057 A 
ATOM     69  C   UNL A   1      37.786  29.797  27.865  1.00  0.00     0.134 A 
ATOM     70  C   UNL A   1      37.222  29.295  30.136  1.00  0.00     0.134 A 
ATOM     71  F   UNL A   1      38.670  29.870  26.860  1.00  0.00    -0.206 F 
ATOM     72  C   UNL A   1      36.482  30.237  27.632  1.00  0.00     0.040 A 
ATOM     73  C   UNL A   1      35.909  29.712  29.911  1.00  0.00     0.040 A 
ATOM     74  F   UNL A   1      37.543  28.855  31.362  1.00  0.00    -0.206 F 
ATOM     75  C   UNL A   1      35.538  30.189  28.656  1.00  0.00     0.006 A 
ENDBRANCH  47  68
BRANCH  59  76
ATOM     76  C   UNL A   1      43.556  32.109  32.559  1.00  0.00     0.057 A 
ATOM     77  C   UNL A   1      43.944  33.301  31.933  1.00  0.00     0.134 A 
ATOM     78  C   UNL A   1      43.274  32.160  33.930  1.00  0.00     0.134 A 
ATOM     79  F   UNL A   1      44.238  33.317  30.624  1.00  0.00    -0.206 F 
ATOM     80  C   UNL A   1      44.069  34.492  32.649  1.00  0.00     0.040 A 
ATOM     81  C   UNL A   1      43.371  33.351  34.651  1.00  0.00     0.040 A 
ATOM     82  F   UNL A   1      42.887  31.057  34.587  1.00  0.00    -0.206 F 
ATOM     83  C   UNL A   1      43.776  34.520  34.011  1.00  0.00     0.006 A 
ENDBRANCH  59  76
ENDBRANCH  33  34
ENDBRANCH  26  28
ENDBRANCH  25  26
ENDBRANCH  24  25
ENDBRANCH   1  24
TORSDOF 15
ENDMDL
MODEL 3
REMARK VINA RESULT:      -9.3      6.101     10.910
REMARK SMILES Cc1cc(C)c2c(c1)C=C(C(=O)OCCOCCOC(=O)c1ccc(-c3c4nc(c(-c5c(F)cccc5F)c5ccc([nH]5)c(-c5c(F)cccc5F)c5nc(c(-c6c(F)cccc6F)c6ccc3[nH]6)C=C5)C=C4)cc1)[C@@H](C(F)(F)F)O2
REMARK SMILES IDX 17 1 16 2 15 3 14 4 13 5 11 6 12 7 10 8 1 9 2 10 3 11 8 12
REMARK SMILES IDX 4 13 7 14 5 15 6 16 9 17 81 18 76 19 77 20 78 21 79 22 80 23
REMARK SMILES IDX 18 24 19 25 20 26 21 27 22 28 23 29 75 30 24 31 74 32 25 33
REMARK SMILES IDX 26 34 27 35 68 36 28 37 73 38 67 39 69 40 29 41 72 42 66 43
REMARK SMILES IDX 65 44 30 46 56 47 39 48 55 49 40 50 43 51 54 52 70 53 41 54
REMARK SMILES IDX 42 55 53 57 71 58 44 59 31 60 32 61 37 62 33 63 34 64 36 65
REMARK SMILES IDX 38 66 35 67 57 68 58 69 63 70 59 71 60 72 62 73 64 74 61 75
REMARK SMILES IDX 45 76 46 77 51 78 47 79 48 80 50 81 52 82 49 83
REMARK H PARENT 69 45 43 56
REMARK Flexibility Score: inf
ROOT
ATOM      1  C   UNL A   1      31.524  29.005  25.340  1.00  0.00     0.202 C 
ENDROOT
BRANCH   1   2
ATOM      2  O   UNL A   1      31.479  28.731  23.938  1.00  0.00    -0.374 OA
BRANCH   2   3
ATOM      3  C   UNL A   1      30.708  27.612  23.506  1.00  0.00     0.202 C 
BRANCH   3   4
ATOM      4  C   UNL A   1      31.046  27.048  22.124  1.00  0.00     0.261 C 
BRANCH   4   5
ATOM      5  O   UNL A   1      31.404  25.658  22.202  1.00  0.00    -0.460 OA
BRANCH   5   6
ATOM      6  C   UNL A   1      32.647  25.371  21.751  1.00  0.00     0.338 C 
ATOM      7  O   UNL A   1      33.262  25.961  20.876  1.00  0.00    -0.246 OA
BRANCH   6   8
ATOM      8  C   UNL A   1      33.237  24.287  22.557  1.00  0.00     0.087 C 
ATOM      9  C   UNL A   1      32.153  18.404  23.976  1.00  0.00     0.044 C 
ATOM     10  C   UNL A   1      32.874  19.718  24.020  1.00  0.00    -0.050 A 
ATOM     11  C   UNL A   1      33.843  19.965  25.001  1.00  0.00     0.010 A 
ATOM     12  C   UNL A   1      32.528  20.744  23.137  1.00  0.00     0.015 A 
ATOM     13  C   UNL A   1      34.489  21.210  25.085  1.00  0.00    -0.008 A 
ATOM     14  C   UNL A   1      33.150  21.995  23.222  1.00  0.00     0.018 A 
ATOM     15  C   UNL A   1      35.507  21.453  26.163  1.00  0.00     0.048 C 
ATOM     16  C   UNL A   1      34.143  22.222  24.176  1.00  0.00     0.130 A 
ATOM     17  C   UNL A   1      32.704  23.075  22.363  1.00  0.00     0.027 C 
ATOM     18  O   UNL A   1      34.819  23.409  24.275  1.00  0.00    -0.475 OA
ATOM     19  C   UNL A   1      34.335  24.569  23.542  1.00  0.00     0.316 C 
BRANCH  19  20
ATOM     20  C   UNL A   1      33.952  25.656  24.557  1.00  0.00     0.430 C 
ATOM     21  F   UNL A   1      34.778  25.636  25.632  1.00  0.00    -0.167 F 
ATOM     22  F   UNL A   1      34.048  26.896  24.024  1.00  0.00    -0.167 F 
ATOM     23  F   UNL A   1      32.688  25.508  25.013  1.00  0.00    -0.167 F 
ENDBRANCH  19  20
ENDBRANCH   6   8
ENDBRANCH   5   6
ENDBRANCH   4   5
ENDBRANCH   3   4
ENDBRANCH   2   3
ENDBRANCH   1   2
BRANCH   1  24
ATOM     24  C   UNL A   1      31.755  30.465  25.751  1.00  0.00     0.261 C 
BRANCH  24  25
ATOM     25  O   UNL A   1      32.343  30.570  27.061  1.00  0.00    -0.460 OA
BRANCH  25  26
ATOM     26  C   UNL A   1      33.069  31.693  27.264  1.00  0.00     0.338 C 
ATOM     27  O   UNL A   1      32.666  32.848  27.268  1.00  0.00    -0.246 OA
BRANCH  26  28
ATOM     28  C   UNL A   1      34.442  31.347  27.667  1.00  0.00     0.060 A 
ATOM     29  C   UNL A   1      34.735  29.991  27.868  1.00  0.00     0.016 A 
ATOM     30  C   UNL A   1      35.390  32.332  27.951  1.00  0.00     0.016 A 
ATOM     31  C   UNL A   1      35.958  29.617  28.418  1.00  0.00     0.010 A 
ATOM     32  C   UNL A   1      36.611  31.956  28.519  1.00  0.00     0.010 A 
ATOM     33  C   UNL A   1      36.879  30.602  28.795  1.00  0.00    -0.014 A 
BRANCH  33  34
ATOM     34  C   UNL A   1      38.025  30.236  29.660  1.00  0.00     0.031 A 
ATOM     35  C   UNL A   1      39.075  29.312  29.104  1.00  0.00     0.074 A 
ATOM     36  C   UNL A   1      38.153  30.742  30.897  1.00  0.00     0.049 A 
ATOM     37  N   UNL A   1      40.118  28.790  29.695  1.00  0.00    -0.248 NA
ATOM     38  C   UNL A   1      38.928  28.930  27.690  1.00  0.00     0.031 C 
ATOM     39  C   UNL A   1      37.243  31.702  31.517  1.00  0.00     0.029 A 
ATOM     40  N   UNL A   1      39.107  30.510  31.854  1.00  0.00    -0.354 N 
ATOM     41  C   UNL A   1      40.750  28.019  28.728  1.00  0.00     0.074 A 
ATOM     42  C   UNL A   1      39.963  28.121  27.519  1.00  0.00     0.031 C 
ATOM     43  C   UNL A   1      37.679  31.971  32.759  1.00  0.00     0.029 A 
ATOM     44  C   UNL A   1      38.874  31.175  33.032  1.00  0.00     0.049 A 
ATOM     45  H   UNL A   1      39.884  29.923  31.711  1.00  0.00     0.167 HD
ATOM     46  C   UNL A   1      41.890  27.297  28.837  1.00  0.00     0.037 A 
ATOM     47  C   UNL A   1      39.538  31.123  34.203  1.00  0.00     0.037 A 
ATOM     48  C   UNL A   1      42.667  27.189  30.042  1.00  0.00     0.049 A 
ATOM     49  C   UNL A   1      40.744  30.232  34.330  1.00  0.00     0.074 A 
ATOM     50  C   UNL A   1      43.824  26.462  30.261  1.00  0.00     0.029 A 
ATOM     51  N   UNL A   1      42.364  27.828  31.234  1.00  0.00    -0.354 N 
ATOM     52  N   UNL A   1      41.317  29.478  33.423  1.00  0.00    -0.248 NA
ATOM     53  C   UNL A   1      41.391  30.177  35.649  1.00  0.00     0.031 C 
ATOM     54  C   UNL A   1      44.200  26.632  31.598  1.00  0.00     0.029 A 
ATOM     55  C   UNL A   1      43.301  27.498  32.198  1.00  0.00     0.049 A 
ATOM     56  H   UNL A   1      41.596  28.427  31.374  1.00  0.00     0.167 HD
ATOM     57  C   UNL A   1      42.396  28.873  34.054  1.00  0.00     0.074 A 
ATOM     58  C   UNL A   1      42.411  29.363  35.417  1.00  0.00     0.031 C 
ATOM     59  C   UNL A   1      43.295  27.990  33.552  1.00  0.00     0.037 A 
BRANCH  46  60
ATOM     60  C   UNL A   1      42.349  26.547  27.622  1.00  0.00     0.057 A 
ATOM     61  C   UNL A   1      43.194  27.133  26.671  1.00  0.00     0.134 A 
ATOM     62  C   UNL A   1      41.968  25.215  27.418  1.00  0.00     0.134 A 
ATOM     63  F   UNL A   1      43.578  28.412  26.799  1.00  0.00    -0.206 F 
ATOM     64  C   UNL A   1      43.635  26.424  25.552  1.00  0.00     0.040 A 
ATOM     65  C   UNL A   1      42.420  24.489  26.315  1.00  0.00     0.040 A 
ATOM     66  F   UNL A   1      41.160  24.596  28.291  1.00  0.00    -0.206 F 
ATOM     67  C   UNL A   1      43.254  25.095  25.376  1.00  0.00     0.006 A 
ENDBRANCH  46  60
BRANCH  47  68
ATOM     68  C   UNL A   1      39.064  31.925  35.358  1.00  0.00     0.057 A 
ATOM     69  C   UNL A   1      38.244  31.360  36.341  1.00  0.00     0.134 A 
ATOM     70  C   UNL A   1      39.410  33.274  35.502  1.00  0.00     0.134 A 
ATOM     71  F   UNL A   1      37.858  30.080  36.243  1.00  0.00    -0.206 F 
ATOM     72  C   UNL A   1      37.778  32.110  37.423  1.00  0.00     0.040 A 
ATOM     73  C   UNL A   1      38.970  34.029  36.589  1.00  0.00     0.040 A 
ATOM     74  F   UNL A   1      40.189  33.874  34.590  1.00  0.00    -0.206 F 
ATOM     75  C   UNL A   1      38.147  33.448  37.551  1.00  0.00     0.006 A 
ENDBRANCH  47  68
BRANCH  59  76
ATOM     76  C   UNL A   1      44.373  27.508  34.477  1.00  0.00     0.057 A 
ATOM     77  C   UNL A   1      44.229  26.334  35.226  1.00  0.00     0.134 A 
ATOM     78  C   UNL A   1      45.583  28.204  34.590  1.00  0.00     0.134 A 
ATOM     79  F   UNL A   1      43.091  25.627  35.171  1.00  0.00    -0.206 F 
ATOM     80  C   UNL A   1      45.243  25.881  36.072  1.00  0.00     0.040 A 
ATOM     81  C   UNL A   1      46.614  27.748  35.413  1.00  0.00     0.040 A 
ATOM     82  F   UNL A   1      45.788  29.330  33.891  1.00  0.00    -0.206 F 
ATOM     83  C   UNL A   1      46.441  26.587  36.163  1.00  0.00     0.006 A 
ENDBRANCH  59  76
ENDBRANCH  33  34
ENDBRANCH  26  28
ENDBRANCH  25  26
ENDBRANCH  24  25
ENDBRANCH   1  24
TORSDOF 15
ENDMDL
