MODEL 1
REMARK VINA RESULT:     -11.8      0.000      0.000
REMARK SMILES Cc1ccc(NC(=O)C[N@H+]2CCC[C@@H](C(=O)OCCOCCOC(=O)c3ccc(-c4c5nc(c(-c6c(F)cccc6F)c6ccc([nH]6)c(-c6c(F)cccc6F)c6nc(c(-c7c(F)cccc7F)c7ccc4[nH]7)C=C6)C=C5)cc3)C2)cc1F
REMARK SMILES IDX 19 1 18 2 17 3 15 4 16 5 14 6 10 7 11 8 80 9 12 11 13 12
REMARK SMILES IDX 9 13 7 14 6 15 8 17 5 18 1 19 2 20 3 21 82 22 4 23 81 24
REMARK SMILES IDX 83 25 20 26 21 27 22 28 23 29 24 30 25 31 26 32 27 33 79 34
REMARK SMILES IDX 28 35 78 36 29 37 30 38 31 39 72 40 32 41 77 42 71 43 73 44
REMARK SMILES IDX 33 45 76 46 70 47 69 48 34 50 60 51 43 52 59 53 44 54 47 55
REMARK SMILES IDX 58 56 74 57 45 58 46 59 57 61 75 62 48 63 35 64 36 65 41 66
REMARK SMILES IDX 37 67 38 68 40 69 42 70 39 71 61 72 62 73 67 74 63 75 64 76
REMARK SMILES IDX 66 77 68 78 65 79 49 80 50 81 55 82 51 83 52 84 54 85 56 86
REMARK SMILES IDX 53 87
REMARK H PARENT 10 10 6 16 73 49 47 60
REMARK Flexibility Score: inf
ROOT
ATOM      1  C   UNL A   1      39.263  22.058  26.148  1.00  0.00     0.202 C 
ENDROOT
BRANCH   1   2
ATOM      2  C   UNL A   1      37.954  22.153  25.371  1.00  0.00     0.261 C 
BRANCH   2   3
ATOM      3  O   UNL A   1      36.860  21.535  26.051  1.00  0.00    -0.463 OA
BRANCH   3   4
ATOM      4  C   UNL A   1      35.709  22.262  26.046  1.00  0.00     0.314 C 
ATOM      5  O   UNL A   1      35.642  23.482  26.066  1.00  0.00    -0.252 OA
BRANCH   4   6
ATOM      6  C   UNL A   1      34.514  21.346  26.065  1.00  0.00     0.154 C 
ATOM      7  N   UNL A   1      32.067  21.629  25.696  1.00  0.00    -0.326 N 
ATOM      8  C   UNL A   1      32.124  20.668  24.577  1.00  0.00     0.262 C 
ATOM      9  C   UNL A   1      33.359  22.298  25.812  1.00  0.00     0.278 C 
ATOM     10  H   UNL A   1      31.896  21.141  26.575  1.00  0.00     0.348 HD
ATOM     11  C   UNL A   1      33.222  19.617  24.797  1.00  0.00     0.062 C 
ATOM     12  C   UNL A   1      34.593  20.252  25.009  1.00  0.00     0.027 C 
BRANCH   7  13
ATOM     13  C   UNL A   1      30.911  22.566  25.545  1.00  0.00     0.363 C 
BRANCH  13  14
ATOM     14  C   UNL A   1      30.539  23.424  26.767  1.00  0.00     0.279 C 
ATOM     15  N   UNL A   1      30.784  24.768  26.877  1.00  0.00    -0.321 N 
ATOM     16  H   UNL A   1      30.502  25.154  27.738  1.00  0.00     0.170 HD
ATOM     17  O   UNL A   1      29.917  22.904  27.705  1.00  0.00    -0.268 OA
BRANCH  15  18
ATOM     18  C   UNL A   1      31.359  25.702  25.997  1.00  0.00     0.044 A 
ATOM     19  C   UNL A   1      33.302  28.955  23.936  1.00  0.00     0.047 C 
ATOM     20  C   UNL A   1      32.662  27.789  24.621  1.00  0.00    -0.015 A 
ATOM     21  C   UNL A   1      33.402  26.887  25.387  1.00  0.00     0.008 A 
ATOM     22  C   UNL A   1      31.287  27.585  24.498  1.00  0.00     0.128 A 
ATOM     23  C   UNL A   1      32.757  25.839  26.054  1.00  0.00     0.026 A 
ATOM     24  C   UNL A   1      30.635  26.555  25.173  1.00  0.00     0.065 A 
ATOM     25  F   UNL A   1      30.560  28.414  23.736  1.00  0.00    -0.207 F 
ENDBRANCH  15  18
ENDBRANCH  13  14
ENDBRANCH   7  13
ENDBRANCH   4   6
ENDBRANCH   3   4
ENDBRANCH   2   3
ENDBRANCH   1   2
BRANCH   1  26
ATOM     26  O   UNL A   1      39.997  20.835  26.170  1.00  0.00    -0.374 OA
BRANCH  26  27
ATOM     27  C   UNL A   1      41.359  20.774  26.570  1.00  0.00     0.202 C 
BRANCH  27  28
ATOM     28  C   UNL A   1      42.400  21.666  25.903  1.00  0.00     0.261 C 
BRANCH  28  29
ATOM     29  O   UNL A   1      43.671  21.053  25.748  1.00  0.00    -0.460 OA
BRANCH  29  30
ATOM     30  C   UNL A   1      44.415  21.664  24.799  1.00  0.00     0.338 C 
ATOM     31  O   UNL A   1      44.588  21.293  23.650  1.00  0.00    -0.246 OA
BRANCH  30  32
ATOM     32  C   UNL A   1      45.138  22.800  25.372  1.00  0.00     0.060 A 
ATOM     33  C   UNL A   1      45.582  22.641  26.690  1.00  0.00     0.016 A 
ATOM     34  C   UNL A   1      44.978  24.056  24.781  1.00  0.00     0.016 A 
ATOM     35  C   UNL A   1      45.594  23.746  27.514  1.00  0.00     0.010 A 
ATOM     36  C   UNL A   1      45.011  25.158  25.597  1.00  0.00     0.010 A 
ATOM     37  C   UNL A   1      45.203  24.969  26.967  1.00  0.00    -0.014 A 
BRANCH  37  38
ATOM     38  C   UNL A   1      44.792  26.068  27.809  1.00  0.00     0.031 A 
ATOM     39  C   UNL A   1      43.403  26.518  27.776  1.00  0.00     0.074 A 
ATOM     40  C   UNL A   1      45.725  26.735  28.519  1.00  0.00     0.049 A 
ATOM     41  N   UNL A   1      43.061  27.756  27.837  1.00  0.00    -0.248 NA
ATOM     42  C   UNL A   1      42.287  25.599  27.595  1.00  0.00     0.031 C 
ATOM     43  C   UNL A   1      45.501  27.747  29.538  1.00  0.00     0.029 A 
ATOM     44  N   UNL A   1      47.101  26.749  28.312  1.00  0.00    -0.354 N 
ATOM     45  C   UNL A   1      41.705  27.778  28.036  1.00  0.00     0.074 A 
ATOM     46  C   UNL A   1      41.251  26.433  27.750  1.00  0.00     0.031 C 
ATOM     47  C   UNL A   1      46.640  28.435  29.726  1.00  0.00     0.029 A 
ATOM     48  C   UNL A   1      47.598  27.987  28.728  1.00  0.00     0.049 A 
ATOM     49  H   UNL A   1      47.635  26.012  27.938  1.00  0.00     0.167 HD
ATOM     50  C   UNL A   1      41.139  28.875  28.609  1.00  0.00     0.037 A 
ATOM     51  C   UNL A   1      48.266  28.812  27.872  1.00  0.00     0.037 A 
ATOM     52  C   UNL A   1      42.153  29.861  28.974  1.00  0.00     0.049 A 
ATOM     53  C   UNL A   1      47.587  30.140  27.654  1.00  0.00     0.074 A 
ATOM     54  C   UNL A   1      42.816  30.102  30.167  1.00  0.00     0.029 A 
ATOM     55  N   UNL A   1      42.866  30.532  27.991  1.00  0.00    -0.354 N 
ATOM     56  N   UNL A   1      46.326  30.369  27.898  1.00  0.00    -0.248 NA
ATOM     57  C   UNL A   1      48.273  31.315  27.137  1.00  0.00     0.031 C 
ATOM     58  C   UNL A   1      43.900  30.972  29.906  1.00  0.00     0.029 A 
ATOM     59  C   UNL A   1      43.899  31.261  28.553  1.00  0.00     0.049 A 
ATOM     60  H   UNL A   1      42.666  30.496  27.028  1.00  0.00     0.167 HD
ATOM     61  C   UNL A   1      46.015  31.673  27.585  1.00  0.00     0.074 A 
ATOM     62  C   UNL A   1      47.280  32.220  27.129  1.00  0.00     0.031 C 
ATOM     63  C   UNL A   1      44.734  32.141  27.738  1.00  0.00     0.037 A 
BRANCH  50  64
ATOM     64  C   UNL A   1      39.735  28.872  29.149  1.00  0.00     0.057 A 
ATOM     65  C   UNL A   1      38.648  29.291  28.359  1.00  0.00     0.134 A 
ATOM     66  C   UNL A   1      39.399  28.493  30.460  1.00  0.00     0.134 A 
ATOM     67  F   UNL A   1      38.789  29.596  27.064  1.00  0.00    -0.206 F 
ATOM     68  C   UNL A   1      37.351  29.430  28.864  1.00  0.00     0.040 A 
ATOM     69  C   UNL A   1      38.113  28.667  30.992  1.00  0.00     0.040 A 
ATOM     70  F   UNL A   1      40.300  27.916  31.269  1.00  0.00    -0.206 F 
ATOM     71  C   UNL A   1      37.085  29.150  30.195  1.00  0.00     0.006 A 
ENDBRANCH  50  64
BRANCH  51  72
ATOM     72  C   UNL A   1      49.077  28.099  26.856  1.00  0.00     0.057 A 
ATOM     73  C   UNL A   1      50.357  27.647  27.221  1.00  0.00     0.134 A 
ATOM     74  C   UNL A   1      48.492  27.525  25.722  1.00  0.00     0.134 A 
ATOM     75  F   UNL A   1      50.970  28.162  28.298  1.00  0.00    -0.206 F 
ATOM     76  C   UNL A   1      50.984  26.594  26.553  1.00  0.00     0.040 A 
ATOM     77  C   UNL A   1      49.110  26.467  25.049  1.00  0.00     0.040 A 
ATOM     78  F   UNL A   1      47.269  27.900  25.321  1.00  0.00    -0.206 F 
ATOM     79  C   UNL A   1      50.343  25.980  25.483  1.00  0.00     0.006 A 
ENDBRANCH  51  72
BRANCH  63  80
ATOM     80  C   UNL A   1      44.108  33.448  27.251  1.00  0.00     0.057 A 
ATOM     81  C   UNL A   1      43.841  33.795  25.920  1.00  0.00     0.134 A 
ATOM     82  C   UNL A   1      43.661  34.424  28.185  1.00  0.00     0.134 A 
ATOM     83  F   UNL A   1      44.154  33.001  24.895  1.00  0.00    -0.206 F 
ATOM     84  C   UNL A   1      43.200  34.991  25.550  1.00  0.00     0.040 A 
ATOM     85  C   UNL A   1      42.983  35.596  27.833  1.00  0.00     0.040 A 
ATOM     86  F   UNL A   1      43.840  34.294  29.507  1.00  0.00    -0.206 F 
ATOM     87  C   UNL A   1      42.752  35.889  26.506  1.00  0.00     0.006 A 
ENDBRANCH  63  80
ENDBRANCH  37  38
ENDBRANCH  30  32
ENDBRANCH  29  30
ENDBRANCH  28  29
ENDBRANCH  27  28
ENDBRANCH  26  27
ENDBRANCH   1  26
TORSDOF 17
ENDMDL
MODEL 2
REMARK VINA RESULT:     -11.8      2.531      3.921
REMARK SMILES Cc1ccc(NC(=O)C[N@H+]2CCC[C@@H](C(=O)OCCOCCOC(=O)c3ccc(-c4c5nc(c(-c6c(F)cccc6F)c6ccc([nH]6)c(-c6c(F)cccc6F)c6nc(c(-c7c(F)cccc7F)c7ccc4[nH]7)C=C6)C=C5)cc3)C2)cc1F
REMARK SMILES IDX 19 1 18 2 17 3 15 4 16 5 14 6 10 7 11 8 80 9 12 11 13 12
REMARK SMILES IDX 9 13 7 14 6 15 8 17 5 18 1 19 2 20 3 21 82 22 4 23 81 24
REMARK SMILES IDX 83 25 20 26 21 27 22 28 23 29 24 30 25 31 26 32 27 33 79 34
REMARK SMILES IDX 28 35 78 36 29 37 30 38 31 39 72 40 32 41 77 42 71 43 73 44
REMARK SMILES IDX 33 45 76 46 70 47 69 48 34 50 60 51 43 52 59 53 44 54 47 55
REMARK SMILES IDX 58 56 74 57 45 58 46 59 57 61 75 62 48 63 35 64 36 65 41 66
REMARK SMILES IDX 37 67 38 68 40 69 42 70 39 71 61 72 62 73 67 74 63 75 64 76
REMARK SMILES IDX 66 77 68 78 65 79 49 80 50 81 55 82 51 83 52 84 54 85 56 86
REMARK SMILES IDX 53 87
REMARK H PARENT 10 10 6 16 73 49 47 60
REMARK Flexibility Score: inf
ROOT
ATOM      1  C   UNL A   1      39.391  21.306  25.929  1.00  0.00     0.202 C 
ENDROOT
BRANCH   1   2
ATOM      2  C   UNL A   1      38.183  22.218  25.740  1.00  0.00     0.261 C 
BRANCH   2   3
ATOM      3  O   UNL A   1      36.958  21.495  25.607  1.00  0.00    -0.463 OA
BRANCH   3   4
ATOM      4  C   UNL A   1      35.842  22.216  25.908  1.00  0.00     0.314 C 
ATOM      5  O   UNL A   1      35.812  23.419  26.122  1.00  0.00    -0.252 OA
BRANCH   4   6
ATOM      6  C   UNL A   1      34.643  21.309  25.992  1.00  0.00     0.154 C 
ATOM      7  N   UNL A   1      32.188  21.595  25.687  1.00  0.00    -0.326 N 
ATOM      8  C   UNL A   1      32.206  20.598  24.599  1.00  0.00     0.262 C 
ATOM      9  C   UNL A   1      33.486  22.259  25.742  1.00  0.00     0.278 C 
ATOM     10  H   UNL A   1      32.041  21.136  26.586  1.00  0.00     0.348 HD
ATOM     11  C   UNL A   1      33.304  19.547  24.820  1.00  0.00     0.062 C 
ATOM     12  C   UNL A   1      34.685  20.181  24.971  1.00  0.00     0.027 C 
BRANCH   7  13
ATOM     13  C   UNL A   1      31.033  22.533  25.540  1.00  0.00     0.363 C 
BRANCH  13  14
ATOM     14  C   UNL A   1      30.677  23.404  26.759  1.00  0.00     0.279 C 
ATOM     15  N   UNL A   1      30.933  24.748  26.855  1.00  0.00    -0.321 N 
ATOM     16  H   UNL A   1      30.661  25.142  27.715  1.00  0.00     0.170 HD
ATOM     17  O   UNL A   1      30.059  22.896  27.706  1.00  0.00    -0.268 OA
BRANCH  15  18
ATOM     18  C   UNL A   1      31.508  25.670  25.963  1.00  0.00     0.044 A 
ATOM     19  C   UNL A   1      33.482  28.878  23.861  1.00  0.00     0.047 C 
ATOM     20  C   UNL A   1      32.829  27.727  24.559  1.00  0.00    -0.015 A 
ATOM     21  C   UNL A   1      33.566  26.798  25.295  1.00  0.00     0.008 A 
ATOM     22  C   UNL A   1      31.445  27.565  24.478  1.00  0.00     0.128 A 
ATOM     23  C   UNL A   1      32.911  25.765  25.976  1.00  0.00     0.026 A 
ATOM     24  C   UNL A   1      30.785  26.550  25.168  1.00  0.00     0.065 A 
ATOM     25  F   UNL A   1      30.720  28.421  23.745  1.00  0.00    -0.207 F 
ENDBRANCH  15  18
ENDBRANCH  13  14
ENDBRANCH   7  13
ENDBRANCH   4   6
ENDBRANCH   3   4
ENDBRANCH   2   3
ENDBRANCH   1   2
BRANCH   1  26
ATOM     26  O   UNL A   1      39.984  21.158  27.217  1.00  0.00    -0.374 OA
BRANCH  26  27
ATOM     27  C   UNL A   1      41.348  20.797  27.388  1.00  0.00     0.202 C 
BRANCH  27  28
ATOM     28  C   UNL A   1      42.450  21.597  26.704  1.00  0.00     0.261 C 
BRANCH  28  29
ATOM     29  O   UNL A   1      42.518  22.954  27.115  1.00  0.00    -0.460 OA
BRANCH  29  30
ATOM     30  C   UNL A   1      42.263  23.805  26.096  1.00  0.00     0.338 C 
ATOM     31  O   UNL A   1      42.850  23.870  25.029  1.00  0.00    -0.246 OA
BRANCH  30  32
ATOM     32  C   UNL A   1      41.244  24.780  26.489  1.00  0.00     0.060 A 
ATOM     33  C   UNL A   1      41.418  26.078  25.995  1.00  0.00     0.016 A 
ATOM     34  C   UNL A   1      40.456  24.504  27.609  1.00  0.00     0.016 A 
ATOM     35  C   UNL A   1      41.034  27.137  26.789  1.00  0.00     0.010 A 
ATOM     36  C   UNL A   1      40.055  25.559  28.388  1.00  0.00     0.010 A 
ATOM     37  C   UNL A   1      40.452  26.847  28.023  1.00  0.00    -0.014 A 
BRANCH  37  38
ATOM     38  C   UNL A   1      40.396  27.834  29.075  1.00  0.00     0.031 A 
ATOM     39  C   UNL A   1      39.434  28.928  28.984  1.00  0.00     0.074 A 
ATOM     40  C   UNL A   1      41.317  27.796  30.061  1.00  0.00     0.049 A 
ATOM     41  N   UNL A   1      39.700  30.135  29.342  1.00  0.00    -0.248 NA
ATOM     42  C   UNL A   1      38.108  28.757  28.406  1.00  0.00     0.031 C 
ATOM     43  C   UNL A   1      41.334  28.583  31.283  1.00  0.00     0.029 A 
ATOM     44  N   UNL A   1      42.544  27.141  30.053  1.00  0.00    -0.354 N 
ATOM     45  C   UNL A   1      38.508  30.811  29.355  1.00  0.00     0.074 A 
ATOM     46  C   UNL A   1      37.574  29.961  28.647  1.00  0.00     0.031 C 
ATOM     47  C   UNL A   1      42.571  28.547  31.806  1.00  0.00     0.029 A 
ATOM     48  C   UNL A   1      43.433  27.856  30.860  1.00  0.00     0.049 A 
ATOM     49  H   UNL A   1      42.753  26.312  29.563  1.00  0.00     0.167 HD
ATOM     50  C   UNL A   1      38.389  31.923  30.130  1.00  0.00     0.037 A 
ATOM     51  C   UNL A   1      44.600  28.359  30.365  1.00  0.00     0.037 A 
ATOM     52  C   UNL A   1      39.612  32.171  30.888  1.00  0.00     0.049 A 
ATOM     53  C   UNL A   1      44.693  29.862  30.438  1.00  0.00     0.074 A 
ATOM     54  C   UNL A   1      39.983  31.827  32.178  1.00  0.00     0.029 A 
ATOM     55  N   UNL A   1      40.779  32.544  30.236  1.00  0.00    -0.354 N 
ATOM     56  N   UNL A   1      43.666  30.655  30.565  1.00  0.00    -0.248 NA
ATOM     57  C   UNL A   1      45.950  30.590  30.365  1.00  0.00     0.031 C 
ATOM     58  C   UNL A   1      41.372  32.051  32.319  1.00  0.00     0.029 A 
ATOM     59  C   UNL A   1      41.850  32.531  31.112  1.00  0.00     0.049 A 
ATOM     60  H   UNL A   1      40.838  32.785  29.283  1.00  0.00     0.167 HD
ATOM     61  C   UNL A   1      44.084  31.966  30.590  1.00  0.00     0.074 A 
ATOM     62  C   UNL A   1      45.527  31.861  30.478  1.00  0.00     0.031 C 
ATOM     63  C   UNL A   1      43.173  32.988  30.694  1.00  0.00     0.037 A 
BRANCH  50  64
ATOM     64  C   UNL A   1      37.057  32.544  30.455  1.00  0.00     0.057 A 
ATOM     65  C   UNL A   1      36.237  32.020  31.472  1.00  0.00     0.134 A 
ATOM     66  C   UNL A   1      36.517  33.646  29.773  1.00  0.00     0.134 A 
ATOM     67  F   UNL A   1      36.645  31.029  32.273  1.00  0.00    -0.206 F 
ATOM     68  C   UNL A   1      34.940  32.482  31.715  1.00  0.00     0.040 A 
ATOM     69  C   UNL A   1      35.204  34.093  29.976  1.00  0.00     0.040 A 
ATOM     70  F   UNL A   1      37.252  34.351  28.899  1.00  0.00    -0.206 F 
ATOM     71  C   UNL A   1      34.404  33.501  30.944  1.00  0.00     0.006 A 
ENDBRANCH  50  64
BRANCH  51  72
ATOM     72  C   UNL A   1      45.218  27.521  29.309  1.00  0.00     0.057 A 
ATOM     73  C   UNL A   1      45.992  26.416  29.700  1.00  0.00     0.134 A 
ATOM     74  C   UNL A   1      44.753  27.545  27.990  1.00  0.00     0.134 A 
ATOM     75  F   UNL A   1      46.468  26.338  30.953  1.00  0.00    -0.206 F 
ATOM     76  C   UNL A   1      46.205  25.329  28.852  1.00  0.00     0.040 A 
ATOM     77  C   UNL A   1      44.957  26.460  27.133  1.00  0.00     0.040 A 
ATOM     78  F   UNL A   1      44.001  28.564  27.549  1.00  0.00    -0.206 F 
ATOM     79  C   UNL A   1      45.657  25.336  27.575  1.00  0.00     0.006 A 
ENDBRANCH  51  72
BRANCH  63  80
ATOM     80  C   UNL A   1      43.371  34.493  30.511  1.00  0.00     0.057 A 
ATOM     81  C   UNL A   1      43.570  35.433  31.530  1.00  0.00     0.134 A 
ATOM     82  C   UNL A   1      43.441  35.057  29.206  1.00  0.00     0.134 A 
ATOM     83  F   UNL A   1      43.573  35.102  32.822  1.00  0.00    -0.206 F 
ATOM     84  C   UNL A   1      43.813  36.796  31.283  1.00  0.00     0.040 A 
ATOM     85  C   UNL A   1      43.724  36.402  28.946  1.00  0.00     0.040 A 
ATOM     86  F   UNL A   1      43.255  34.332  28.095  1.00  0.00    -0.206 F 
ATOM     87  C   UNL A   1      43.908  37.284  29.989  1.00  0.00     0.006 A 
ENDBRANCH  63  80
ENDBRANCH  37  38
ENDBRANCH  30  32
ENDBRANCH  29  30
ENDBRANCH  28  29
ENDBRANCH  27  28
ENDBRANCH  26  27
ENDBRANCH   1  26
TORSDOF 17
ENDMDL
MODEL 3
REMARK VINA RESULT:     -11.6      5.211     10.199
REMARK SMILES Cc1ccc(NC(=O)C[N@H+]2CCC[C@@H](C(=O)OCCOCCOC(=O)c3ccc(-c4c5nc(c(-c6c(F)cccc6F)c6ccc([nH]6)c(-c6c(F)cccc6F)c6nc(c(-c7c(F)cccc7F)c7ccc4[nH]7)C=C6)C=C5)cc3)C2)cc1F
REMARK SMILES IDX 19 1 18 2 17 3 15 4 16 5 14 6 10 7 11 8 80 9 12 11 13 12
REMARK SMILES IDX 9 13 7 14 6 15 8 17 5 18 1 19 2 20 3 21 82 22 4 23 81 24
REMARK SMILES IDX 83 25 20 26 21 27 22 28 23 29 24 30 25 31 26 32 27 33 79 34
REMARK SMILES IDX 28 35 78 36 29 37 30 38 31 39 72 40 32 41 77 42 71 43 73 44
REMARK SMILES IDX 33 45 76 46 70 47 69 48 34 50 60 51 43 52 59 53 44 54 47 55
REMARK SMILES IDX 58 56 74 57 45 58 46 59 57 61 75 62 48 63 35 64 36 65 41 66
REMARK SMILES IDX 37 67 38 68 40 69 42 70 39 71 61 72 62 73 67 74 63 75 64 76
REMARK SMILES IDX 66 77 68 78 65 79 49 80 50 81 55 82 51 83 52 84 54 85 56 86
REMARK SMILES IDX 53 87
REMARK H PARENT 10 10 6 16 73 49 47 60
REMARK Flexibility Score: inf
ROOT
ATOM      1  C   UNL A   1      34.916  31.353  27.753  1.00  0.00     0.202 C 
ENDROOT
BRANCH   1   2
ATOM      2  C   UNL A   1      33.648  30.534  27.537  1.00  0.00     0.261 C 
BRANCH   2   3
ATOM      3  O   UNL A   1      33.283  30.432  26.159  1.00  0.00    -0.463 OA
BRANCH   3   4
ATOM      4  C   UNL A   1      33.206  29.156  25.689  1.00  0.00     0.314 C 
ATOM      5  O   UNL A   1      33.754  28.183  26.187  1.00  0.00    -0.252 OA
BRANCH   4   6
ATOM      6  C   UNL A   1      32.384  29.113  24.428  1.00  0.00     0.154 C 
ATOM      7  N   UNL A   1      31.548  27.311  22.926  1.00  0.00    -0.326 N 
ATOM      8  C   UNL A   1      30.159  27.735  23.189  1.00  0.00     0.262 C 
ATOM      9  C   UNL A   1      32.370  27.634  24.087  1.00  0.00     0.278 C 
ATOM     10  H   UNL A   1      31.930  27.822  22.130  1.00  0.00     0.348 HD
ATOM     11  C   UNL A   1      30.076  29.243  23.466  1.00  0.00     0.062 C 
ATOM     12  C   UNL A   1      30.979  29.667  24.621  1.00  0.00     0.027 C 
BRANCH   7  13
ATOM     13  C   UNL A   1      31.607  25.873  22.523  1.00  0.00     0.363 C 
BRANCH  13  14
ATOM     14  C   UNL A   1      32.933  25.363  21.930  1.00  0.00     0.279 C 
ATOM     15  N   UNL A   1      33.753  24.446  22.535  1.00  0.00    -0.321 N 
ATOM     16  H   UNL A   1      34.574  24.253  22.027  1.00  0.00     0.170 HD
ATOM     17  O   UNL A   1      33.276  25.742  20.800  1.00  0.00    -0.268 OA
BRANCH  15  18
ATOM     18  C   UNL A   1      33.648  23.730  23.740  1.00  0.00     0.044 A 
ATOM     19  C   UNL A   1      34.072  21.700  27.522  1.00  0.00     0.047 C 
ATOM     20  C   UNL A   1      33.879  22.433  26.232  1.00  0.00    -0.015 A 
ATOM     21  C   UNL A   1      33.934  23.826  26.161  1.00  0.00     0.008 A 
ATOM     22  C   UNL A   1      33.634  21.716  25.060  1.00  0.00     0.128 A 
ATOM     23  C   UNL A   1      33.800  24.470  24.925  1.00  0.00     0.026 A 
ATOM     24  C   UNL A   1      33.518  22.349  23.825  1.00  0.00     0.065 A 
ATOM     25  F   UNL A   1      33.538  20.380  25.109  1.00  0.00    -0.207 F 
ENDBRANCH  15  18
ENDBRANCH  13  14
ENDBRANCH   7  13
ENDBRANCH   4   6
ENDBRANCH   3   4
ENDBRANCH   2   3
ENDBRANCH   1   2
BRANCH   1  26
ATOM     26  O   UNL A   1      34.890  32.770  27.604  1.00  0.00    -0.374 OA
BRANCH  26  27
ATOM     27  C   UNL A   1      33.824  33.568  28.103  1.00  0.00     0.202 C 
BRANCH  27  28
ATOM     28  C   UNL A   1      33.914  34.196  29.489  1.00  0.00     0.261 C 
BRANCH  28  29
ATOM     29  O   UNL A   1      34.188  33.267  30.526  1.00  0.00    -0.460 OA
BRANCH  29  30
ATOM     30  C   UNL A   1      34.206  33.857  31.742  1.00  0.00     0.338 C 
ATOM     31  O   UNL A   1      33.322  34.529  32.247  1.00  0.00    -0.246 OA
BRANCH  30  32
ATOM     32  C   UNL A   1      35.525  33.708  32.361  1.00  0.00     0.060 A 
ATOM     33  C   UNL A   1      36.527  34.555  31.873  1.00  0.00     0.016 A 
ATOM     34  C   UNL A   1      35.811  32.522  33.041  1.00  0.00     0.016 A 
ATOM     35  C   UNL A   1      37.818  34.074  31.814  1.00  0.00     0.010 A 
ATOM     36  C   UNL A   1      37.099  32.054  33.001  1.00  0.00     0.010 A 
ATOM     37  C   UNL A   1      38.053  32.783  32.288  1.00  0.00    -0.014 A 
BRANCH  37  38
ATOM     38  C   UNL A   1      39.236  32.049  31.906  1.00  0.00     0.031 A 
ATOM     39  C   UNL A   1      39.110  30.882  31.039  1.00  0.00     0.074 A 
ATOM     40  C   UNL A   1      40.422  32.385  32.456  1.00  0.00     0.049 A 
ATOM     41  N   UNL A   1      39.808  29.811  31.190  1.00  0.00    -0.248 NA
ATOM     42  C   UNL A   1      38.124  30.804  29.970  1.00  0.00     0.031 C 
ATOM     43  C   UNL A   1      41.738  31.889  32.087  1.00  0.00     0.029 A 
ATOM     44  N   UNL A   1      40.643  33.128  33.612  1.00  0.00    -0.354 N 
ATOM     45  C   UNL A   1      39.607  29.052  30.067  1.00  0.00     0.074 A 
ATOM     46  C   UNL A   1      38.463  29.640  29.402  1.00  0.00     0.031 C 
ATOM     47  C   UNL A   1      42.597  32.149  33.087  1.00  0.00     0.029 A 
ATOM     48  C   UNL A   1      41.832  32.688  34.200  1.00  0.00     0.049 A 
ATOM     49  H   UNL A   1      40.062  33.843  33.958  1.00  0.00     0.167 HD
ATOM     50  C   UNL A   1      40.546  28.131  29.716  1.00  0.00     0.037 A 
ATOM     51  C   UNL A   1      41.860  32.194  35.470  1.00  0.00     0.037 A 
ATOM     52  C   UNL A   1      41.684  28.164  30.631  1.00  0.00     0.049 A 
ATOM     53  C   UNL A   1      42.311  30.758  35.553  1.00  0.00     0.074 A 
ATOM     54  C   UNL A   1      42.906  28.815  30.559  1.00  0.00     0.029 A 
ATOM     55  N   UNL A   1      41.537  27.762  31.951  1.00  0.00    -0.354 N 
ATOM     56  N   UNL A   1      42.295  29.924  34.551  1.00  0.00    -0.248 NA
ATOM     57  C   UNL A   1      42.809  30.145  36.776  1.00  0.00     0.031 C 
ATOM     58  C   UNL A   1      43.522  28.751  31.830  1.00  0.00     0.029 A 
ATOM     59  C   UNL A   1      42.674  28.061  32.679  1.00  0.00     0.049 A 
ATOM     60  H   UNL A   1      40.735  27.324  32.318  1.00  0.00     0.167 HD
ATOM     61  C   UNL A   1      42.758  28.692  34.955  1.00  0.00     0.074 A 
ATOM     62  C   UNL A   1      43.081  28.897  36.355  1.00  0.00     0.031 C 
ATOM     63  C   UNL A   1      42.811  27.642  34.073  1.00  0.00     0.037 A 
BRANCH  50  64
ATOM     64  C   UNL A   1      40.576  27.483  28.359  1.00  0.00     0.057 A 
ATOM     65  C   UNL A   1      39.953  26.242  28.129  1.00  0.00     0.134 A 
ATOM     66  C   UNL A   1      41.236  28.026  27.243  1.00  0.00     0.134 A 
ATOM     67  F   UNL A   1      39.208  25.639  29.063  1.00  0.00    -0.206 F 
ATOM     68  C   UNL A   1      40.071  25.545  26.923  1.00  0.00     0.040 A 
ATOM     69  C   UNL A   1      41.398  27.321  26.043  1.00  0.00     0.040 A 
ATOM     70  F   UNL A   1      41.727  29.274  27.267  1.00  0.00    -0.206 F 
ATOM     71  C   UNL A   1      40.824  26.067  25.884  1.00  0.00     0.006 A 
ENDBRANCH  50  64
BRANCH  51  72
ATOM     72  C   UNL A   1      40.883  32.830  36.387  1.00  0.00     0.057 A 
ATOM     73  C   UNL A   1      41.222  34.061  36.974  1.00  0.00     0.134 A 
ATOM     74  C   UNL A   1      39.531  32.472  36.379  1.00  0.00     0.134 A 
ATOM     75  F   UNL A   1      42.504  34.457  37.013  1.00  0.00    -0.206 F 
ATOM     76  C   UNL A   1      40.250  34.949  37.436  1.00  0.00     0.040 A 
ATOM     77  C   UNL A   1      38.549  33.356  36.836  1.00  0.00     0.040 A 
ATOM     78  F   UNL A   1      39.134  31.316  35.828  1.00  0.00    -0.206 F 
ATOM     79  C   UNL A   1      38.906  34.608  37.336  1.00  0.00     0.006 A 
ENDBRANCH  51  72
BRANCH  63  80
ATOM     80  C   UNL A   1      43.060  26.157  34.337  1.00  0.00     0.057 A 
ATOM     81  C   UNL A   1      44.199  25.429  33.971  1.00  0.00     0.134 A 
ATOM     82  C   UNL A   1      42.121  25.392  35.085  1.00  0.00     0.134 A 
ATOM     83  F   UNL A   1      45.211  25.972  33.292  1.00  0.00    -0.206 F 
ATOM     84  C   UNL A   1      44.389  24.077  34.308  1.00  0.00     0.040 A 
ATOM     85  C   UNL A   1      42.318  24.059  35.463  1.00  0.00     0.040 A 
ATOM     86  F   UNL A   1      40.955  25.895  35.511  1.00  0.00    -0.206 F 
ATOM     87  C   UNL A   1      43.458  23.391  35.071  1.00  0.00     0.006 A 
ENDBRANCH  63  80
ENDBRANCH  37  38
ENDBRANCH  30  32
ENDBRANCH  29  30
ENDBRANCH  28  29
ENDBRANCH  27  28
ENDBRANCH  26  27
ENDBRANCH   1  26
TORSDOF 17
ENDMDL
