MODEL 1
REMARK VINA RESULT:     -10.8      0.000      0.000
REMARK SMILES C[C@H]1[C@H](C(=O)OCCOCCOC(=O)c2ccc(-c3c4nc(c(-c5c(F)cccc5F)c5ccc([nH]5)c(-c5c(F)cccc5F)c5nc(c(-c6c(F)cccc6F)c6ccc3[nH]6)C=C5)C=C4)cc2)CC[N@@H+]1Cc1cnn(-c2ccccc2)c1
REMARK SMILES IDX 8 1 7 2 6 3 4 4 5 5 3 6 1 7 2 8 71 9 69 10 70 11 72 13 73 14
REMARK SMILES IDX 74 15 83 16 75 17 76 18 77 19 78 20 82 21 79 22 81 23 80 24
REMARK SMILES IDX 9 25 10 26 11 27 12 28 13 29 14 30 15 31 16 32 68 33 17 34
REMARK SMILES IDX 67 35 18 36 19 37 20 38 61 39 21 40 66 41 60 42 62 43 22 44
REMARK SMILES IDX 65 45 59 46 58 47 23 49 49 50 32 51 48 52 33 53 36 54 47 55
REMARK SMILES IDX 63 56 34 57 35 58 46 60 64 61 37 62 24 63 25 64 30 65 26 66
REMARK SMILES IDX 27 67 29 68 31 69 28 70 50 71 51 72 56 73 52 74 53 75 55 76
REMARK SMILES IDX 57 77 54 78 38 79 39 80 44 81 40 82 41 83 43 84 45 85 42 86
REMARK H PARENT 71 12 62 48 36 59
REMARK Flexibility Score: inf
ROOT
ATOM      1  C   UNL A   1      38.399  22.794  26.101  1.00  0.00     0.202 C 
ENDROOT
BRANCH   1   2
ATOM      2  C   UNL A   1      37.560  24.076  26.175  1.00  0.00     0.261 C 
BRANCH   2   3
ATOM      3  O   UNL A   1      36.602  24.097  25.097  1.00  0.00    -0.463 OA
BRANCH   3   4
ATOM      4  C   UNL A   1      35.312  23.830  25.420  1.00  0.00     0.315 C 
ATOM      5  O   UNL A   1      34.921  22.782  25.922  1.00  0.00    -0.252 OA
BRANCH   4   6
ATOM      6  C   UNL A   1      34.367  24.964  25.083  1.00  0.00     0.162 C 
ATOM      7  C   UNL A   1      34.022  25.858  22.738  1.00  0.00     0.076 C 
ATOM      8  C   UNL A   1      33.558  24.831  23.779  1.00  0.00     0.195 C 
ATOM      9  N   UNL A   1      32.163  25.151  24.118  1.00  0.00    -0.328 N 
ATOM     10  C   UNL A   1      33.335  25.141  26.183  1.00  0.00     0.083 C 
ATOM     11  C   UNL A   1      32.128  25.707  25.466  1.00  0.00     0.263 C 
ATOM     12  H   UNL A   1      31.835  25.871  23.475  1.00  0.00     0.348 HD
BRANCH   9  13
ATOM     13  C   UNL A   1      31.176  24.114  23.816  1.00  0.00     0.302 C 
BRANCH  13  14
ATOM     14  C   UNL A   1      31.554  22.733  24.235  1.00  0.00     0.045 A 
ATOM     15  C   UNL A   1      31.281  22.093  25.461  1.00  0.00     0.145 A 
ATOM     16  C   UNL A   1      32.169  21.743  23.493  1.00  0.00     0.124 A 
ATOM     17  N   UNL A   1      31.670  20.819  25.488  1.00  0.00    -0.176 NA
ATOM     18  N   UNL A   1      32.268  20.617  24.288  1.00  0.00    -0.240 N 
BRANCH  18  19
ATOM     19  C   UNL A   1      32.908  19.382  23.991  1.00  0.00     0.065 A 
ATOM     20  C   UNL A   1      34.114  19.049  24.624  1.00  0.00     0.028 A 
ATOM     21  C   UNL A   1      32.361  18.493  23.061  1.00  0.00     0.028 A 
ATOM     22  C   UNL A   1      34.754  17.841  24.327  1.00  0.00     0.002 A 
ATOM     23  C   UNL A   1      33.027  17.308  22.735  1.00  0.00     0.002 A 
ATOM     24  C   UNL A   1      34.214  16.975  23.378  1.00  0.00     0.000 A 
ENDBRANCH  18  19
ENDBRANCH  13  14
ENDBRANCH   9  13
ENDBRANCH   4   6
ENDBRANCH   3   4
ENDBRANCH   2   3
ENDBRANCH   1   2
BRANCH   1  25
ATOM     25  O   UNL A   1      38.189  21.995  24.935  1.00  0.00    -0.374 OA
BRANCH  25  26
ATOM     26  C   UNL A   1      37.837  20.632  25.159  1.00  0.00     0.202 C 
BRANCH  26  27
ATOM     27  C   UNL A   1      38.984  19.618  25.076  1.00  0.00     0.261 C 
BRANCH  27  28
ATOM     28  O   UNL A   1      39.827  19.618  26.244  1.00  0.00    -0.460 OA
BRANCH  28  29
ATOM     29  C   UNL A   1      41.152  19.747  25.976  1.00  0.00     0.338 C 
ATOM     30  O   UNL A   1      41.838  18.989  25.307  1.00  0.00    -0.246 OA
BRANCH  29  31
ATOM     31  C   UNL A   1      41.685  21.023  26.504  1.00  0.00     0.060 A 
ATOM     32  C   UNL A   1      41.676  21.186  27.894  1.00  0.00     0.016 A 
ATOM     33  C   UNL A   1      42.146  22.063  25.685  1.00  0.00     0.016 A 
ATOM     34  C   UNL A   1      42.102  22.385  28.465  1.00  0.00     0.010 A 
ATOM     35  C   UNL A   1      42.569  23.273  26.262  1.00  0.00     0.010 A 
ATOM     36  C   UNL A   1      42.528  23.447  27.655  1.00  0.00    -0.014 A 
BRANCH  36  37
ATOM     37  C   UNL A   1      42.724  24.774  28.299  1.00  0.00     0.031 A 
ATOM     38  C   UNL A   1      44.127  25.208  28.603  1.00  0.00     0.074 A 
ATOM     39  C   UNL A   1      41.706  25.623  28.522  1.00  0.00     0.049 A 
ATOM     40  N   UNL A   1      44.571  26.379  28.975  1.00  0.00    -0.248 NA
ATOM     41  C   UNL A   1      45.165  24.173  28.475  1.00  0.00     0.031 C 
ATOM     42  C   UNL A   1      40.301  25.310  28.316  1.00  0.00     0.029 A 
ATOM     43  N   UNL A   1      41.696  26.931  28.943  1.00  0.00    -0.354 N 
ATOM     44  C   UNL A   1      45.943  26.227  29.118  1.00  0.00     0.074 A 
ATOM     45  C   UNL A   1      46.252  24.845  28.818  1.00  0.00     0.031 C 
ATOM     46  C   UNL A   1      39.564  26.411  28.539  1.00  0.00     0.029 A 
ATOM     47  C   UNL A   1      40.444  27.503  28.937  1.00  0.00     0.049 A 
ATOM     48  H   UNL A   1      42.508  27.414  29.223  1.00  0.00     0.167 HD
ATOM     49  C   UNL A   1      46.862  27.153  29.475  1.00  0.00     0.037 A 
ATOM     50  C   UNL A   1      40.056  28.766  29.208  1.00  0.00     0.037 A 
ATOM     51  C   UNL A   1      46.548  28.511  29.830  1.00  0.00     0.049 A 
ATOM     52  C   UNL A   1      41.098  29.776  29.613  1.00  0.00     0.074 A 
ATOM     53  C   UNL A   1      47.407  29.517  30.238  1.00  0.00     0.029 A 
ATOM     54  N   UNL A   1      45.270  29.049  29.841  1.00  0.00    -0.354 N 
ATOM     55  N   UNL A   1      42.400  29.638  29.694  1.00  0.00    -0.248 NA
ATOM     56  C   UNL A   1      40.615  31.117  29.979  1.00  0.00     0.031 C 
ATOM     57  C   UNL A   1      46.641  30.648  30.543  1.00  0.00     0.029 A 
ATOM     58  C   UNL A   1      45.312  30.366  30.268  1.00  0.00     0.049 A 
ATOM     59  H   UNL A   1      44.452  28.565  29.584  1.00  0.00     0.167 HD
ATOM     60  C   UNL A   1      42.891  30.871  30.108  1.00  0.00     0.074 A 
ATOM     61  C   UNL A   1      41.750  31.756  30.225  1.00  0.00     0.031 C 
ATOM     62  C   UNL A   1      44.168  31.234  30.380  1.00  0.00     0.037 A 
BRANCH  49  63
ATOM     63  C   UNL A   1      48.285  26.691  29.545  1.00  0.00     0.057 A 
ATOM     64  C   UNL A   1      48.810  26.090  30.697  1.00  0.00     0.134 A 
ATOM     65  C   UNL A   1      49.150  26.882  28.461  1.00  0.00     0.134 A 
ATOM     66  F   UNL A   1      48.039  25.906  31.779  1.00  0.00    -0.206 F 
ATOM     67  C   UNL A   1      50.155  25.724  30.779  1.00  0.00     0.040 A 
ATOM     68  C   UNL A   1      50.490  26.495  28.522  1.00  0.00     0.040 A 
ATOM     69  F   UNL A   1      48.711  27.458  27.331  1.00  0.00    -0.206 F 
ATOM     70  C   UNL A   1      50.997  25.924  29.687  1.00  0.00     0.006 A 
ENDBRANCH  49  63
BRANCH  50  71
ATOM     71  C   UNL A   1      38.626  29.168  29.103  1.00  0.00     0.057 A 
ATOM     72  C   UNL A   1      38.093  29.647  27.899  1.00  0.00     0.134 A 
ATOM     73  C   UNL A   1      37.770  29.137  30.210  1.00  0.00     0.134 A 
ATOM     74  F   UNL A   1      38.863  29.728  26.804  1.00  0.00    -0.206 F 
ATOM     75  C   UNL A   1      36.776  30.106  27.807  1.00  0.00     0.040 A 
ATOM     76  C   UNL A   1      36.443  29.562  30.126  1.00  0.00     0.040 A 
ATOM     77  F   UNL A   1      38.213  28.694  31.396  1.00  0.00    -0.206 F 
ATOM     78  C   UNL A   1      35.945  30.059  28.923  1.00  0.00     0.006 A 
ENDBRANCH  50  71
BRANCH  62  79
ATOM     79  C   UNL A   1      44.400  32.655  30.809  1.00  0.00     0.057 A 
ATOM     80  C   UNL A   1      44.401  33.034  32.159  1.00  0.00     0.134 A 
ATOM     81  C   UNL A   1      44.655  33.653  29.859  1.00  0.00     0.134 A 
ATOM     82  F   UNL A   1      44.153  32.129  33.119  1.00  0.00    -0.206 F 
ATOM     83  C   UNL A   1      44.614  34.358  32.545  1.00  0.00     0.040 A 
ATOM     84  C   UNL A   1      44.899  34.974  30.236  1.00  0.00     0.040 A 
ATOM     85  F   UNL A   1      44.679  33.358  28.551  1.00  0.00    -0.206 F 
ATOM     86  C   UNL A   1      44.871  35.332  31.582  1.00  0.00     0.006 A 
ENDBRANCH  62  79
ENDBRANCH  36  37
ENDBRANCH  29  31
ENDBRANCH  28  29
ENDBRANCH  27  28
ENDBRANCH  26  27
ENDBRANCH  25  26
ENDBRANCH   1  25
TORSDOF 17
ENDMDL
MODEL 2
REMARK VINA RESULT:     -10.6      3.906      8.450
REMARK SMILES C[C@H]1[C@H](C(=O)OCCOCCOC(=O)c2ccc(-c3c4nc(c(-c5c(F)cccc5F)c5ccc([nH]5)c(-c5c(F)cccc5F)c5nc(c(-c6c(F)cccc6F)c6ccc3[nH]6)C=C5)C=C4)cc2)CC[N@@H+]1Cc1cnn(-c2ccccc2)c1
REMARK SMILES IDX 8 1 7 2 6 3 4 4 5 5 3 6 1 7 2 8 71 9 69 10 70 11 72 13 73 14
REMARK SMILES IDX 74 15 83 16 75 17 76 18 77 19 78 20 82 21 79 22 81 23 80 24
REMARK SMILES IDX 9 25 10 26 11 27 12 28 13 29 14 30 15 31 16 32 68 33 17 34
REMARK SMILES IDX 67 35 18 36 19 37 20 38 61 39 21 40 66 41 60 42 62 43 22 44
REMARK SMILES IDX 65 45 59 46 58 47 23 49 49 50 32 51 48 52 33 53 36 54 47 55
REMARK SMILES IDX 63 56 34 57 35 58 46 60 64 61 37 62 24 63 25 64 30 65 26 66
REMARK SMILES IDX 27 67 29 68 31 69 28 70 50 71 51 72 56 73 52 74 53 75 55 76
REMARK SMILES IDX 57 77 54 78 38 79 39 80 44 81 40 82 41 83 43 84 45 85 42 86
REMARK H PARENT 71 12 62 48 36 59
REMARK Flexibility Score: inf
ROOT
ATOM      1  C   UNL A   1      31.393  27.775  26.472  1.00  0.00     0.202 C 
ENDROOT
BRANCH   1   2
ATOM      2  C   UNL A   1      32.849  27.305  26.590  1.00  0.00     0.261 C 
BRANCH   2   3
ATOM      3  O   UNL A   1      33.033  26.088  25.839  1.00  0.00    -0.463 OA
BRANCH   3   4
ATOM      4  C   UNL A   1      33.252  26.219  24.507  1.00  0.00     0.315 C 
ATOM      5  O   UNL A   1      34.235  26.759  24.011  1.00  0.00    -0.252 OA
BRANCH   4   6
ATOM      6  C   UNL A   1      32.139  25.637  23.661  1.00  0.00     0.162 C 
ATOM      7  C   UNL A   1      32.163  25.612  21.127  1.00  0.00     0.076 C 
ATOM      8  C   UNL A   1      32.559  24.854  22.402  1.00  0.00     0.195 C 
ATOM      9  N   UNL A   1      31.799  23.596  22.418  1.00  0.00    -0.328 N 
ATOM     10  C   UNL A   1      31.303  24.668  24.478  1.00  0.00     0.083 C 
ATOM     11  C   UNL A   1      30.777  23.684  23.454  1.00  0.00     0.263 C 
ATOM     12  H   UNL A   1      31.325  23.497  21.520  1.00  0.00     0.348 HD
BRANCH   9  13
ATOM     13  C   UNL A   1      32.592  22.367  22.389  1.00  0.00     0.302 C 
BRANCH  13  14
ATOM     14  C   UNL A   1      33.554  22.202  23.517  1.00  0.00     0.045 A 
ATOM     15  C   UNL A   1      33.369  21.487  24.718  1.00  0.00     0.145 A 
ATOM     16  C   UNL A   1      34.865  22.628  23.604  1.00  0.00     0.124 A 
ATOM     17  N   UNL A   1      34.459  21.451  25.483  1.00  0.00    -0.176 NA
ATOM     18  N   UNL A   1      35.369  22.202  24.817  1.00  0.00    -0.240 N 
BRANCH  18  19
ATOM     19  C   UNL A   1      36.642  22.481  25.389  1.00  0.00     0.065 A 
ATOM     20  C   UNL A   1      36.898  23.741  25.949  1.00  0.00     0.028 A 
ATOM     21  C   UNL A   1      37.657  21.519  25.389  1.00  0.00     0.028 A 
ATOM     22  C   UNL A   1      38.151  24.024  26.502  1.00  0.00     0.002 A 
ATOM     23  C   UNL A   1      38.922  21.822  25.904  1.00  0.00     0.002 A 
ATOM     24  C   UNL A   1      39.164  23.067  26.472  1.00  0.00     0.000 A 
ENDBRANCH  18  19
ENDBRANCH  13  14
ENDBRANCH   9  13
ENDBRANCH   4   6
ENDBRANCH   3   4
ENDBRANCH   2   3
ENDBRANCH   1   2
BRANCH   1  25
ATOM     25  O   UNL A   1      31.137  28.702  25.415  1.00  0.00    -0.374 OA
BRANCH  25  26
ATOM     26  C   UNL A   1      32.057  29.783  25.287  1.00  0.00     0.202 C 
BRANCH  26  27
ATOM     27  C   UNL A   1      31.741  31.038  26.108  1.00  0.00     0.261 C 
BRANCH  27  28
ATOM     28  O   UNL A   1      32.445  31.087  27.364  1.00  0.00    -0.460 OA
BRANCH  28  29
ATOM     29  C   UNL A   1      33.219  32.190  27.528  1.00  0.00     0.338 C 
ATOM     30  O   UNL A   1      32.850  33.354  27.485  1.00  0.00    -0.246 OA
BRANCH  29  31
ATOM     31  C   UNL A   1      34.605  31.824  27.898  1.00  0.00     0.060 A 
ATOM     32  C   UNL A   1      34.844  30.480  28.206  1.00  0.00     0.016 A 
ATOM     33  C   UNL A   1      35.649  32.755  27.991  1.00  0.00     0.016 A 
ATOM     34  C   UNL A   1      36.108  30.068  28.626  1.00  0.00     0.010 A 
ATOM     35  C   UNL A   1      36.921  32.339  28.420  1.00  0.00     0.010 A 
ATOM     36  C   UNL A   1      37.151  30.997  28.761  1.00  0.00    -0.014 A 
BRANCH  36  37
ATOM     37  C   UNL A   1      38.391  30.550  29.451  1.00  0.00     0.031 A 
ATOM     38  C   UNL A   1      38.581  30.947  30.884  1.00  0.00     0.074 A 
ATOM     39  C   UNL A   1      39.283  29.731  28.868  1.00  0.00     0.049 A 
ATOM     40  N   UNL A   1      39.463  30.529  31.752  1.00  0.00    -0.248 NA
ATOM     41  C   UNL A   1      37.649  31.962  31.402  1.00  0.00     0.031 C 
ATOM     42  C   UNL A   1      39.241  29.309  27.477  1.00  0.00     0.029 A 
ATOM     43  N   UNL A   1      40.383  29.082  29.378  1.00  0.00    -0.354 N 
ATOM     44  C   UNL A   1      39.191  31.221  32.923  1.00  0.00     0.074 A 
ATOM     45  C   UNL A   1      38.077  32.105  32.646  1.00  0.00     0.031 C 
ATOM     46  C   UNL A   1      40.221  28.418  27.254  1.00  0.00     0.029 A 
ATOM     47  C   UNL A   1      40.984  28.227  28.483  1.00  0.00     0.049 A 
ATOM     48  H   UNL A   1      40.710  29.217  30.298  1.00  0.00     0.167 HD
ATOM     49  C   UNL A   1      39.815  31.135  34.119  1.00  0.00     0.037 A 
ATOM     50  C   UNL A   1      42.021  27.380  28.640  1.00  0.00     0.037 A 
ATOM     51  C   UNL A   1      40.958  30.301  34.379  1.00  0.00     0.049 A 
ATOM     52  C   UNL A   1      42.707  27.310  29.980  1.00  0.00     0.074 A 
ATOM     53  C   UNL A   1      41.681  30.170  35.551  1.00  0.00     0.029 A 
ATOM     54  N   UNL A   1      41.558  29.471  33.443  1.00  0.00    -0.354 N 
ATOM     55  N   UNL A   1      42.408  27.929  31.098  1.00  0.00    -0.248 NA
ATOM     56  C   UNL A   1      43.884  26.434  30.079  1.00  0.00     0.031 C 
ATOM     57  C   UNL A   1      42.749  29.298  35.309  1.00  0.00     0.029 A 
ATOM     58  C   UNL A   1      42.656  28.840  34.004  1.00  0.00     0.049 A 
ATOM     59  H   UNL A   1      41.249  29.350  32.517  1.00  0.00     0.167 HD
ATOM     60  C   UNL A   1      43.350  27.511  32.030  1.00  0.00     0.074 A 
ATOM     61  C   UNL A   1      44.206  26.556  31.358  1.00  0.00     0.031 C 
ATOM     62  C   UNL A   1      43.500  27.892  33.322  1.00  0.00     0.037 A 
BRANCH  49  63
ATOM     63  C   UNL A   1      39.291  32.016  35.213  1.00  0.00     0.057 A 
ATOM     64  C   UNL A   1      39.694  33.351  35.341  1.00  0.00     0.134 A 
ATOM     65  C   UNL A   1      38.402  31.512  36.169  1.00  0.00     0.134 A 
ATOM     66  F   UNL A   1      40.567  33.885  34.473  1.00  0.00    -0.206 F 
ATOM     67  C   UNL A   1      39.255  34.147  36.401  1.00  0.00     0.040 A 
ATOM     68  C   UNL A   1      37.934  32.305  37.217  1.00  0.00     0.040 A 
ATOM     69  F   UNL A   1      37.983  30.238  36.106  1.00  0.00    -0.206 F 
ATOM     70  C   UNL A   1      38.369  33.622  37.341  1.00  0.00     0.006 A 
ENDBRANCH  49  63
BRANCH  50  71
ATOM     71  C   UNL A   1      42.483  26.517  27.518  1.00  0.00     0.057 A 
ATOM     72  C   UNL A   1      43.311  27.022  26.506  1.00  0.00     0.134 A 
ATOM     73  C   UNL A   1      42.068  25.185  27.395  1.00  0.00     0.134 A 
ATOM     74  F   UNL A   1      43.726  28.297  26.547  1.00  0.00    -0.206 F 
ATOM     75  C   UNL A   1      43.684  26.248  25.404  1.00  0.00     0.040 A 
ATOM     76  C   UNL A   1      42.458  24.390  26.316  1.00  0.00     0.040 A 
ATOM     77  F   UNL A   1      41.271  24.637  28.324  1.00  0.00    -0.206 F 
ATOM     78  C   UNL A   1      43.261  24.924  25.310  1.00  0.00     0.006 A 
ENDBRANCH  50  71
BRANCH  62  79
ATOM     79  C   UNL A   1      44.620  27.259  34.099  1.00  0.00     0.057 A 
ATOM     80  C   UNL A   1      45.894  27.839  34.174  1.00  0.00     0.134 A 
ATOM     81  C   UNL A   1      44.412  26.066  34.803  1.00  0.00     0.134 A 
ATOM     82  F   UNL A   1      46.163  28.975  33.513  1.00  0.00    -0.206 F 
ATOM     83  C   UNL A   1      46.927  27.239  34.894  1.00  0.00     0.040 A 
ATOM     84  C   UNL A   1      45.429  25.474  35.552  1.00  0.00     0.040 A 
ATOM     85  F   UNL A   1      43.214  25.463  34.784  1.00  0.00    -0.206 F 
ATOM     86  C   UNL A   1      46.694  26.056  35.592  1.00  0.00     0.006 A 
ENDBRANCH  62  79
ENDBRANCH  36  37
ENDBRANCH  29  31
ENDBRANCH  28  29
ENDBRANCH  27  28
ENDBRANCH  26  27
ENDBRANCH  25  26
ENDBRANCH   1  25
TORSDOF 17
ENDMDL
MODEL 3
REMARK VINA RESULT:     -10.6      4.582      8.715
REMARK SMILES C[C@H]1[C@H](C(=O)OCCOCCOC(=O)c2ccc(-c3c4nc(c(-c5c(F)cccc5F)c5ccc([nH]5)c(-c5c(F)cccc5F)c5nc(c(-c6c(F)cccc6F)c6ccc3[nH]6)C=C5)C=C4)cc2)CC[N@@H+]1Cc1cnn(-c2ccccc2)c1
REMARK SMILES IDX 8 1 7 2 6 3 4 4 5 5 3 6 1 7 2 8 71 9 69 10 70 11 72 13 73 14
REMARK SMILES IDX 74 15 83 16 75 17 76 18 77 19 78 20 82 21 79 22 81 23 80 24
REMARK SMILES IDX 9 25 10 26 11 27 12 28 13 29 14 30 15 31 16 32 68 33 17 34
REMARK SMILES IDX 67 35 18 36 19 37 20 38 61 39 21 40 66 41 60 42 62 43 22 44
REMARK SMILES IDX 65 45 59 46 58 47 23 49 49 50 32 51 48 52 33 53 36 54 47 55
REMARK SMILES IDX 63 56 34 57 35 58 46 60 64 61 37 62 24 63 25 64 30 65 26 66
REMARK SMILES IDX 27 67 29 68 31 69 28 70 50 71 51 72 56 73 52 74 53 75 55 76
REMARK SMILES IDX 57 77 54 78 38 79 39 80 44 81 40 82 41 83 43 84 45 85 42 86
REMARK H PARENT 71 12 62 48 36 59
REMARK Flexibility Score: inf
ROOT
ATOM      1  C   UNL A   1      28.781  31.150  23.809  1.00  0.00     0.202 C 
ENDROOT
BRANCH   1   2
ATOM      2  C   UNL A   1      29.008  30.443  22.467  1.00  0.00     0.261 C 
BRANCH   2   3
ATOM      3  O   UNL A   1      29.982  29.392  22.625  1.00  0.00    -0.463 OA
BRANCH   3   4
ATOM      4  C   UNL A   1      29.568  28.265  23.258  1.00  0.00     0.315 C 
ATOM      5  O   UNL A   1      28.423  27.828  23.230  1.00  0.00    -0.252 OA
BRANCH   4   6
ATOM      6  C   UNL A   1      30.672  27.583  24.039  1.00  0.00     0.162 C 
ATOM      7  C   UNL A   1      30.257  25.998  25.971  1.00  0.00     0.076 C 
ATOM      8  C   UNL A   1      30.431  26.119  24.451  1.00  0.00     0.195 C 
ATOM      9  N   UNL A   1      31.647  25.376  24.088  1.00  0.00    -0.328 N 
ATOM     10  C   UNL A   1      31.961  27.570  23.235  1.00  0.00     0.083 C 
ATOM     11  C   UNL A   1      32.685  26.333  23.724  1.00  0.00     0.263 C 
ATOM     12  H   UNL A   1      31.967  24.866  24.911  1.00  0.00     0.348 HD
BRANCH   9  13
ATOM     13  C   UNL A   1      31.459  24.243  23.182  1.00  0.00     0.302 C 
BRANCH  13  14
ATOM     14  C   UNL A   1      31.765  22.904  23.765  1.00  0.00     0.045 A 
ATOM     15  C   UNL A   1      31.423  22.414  25.041  1.00  0.00     0.145 A 
ATOM     16  C   UNL A   1      32.364  21.815  23.160  1.00  0.00     0.124 A 
ATOM     17  N   UNL A   1      31.758  21.138  25.223  1.00  0.00    -0.176 NA
ATOM     18  N   UNL A   1      32.388  20.782  24.077  1.00  0.00    -0.240 N 
BRANCH  18  19
ATOM     19  C   UNL A   1      32.987  19.498  23.943  1.00  0.00     0.065 A 
ATOM     20  C   UNL A   1      34.210  19.228  24.571  1.00  0.00     0.028 A 
ATOM     21  C   UNL A   1      32.380  18.498  23.177  1.00  0.00     0.028 A 
ATOM     22  C   UNL A   1      34.810  17.971  24.433  1.00  0.00     0.002 A 
ATOM     23  C   UNL A   1      33.005  17.259  23.006  1.00  0.00     0.002 A 
ATOM     24  C   UNL A   1      34.210  16.990  23.645  1.00  0.00     0.000 A 
ENDBRANCH  18  19
ENDBRANCH  13  14
ENDBRANCH   9  13
ENDBRANCH   4   6
ENDBRANCH   3   4
ENDBRANCH   2   3
ENDBRANCH   1   2
BRANCH   1  25
ATOM     25  O   UNL A   1      29.910  31.862  24.320  1.00  0.00    -0.374 OA
BRANCH  25  26
ATOM     26  C   UNL A   1      30.649  31.215  25.352  1.00  0.00     0.202 C 
BRANCH  26  27
ATOM     27  C   UNL A   1      31.125  32.108  26.503  1.00  0.00     0.261 C 
BRANCH  27  28
ATOM     28  O   UNL A   1      32.401  31.709  27.041  1.00  0.00    -0.460 OA
BRANCH  28  29
ATOM     29  C   UNL A   1      33.099  32.716  27.626  1.00  0.00     0.338 C 
ATOM     30  O   UNL A   1      32.674  33.820  27.928  1.00  0.00    -0.246 OA
BRANCH  29  31
ATOM     31  C   UNL A   1      34.468  32.280  27.987  1.00  0.00     0.060 A 
ATOM     32  C   UNL A   1      34.643  30.924  28.285  1.00  0.00     0.016 A 
ATOM     33  C   UNL A   1      35.556  33.159  28.080  1.00  0.00     0.016 A 
ATOM     34  C   UNL A   1      35.889  30.449  28.695  1.00  0.00     0.010 A 
ATOM     35  C   UNL A   1      36.808  32.680  28.500  1.00  0.00     0.010 A 
ATOM     36  C   UNL A   1      36.975  31.326  28.831  1.00  0.00    -0.014 A 
BRANCH  36  37
ATOM     37  C   UNL A   1      38.195  30.815  29.511  1.00  0.00     0.031 A 
ATOM     38  C   UNL A   1      38.398  31.171  30.954  1.00  0.00     0.074 A 
ATOM     39  C   UNL A   1      39.056  29.975  28.910  1.00  0.00     0.049 A 
ATOM     40  N   UNL A   1      39.262  30.699  31.812  1.00  0.00    -0.248 NA
ATOM     41  C   UNL A   1      37.506  32.209  31.493  1.00  0.00     0.031 C 
ATOM     42  C   UNL A   1      39.000  29.588  27.510  1.00  0.00     0.029 A 
ATOM     43  N   UNL A   1      40.129  29.273  29.406  1.00  0.00    -0.354 N 
ATOM     44  C   UNL A   1      39.015  31.374  32.998  1.00  0.00     0.074 A 
ATOM     45  C   UNL A   1      37.937  32.307  32.741  1.00  0.00     0.031 C 
ATOM     46  C   UNL A   1      39.945  28.664  27.267  1.00  0.00     0.029 A 
ATOM     47  C   UNL A   1      40.698  28.416  28.492  1.00  0.00     0.049 A 
ATOM     48  H   UNL A   1      40.459  29.373  30.329  1.00  0.00     0.167 HD
ATOM     49  C   UNL A   1      39.633  31.235  34.193  1.00  0.00     0.037 A 
ATOM     50  C   UNL A   1      41.701  27.526  28.630  1.00  0.00     0.037 A 
ATOM     51  C   UNL A   1      40.742  30.352  34.435  1.00  0.00     0.049 A 
ATOM     52  C   UNL A   1      42.381  27.398  29.969  1.00  0.00     0.074 A 
ATOM     53  C   UNL A   1      41.458  30.165  35.604  1.00  0.00     0.029 A 
ATOM     54  N   UNL A   1      41.311  29.521  33.481  1.00  0.00    -0.354 N 
ATOM     55  N   UNL A   1      42.105  28.002  31.100  1.00  0.00    -0.248 NA
ATOM     56  C   UNL A   1      43.522  26.474  30.048  1.00  0.00     0.031 C 
ATOM     57  C   UNL A   1      42.491  29.259  35.343  1.00  0.00     0.029 A 
ATOM     58  C   UNL A   1      42.382  28.835  34.028  1.00  0.00     0.049 A 
ATOM     59  H   UNL A   1      40.999  29.433  32.551  1.00  0.00     0.167 HD
ATOM     60  C   UNL A   1      43.027  27.526  32.024  1.00  0.00     0.074 A 
ATOM     61  C   UNL A   1      43.847  26.554  31.331  1.00  0.00     0.031 C 
ATOM     62  C   UNL A   1      43.190  27.871  33.324  1.00  0.00     0.037 A 
BRANCH  49  63
ATOM     63  C   UNL A   1      39.142  32.111  35.306  1.00  0.00     0.057 A 
ATOM     64  C   UNL A   1      39.554  33.444  35.434  1.00  0.00     0.134 A 
ATOM     65  C   UNL A   1      38.276  31.603  36.282  1.00  0.00     0.134 A 
ATOM     66  F   UNL A   1      40.406  33.979  34.547  1.00  0.00    -0.206 F 
ATOM     67  C   UNL A   1      39.146  34.233  36.511  1.00  0.00     0.040 A 
ATOM     68  C   UNL A   1      37.839  32.391  37.348  1.00  0.00     0.040 A 
ATOM     69  F   UNL A   1      37.849  30.332  36.221  1.00  0.00    -0.206 F 
ATOM     70  C   UNL A   1      38.283  33.705  37.469  1.00  0.00     0.006 A 
ENDBRANCH  49  63
BRANCH  50  71
ATOM     71  C   UNL A   1      42.131  26.671  27.489  1.00  0.00     0.057 A 
ATOM     72  C   UNL A   1      42.960  27.174  26.477  1.00  0.00     0.134 A 
ATOM     73  C   UNL A   1      41.683  25.352  27.348  1.00  0.00     0.134 A 
ATOM     74  F   UNL A   1      43.404  28.438  26.534  1.00  0.00    -0.206 F 
ATOM     75  C   UNL A   1      43.303  26.410  25.358  1.00  0.00     0.040 A 
ATOM     76  C   UNL A   1      42.044  24.567  26.252  1.00  0.00     0.040 A 
ATOM     77  F   UNL A   1      40.884  24.806  28.276  1.00  0.00    -0.206 F 
ATOM     78  C   UNL A   1      42.848  25.099  25.246  1.00  0.00     0.006 A 
ENDBRANCH  50  71
BRANCH  62  79
ATOM     79  C   UNL A   1      44.283  27.176  34.087  1.00  0.00     0.057 A 
ATOM     80  C   UNL A   1      45.557  27.741  34.240  1.00  0.00     0.134 A 
ATOM     81  C   UNL A   1      44.047  25.939  34.699  1.00  0.00     0.134 A 
ATOM     82  F   UNL A   1      45.852  28.919  33.669  1.00  0.00    -0.206 F 
ATOM     83  C   UNL A   1      46.565  27.084  34.947  1.00  0.00     0.040 A 
ATOM     84  C   UNL A   1      45.039  25.288  35.434  1.00  0.00     0.040 A 
ATOM     85  F   UNL A   1      42.848  25.347  34.602  1.00  0.00    -0.206 F 
ATOM     86  C   UNL A   1      46.306  25.856  35.553  1.00  0.00     0.006 A 
ENDBRANCH  62  79
ENDBRANCH  36  37
ENDBRANCH  29  31
ENDBRANCH  28  29
ENDBRANCH  27  28
ENDBRANCH  26  27
ENDBRANCH  25  26
ENDBRANCH   1  25
TORSDOF 17
ENDMDL
