MODEL 1
REMARK VINA RESULT:     -11.3      0.000      0.000
REMARK SMILES C[C@@H](C(=O)OCCOCCOC(=O)c1ccc(-c2c3nc(c(-c4c(F)cccc4F)c4ccc([nH]4)c(-c4c(F)cccc4F)c4nc(c(-c5c(F)cccc5F)c5ccc2[nH]5)C=C4)C=C3)cc1)c1ccc(-c2ccn(C(F)F)c(=O)c2)cc1
REMARK SMILES IDX 7 1 6 2 5 3 3 4 4 5 2 6 1 7 68 8 69 9 83 10 70 11 82 12
REMARK SMILES IDX 71 13 72 14 73 15 81 16 74 17 79 18 75 19 80 20 76 21 77 22
REMARK SMILES IDX 78 23 8 24 9 25 10 26 11 27 12 28 13 29 14 30 15 31 67 32
REMARK SMILES IDX 16 33 66 34 17 35 18 36 19 37 60 38 20 39 65 40 59 41 61 42
REMARK SMILES IDX 21 43 64 44 58 45 57 46 22 48 48 49 31 50 47 51 32 52 35 53
REMARK SMILES IDX 46 54 62 55 33 56 34 57 45 59 63 60 36 61 23 62 24 63 29 64
REMARK SMILES IDX 25 65 26 66 28 67 30 68 27 69 49 70 50 71 55 72 51 73 52 74
REMARK SMILES IDX 54 75 56 76 53 77 37 78 38 79 43 80 39 81 40 82 42 83 44 84
REMARK SMILES IDX 41 85
REMARK H PARENT 61 47 35 58
REMARK Flexibility Score: inf
ROOT
ATOM      1  C   UNL A   1      34.032  33.904  28.505  1.00  0.00     0.202 C 
ENDROOT
BRANCH   1   2
ATOM      2  C   UNL A   1      34.656  32.592  28.023  1.00  0.00     0.261 C 
BRANCH   2   3
ATOM      3  O   UNL A   1      33.650  31.564  27.945  1.00  0.00    -0.463 OA
BRANCH   3   4
ATOM      4  C   UNL A   1      34.024  30.424  27.305  1.00  0.00     0.313 C 
ATOM      5  O   UNL A   1      34.986  29.737  27.633  1.00  0.00    -0.252 OA
BRANCH   4   6
ATOM      6  C   UNL A   1      33.093  30.064  26.140  1.00  0.00     0.126 C 
ATOM      7  C   UNL A   1      31.694  30.687  26.210  1.00  0.00     0.025 C 
BRANCH   6   8
ATOM      8  C   UNL A   1      33.087  28.553  25.921  1.00  0.00    -0.034 A 
ATOM      9  C   UNL A   1      32.504  27.642  26.816  1.00  0.00     0.005 A 
ATOM     10  C   UNL A   1      33.773  28.038  24.811  1.00  0.00     0.005 A 
ATOM     11  C   UNL A   1      32.617  26.260  26.615  1.00  0.00     0.009 A 
ATOM     12  C   UNL A   1      33.878  26.660  24.604  1.00  0.00     0.009 A 
ATOM     13  C   UNL A   1      33.306  25.758  25.506  1.00  0.00    -0.018 A 
BRANCH  13  14
ATOM     14  C   UNL A   1      33.439  24.308  25.254  1.00  0.00    -0.011 A 
ATOM     15  C   UNL A   1      33.432  23.742  23.918  1.00  0.00     0.027 A 
ATOM     16  C   UNL A   1      33.483  23.477  26.310  1.00  0.00     0.080 A 
ATOM     17  C   UNL A   1      33.396  22.416  23.738  1.00  0.00     0.095 A 
ATOM     18  C   UNL A   1      33.477  22.000  26.127  1.00  0.00     0.255 A 
ATOM     19  N   UNL A   1      33.397  21.553  24.818  1.00  0.00    -0.258 N 
ATOM     20  O   UNL A   1      33.517  21.287  27.125  1.00  0.00    -0.269 OA
BRANCH  19  21
ATOM     21  C   UNL A   1      33.284  20.131  24.618  1.00  0.00     0.451 C 
ATOM     22  F   UNL A   1      32.484  19.843  23.564  1.00  0.00    -0.185 F 
ATOM     23  F   UNL A   1      34.501  19.579  24.387  1.00  0.00    -0.185 F 
ENDBRANCH  19  21
ENDBRANCH  13  14
ENDBRANCH   6   8
ENDBRANCH   4   6
ENDBRANCH   3   4
ENDBRANCH   2   3
ENDBRANCH   1   2
BRANCH   1  24
ATOM     24  O   UNL A   1      33.596  33.927  29.866  1.00  0.00    -0.374 OA
BRANCH  24  25
ATOM     25  C   UNL A   1      34.510  34.438  30.834  1.00  0.00     0.202 C 
BRANCH  25  26
ATOM     26  C   UNL A   1      34.433  33.820  32.236  1.00  0.00     0.261 C 
BRANCH  26  27
ATOM     27  O   UNL A   1      34.874  32.451  32.256  1.00  0.00    -0.460 OA
BRANCH  27  28
ATOM     28  C   UNL A   1      36.021  32.242  32.943  1.00  0.00     0.338 C 
ATOM     29  O   UNL A   1      36.243  32.512  34.118  1.00  0.00    -0.246 OA
BRANCH  28  30
ATOM     30  C   UNL A   1      36.971  31.466  32.130  1.00  0.00     0.060 A 
ATOM     31  C   UNL A   1      38.014  30.819  32.808  1.00  0.00     0.016 A 
ATOM     32  C   UNL A   1      36.900  31.428  30.736  1.00  0.00     0.016 A 
ATOM     33  C   UNL A   1      39.020  30.177  32.091  1.00  0.00     0.010 A 
ATOM     34  C   UNL A   1      37.918  30.791  30.016  1.00  0.00     0.010 A 
ATOM     35  C   UNL A   1      39.001  30.196  30.691  1.00  0.00    -0.014 A 
BRANCH  35  36
ATOM     36  C   UNL A   1      40.197  29.733  29.947  1.00  0.00     0.031 A 
ATOM     37  C   UNL A   1      41.339  30.690  29.738  1.00  0.00     0.074 A 
ATOM     38  C   UNL A   1      40.287  28.466  29.507  1.00  0.00     0.049 A 
ATOM     39  N   UNL A   1      42.477  30.502  29.121  1.00  0.00    -0.248 NA
ATOM     40  C   UNL A   1      41.174  32.040  30.303  1.00  0.00     0.031 C 
ATOM     41  C   UNL A   1      39.268  27.435  29.685  1.00  0.00     0.029 A 
ATOM     42  N   UNL A   1      41.292  27.834  28.818  1.00  0.00    -0.354 N 
ATOM     43  C   UNL A   1      43.163  31.707  29.220  1.00  0.00     0.074 A 
ATOM     44  C   UNL A   1      42.301  32.627  29.930  1.00  0.00     0.031 C 
ATOM     45  C   UNL A   1      39.697  26.297  29.114  1.00  0.00     0.029 A 
ATOM     46  C   UNL A   1      41.008  26.527  28.509  1.00  0.00     0.049 A 
ATOM     47  H   UNL A   1      42.136  28.275  28.570  1.00  0.00     0.167 HD
ATOM     48  C   UNL A   1      44.402  32.014  28.770  1.00  0.00     0.037 A 
ATOM     49  C   UNL A   1      41.720  25.627  27.804  1.00  0.00     0.037 A 
ATOM     50  C   UNL A   1      45.260  31.097  28.068  1.00  0.00     0.049 A 
ATOM     51  C   UNL A   1      43.067  26.015  27.253  1.00  0.00     0.074 A 
ATOM     52  C   UNL A   1      46.542  31.310  27.590  1.00  0.00     0.029 A 
ATOM     53  N   UNL A   1      44.920  29.794  27.738  1.00  0.00    -0.354 N 
ATOM     54  N   UNL A   1      43.715  27.147  27.375  1.00  0.00    -0.248 NA
ATOM     55  C   UNL A   1      43.779  24.997  26.467  1.00  0.00     0.031 C 
ATOM     56  C   UNL A   1      46.959  30.148  26.931  1.00  0.00     0.029 A 
ATOM     57  C   UNL A   1      45.956  29.198  27.039  1.00  0.00     0.049 A 
ATOM     58  H   UNL A   1      44.068  29.357  27.967  1.00  0.00     0.167 HD
ATOM     59  C   UNL A   1      44.921  26.971  26.707  1.00  0.00     0.074 A 
ATOM     60  C   UNL A   1      44.918  25.617  26.190  1.00  0.00     0.031 C 
ATOM     61  C   UNL A   1      45.940  27.848  26.539  1.00  0.00     0.037 A 
BRANCH  48  62
ATOM     62  C   UNL A   1      44.893  33.412  29.003  1.00  0.00     0.057 A 
ATOM     63  C   UNL A   1      45.675  33.746  30.117  1.00  0.00     0.134 A 
ATOM     64  C   UNL A   1      44.604  34.431  28.086  1.00  0.00     0.134 A 
ATOM     65  F   UNL A   1      45.973  32.818  31.040  1.00  0.00    -0.206 F 
ATOM     66  C   UNL A   1      46.135  35.048  30.320  1.00  0.00     0.040 A 
ATOM     67  C   UNL A   1      45.079  35.730  28.266  1.00  0.00     0.040 A 
ATOM     68  F   UNL A   1      43.863  34.176  26.997  1.00  0.00    -0.206 F 
ATOM     69  C   UNL A   1      45.842  36.043  29.389  1.00  0.00     0.006 A 
ENDBRANCH  48  62
BRANCH  49  70
ATOM     70  C   UNL A   1      41.172  24.268  27.567  1.00  0.00     0.057 A 
ATOM     71  C   UNL A   1      40.135  24.053  26.653  1.00  0.00     0.134 A 
ATOM     72  C   UNL A   1      41.656  23.157  28.269  1.00  0.00     0.134 A 
ATOM     73  F   UNL A   1      39.613  25.082  25.970  1.00  0.00    -0.206 F 
ATOM     74  C   UNL A   1      39.588  22.783  26.454  1.00  0.00     0.040 A 
ATOM     75  C   UNL A   1      41.135  21.878  28.062  1.00  0.00     0.040 A 
ATOM     76  F   UNL A   1      42.648  23.298  29.160  1.00  0.00    -0.206 F 
ATOM     77  C   UNL A   1      40.093  21.691  27.156  1.00  0.00     0.006 A 
ENDBRANCH  49  70
BRANCH  61  78
ATOM     78  C   UNL A   1      47.150  27.365  25.795  1.00  0.00     0.057 A 
ATOM     79  C   UNL A   1      47.294  27.556  24.415  1.00  0.00     0.134 A 
ATOM     80  C   UNL A   1      48.201  26.736  26.474  1.00  0.00     0.134 A 
ATOM     81  F   UNL A   1      46.318  28.139  23.703  1.00  0.00    -0.206 F 
ATOM     82  C   UNL A   1      48.433  27.122  23.735  1.00  0.00     0.040 A 
ATOM     83  C   UNL A   1      49.355  26.320  25.810  1.00  0.00     0.040 A 
ATOM     84  F   UNL A   1      48.129  26.531  27.798  1.00  0.00    -0.206 F 
ATOM     85  C   UNL A   1      49.472  26.509  24.434  1.00  0.00     0.006 A 
ENDBRANCH  61  78
ENDBRANCH  35  36
ENDBRANCH  28  30
ENDBRANCH  27  28
ENDBRANCH  26  27
ENDBRANCH  25  26
ENDBRANCH  24  25
ENDBRANCH   1  24
TORSDOF 17
ENDMDL
MODEL 2
REMARK VINA RESULT:     -11.0      3.171      8.729
REMARK SMILES C[C@@H](C(=O)OCCOCCOC(=O)c1ccc(-c2c3nc(c(-c4c(F)cccc4F)c4ccc([nH]4)c(-c4c(F)cccc4F)c4nc(c(-c5c(F)cccc5F)c5ccc2[nH]5)C=C4)C=C3)cc1)c1ccc(-c2ccn(C(F)F)c(=O)c2)cc1
REMARK SMILES IDX 7 1 6 2 5 3 3 4 4 5 2 6 1 7 68 8 69 9 83 10 70 11 82 12
REMARK SMILES IDX 71 13 72 14 73 15 81 16 74 17 79 18 75 19 80 20 76 21 77 22
REMARK SMILES IDX 78 23 8 24 9 25 10 26 11 27 12 28 13 29 14 30 15 31 67 32
REMARK SMILES IDX 16 33 66 34 17 35 18 36 19 37 60 38 20 39 65 40 59 41 61 42
REMARK SMILES IDX 21 43 64 44 58 45 57 46 22 48 48 49 31 50 47 51 32 52 35 53
REMARK SMILES IDX 46 54 62 55 33 56 34 57 45 59 63 60 36 61 23 62 24 63 29 64
REMARK SMILES IDX 25 65 26 66 28 67 30 68 27 69 49 70 50 71 55 72 51 73 52 74
REMARK SMILES IDX 54 75 56 76 53 77 37 78 38 79 43 80 39 81 40 82 42 83 44 84
REMARK SMILES IDX 41 85
REMARK H PARENT 61 47 35 58
REMARK Flexibility Score: inf
ROOT
ATOM      1  C   UNL A   1      33.775  21.221  24.315  1.00  0.00     0.202 C 
ENDROOT
BRANCH   1   2
ATOM      2  C   UNL A   1      33.578  22.641  24.852  1.00  0.00     0.261 C 
BRANCH   2   3
ATOM      3  O   UNL A   1      33.196  23.528  23.782  1.00  0.00    -0.463 OA
BRANCH   3   4
ATOM      4  C   UNL A   1      32.239  24.443  24.092  1.00  0.00     0.313 C 
ATOM      5  O   UNL A   1      31.611  25.088  23.259  1.00  0.00    -0.252 OA
BRANCH   4   6
ATOM      6  C   UNL A   1      32.001  24.565  25.603  1.00  0.00     0.126 C 
ATOM      7  C   UNL A   1      30.637  24.063  26.088  1.00  0.00     0.025 C 
BRANCH   6   8
ATOM      8  C   UNL A   1      32.347  25.975  26.077  1.00  0.00    -0.034 A 
ATOM      9  C   UNL A   1      31.415  26.844  26.664  1.00  0.00     0.005 A 
ATOM     10  C   UNL A   1      33.641  26.460  25.837  1.00  0.00     0.005 A 
ATOM     11  C   UNL A   1      31.762  28.163  26.987  1.00  0.00     0.009 A 
ATOM     12  C   UNL A   1      33.991  27.771  26.167  1.00  0.00     0.009 A 
ATOM     13  C   UNL A   1      33.055  28.637  26.741  1.00  0.00    -0.018 A 
BRANCH  13  14
ATOM     14  C   UNL A   1      33.463  30.017  27.076  1.00  0.00    -0.011 A 
ATOM     15  C   UNL A   1      34.776  30.339  27.604  1.00  0.00     0.027 A 
ATOM     16  C   UNL A   1      32.550  30.998  26.966  1.00  0.00     0.080 A 
ATOM     17  C   UNL A   1      35.052  31.574  28.041  1.00  0.00     0.095 A 
ATOM     18  C   UNL A   1      32.852  32.384  27.417  1.00  0.00     0.255 A 
ATOM     19  N   UNL A   1      34.107  32.579  27.972  1.00  0.00    -0.258 N 
ATOM     20  O   UNL A   1      31.983  33.242  27.295  1.00  0.00    -0.269 OA
BRANCH  19  21
ATOM     21  C   UNL A   1      34.386  33.885  28.512  1.00  0.00     0.451 C 
ATOM     22  F   UNL A   1      33.784  34.062  29.712  1.00  0.00    -0.185 F 
ATOM     23  F   UNL A   1      35.720  34.061  28.680  1.00  0.00    -0.185 F 
ENDBRANCH  19  21
ENDBRANCH  13  14
ENDBRANCH   6   8
ENDBRANCH   4   6
ENDBRANCH   3   4
ENDBRANCH   2   3
ENDBRANCH   1   2
BRANCH   1  24
ATOM     24  O   UNL A   1      34.656  20.385  25.067  1.00  0.00    -0.374 OA
BRANCH  24  25
ATOM     25  C   UNL A   1      35.828  20.993  25.607  1.00  0.00     0.202 C 
BRANCH  25  26
ATOM     26  C   UNL A   1      37.153  20.652  24.912  1.00  0.00     0.261 C 
BRANCH  26  27
ATOM     27  O   UNL A   1      38.137  21.689  25.071  1.00  0.00    -0.460 OA
BRANCH  27  28
ATOM     28  C   UNL A   1      39.124  21.395  25.948  1.00  0.00     0.338 C 
ATOM     29  O   UNL A   1      39.676  20.312  26.109  1.00  0.00    -0.246 OA
BRANCH  28  30
ATOM     30  C   UNL A   1      39.604  22.619  26.609  1.00  0.00     0.060 A 
ATOM     31  C   UNL A   1      39.045  23.835  26.190  1.00  0.00     0.016 A 
ATOM     32  C   UNL A   1      40.629  22.599  27.558  1.00  0.00     0.016 A 
ATOM     33  C   UNL A   1      39.544  25.038  26.680  1.00  0.00     0.010 A 
ATOM     34  C   UNL A   1      41.137  23.811  28.041  1.00  0.00     0.010 A 
ATOM     35  C   UNL A   1      40.622  25.035  27.575  1.00  0.00    -0.014 A 
BRANCH  35  36
ATOM     36  C   UNL A   1      41.302  26.314  27.889  1.00  0.00     0.031 A 
ATOM     37  C   UNL A   1      42.707  26.530  27.396  1.00  0.00     0.074 A 
ATOM     38  C   UNL A   1      40.663  27.288  28.559  1.00  0.00     0.049 A 
ATOM     39  N   UNL A   1      43.490  27.566  27.551  1.00  0.00    -0.248 NA
ATOM     40  C   UNL A   1      43.307  25.430  26.623  1.00  0.00     0.031 C 
ATOM     41  C   UNL A   1      39.289  27.215  29.051  1.00  0.00     0.029 A 
ATOM     42  N   UNL A   1      41.093  28.535  28.940  1.00  0.00    -0.354 N 
ATOM     43  C   UNL A   1      44.675  27.244  26.900  1.00  0.00     0.074 A 
ATOM     44  C   UNL A   1      44.518  25.906  26.373  1.00  0.00     0.031 C 
ATOM     45  C   UNL A   1      38.989  28.367  29.674  1.00  0.00     0.029 A 
ATOM     46  C   UNL A   1      40.157  29.246  29.648  1.00  0.00     0.049 A 
ATOM     47  H   UNL A   1      41.987  28.886  28.725  1.00  0.00     0.167 HD
ATOM     48  C   UNL A   1      45.789  27.999  26.745  1.00  0.00     0.037 A 
ATOM     49  C   UNL A   1      40.242  30.461  30.223  1.00  0.00     0.037 A 
ATOM     50  C   UNL A   1      45.942  29.332  27.265  1.00  0.00     0.049 A 
ATOM     51  C   UNL A   1      41.516  31.253  30.097  1.00  0.00     0.074 A 
ATOM     52  C   UNL A   1      47.026  30.185  27.143  1.00  0.00     0.029 A 
ATOM     53  N   UNL A   1      44.987  30.002  28.012  1.00  0.00    -0.354 N 
ATOM     54  N   UNL A   1      42.619  30.949  29.458  1.00  0.00    -0.248 NA
ATOM     55  C   UNL A   1      41.555  32.559  30.773  1.00  0.00     0.031 C 
ATOM     56  C   UNL A   1      46.741  31.355  27.856  1.00  0.00     0.029 A 
ATOM     57  C   UNL A   1      45.464  31.249  28.382  1.00  0.00     0.049 A 
ATOM     58  H   UNL A   1      44.099  29.645  28.246  1.00  0.00     0.167 HD
ATOM     59  C   UNL A   1      43.471  32.033  29.629  1.00  0.00     0.074 A 
ATOM     60  C   UNL A   1      42.753  33.008  30.425  1.00  0.00     0.031 C 
ATOM     61  C   UNL A   1      44.733  32.209  29.168  1.00  0.00     0.037 A 
BRANCH  48  62
ATOM     62  C   UNL A   1      46.939  27.388  26.002  1.00  0.00     0.057 A 
ATOM     63  C   UNL A   1      47.083  27.530  24.616  1.00  0.00     0.134 A 
ATOM     64  C   UNL A   1      47.929  26.672  26.686  1.00  0.00     0.134 A 
ATOM     65  F   UNL A   1      46.159  28.190  23.900  1.00  0.00    -0.206 F 
ATOM     66  C   UNL A   1      48.162  26.964  23.934  1.00  0.00     0.040 A 
ATOM     67  C   UNL A   1      49.025  26.123  26.019  1.00  0.00     0.040 A 
ATOM     68  F   UNL A   1      47.852  26.503  28.015  1.00  0.00    -0.206 F 
ATOM     69  C   UNL A   1      49.141  26.264  24.638  1.00  0.00     0.006 A 
ENDBRANCH  48  62
BRANCH  49  70
ATOM     70  C   UNL A   1      39.088  31.005  30.983  1.00  0.00     0.057 A 
ATOM     71  C   UNL A   1      38.139  31.830  30.370  1.00  0.00     0.134 A 
ATOM     72  C   UNL A   1      38.923  30.733  32.347  1.00  0.00     0.134 A 
ATOM     73  F   UNL A   1      38.258  32.147  29.072  1.00  0.00    -0.206 F 
ATOM     74  C   UNL A   1      37.073  32.377  31.088  1.00  0.00     0.040 A 
ATOM     75  C   UNL A   1      37.850  31.254  33.071  1.00  0.00     0.040 A 
ATOM     76  F   UNL A   1      39.800  29.951  32.992  1.00  0.00    -0.206 F 
ATOM     77  C   UNL A   1      36.925  32.085  32.442  1.00  0.00     0.006 A 
ENDBRANCH  49  70
BRANCH  61  78
ATOM     78  C   UNL A   1      45.407  33.512  29.482  1.00  0.00     0.057 A 
ATOM     79  C   UNL A   1      46.210  33.673  30.618  1.00  0.00     0.134 A 
ATOM     80  C   UNL A   1      45.284  34.605  28.615  1.00  0.00     0.134 A 
ATOM     81  F   UNL A   1      46.358  32.669  31.494  1.00  0.00    -0.206 F 
ATOM     82  C   UNL A   1      46.851  34.883  30.890  1.00  0.00     0.040 A 
ATOM     83  C   UNL A   1      45.939  35.811  28.864  1.00  0.00     0.040 A 
ATOM     84  F   UNL A   1      44.537  34.513  27.505  1.00  0.00    -0.206 F 
ATOM     85  C   UNL A   1      46.722  35.955  30.007  1.00  0.00     0.006 A 
ENDBRANCH  61  78
ENDBRANCH  35  36
ENDBRANCH  28  30
ENDBRANCH  27  28
ENDBRANCH  26  27
ENDBRANCH  25  26
ENDBRANCH  24  25
ENDBRANCH   1  24
TORSDOF 17
ENDMDL
MODEL 3
REMARK VINA RESULT:     -10.8      3.903      6.466
REMARK SMILES C[C@@H](C(=O)OCCOCCOC(=O)c1ccc(-c2c3nc(c(-c4c(F)cccc4F)c4ccc([nH]4)c(-c4c(F)cccc4F)c4nc(c(-c5c(F)cccc5F)c5ccc2[nH]5)C=C4)C=C3)cc1)c1ccc(-c2ccn(C(F)F)c(=O)c2)cc1
REMARK SMILES IDX 7 1 6 2 5 3 3 4 4 5 2 6 1 7 68 8 69 9 83 10 70 11 82 12
REMARK SMILES IDX 71 13 72 14 73 15 81 16 74 17 79 18 75 19 80 20 76 21 77 22
REMARK SMILES IDX 78 23 8 24 9 25 10 26 11 27 12 28 13 29 14 30 15 31 67 32
REMARK SMILES IDX 16 33 66 34 17 35 18 36 19 37 60 38 20 39 65 40 59 41 61 42
REMARK SMILES IDX 21 43 64 44 58 45 57 46 22 48 48 49 31 50 47 51 32 52 35 53
REMARK SMILES IDX 46 54 62 55 33 56 34 57 45 59 63 60 36 61 23 62 24 63 29 64
REMARK SMILES IDX 25 65 26 66 28 67 30 68 27 69 49 70 50 71 55 72 51 73 52 74
REMARK SMILES IDX 54 75 56 76 53 77 37 78 38 79 43 80 39 81 40 82 42 83 44 84
REMARK SMILES IDX 41 85
REMARK H PARENT 61 47 35 58
REMARK Flexibility Score: inf
ROOT
ATOM      1  C   UNL A   1      33.159  35.662  28.794  1.00  0.00     0.202 C 
ENDROOT
BRANCH   1   2
ATOM      2  C   UNL A   1      33.635  36.927  29.513  1.00  0.00     0.261 C 
BRANCH   2   3
ATOM      3  O   UNL A   1      32.756  37.235  30.611  1.00  0.00    -0.463 OA
BRANCH   3   4
ATOM      4  C   UNL A   1      32.516  36.212  31.475  1.00  0.00     0.313 C 
ATOM      5  O   UNL A   1      31.724  35.301  31.256  1.00  0.00    -0.252 OA
BRANCH   4   6
ATOM      6  C   UNL A   1      33.369  36.297  32.747  1.00  0.00     0.126 C 
ATOM      7  C   UNL A   1      34.023  37.660  33.001  1.00  0.00     0.025 C 
BRANCH   6   8
ATOM      8  C   UNL A   1      34.343  35.123  32.805  1.00  0.00    -0.034 A 
ATOM      9  C   UNL A   1      33.941  33.791  32.991  1.00  0.00     0.005 A 
ATOM     10  C   UNL A   1      35.719  35.395  32.755  1.00  0.00     0.005 A 
ATOM     11  C   UNL A   1      34.886  32.766  33.138  1.00  0.00     0.009 A 
ATOM     12  C   UNL A   1      36.661  34.373  32.891  1.00  0.00     0.009 A 
ATOM     13  C   UNL A   1      36.255  33.049  33.089  1.00  0.00    -0.018 A 
BRANCH  13  14
ATOM     14  C   UNL A   1      37.280  31.996  33.229  1.00  0.00    -0.011 A 
ATOM     15  C   UNL A   1      38.699  32.291  33.315  1.00  0.00     0.027 A 
ATOM     16  C   UNL A   1      36.887  30.711  33.191  1.00  0.00     0.080 A 
ATOM     17  C   UNL A   1      39.605  31.306  33.284  1.00  0.00     0.095 A 
ATOM     18  C   UNL A   1      37.880  29.602  33.188  1.00  0.00     0.255 A 
ATOM     19  N   UNL A   1      39.212  29.983  33.200  1.00  0.00    -0.258 N 
ATOM     20  O   UNL A   1      37.468  28.447  33.151  1.00  0.00    -0.269 OA
BRANCH  19  21
ATOM     21  C   UNL A   1      40.194  28.934  33.092  1.00  0.00     0.451 C 
ATOM     22  F   UNL A   1      40.007  28.198  31.971  1.00  0.00    -0.185 F 
ATOM     23  F   UNL A   1      41.447  29.449  33.055  1.00  0.00    -0.185 F 
ENDBRANCH  19  21
ENDBRANCH  13  14
ENDBRANCH   6   8
ENDBRANCH   4   6
ENDBRANCH   3   4
ENDBRANCH   2   3
ENDBRANCH   1   2
BRANCH   1  24
ATOM     24  O   UNL A   1      34.041  34.539  28.852  1.00  0.00    -0.374 OA
BRANCH  24  25
ATOM     25  C   UNL A   1      33.695  33.398  28.069  1.00  0.00     0.202 C 
BRANCH  25  26
ATOM     26  C   UNL A   1      34.311  32.062  28.504  1.00  0.00     0.261 C 
BRANCH  26  27
ATOM     27  O   UNL A   1      34.435  31.135  27.412  1.00  0.00    -0.460 OA
BRANCH  27  28
ATOM     28  C   UNL A   1      34.727  29.867  27.784  1.00  0.00     0.338 C 
ATOM     29  O   UNL A   1      34.003  28.882  27.696  1.00  0.00    -0.246 OA
BRANCH  28  30
ATOM     30  C   UNL A   1      36.143  29.760  28.174  1.00  0.00     0.060 A 
ATOM     31  C   UNL A   1      37.101  30.024  27.185  1.00  0.00     0.016 A 
ATOM     32  C   UNL A   1      36.533  29.337  29.447  1.00  0.00     0.016 A 
ATOM     33  C   UNL A   1      38.452  29.815  27.450  1.00  0.00     0.010 A 
ATOM     34  C   UNL A   1      37.891  29.117  29.707  1.00  0.00     0.010 A 
ATOM     35  C   UNL A   1      38.851  29.319  28.698  1.00  0.00    -0.014 A 
BRANCH  35  36
ATOM     36  C   UNL A   1      40.251  28.866  28.879  1.00  0.00     0.031 A 
ATOM     37  C   UNL A   1      41.242  29.803  29.513  1.00  0.00     0.074 A 
ATOM     38  C   UNL A   1      40.623  27.622  28.533  1.00  0.00     0.049 A 
ATOM     39  N   UNL A   1      42.511  29.619  29.771  1.00  0.00    -0.248 NA
ATOM     40  C   UNL A   1      40.732  31.126  29.912  1.00  0.00     0.031 C 
ATOM     41  C   UNL A   1      39.746  26.608  27.951  1.00  0.00     0.029 A 
ATOM     42  N   UNL A   1      41.843  27.001  28.624  1.00  0.00    -0.354 N 
ATOM     43  C   UNL A   1      42.953  30.799  30.357  1.00  0.00     0.074 A 
ATOM     44  C   UNL A   1      41.823  31.703  30.391  1.00  0.00     0.031 C 
ATOM     45  C   UNL A   1      40.459  25.491  27.731  1.00  0.00     0.029 A 
ATOM     46  C   UNL A   1      41.846  25.719  28.132  1.00  0.00     0.049 A 
ATOM     47  H   UNL A   1      42.641  27.433  29.007  1.00  0.00     0.167 HD
ATOM     48  C   UNL A   1      44.184  31.098  30.834  1.00  0.00     0.037 A 
ATOM     49  C   UNL A   1      42.858  24.840  28.006  1.00  0.00     0.037 A 
ATOM     50  C   UNL A   1      45.306  30.197  30.804  1.00  0.00     0.049 A 
ATOM     51  C   UNL A   1      44.235  25.222  28.480  1.00  0.00     0.074 A 
ATOM     52  C   UNL A   1      46.589  30.402  31.281  1.00  0.00     0.029 A 
ATOM     53  N   UNL A   1      45.279  28.923  30.260  1.00  0.00    -0.354 N 
ATOM     54  N   UNL A   1      44.634  26.329  29.055  1.00  0.00    -0.248 NA
ATOM     55  C   UNL A   1      45.302  24.228  28.287  1.00  0.00     0.031 C 
ATOM     56  C   UNL A   1      47.350  29.266  30.985  1.00  0.00     0.029 A 
ATOM     57  C   UNL A   1      46.529  28.337  30.366  1.00  0.00     0.049 A 
ATOM     58  H   UNL A   1      44.488  28.496  29.859  1.00  0.00     0.167 HD
ATOM     59  C   UNL A   1      45.988  26.158  29.318  1.00  0.00     0.074 A 
ATOM     60  C   UNL A   1      46.340  24.833  28.848  1.00  0.00     0.031 C 
ATOM     61  C   UNL A   1      46.861  27.016  29.899  1.00  0.00     0.037 A 
BRANCH  48  62
ATOM     62  C   UNL A   1      44.387  32.469  31.407  1.00  0.00     0.057 A 
ATOM     63  C   UNL A   1      44.798  33.549  30.614  1.00  0.00     0.134 A 
ATOM     64  C   UNL A   1      44.141  32.718  32.762  1.00  0.00     0.134 A 
ATOM     65  F   UNL A   1      45.067  33.372  29.311  1.00  0.00    -0.206 F 
ATOM     66  C   UNL A   1      44.976  34.824  31.155  1.00  0.00     0.040 A 
ATOM     67  C   UNL A   1      44.291  33.993  33.309  1.00  0.00     0.040 A 
ATOM     68  F   UNL A   1      43.742  31.728  33.575  1.00  0.00    -0.206 F 
ATOM     69  C   UNL A   1      44.715  35.049  32.505  1.00  0.00     0.006 A 
ENDBRANCH  48  62
BRANCH  49  70
ATOM     70  C   UNL A   1      42.614  23.509  27.395  1.00  0.00     0.057 A 
ATOM     71  C   UNL A   1      42.313  22.392  28.182  1.00  0.00     0.134 A 
ATOM     72  C   UNL A   1      42.700  23.319  26.010  1.00  0.00     0.134 A 
ATOM     73  F   UNL A   1      42.241  22.507  29.516  1.00  0.00    -0.206 F 
ATOM     74  C   UNL A   1      42.121  21.130  27.617  1.00  0.00     0.040 A 
ATOM     75  C   UNL A   1      42.487  22.068  25.429  1.00  0.00     0.040 A 
ATOM     76  F   UNL A   1      42.986  24.349  25.201  1.00  0.00    -0.206 F 
ATOM     77  C   UNL A   1      42.203  20.967  26.236  1.00  0.00     0.006 A 
ENDBRANCH  49  70
BRANCH  61  78
ATOM     78  C   UNL A   1      48.271  26.542  30.089  1.00  0.00     0.057 A 
ATOM     79  C   UNL A   1      49.269  26.793  29.139  1.00  0.00     0.134 A 
ATOM     80  C   UNL A   1      48.644  25.861  31.255  1.00  0.00     0.134 A 
ATOM     81  F   UNL A   1      48.976  27.427  27.995  1.00  0.00    -0.206 F 
ATOM     82  C   UNL A   1      50.584  26.366  29.335  1.00  0.00     0.040 A 
ATOM     83  C   UNL A   1      49.959  25.452  31.473  1.00  0.00     0.040 A 
ATOM     84  F   UNL A   1      47.737  25.598  32.208  1.00  0.00    -0.206 F 
ATOM     85  C   UNL A   1      50.934  25.700  30.508  1.00  0.00     0.006 A 
ENDBRANCH  61  78
ENDBRANCH  35  36
ENDBRANCH  28  30
ENDBRANCH  27  28
ENDBRANCH  26  27
ENDBRANCH  25  26
ENDBRANCH  24  25
ENDBRANCH   1  24
TORSDOF 17
ENDMDL
