MODEL 1
REMARK VINA RESULT:     -10.9      0.000      0.000
REMARK SMILES Cc1cccc(CS[C@@H]2CC[C@]([NH3+])(C(=O)OCCOCCOC(=O)c3ccc(-c4c5nc(c(-c6c(F)cccc6F)c6ccc([nH]6)c(-c6c(F)cccc6F)c6nc(c(-c7c(F)cccc7F)c7ccc4[nH]7)C=C6)C=C5)cc3)C2)c1
REMARK SMILES IDX 18 1 17 2 16 3 14 4 15 5 12 6 9 7 10 8 79 9 11 10 8 11 7 12
REMARK SMILES IDX 6 13 1 14 2 15 3 16 80 17 4 18 5 19 13 20 19 24 20 25 21 26
REMARK SMILES IDX 22 27 23 28 24 29 25 30 26 31 78 32 27 33 77 34 28 35 29 36
REMARK SMILES IDX 30 37 71 38 31 39 76 40 70 41 72 42 32 43 75 44 69 45 68 46
REMARK SMILES IDX 33 48 59 49 42 50 58 51 43 52 46 53 57 54 73 55 44 56 45 57
REMARK SMILES IDX 56 59 74 60 47 61 34 62 35 63 40 64 36 65 37 66 39 67 41 68
REMARK SMILES IDX 38 69 60 70 61 71 66 72 62 73 63 74 65 75 67 76 64 77 48 78
REMARK SMILES IDX 49 79 54 80 50 81 51 82 53 83 55 84 52 85
REMARK H PARENT 13 21 13 22 13 23 72 47 46 58
REMARK Flexibility Score: inf
ROOT
ATOM      1  C   UNL A   1      32.349  29.215  24.959  1.00  0.00     0.202 C 
ENDROOT
BRANCH   1   2
ATOM      2  C   UNL A   1      31.409  28.556  23.980  1.00  0.00     0.261 C 
BRANCH   2   3
ATOM      3  O   UNL A   1      30.836  27.382  24.533  1.00  0.00    -0.459 OA
BRANCH   3   4
ATOM      4  C   UNL A   1      31.580  26.242  24.401  1.00  0.00     0.368 C 
ATOM      5  O   UNL A   1      32.319  25.952  23.472  1.00  0.00    -0.245 OA
BRANCH   4   6
ATOM      6  C   UNL A   1      31.487  25.475  25.720  1.00  0.00     0.193 C 
ATOM      7  C   UNL A   1      32.375  23.641  26.985  1.00  0.00     0.054 C 
ATOM      8  C   UNL A   1      30.986  23.211  26.512  1.00  0.00     0.022 C 
ATOM      9  C   UNL A   1      32.806  24.784  26.075  1.00  0.00     0.095 C 
ATOM     10  C   UNL A   1      30.498  24.312  25.580  1.00  0.00     0.082 C 
BRANCH   7  11
ATOM     11  S   UNL A   1      33.603  22.313  27.227  1.00  0.00    -0.154 SA
BRANCH  11  12
ATOM     12  C   UNL A   1      34.301  22.046  25.553  1.00  0.00     0.105 C 
BRANCH  12  13
ATOM     13  C   UNL A   1      33.805  20.824  24.817  1.00  0.00    -0.038 A 
ATOM     14  C   UNL A   1      34.699  17.129  24.363  1.00  0.00     0.044 C 
ATOM     15  C   UNL A   1      34.022  18.458  24.250  1.00  0.00    -0.051 A 
ATOM     16  C   UNL A   1      32.864  18.530  23.480  1.00  0.00     0.003 A 
ATOM     17  C   UNL A   1      34.497  19.606  24.912  1.00  0.00     0.008 A 
ATOM     18  C   UNL A   1      32.157  19.720  23.401  1.00  0.00     0.001 A 
ATOM     19  C   UNL A   1      32.606  20.847  24.088  1.00  0.00     0.004 A 
ENDBRANCH  12  13
ENDBRANCH  11  12
ENDBRANCH   7  11
BRANCH   6  20
ATOM     20  N   UNL A   1      31.065  26.418  26.787  1.00  0.00    -0.343 N 
ATOM     21  H   UNL A   1      30.084  26.663  26.654  1.00  0.00     0.345 HD
ATOM     22  H   UNL A   1      31.635  27.263  26.740  1.00  0.00     0.345 HD
ATOM     23  H   UNL A   1      31.185  25.977  27.698  1.00  0.00     0.345 HD
ENDBRANCH   6  20
ENDBRANCH   4   6
ENDBRANCH   3   4
ENDBRANCH   2   3
ENDBRANCH   1   2
BRANCH   1  24
ATOM     24  O   UNL A   1      31.623  30.270  25.578  1.00  0.00    -0.374 OA
BRANCH  24  25
ATOM     25  C   UNL A   1      32.109  30.692  26.840  1.00  0.00     0.202 C 
BRANCH  25  26
ATOM     26  C   UNL A   1      33.618  30.458  27.023  1.00  0.00     0.261 C 
BRANCH  26  27
ATOM     27  O   UNL A   1      34.113  31.245  28.129  1.00  0.00    -0.460 OA
BRANCH  27  28
ATOM     28  C   UNL A   1      35.436  31.551  28.120  1.00  0.00     0.338 C 
ATOM     29  O   UNL A   1      35.921  32.614  27.730  1.00  0.00    -0.246 OA
BRANCH  28  30
ATOM     30  C   UNL A   1      36.243  30.324  28.363  1.00  0.00     0.060 A 
ATOM     31  C   UNL A   1      36.270  29.722  29.639  1.00  0.00     0.016 A 
ATOM     32  C   UNL A   1      37.226  30.012  27.432  1.00  0.00     0.016 A 
ATOM     33  C   UNL A   1      37.376  28.955  30.032  1.00  0.00     0.010 A 
ATOM     34  C   UNL A   1      38.364  29.383  27.871  1.00  0.00     0.010 A 
ATOM     35  C   UNL A   1      38.468  28.873  29.176  1.00  0.00    -0.014 A 
BRANCH  35  36
ATOM     36  C   UNL A   1      39.832  28.443  29.503  1.00  0.00     0.031 A 
ATOM     37  C   UNL A   1      40.292  27.159  28.933  1.00  0.00     0.074 A 
ATOM     38  C   UNL A   1      40.728  29.348  29.960  1.00  0.00     0.049 A 
ATOM     39  N   UNL A   1      41.518  26.800  28.848  1.00  0.00    -0.248 NA
ATOM     40  C   UNL A   1      39.371  26.151  28.402  1.00  0.00     0.031 C 
ATOM     41  C   UNL A   1      42.170  29.426  29.699  1.00  0.00     0.029 A 
ATOM     42  N   UNL A   1      40.498  30.423  30.804  1.00  0.00    -0.354 N 
ATOM     43  C   UNL A   1      41.578  25.613  28.164  1.00  0.00     0.074 A 
ATOM     44  C   UNL A   1      40.216  25.262  27.874  1.00  0.00     0.031 C 
ATOM     45  C   UNL A   1      42.697  30.386  30.473  1.00  0.00     0.029 A 
ATOM     46  C   UNL A   1      41.694  30.809  31.408  1.00  0.00     0.049 A 
ATOM     47  H   UNL A   1      39.624  30.850  30.953  1.00  0.00     0.167 HD
ATOM     48  C   UNL A   1      42.807  25.088  27.932  1.00  0.00     0.037 A 
ATOM     49  C   UNL A   1      41.781  30.709  32.763  1.00  0.00     0.037 A 
ATOM     50  C   UNL A   1      43.772  25.674  28.867  1.00  0.00     0.049 A 
ATOM     51  C   UNL A   1      42.604  29.495  33.153  1.00  0.00     0.074 A 
ATOM     52  C   UNL A   1      44.941  26.387  28.731  1.00  0.00     0.029 A 
ATOM     53  N   UNL A   1      43.453  25.690  30.234  1.00  0.00    -0.354 N 
ATOM     54  N   UNL A   1      42.795  28.430  32.405  1.00  0.00    -0.248 NA
ATOM     55  C   UNL A   1      43.417  29.485  34.363  1.00  0.00     0.031 C 
ATOM     56  C   UNL A   1      45.342  26.785  30.030  1.00  0.00     0.029 A 
ATOM     57  C   UNL A   1      44.358  26.439  30.950  1.00  0.00     0.049 A 
ATOM     58  H   UNL A   1      42.680  25.227  30.630  1.00  0.00     0.167 HD
ATOM     59  C   UNL A   1      43.761  27.634  32.980  1.00  0.00     0.074 A 
ATOM     60  C   UNL A   1      44.117  28.351  34.198  1.00  0.00     0.031 C 
ATOM     61  C   UNL A   1      44.311  26.510  32.414  1.00  0.00     0.037 A 
BRANCH  48  62
ATOM     62  C   UNL A   1      43.177  24.124  26.823  1.00  0.00     0.057 A 
ATOM     63  C   UNL A   1      43.195  22.734  27.062  1.00  0.00     0.134 A 
ATOM     64  C   UNL A   1      43.673  24.491  25.555  1.00  0.00     0.134 A 
ATOM     65  F   UNL A   1      42.743  22.210  28.211  1.00  0.00    -0.206 F 
ATOM     66  C   UNL A   1      43.702  21.799  26.146  1.00  0.00     0.040 A 
ATOM     67  C   UNL A   1      44.137  23.560  24.610  1.00  0.00     0.040 A 
ATOM     68  F   UNL A   1      43.787  25.765  25.169  1.00  0.00    -0.206 F 
ATOM     69  C   UNL A   1      44.173  22.211  24.911  1.00  0.00     0.006 A 
ENDBRANCH  48  62
BRANCH  49  70
ATOM     70  C   UNL A   1      40.552  31.324  33.373  1.00  0.00     0.057 A 
ATOM     71  C   UNL A   1      39.713  30.401  34.045  1.00  0.00     0.134 A 
ATOM     72  C   UNL A   1      40.567  32.630  33.880  1.00  0.00     0.134 A 
ATOM     73  F   UNL A   1      39.624  29.135  33.604  1.00  0.00    -0.206 F 
ATOM     74  C   UNL A   1      39.146  30.684  35.294  1.00  0.00     0.040 A 
ATOM     75  C   UNL A   1      39.965  32.931  35.117  1.00  0.00     0.040 A 
ATOM     76  F   UNL A   1      41.322  33.576  33.305  1.00  0.00    -0.206 F 
ATOM     77  C   UNL A   1      39.321  31.941  35.859  1.00  0.00     0.006 A 
ENDBRANCH  49  70
BRANCH  61  78
ATOM     78  C   UNL A   1      45.036  25.413  33.185  1.00  0.00     0.057 A 
ATOM     79  C   UNL A   1      46.428  25.314  33.330  1.00  0.00     0.134 A 
ATOM     80  C   UNL A   1      44.308  24.473  33.959  1.00  0.00     0.134 A 
ATOM     81  F   UNL A   1      47.266  26.229  32.829  1.00  0.00    -0.206 F 
ATOM     82  C   UNL A   1      47.045  24.294  34.067  1.00  0.00     0.040 A 
ATOM     83  C   UNL A   1      44.912  23.485  34.740  1.00  0.00     0.040 A 
ATOM     84  F   UNL A   1      42.972  24.491  34.048  1.00  0.00    -0.206 F 
ATOM     85  C   UNL A   1      46.288  23.375  34.776  1.00  0.00     0.006 A 
ENDBRANCH  61  78
ENDBRANCH  35  36
ENDBRANCH  28  30
ENDBRANCH  27  28
ENDBRANCH  26  27
ENDBRANCH  25  26
ENDBRANCH  24  25
ENDBRANCH   1  24
TORSDOF 18
ENDMDL
MODEL 2
REMARK VINA RESULT:     -10.7      3.927      9.290
REMARK SMILES Cc1cccc(CS[C@@H]2CC[C@]([NH3+])(C(=O)OCCOCCOC(=O)c3ccc(-c4c5nc(c(-c6c(F)cccc6F)c6ccc([nH]6)c(-c6c(F)cccc6F)c6nc(c(-c7c(F)cccc7F)c7ccc4[nH]7)C=C6)C=C5)cc3)C2)c1
REMARK SMILES IDX 18 1 17 2 16 3 14 4 15 5 12 6 9 7 10 8 79 9 11 10 8 11 7 12
REMARK SMILES IDX 6 13 1 14 2 15 3 16 80 17 4 18 5 19 13 20 19 24 20 25 21 26
REMARK SMILES IDX 22 27 23 28 24 29 25 30 26 31 78 32 27 33 77 34 28 35 29 36
REMARK SMILES IDX 30 37 71 38 31 39 76 40 70 41 72 42 32 43 75 44 69 45 68 46
REMARK SMILES IDX 33 48 59 49 42 50 58 51 43 52 46 53 57 54 73 55 44 56 45 57
REMARK SMILES IDX 56 59 74 60 47 61 34 62 35 63 40 64 36 65 37 66 39 67 41 68
REMARK SMILES IDX 38 69 60 70 61 71 66 72 62 73 63 74 65 75 67 76 64 77 48 78
REMARK SMILES IDX 49 79 54 80 50 81 51 82 53 83 55 84 52 85
REMARK H PARENT 13 21 13 22 13 23 72 47 46 58
REMARK Flexibility Score: inf
ROOT
ATOM      1  C   UNL A   1      36.388  20.734  24.995  1.00  0.00     0.202 C 
ENDROOT
BRANCH   1   2
ATOM      2  C   UNL A   1      35.236  21.600  25.443  1.00  0.00     0.261 C 
BRANCH   2   3
ATOM      3  O   UNL A   1      34.375  21.907  24.359  1.00  0.00    -0.459 OA
BRANCH   3   4
ATOM      4  C   UNL A   1      34.631  23.087  23.716  1.00  0.00     0.368 C 
ATOM      5  O   UNL A   1      35.465  23.281  22.845  1.00  0.00    -0.245 OA
BRANCH   4   6
ATOM      6  C   UNL A   1      33.550  24.084  24.134  1.00  0.00     0.193 C 
ATOM      7  C   UNL A   1      32.693  26.298  23.794  1.00  0.00     0.054 C 
ATOM      8  C   UNL A   1      33.377  26.302  25.162  1.00  0.00     0.022 C 
ATOM      9  C   UNL A   1      33.257  25.105  23.033  1.00  0.00     0.095 C 
ATOM     10  C   UNL A   1      34.055  24.945  25.298  1.00  0.00     0.082 C 
BRANCH   7  11
ATOM     11  S   UNL A   1      32.670  27.881  22.886  1.00  0.00    -0.154 SA
BRANCH  11  12
ATOM     12  C   UNL A   1      31.718  29.003  23.979  1.00  0.00     0.105 C 
BRANCH  12  13
ATOM     13  C   UNL A   1      30.254  29.163  23.649  1.00  0.00    -0.038 A 
ATOM     14  C   UNL A   1      27.645  31.931  23.213  1.00  0.00     0.044 C 
ATOM     15  C   UNL A   1      28.303  30.591  23.294  1.00  0.00    -0.051 A 
ATOM     16  C   UNL A   1      27.531  29.472  22.994  1.00  0.00     0.003 A 
ATOM     17  C   UNL A   1      29.662  30.436  23.630  1.00  0.00     0.008 A 
ATOM     18  C   UNL A   1      28.110  28.212  22.982  1.00  0.00     0.001 A 
ATOM     19  C   UNL A   1      29.465  28.063  23.277  1.00  0.00     0.004 A 
ENDBRANCH  12  13
ENDBRANCH  11  12
ENDBRANCH   7  11
BRANCH   6  20
ATOM     20  N   UNL A   1      32.329  23.328  24.511  1.00  0.00    -0.343 N 
ATOM     21  H   UNL A   1      31.649  23.381  23.753  1.00  0.00     0.345 HD
ATOM     22  H   UNL A   1      31.926  23.732  25.357  1.00  0.00     0.345 HD
ATOM     23  H   UNL A   1      32.573  22.353  24.683  1.00  0.00     0.345 HD
ENDBRANCH   6  20
ENDBRANCH   4   6
ENDBRANCH   3   4
ENDBRANCH   2   3
ENDBRANCH   1   2
BRANCH   1  24
ATOM     24  O   UNL A   1      37.580  21.438  25.319  1.00  0.00    -0.374 OA
BRANCH  24  25
ATOM     25  C   UNL A   1      38.743  20.642  25.459  1.00  0.00     0.202 C 
BRANCH  25  26
ATOM     26  C   UNL A   1      39.855  21.322  26.276  1.00  0.00     0.261 C 
BRANCH  26  27
ATOM     27  O   UNL A   1      39.488  22.687  26.576  1.00  0.00    -0.460 OA
BRANCH  27  28
ATOM     28  C   UNL A   1      40.332  23.386  27.378  1.00  0.00     0.338 C 
ATOM     29  O   UNL A   1      41.134  22.894  28.174  1.00  0.00    -0.246 OA
BRANCH  28  30
ATOM     30  C   UNL A   1      39.950  24.825  27.386  1.00  0.00     0.060 A 
ATOM     31  C   UNL A   1      40.485  25.716  26.432  1.00  0.00     0.016 A 
ATOM     32  C   UNL A   1      39.365  25.323  28.544  1.00  0.00     0.016 A 
ATOM     33  C   UNL A   1      40.589  27.082  26.727  1.00  0.00     0.010 A 
ATOM     34  C   UNL A   1      39.598  26.632  28.882  1.00  0.00     0.010 A 
ATOM     35  C   UNL A   1      40.235  27.519  27.998  1.00  0.00    -0.014 A 
BRANCH  35  36
ATOM     36  C   UNL A   1      40.581  28.795  28.635  1.00  0.00     0.031 A 
ATOM     37  C   UNL A   1      39.485  29.763  28.849  1.00  0.00     0.074 A 
ATOM     38  C   UNL A   1      41.735  28.903  29.332  1.00  0.00     0.049 A 
ATOM     39  N   UNL A   1      39.540  30.756  29.657  1.00  0.00    -0.248 NA
ATOM     40  C   UNL A   1      38.205  29.683  28.141  1.00  0.00     0.031 C 
ATOM     41  C   UNL A   1      42.001  29.669  30.556  1.00  0.00     0.029 A 
ATOM     42  N   UNL A   1      42.961  28.322  29.048  1.00  0.00    -0.354 N 
ATOM     43  C   UNL A   1      38.311  31.364  29.685  1.00  0.00     0.074 A 
ATOM     44  C   UNL A   1      37.497  30.640  28.750  1.00  0.00     0.031 C 
ATOM     45  C   UNL A   1      43.316  29.620  30.818  1.00  0.00     0.029 A 
ATOM     46  C   UNL A   1      43.976  29.029  29.689  1.00  0.00     0.049 A 
ATOM     47  H   UNL A   1      43.094  27.529  28.480  1.00  0.00     0.167 HD
ATOM     48  C   UNL A   1      38.156  32.419  30.523  1.00  0.00     0.037 A 
ATOM     49  C   UNL A   1      44.913  29.638  28.912  1.00  0.00     0.037 A 
ATOM     50  C   UNL A   1      39.472  32.961  30.873  1.00  0.00     0.049 A 
ATOM     51  C   UNL A   1      44.656  31.132  28.842  1.00  0.00     0.074 A 
ATOM     52  C   UNL A   1      40.154  33.163  32.051  1.00  0.00     0.029 A 
ATOM     53  N   UNL A   1      40.378  33.238  29.836  1.00  0.00    -0.354 N 
ATOM     54  N   UNL A   1      43.495  31.717  29.046  1.00  0.00    -0.248 NA
ATOM     55  C   UNL A   1      45.750  32.086  28.708  1.00  0.00     0.031 C 
ATOM     56  C   UNL A   1      41.455  33.608  31.711  1.00  0.00     0.029 A 
ATOM     57  C   UNL A   1      41.623  33.552  30.330  1.00  0.00     0.049 A 
ATOM     58  H   UNL A   1      40.153  33.209  28.878  1.00  0.00     0.167 HD
ATOM     59  C   UNL A   1      43.676  33.080  29.119  1.00  0.00     0.074 A 
ATOM     60  C   UNL A   1      45.108  33.249  28.907  1.00  0.00     0.031 C 
ATOM     61  C   UNL A   1      42.710  33.998  29.453  1.00  0.00     0.037 A 
BRANCH  48  62
ATOM     62  C   UNL A   1      36.850  32.918  31.106  1.00  0.00     0.057 A 
ATOM     63  C   UNL A   1      36.416  32.470  32.371  1.00  0.00     0.134 A 
ATOM     64  C   UNL A   1      35.901  33.706  30.424  1.00  0.00     0.134 A 
ATOM     65  F   UNL A   1      37.200  31.724  33.162  1.00  0.00    -0.206 F 
ATOM     66  C   UNL A   1      35.140  32.742  32.891  1.00  0.00     0.040 A 
ATOM     67  C   UNL A   1      34.639  34.026  30.954  1.00  0.00     0.040 A 
ATOM     68  F   UNL A   1      36.108  34.174  29.189  1.00  0.00    -0.206 F 
ATOM     69  C   UNL A   1      34.246  33.525  32.183  1.00  0.00     0.006 A 
ENDBRANCH  48  62
BRANCH  49  70
ATOM     70  C   UNL A   1      45.398  28.657  27.881  1.00  0.00     0.057 A 
ATOM     71  C   UNL A   1      46.211  27.619  28.402  1.00  0.00     0.134 A 
ATOM     72  C   UNL A   1      44.617  28.330  26.764  1.00  0.00     0.134 A 
ATOM     73  F   UNL A   1      47.007  27.861  29.456  1.00  0.00    -0.206 F 
ATOM     74  C   UNL A   1      46.050  26.283  28.015  1.00  0.00     0.040 A 
ATOM     75  C   UNL A   1      44.482  26.994  26.344  1.00  0.00     0.040 A 
ATOM     76  F   UNL A   1      43.825  29.248  26.194  1.00  0.00    -0.206 F 
ATOM     77  C   UNL A   1      45.139  25.962  27.016  1.00  0.00     0.006 A 
ENDBRANCH  49  70
BRANCH  61  78
ATOM     78  C   UNL A   1      42.773  35.485  29.128  1.00  0.00     0.057 A 
ATOM     79  C   UNL A   1      41.970  36.140  28.182  1.00  0.00     0.134 A 
ATOM     80  C   UNL A   1      43.580  36.359  29.902  1.00  0.00     0.134 A 
ATOM     81  F   UNL A   1      41.013  35.506  27.496  1.00  0.00    -0.206 F 
ATOM     82  C   UNL A   1      42.055  37.517  27.936  1.00  0.00     0.040 A 
ATOM     83  C   UNL A   1      43.634  37.740  29.701  1.00  0.00     0.040 A 
ATOM     84  F   UNL A   1      44.320  35.934  30.934  1.00  0.00    -0.206 F 
ATOM     85  C   UNL A   1      42.888  38.323  28.695  1.00  0.00     0.006 A 
ENDBRANCH  61  78
ENDBRANCH  35  36
ENDBRANCH  28  30
ENDBRANCH  27  28
ENDBRANCH  26  27
ENDBRANCH  25  26
ENDBRANCH  24  25
ENDBRANCH   1  24
TORSDOF 18
ENDMDL
MODEL 3
REMARK VINA RESULT:     -10.6      5.293     11.610
REMARK SMILES Cc1cccc(CS[C@@H]2CC[C@]([NH3+])(C(=O)OCCOCCOC(=O)c3ccc(-c4c5nc(c(-c6c(F)cccc6F)c6ccc([nH]6)c(-c6c(F)cccc6F)c6nc(c(-c7c(F)cccc7F)c7ccc4[nH]7)C=C6)C=C5)cc3)C2)c1
REMARK SMILES IDX 18 1 17 2 16 3 14 4 15 5 12 6 9 7 10 8 79 9 11 10 8 11 7 12
REMARK SMILES IDX 6 13 1 14 2 15 3 16 80 17 4 18 5 19 13 20 19 24 20 25 21 26
REMARK SMILES IDX 22 27 23 28 24 29 25 30 26 31 78 32 27 33 77 34 28 35 29 36
REMARK SMILES IDX 30 37 71 38 31 39 76 40 70 41 72 42 32 43 75 44 69 45 68 46
REMARK SMILES IDX 33 48 59 49 42 50 58 51 43 52 46 53 57 54 73 55 44 56 45 57
REMARK SMILES IDX 56 59 74 60 47 61 34 62 35 63 40 64 36 65 37 66 39 67 41 68
REMARK SMILES IDX 38 69 60 70 61 71 66 72 62 73 63 74 65 75 67 76 64 77 48 78
REMARK SMILES IDX 49 79 54 80 50 81 51 82 53 83 55 84 52 85
REMARK H PARENT 13 21 13 22 13 23 72 47 46 58
REMARK Flexibility Score: inf
ROOT
ATOM      1  C   UNL A   1      44.737  23.452  24.525  1.00  0.00     0.202 C 
ENDROOT
BRANCH   1   2
ATOM      2  C   UNL A   1      46.188  23.056  24.407  1.00  0.00     0.261 C 
BRANCH   2   3
ATOM      3  O   UNL A   1      47.021  24.196  24.278  1.00  0.00    -0.459 OA
BRANCH   3   4
ATOM      4  C   UNL A   1      47.358  24.817  25.449  1.00  0.00     0.368 C 
ATOM      5  O   UNL A   1      47.568  24.284  26.528  1.00  0.00    -0.245 OA
BRANCH   4   6
ATOM      6  C   UNL A   1      47.626  26.289  25.130  1.00  0.00     0.193 C 
ATOM      7  C   UNL A   1      47.532  28.527  25.988  1.00  0.00     0.054 C 
ATOM      8  C   UNL A   1      46.395  28.402  24.972  1.00  0.00     0.022 C 
ATOM      9  C   UNL A   1      47.906  27.106  26.393  1.00  0.00     0.095 C 
ATOM     10  C   UNL A   1      46.362  26.937  24.554  1.00  0.00     0.082 C 
BRANCH   7  11
ATOM     11  S   UNL A   1      47.276  29.702  27.360  1.00  0.00    -0.154 SA
BRANCH  11  12
ATOM     12  C   UNL A   1      45.624  30.421  27.023  1.00  0.00     0.105 C 
BRANCH  12  13
ATOM     13  C   UNL A   1      45.562  31.928  26.943  1.00  0.00    -0.038 A 
ATOM     14  C   UNL A   1      43.366  34.683  25.445  1.00  0.00     0.044 C 
ATOM     15  C   UNL A   1      44.463  33.966  26.164  1.00  0.00    -0.051 A 
ATOM     16  C   UNL A   1      45.415  34.739  26.825  1.00  0.00     0.003 A 
ATOM     17  C   UNL A   1      44.541  32.562  26.217  1.00  0.00     0.008 A 
ATOM     18  C   UNL A   1      46.412  34.126  27.568  1.00  0.00     0.001 A 
ATOM     19  C   UNL A   1      46.466  32.735  27.652  1.00  0.00     0.004 A 
ENDBRANCH  12  13
ENDBRANCH  11  12
ENDBRANCH   7  11
BRANCH   6  20
ATOM     20  N   UNL A   1      48.758  26.366  24.172  1.00  0.00    -0.343 N 
ATOM     21  H   UNL A   1      48.739  25.552  23.558  1.00  0.00     0.345 HD
ATOM     22  H   UNL A   1      49.639  26.382  24.687  1.00  0.00     0.345 HD
ATOM     23  H   UNL A   1      48.675  27.216  23.615  1.00  0.00     0.345 HD
ENDBRANCH   6  20
ENDBRANCH   4   6
ENDBRANCH   3   4
ENDBRANCH   2   3
ENDBRANCH   1   2
BRANCH   1  24
ATOM     24  O   UNL A   1      44.084  22.412  25.243  1.00  0.00    -0.374 OA
BRANCH  24  25
ATOM     25  C   UNL A   1      42.682  22.549  25.382  1.00  0.00     0.202 C 
BRANCH  25  26
ATOM     26  C   UNL A   1      42.097  21.714  26.533  1.00  0.00     0.261 C 
BRANCH  26  27
ATOM     27  O   UNL A   1      41.212  22.526  27.337  1.00  0.00    -0.460 OA
BRANCH  27  28
ATOM     28  C   UNL A   1      39.993  22.811  26.810  1.00  0.00     0.338 C 
ATOM     29  O   UNL A   1      39.339  22.067  26.078  1.00  0.00    -0.246 OA
BRANCH  28  30
ATOM     30  C   UNL A   1      39.687  24.256  26.990  1.00  0.00     0.060 A 
ATOM     31  C   UNL A   1      40.380  25.236  26.248  1.00  0.00     0.016 A 
ATOM     32  C   UNL A   1      38.989  24.623  28.134  1.00  0.00     0.016 A 
ATOM     33  C   UNL A   1      40.517  26.536  26.755  1.00  0.00     0.010 A 
ATOM     34  C   UNL A   1      39.245  25.852  28.690  1.00  0.00     0.010 A 
ATOM     35  C   UNL A   1      40.031  26.810  28.027  1.00  0.00    -0.014 A 
BRANCH  35  36
ATOM     36  C   UNL A   1      40.360  27.955  28.885  1.00  0.00     0.031 A 
ATOM     37  C   UNL A   1      39.392  29.072  28.922  1.00  0.00     0.074 A 
ATOM     38  C   UNL A   1      41.279  27.813  29.867  1.00  0.00     0.049 A 
ATOM     39  N   UNL A   1      39.358  29.973  29.831  1.00  0.00    -0.248 NA
ATOM     40  C   UNL A   1      38.360  29.263  27.899  1.00  0.00     0.031 C 
ATOM     41  C   UNL A   1      41.298  28.423  31.202  1.00  0.00     0.029 A 
ATOM     42  N   UNL A   1      42.442  27.060  29.843  1.00  0.00    -0.354 N 
ATOM     43  C   UNL A   1      38.266  30.773  29.611  1.00  0.00     0.074 A 
ATOM     44  C   UNL A   1      37.651  30.272  28.414  1.00  0.00     0.031 C 
ATOM     45  C   UNL A   1      42.469  28.135  31.790  1.00  0.00     0.029 A 
ATOM     46  C   UNL A   1      43.328  27.535  30.809  1.00  0.00     0.049 A 
ATOM     47  H   UNL A   1      42.616  26.305  29.237  1.00  0.00     0.167 HD
ATOM     48  C   UNL A   1      38.032  31.768  30.503  1.00  0.00     0.037 A 
ATOM     49  C   UNL A   1      44.519  28.040  30.385  1.00  0.00     0.037 A 
ATOM     50  C   UNL A   1      39.261  32.054  31.248  1.00  0.00     0.049 A 
ATOM     51  C   UNL A   1      44.500  29.556  30.434  1.00  0.00     0.074 A 
ATOM     52  C   UNL A   1      39.611  32.044  32.579  1.00  0.00     0.029 A 
ATOM     53  N   UNL A   1      40.449  32.258  30.526  1.00  0.00    -0.354 N 
ATOM     54  N   UNL A   1      43.420  30.308  30.398  1.00  0.00    -0.248 NA
ATOM     55  C   UNL A   1      45.709  30.323  30.708  1.00  0.00     0.031 C 
ATOM     56  C   UNL A   1      41.004  32.292  32.648  1.00  0.00     0.029 A 
ATOM     57  C   UNL A   1      41.539  32.320  31.363  1.00  0.00     0.049 A 
ATOM     58  H   UNL A   1      40.496  32.344  29.546  1.00  0.00     0.167 HD
ATOM     59  C   UNL A   1      43.761  31.612  30.682  1.00  0.00     0.074 A 
ATOM     60  C   UNL A   1      45.205  31.556  30.874  1.00  0.00     0.031 C 
ATOM     61  C   UNL A   1      42.877  32.648  30.861  1.00  0.00     0.037 A 
BRANCH  48  62
ATOM     62  C   UNL A   1      36.697  32.429  30.780  1.00  0.00     0.057 A 
ATOM     63  C   UNL A   1      36.237  33.479  29.959  1.00  0.00     0.134 A 
ATOM     64  C   UNL A   1      35.893  32.198  31.915  1.00  0.00     0.134 A 
ATOM     65  F   UNL A   1      36.873  33.822  28.830  1.00  0.00    -0.206 F 
ATOM     66  C   UNL A   1      35.108  34.257  30.261  1.00  0.00     0.040 A 
ATOM     67  C   UNL A   1      34.733  32.938  32.202  1.00  0.00     0.040 A 
ATOM     68  F   UNL A   1      36.200  31.283  32.839  1.00  0.00    -0.206 F 
ATOM     69  C   UNL A   1      34.348  33.986  31.385  1.00  0.00     0.006 A 
ENDBRANCH  48  62
BRANCH  49  70
ATOM     70  C   UNL A   1      45.129  27.078  29.404  1.00  0.00     0.057 A 
ATOM     71  C   UNL A   1      45.651  25.899  29.994  1.00  0.00     0.134 A 
ATOM     72  C   UNL A   1      44.627  26.949  28.103  1.00  0.00     0.134 A 
ATOM     73  F   UNL A   1      46.174  25.946  31.229  1.00  0.00    -0.206 F 
ATOM     74  C   UNL A   1      45.436  24.632  29.438  1.00  0.00     0.040 A 
ATOM     75  C   UNL A   1      44.445  25.680  27.521  1.00  0.00     0.040 A 
ATOM     76  F   UNL A   1      44.123  28.010  27.458  1.00  0.00    -0.206 F 
ATOM     77  C   UNL A   1      44.778  24.518  28.219  1.00  0.00     0.006 A 
ENDBRANCH  49  70
BRANCH  61  78
ATOM     78  C   UNL A   1      43.233  34.125  30.750  1.00  0.00     0.057 A 
ATOM     79  C   UNL A   1      43.996  34.844  31.683  1.00  0.00     0.134 A 
ATOM     80  C   UNL A   1      42.928  34.854  29.572  1.00  0.00     0.134 A 
ATOM     81  F   UNL A   1      44.535  34.266  32.762  1.00  0.00    -0.206 F 
ATOM     82  C   UNL A   1      44.312  36.200  31.523  1.00  0.00     0.040 A 
ATOM     83  C   UNL A   1      43.284  36.191  29.379  1.00  0.00     0.040 A 
ATOM     84  F   UNL A   1      42.316  34.300  28.518  1.00  0.00    -0.206 F 
ATOM     85  C   UNL A   1      43.958  36.879  30.369  1.00  0.00     0.006 A 
ENDBRANCH  61  78
ENDBRANCH  35  36
ENDBRANCH  28  30
ENDBRANCH  27  28
ENDBRANCH  26  27
ENDBRANCH  25  26
ENDBRANCH  24  25
ENDBRANCH   1  24
TORSDOF 18
ENDMDL
