MODEL 1
REMARK VINA RESULT:      -9.5      0.000      0.000
REMARK SMILES CC(=O)NNC(=O)CSC[C@@H]([NH3+])C(=O)OCCOCCOC(=O)c1ccc(-c2c3nc(c(-c4c(F)cccc4F)c4ccc([nH]4)c(-c4c(F)cccc4F)c4nc(c(-c5c(F)cccc5F)c5ccc2[nH]5)C=C4)C=C3)cc1
REMARK SMILES IDX 16 1 15 2 13 3 14 4 11 5 10 6 9 7 8 8 6 9 5 10 7 12 4 13
REMARK SMILES IDX 1 14 2 15 3 16 12 18 17 22 18 23 19 24 20 25 21 26 22 27
REMARK SMILES IDX 23 28 24 29 25 30 77 31 26 32 76 33 27 34 28 35 29 36 70 37
REMARK SMILES IDX 30 38 75 39 69 40 71 41 31 42 74 43 68 44 67 45 32 47 58 48
REMARK SMILES IDX 41 49 57 50 42 51 45 52 56 53 72 54 43 55 44 56 55 58 73 59
REMARK SMILES IDX 46 60 33 61 34 62 39 63 35 64 36 65 38 66 40 67 37 68 59 69
REMARK SMILES IDX 60 70 65 71 61 72 62 73 64 74 66 75 63 76 47 77 48 78 53 79
REMARK SMILES IDX 49 80 50 81 52 82 54 83 51 84
REMARK H PARENT 5 11 4 17 12 19 12 20 12 21 71 46 45 57
REMARK Flexibility Score: inf
ROOT
ATOM      1  C   UNL A   1      34.008  36.782  33.471  1.00  0.00     0.261 C 
ENDROOT
BRANCH   1   2
ATOM      2  O   UNL A   1      33.877  37.424  32.193  1.00  0.00    -0.459 OA
BRANCH   2   3
ATOM      3  C   UNL A   1      33.058  36.798  31.308  1.00  0.00     0.365 C 
ATOM      4  O   UNL A   1      31.889  36.490  31.531  1.00  0.00    -0.245 OA
BRANCH   3   5
ATOM      5  C   UNL A   1      33.710  36.529  29.939  1.00  0.00     0.301 C 
BRANCH   5   6
ATOM      6  C   UNL A   1      33.283  35.211  29.275  1.00  0.00     0.147 C 
BRANCH   6   7
ATOM      7  S   UNL A   1      34.432  33.809  29.609  1.00  0.00    -0.145 SA
BRANCH   7   8
ATOM      8  C   UNL A   1      33.720  32.514  28.532  1.00  0.00     0.171 C 
BRANCH   8   9
ATOM      9  C   UNL A   1      34.786  31.801  27.722  1.00  0.00     0.248 C 
ATOM     10  N   UNL A   1      34.419  30.760  26.905  1.00  0.00    -0.267 N 
ATOM     11  H   UNL A   1      35.127  30.296  26.404  1.00  0.00     0.191 HD
ATOM     12  O   UNL A   1      35.972  32.127  27.775  1.00  0.00    -0.272 OA
BRANCH  10  13
ATOM     13  N   UNL A   1      33.110  30.316  26.741  1.00  0.00    -0.268 N 
ATOM     14  C   UNL A   1      33.870  27.979  26.613  1.00  0.00     0.116 C 
ATOM     15  C   UNL A   1      32.761  28.996  26.603  1.00  0.00     0.235 C 
ATOM     16  O   UNL A   1      31.584  28.675  26.460  1.00  0.00    -0.274 OA
ATOM     17  H   UNL A   1      32.392  30.990  26.722  1.00  0.00     0.191 HD
ENDBRANCH  10  13
ENDBRANCH   8   9
ENDBRANCH   7   8
ENDBRANCH   6   7
ENDBRANCH   5   6
BRANCH   5  18
ATOM     18  N   UNL A   1      33.466  37.709  29.077  1.00  0.00    -0.345 N 
ATOM     19  H   UNL A   1      32.536  37.640  28.663  1.00  0.00     0.345 HD
ATOM     20  H   UNL A   1      34.166  37.738  28.336  1.00  0.00     0.345 HD
ATOM     21  H   UNL A   1      33.528  38.558  29.637  1.00  0.00     0.345 HD
ENDBRANCH   5  18
ENDBRANCH   3   5
ENDBRANCH   2   3
ENDBRANCH   1   2
BRANCH   1  22
ATOM     22  C   UNL A   1      34.637  35.392  33.343  1.00  0.00     0.202 C 
BRANCH  22  23
ATOM     23  O   UNL A   1      36.054  35.350  33.199  1.00  0.00    -0.374 OA
BRANCH  23  24
ATOM     24  C   UNL A   1      36.804  34.691  34.221  1.00  0.00     0.202 C 
BRANCH  24  25
ATOM     25  C   UNL A   1      36.251  33.352  34.730  1.00  0.00     0.261 C 
BRANCH  25  26
ATOM     26  O   UNL A   1      36.911  32.220  34.129  1.00  0.00    -0.460 OA
BRANCH  26  27
ATOM     27  C   UNL A   1      36.327  31.759  32.997  1.00  0.00     0.338 C 
ATOM     28  O   UNL A   1      35.188  31.980  32.608  1.00  0.00    -0.246 OA
BRANCH  27  29
ATOM     29  C   UNL A   1      37.314  31.062  32.154  1.00  0.00     0.060 A 
ATOM     30  C   UNL A   1      38.417  30.483  32.794  1.00  0.00     0.016 A 
ATOM     31  C   UNL A   1      37.222  31.063  30.761  1.00  0.00     0.016 A 
ATOM     32  C   UNL A   1      39.460  29.946  32.042  1.00  0.00     0.010 A 
ATOM     33  C   UNL A   1      38.276  30.531  30.007  1.00  0.00     0.010 A 
ATOM     34  C   UNL A   1      39.415  30.005  30.644  1.00  0.00    -0.014 A 
BRANCH  34  35
ATOM     35  C   UNL A   1      40.626  29.654  29.862  1.00  0.00     0.031 A 
ATOM     36  C   UNL A   1      40.751  28.268  29.291  1.00  0.00     0.074 A 
ATOM     37  C   UNL A   1      41.584  30.566  29.626  1.00  0.00     0.049 A 
ATOM     38  N   UNL A   1      41.724  27.741  28.591  1.00  0.00    -0.248 NA
ATOM     39  C   UNL A   1      39.626  27.352  29.540  1.00  0.00     0.031 C 
ATOM     40  C   UNL A   1      41.562  31.954  30.085  1.00  0.00     0.029 A 
ATOM     41  N   UNL A   1      42.766  30.458  28.937  1.00  0.00    -0.354 N 
ATOM     42  C   UNL A   1      41.332  26.438  28.319  1.00  0.00     0.074 A 
ATOM     43  C   UNL A   1      40.045  26.241  28.953  1.00  0.00     0.031 C 
ATOM     44  C   UNL A   1      42.683  32.568  29.668  1.00  0.00     0.029 A 
ATOM     45  C   UNL A   1      43.512  31.611  28.939  1.00  0.00     0.049 A 
ATOM     46  H   UNL A   1      43.052  29.632  28.483  1.00  0.00     0.167 HD
ATOM     47  C   UNL A   1      41.978  25.490  27.598  1.00  0.00     0.037 A 
ATOM     48  C   UNL A   1      44.732  31.858  28.425  1.00  0.00     0.037 A 
ATOM     49  C   UNL A   1      43.256  25.683  26.964  1.00  0.00     0.049 A 
ATOM     50  C   UNL A   1      45.464  30.767  27.690  1.00  0.00     0.074 A 
ATOM     51  C   UNL A   1      43.985  24.786  26.202  1.00  0.00     0.029 A 
ATOM     52  N   UNL A   1      43.998  26.853  27.025  1.00  0.00    -0.354 N 
ATOM     53  N   UNL A   1      45.076  29.543  27.426  1.00  0.00    -0.248 NA
ATOM     54  C   UNL A   1      46.805  31.093  27.182  1.00  0.00     0.031 C 
ATOM     55  C   UNL A   1      45.188  25.400  25.836  1.00  0.00     0.029 A 
ATOM     56  C   UNL A   1      45.187  26.694  26.333  1.00  0.00     0.049 A 
ATOM     57  H   UNL A   1      43.720  27.674  27.490  1.00  0.00     0.167 HD
ATOM     58  C   UNL A   1      46.110  28.964  26.699  1.00  0.00     0.074 A 
ATOM     59  C   UNL A   1      47.138  29.973  26.556  1.00  0.00     0.031 C 
ATOM     60  C   UNL A   1      46.198  27.709  26.193  1.00  0.00     0.037 A 
BRANCH  47  61
ATOM     61  C   UNL A   1      41.318  24.150  27.472  1.00  0.00     0.057 A 
ATOM     62  C   UNL A   1      40.240  23.936  26.603  1.00  0.00     0.134 A 
ATOM     63  C   UNL A   1      41.786  23.052  28.205  1.00  0.00     0.134 A 
ATOM     64  F   UNL A   1      39.735  24.949  25.884  1.00  0.00    -0.206 F 
ATOM     65  C   UNL A   1      39.639  22.682  26.483  1.00  0.00     0.040 A 
ATOM     66  C   UNL A   1      41.209  21.789  28.076  1.00  0.00     0.040 A 
ATOM     67  F   UNL A   1      42.818  23.190  29.053  1.00  0.00    -0.206 F 
ATOM     68  C   UNL A   1      40.128  21.602  27.217  1.00  0.00     0.006 A 
ENDBRANCH  47  61
BRANCH  48  69
ATOM     69  C   UNL A   1      45.352  33.196  28.595  1.00  0.00     0.057 A 
ATOM     70  C   UNL A   1      46.190  33.475  29.681  1.00  0.00     0.134 A 
ATOM     71  C   UNL A   1      45.103  34.232  27.688  1.00  0.00     0.134 A 
ATOM     72  F   UNL A   1      46.444  32.529  30.597  1.00  0.00    -0.206 F 
ATOM     73  C   UNL A   1      46.746  34.742  29.868  1.00  0.00     0.040 A 
ATOM     74  C   UNL A   1      45.672  35.496  27.849  1.00  0.00     0.040 A 
ATOM     75  F   UNL A   1      44.308  34.028  26.628  1.00  0.00    -0.206 F 
ATOM     76  C   UNL A   1      46.491  35.755  28.946  1.00  0.00     0.006 A 
ENDBRANCH  48  69
BRANCH  60  77
ATOM     77  C   UNL A   1      47.432  27.367  25.411  1.00  0.00     0.057 A 
ATOM     78  C   UNL A   1      48.533  26.741  26.005  1.00  0.00     0.134 A 
ATOM     79  C   UNL A   1      47.500  27.630  24.037  1.00  0.00     0.134 A 
ATOM     80  F   UNL A   1      48.536  26.472  27.320  1.00  0.00    -0.206 F 
ATOM     81  C   UNL A   1      49.668  26.405  25.264  1.00  0.00     0.040 A 
ATOM     82  C   UNL A   1      48.618  27.278  23.281  1.00  0.00     0.040 A 
ATOM     83  F   UNL A   1      46.474  28.219  23.404  1.00  0.00    -0.206 F 
ATOM     84  C   UNL A   1      49.709  26.668  23.896  1.00  0.00     0.006 A 
ENDBRANCH  60  77
ENDBRANCH  34  35
ENDBRANCH  27  29
ENDBRANCH  26  27
ENDBRANCH  25  26
ENDBRANCH  24  25
ENDBRANCH  23  24
ENDBRANCH  22  23
ENDBRANCH   1  22
TORSDOF 20
ENDMDL
MODEL 2
REMARK VINA RESULT:      -9.3      4.120      9.109
REMARK SMILES CC(=O)NNC(=O)CSC[C@@H]([NH3+])C(=O)OCCOCCOC(=O)c1ccc(-c2c3nc(c(-c4c(F)cccc4F)c4ccc([nH]4)c(-c4c(F)cccc4F)c4nc(c(-c5c(F)cccc5F)c5ccc2[nH]5)C=C4)C=C3)cc1
REMARK SMILES IDX 16 1 15 2 13 3 14 4 11 5 10 6 9 7 8 8 6 9 5 10 7 12 4 13
REMARK SMILES IDX 1 14 2 15 3 16 12 18 17 22 18 23 19 24 20 25 21 26 22 27
REMARK SMILES IDX 23 28 24 29 25 30 77 31 26 32 76 33 27 34 28 35 29 36 70 37
REMARK SMILES IDX 30 38 75 39 69 40 71 41 31 42 74 43 68 44 67 45 32 47 58 48
REMARK SMILES IDX 41 49 57 50 42 51 45 52 56 53 72 54 43 55 44 56 55 58 73 59
REMARK SMILES IDX 46 60 33 61 34 62 39 63 35 64 36 65 38 66 40 67 37 68 59 69
REMARK SMILES IDX 60 70 65 71 61 72 62 73 64 74 66 75 63 76 47 77 48 78 53 79
REMARK SMILES IDX 49 80 50 81 52 82 54 83 51 84
REMARK H PARENT 5 11 4 17 12 19 12 20 12 21 71 46 45 57
REMARK Flexibility Score: inf
ROOT
ATOM      1  C   UNL A   1      33.259  22.254  26.155  1.00  0.00     0.261 C 
ENDROOT
BRANCH   1   2
ATOM      2  O   UNL A   1      32.292  22.946  26.961  1.00  0.00    -0.459 OA
BRANCH   2   3
ATOM      3  C   UNL A   1      31.079  23.135  26.380  1.00  0.00     0.365 C 
ATOM      4  O   UNL A   1      30.268  22.241  26.140  1.00  0.00    -0.245 OA
BRANCH   3   5
ATOM      5  C   UNL A   1      30.760  24.609  26.067  1.00  0.00     0.301 C 
BRANCH   5   6
ATOM      6  C   UNL A   1      31.018  25.024  24.611  1.00  0.00     0.147 C 
BRANCH   6   7
ATOM      7  S   UNL A   1      30.288  26.658  24.168  1.00  0.00    -0.145 SA
BRANCH   7   8
ATOM      8  C   UNL A   1      31.360  27.150  22.772  1.00  0.00     0.171 C 
BRANCH   8   9
ATOM      9  C   UNL A   1      32.135  28.418  23.071  1.00  0.00     0.248 C 
ATOM     10  N   UNL A   1      31.745  29.595  22.479  1.00  0.00    -0.267 N 
ATOM     11  H   UNL A   1      32.273  30.403  22.669  1.00  0.00     0.191 HD
ATOM     12  O   UNL A   1      33.105  28.426  23.830  1.00  0.00    -0.272 OA
BRANCH  10  13
ATOM     13  N   UNL A   1      30.653  29.718  21.626  1.00  0.00    -0.268 N 
ATOM     14  C   UNL A   1      29.227  30.468  23.487  1.00  0.00     0.116 C 
ATOM     15  C   UNL A   1      29.411  30.140  22.030  1.00  0.00     0.235 C 
ATOM     16  O   UNL A   1      28.489  30.226  21.222  1.00  0.00    -0.274 OA
ATOM     17  H   UNL A   1      30.778  29.490  20.676  1.00  0.00     0.191 HD
ENDBRANCH  10  13
ENDBRANCH   8   9
ENDBRANCH   7   8
ENDBRANCH   6   7
ENDBRANCH   5   6
BRANCH   5  18
ATOM     18  N   UNL A   1      29.369  24.878  26.501  1.00  0.00    -0.345 N 
ATOM     19  H   UNL A   1      28.794  24.053  26.327  1.00  0.00     0.345 HD
ATOM     20  H   UNL A   1      28.997  25.668  25.975  1.00  0.00     0.345 HD
ATOM     21  H   UNL A   1      29.359  25.095  27.497  1.00  0.00     0.345 HD
ENDBRANCH   5  18
ENDBRANCH   3   5
ENDBRANCH   2   3
ENDBRANCH   1   2
BRANCH   1  22
ATOM     22  C   UNL A   1      34.537  23.076  25.974  1.00  0.00     0.202 C 
BRANCH  22  23
ATOM     23  O   UNL A   1      35.759  22.345  25.924  1.00  0.00    -0.374 OA
BRANCH  23  24
ATOM     24  C   UNL A   1      35.728  21.045  25.331  1.00  0.00     0.202 C 
BRANCH  24  25
ATOM     25  C   UNL A   1      37.083  20.402  25.005  1.00  0.00     0.261 C 
BRANCH  25  26
ATOM     26  O   UNL A   1      38.162  21.357  25.014  1.00  0.00    -0.460 OA
BRANCH  26  27
ATOM     27  C   UNL A   1      39.131  21.109  25.929  1.00  0.00     0.338 C 
ATOM     28  O   UNL A   1      39.706  20.048  26.130  1.00  0.00    -0.246 OA
BRANCH  27  29
ATOM     29  C   UNL A   1      39.560  22.361  26.577  1.00  0.00     0.060 A 
ATOM     30  C   UNL A   1      38.968  23.552  26.139  1.00  0.00     0.016 A 
ATOM     31  C   UNL A   1      40.592  22.386  27.517  1.00  0.00     0.016 A 
ATOM     32  C   UNL A   1      39.439  24.779  26.601  1.00  0.00     0.010 A 
ATOM     33  C   UNL A   1      41.071  23.621  27.973  1.00  0.00     0.010 A 
ATOM     34  C   UNL A   1      40.521  24.823  27.489  1.00  0.00    -0.014 A 
BRANCH  34  35
ATOM     35  C   UNL A   1      41.167  26.124  27.785  1.00  0.00     0.031 A 
ATOM     36  C   UNL A   1      42.573  26.369  27.309  1.00  0.00     0.074 A 
ATOM     37  C   UNL A   1      40.499  27.095  28.432  1.00  0.00     0.049 A 
ATOM     38  N   UNL A   1      43.333  27.422  27.467  1.00  0.00    -0.248 NA
ATOM     39  C   UNL A   1      43.206  25.279  26.549  1.00  0.00     0.031 C 
ATOM     40  C   UNL A   1      39.120  27.000  28.907  1.00  0.00     0.029 A 
ATOM     41  N   UNL A   1      40.898  28.355  28.802  1.00  0.00    -0.354 N 
ATOM     42  C   UNL A   1      44.531  27.123  26.832  1.00  0.00     0.074 A 
ATOM     43  C   UNL A   1      44.409  25.779  26.310  1.00  0.00     0.031 C 
ATOM     44  C   UNL A   1      38.788  28.155  29.511  1.00  0.00     0.029 A 
ATOM     45  C   UNL A   1      39.938  29.056  29.490  1.00  0.00     0.049 A 
ATOM     46  H   UNL A   1      41.787  28.723  28.594  1.00  0.00     0.167 HD
ATOM     47  C   UNL A   1      45.631  27.901  26.685  1.00  0.00     0.037 A 
ATOM     48  C   UNL A   1      39.990  30.279  30.053  1.00  0.00     0.037 A 
ATOM     49  C   UNL A   1      45.755  29.239  27.201  1.00  0.00     0.049 A 
ATOM     50  C   UNL A   1      41.249  31.096  29.941  1.00  0.00     0.074 A 
ATOM     51  C   UNL A   1      46.825  30.109  27.093  1.00  0.00     0.029 A 
ATOM     52  N   UNL A   1      44.774  29.897  27.927  1.00  0.00    -0.354 N 
ATOM     53  N   UNL A   1      42.370  30.808  29.323  1.00  0.00    -0.248 NA
ATOM     54  C   UNL A   1      41.250  32.408  30.604  1.00  0.00     0.031 C 
ATOM     55  C   UNL A   1      46.509  31.280  27.791  1.00  0.00     0.029 A 
ATOM     56  C   UNL A   1      45.224  31.155  28.294  1.00  0.00     0.049 A 
ATOM     57  H   UNL A   1      43.890  29.526  28.149  1.00  0.00     0.167 HD
ATOM     58  C   UNL A   1      43.196  31.913  29.500  1.00  0.00     0.074 A 
ATOM     59  C   UNL A   1      42.445  32.878  30.274  1.00  0.00     0.031 C 
ATOM     60  C   UNL A   1      44.463  32.108  29.058  1.00  0.00     0.037 A 
BRANCH  47  61
ATOM     61  C   UNL A   1      46.798  27.312  25.951  1.00  0.00     0.057 A 
ATOM     62  C   UNL A   1      47.773  26.548  26.605  1.00  0.00     0.134 A 
ATOM     63  C   UNL A   1      46.932  27.485  24.568  1.00  0.00     0.134 A 
ATOM     64  F   UNL A   1      47.711  26.358  27.932  1.00  0.00    -0.206 F 
ATOM     65  C   UNL A   1      48.850  25.993  25.912  1.00  0.00     0.040 A 
ATOM     66  C   UNL A   1      47.991  26.916  23.861  1.00  0.00     0.040 A 
ATOM     67  F   UNL A   1      46.030  28.203  23.881  1.00  0.00    -0.206 F 
ATOM     68  C   UNL A   1      48.958  26.172  24.534  1.00  0.00     0.006 A 
ENDBRANCH  47  61
BRANCH  48  69
ATOM     69  C   UNL A   1      38.814  30.808  30.787  1.00  0.00     0.057 A 
ATOM     70  C   UNL A   1      38.605  30.506  32.138  1.00  0.00     0.134 A 
ATOM     71  C   UNL A   1      37.860  31.609  30.150  1.00  0.00     0.134 A 
ATOM     72  F   UNL A   1      39.472  29.722  32.795  1.00  0.00    -0.206 F 
ATOM     73  C   UNL A   1      37.482  30.970  32.825  1.00  0.00     0.040 A 
ATOM     74  C   UNL A   1      36.744  32.100  30.830  1.00  0.00     0.040 A 
ATOM     75  F   UNL A   1      38.002  31.932  28.855  1.00  0.00    -0.206 F 
ATOM     76  C   UNL A   1      36.551  31.774  32.171  1.00  0.00     0.006 A 
ENDBRANCH  48  69
BRANCH  60  77
ATOM     77  C   UNL A   1      45.105  33.427  29.373  1.00  0.00     0.057 A 
ATOM     78  C   UNL A   1      44.993  34.528  28.515  1.00  0.00     0.134 A 
ATOM     79  C   UNL A   1      45.810  33.608  30.570  1.00  0.00     0.134 A 
ATOM     80  F   UNL A   1      44.341  34.416  27.347  1.00  0.00    -0.206 F 
ATOM     81  C   UNL A   1      45.575  35.757  28.827  1.00  0.00     0.040 A 
ATOM     82  C   UNL A   1      46.376  34.839  30.904  1.00  0.00     0.040 A 
ATOM     83  F   UNL A   1      45.947  32.597  31.440  1.00  0.00    -0.206 F 
ATOM     84  C   UNL A   1      46.264  35.917  30.029  1.00  0.00     0.006 A 
ENDBRANCH  60  77
ENDBRANCH  34  35
ENDBRANCH  27  29
ENDBRANCH  26  27
ENDBRANCH  25  26
ENDBRANCH  24  25
ENDBRANCH  23  24
ENDBRANCH  22  23
ENDBRANCH   1  22
TORSDOF 20
ENDMDL
MODEL 3
REMARK VINA RESULT:      -9.3      4.189      9.028
REMARK SMILES CC(=O)NNC(=O)CSC[C@@H]([NH3+])C(=O)OCCOCCOC(=O)c1ccc(-c2c3nc(c(-c4c(F)cccc4F)c4ccc([nH]4)c(-c4c(F)cccc4F)c4nc(c(-c5c(F)cccc5F)c5ccc2[nH]5)C=C4)C=C3)cc1
REMARK SMILES IDX 16 1 15 2 13 3 14 4 11 5 10 6 9 7 8 8 6 9 5 10 7 12 4 13
REMARK SMILES IDX 1 14 2 15 3 16 12 18 17 22 18 23 19 24 20 25 21 26 22 27
REMARK SMILES IDX 23 28 24 29 25 30 77 31 26 32 76 33 27 34 28 35 29 36 70 37
REMARK SMILES IDX 30 38 75 39 69 40 71 41 31 42 74 43 68 44 67 45 32 47 58 48
REMARK SMILES IDX 41 49 57 50 42 51 45 52 56 53 72 54 43 55 44 56 55 58 73 59
REMARK SMILES IDX 46 60 33 61 34 62 39 63 35 64 36 65 38 66 40 67 37 68 59 69
REMARK SMILES IDX 60 70 65 71 61 72 62 73 64 74 66 75 63 76 47 77 48 78 53 79
REMARK SMILES IDX 49 80 50 81 52 82 54 83 51 84
REMARK H PARENT 5 11 4 17 12 19 12 20 12 21 71 46 45 57
REMARK Flexibility Score: inf
ROOT
ATOM      1  C   UNL A   1      33.148  22.394  26.103  1.00  0.00     0.261 C 
ENDROOT
BRANCH   1   2
ATOM      2  O   UNL A   1      32.209  23.098  26.932  1.00  0.00    -0.459 OA
BRANCH   2   3
ATOM      3  C   UNL A   1      30.967  23.253  26.404  1.00  0.00     0.365 C 
ATOM      4  O   UNL A   1      30.158  22.342  26.233  1.00  0.00    -0.245 OA
BRANCH   3   5
ATOM      5  C   UNL A   1      30.615  24.712  26.058  1.00  0.00     0.301 C 
BRANCH   5   6
ATOM      6  C   UNL A   1      30.830  25.090  24.585  1.00  0.00     0.147 C 
BRANCH   6   7
ATOM      7  S   UNL A   1      30.217  26.775  24.157  1.00  0.00    -0.145 SA
BRANCH   7   8
ATOM      8  C   UNL A   1      31.287  27.182  22.733  1.00  0.00     0.171 C 
BRANCH   8   9
ATOM      9  C   UNL A   1      32.139  28.410  22.995  1.00  0.00     0.248 C 
ATOM     10  N   UNL A   1      31.819  29.591  22.371  1.00  0.00    -0.267 N 
ATOM     11  H   UNL A   1      32.395  30.371  22.539  1.00  0.00     0.191 HD
ATOM     12  O   UNL A   1      33.110  28.380  23.752  1.00  0.00    -0.272 OA
BRANCH  10  13
ATOM     13  N   UNL A   1      30.733  29.757  21.517  1.00  0.00    -0.268 N 
ATOM     14  C   UNL A   1      29.301  30.442  23.399  1.00  0.00     0.116 C 
ATOM     15  C   UNL A   1      29.491  30.172  21.931  1.00  0.00     0.235 C 
ATOM     16  O   UNL A   1      28.575  30.297  21.121  1.00  0.00    -0.274 OA
ATOM     17  H   UNL A   1      30.863  29.566  20.561  1.00  0.00     0.191 HD
ENDBRANCH  10  13
ENDBRANCH   8   9
ENDBRANCH   7   8
ENDBRANCH   6   7
ENDBRANCH   5   6
BRANCH   5  18
ATOM     18  N   UNL A   1      29.230  24.968  26.517  1.00  0.00    -0.345 N 
ATOM     19  H   UNL A   1      29.247  25.297  27.483  1.00  0.00     0.345 HD
ATOM     20  H   UNL A   1      28.689  24.105  26.462  1.00  0.00     0.345 HD
ATOM     21  H   UNL A   1      28.800  25.678  25.925  1.00  0.00     0.345 HD
ENDBRANCH   5  18
ENDBRANCH   3   5
ENDBRANCH   2   3
ENDBRANCH   1   2
BRANCH   1  22
ATOM     22  C   UNL A   1      34.436  23.195  25.904  1.00  0.00     0.202 C 
BRANCH  22  23
ATOM     23  O   UNL A   1      35.646  22.443  25.853  1.00  0.00    -0.374 OA
BRANCH  23  24
ATOM     24  C   UNL A   1      35.582  21.120  25.317  1.00  0.00     0.202 C 
BRANCH  24  25
ATOM     25  C   UNL A   1      36.920  20.430  25.015  1.00  0.00     0.261 C 
BRANCH  25  26
ATOM     26  O   UNL A   1      38.029  21.352  25.026  1.00  0.00    -0.460 OA
BRANCH  26  27
ATOM     27  C   UNL A   1      39.014  21.041  25.903  1.00  0.00     0.338 C 
ATOM     28  O   UNL A   1      39.530  19.946  26.081  1.00  0.00    -0.246 OA
BRANCH  27  29
ATOM     29  C   UNL A   1      39.546  22.261  26.536  1.00  0.00     0.060 A 
ATOM     30  C   UNL A   1      39.002  23.488  26.132  1.00  0.00     0.016 A 
ATOM     31  C   UNL A   1      40.621  22.221  27.424  1.00  0.00     0.016 A 
ATOM     32  C   UNL A   1      39.564  24.683  26.576  1.00  0.00     0.010 A 
ATOM     33  C   UNL A   1      41.191  23.423  27.862  1.00  0.00     0.010 A 
ATOM     34  C   UNL A   1      40.689  24.657  27.410  1.00  0.00    -0.014 A 
BRANCH  34  35
ATOM     35  C   UNL A   1      41.422  25.918  27.681  1.00  0.00     0.031 A 
ATOM     36  C   UNL A   1      40.743  27.004  28.470  1.00  0.00     0.074 A 
ATOM     37  C   UNL A   1      42.691  26.081  27.268  1.00  0.00     0.049 A 
ATOM     38  N   UNL A   1      41.188  28.187  28.810  1.00  0.00    -0.248 NA
ATOM     39  C   UNL A   1      39.379  26.716  28.942  1.00  0.00     0.031 C 
ATOM     40  C   UNL A   1      43.475  25.090  26.535  1.00  0.00     0.029 A 
ATOM     41  N   UNL A   1      43.542  27.148  27.410  1.00  0.00    -0.354 N 
ATOM     42  C   UNL A   1      40.162  28.784  29.531  1.00  0.00     0.074 A 
ATOM     43  C   UNL A   1      39.060  27.845  29.556  1.00  0.00     0.031 C 
ATOM     44  C   UNL A   1      44.695  25.599  26.285  1.00  0.00     0.029 A 
ATOM     45  C   UNL A   1      44.766  26.958  26.817  1.00  0.00     0.049 A 
ATOM     46  H   UNL A   1      43.300  27.972  27.892  1.00  0.00     0.167 HD
ATOM     47  C   UNL A   1      40.141  30.000  30.129  1.00  0.00     0.037 A 
ATOM     48  C   UNL A   1      45.816  27.794  26.702  1.00  0.00     0.037 A 
ATOM     49  C   UNL A   1      41.236  30.934  30.109  1.00  0.00     0.049 A 
ATOM     50  C   UNL A   1      45.742  29.168  27.311  1.00  0.00     0.074 A 
ATOM     51  C   UNL A   1      41.313  32.185  30.695  1.00  0.00     0.029 A 
ATOM     52  N   UNL A   1      42.443  30.719  29.462  1.00  0.00    -0.354 N 
ATOM     53  N   UNL A   1      44.773  29.716  28.004  1.00  0.00    -0.248 NA
ATOM     54  C   UNL A   1      46.910  30.042  27.122  1.00  0.00     0.031 C 
ATOM     55  C   UNL A   1      42.552  32.746  30.368  1.00  0.00     0.029 A 
ATOM     56  C   UNL A   1      43.263  31.824  29.616  1.00  0.00     0.049 A 
ATOM     57  H   UNL A   1      42.682  29.903  28.967  1.00  0.00     0.167 HD
ATOM     58  C   UNL A   1      45.224  30.983  28.356  1.00  0.00     0.074 A 
ATOM     59  C   UNL A   1      46.557  31.120  27.808  1.00  0.00     0.031 C 
ATOM     60  C   UNL A   1      44.590  31.945  29.071  1.00  0.00     0.037 A 
BRANCH  47  61
ATOM     61  C   UNL A   1      38.882  30.396  30.841  1.00  0.00     0.057 A 
ATOM     62  C   UNL A   1      37.841  31.064  30.185  1.00  0.00     0.134 A 
ATOM     63  C   UNL A   1      38.697  30.077  32.193  1.00  0.00     0.134 A 
ATOM     64  F   UNL A   1      37.962  31.411  28.895  1.00  0.00    -0.206 F 
ATOM     65  C   UNL A   1      36.667  31.418  30.853  1.00  0.00     0.040 A 
ATOM     66  C   UNL A   1      37.519  30.405  32.864  1.00  0.00     0.040 A 
ATOM     67  F   UNL A   1      39.655  29.434  32.878  1.00  0.00    -0.206 F 
ATOM     68  C   UNL A   1      36.502  31.083  32.195  1.00  0.00     0.006 A 
ENDBRANCH  47  61
BRANCH  48  69
ATOM     69  C   UNL A   1      47.032  27.362  25.969  1.00  0.00     0.057 A 
ATOM     70  C   UNL A   1      48.119  26.788  26.640  1.00  0.00     0.134 A 
ATOM     71  C   UNL A   1      47.145  27.533  24.585  1.00  0.00     0.134 A 
ATOM     72  F   UNL A   1      48.078  26.622  27.970  1.00  0.00    -0.206 F 
ATOM     73  C   UNL A   1      49.280  26.414  25.962  1.00  0.00     0.040 A 
ATOM     74  C   UNL A   1      48.291  27.141  23.890  1.00  0.00     0.040 A 
ATOM     75  F   UNL A   1      46.139  28.079  23.885  1.00  0.00    -0.206 F 
ATOM     76  C   UNL A   1      49.365  26.586  24.582  1.00  0.00     0.006 A 
ENDBRANCH  48  69
BRANCH  60  77
ATOM     77  C   UNL A   1      45.342  33.217  29.330  1.00  0.00     0.057 A 
ATOM     78  C   UNL A   1      46.181  33.367  30.440  1.00  0.00     0.134 A 
ATOM     79  C   UNL A   1      45.255  34.290  28.434  1.00  0.00     0.134 A 
ATOM     80  F   UNL A   1      46.298  32.381  31.343  1.00  0.00    -0.206 F 
ATOM     81  C   UNL A   1      46.894  34.547  30.660  1.00  0.00     0.040 A 
ATOM     82  C   UNL A   1      45.981  35.465  28.630  1.00  0.00     0.040 A 
ATOM     83  F   UNL A   1      44.476  34.207  27.345  1.00  0.00    -0.206 F 
ATOM     84  C   UNL A   1      46.800  35.598  29.749  1.00  0.00     0.006 A 
ENDBRANCH  60  77
ENDBRANCH  34  35
ENDBRANCH  27  29
ENDBRANCH  26  27
ENDBRANCH  25  26
ENDBRANCH  24  25
ENDBRANCH  23  24
ENDBRANCH  22  23
ENDBRANCH   1  22
TORSDOF 20
ENDMDL
