MODEL 1
REMARK VINA RESULT:     -11.5      0.000      0.000
REMARK SMILES O=C(CNc1nc(-c2ccccc2)c(-c2ccccc2)s1)OCCOCCOC(=O)c1ccc(-c2c3nc(c(-c4c(F)cccc4F)c4ccc([nH]4)c(-c4c(F)cccc4F)c4nc(c(-c5c(F)cccc5F)c5ccc2[nH]5)C=C4)C=C3)cc1
REMARK SMILES IDX 24 1 23 2 22 3 2 4 1 5 3 6 4 7 5 9 6 10 21 11 7 12 14 13
REMARK SMILES IDX 8 14 9 15 13 16 10 17 12 18 11 19 15 20 16 21 20 22 17 23
REMARK SMILES IDX 19 24 18 25 25 26 26 27 27 28 28 29 29 30 30 31 31 32 32 33
REMARK SMILES IDX 84 34 33 35 83 36 34 37 35 38 36 39 77 40 37 41 82 42 76 43
REMARK SMILES IDX 78 44 38 45 81 46 75 47 74 48 39 50 65 51 48 52 64 53 49 54
REMARK SMILES IDX 52 55 63 56 79 57 50 58 51 59 62 61 80 62 53 63 40 64 41 65
REMARK SMILES IDX 46 66 42 67 43 68 45 69 47 70 44 71 66 72 67 73 72 74 68 75
REMARK SMILES IDX 69 76 71 77 73 78 70 79 54 80 55 81 60 82 56 83 57 84 59 85
REMARK SMILES IDX 61 86 58 87
REMARK H PARENT 4 8 78 49 52 60
REMARK Flexibility Score: inf
ROOT
ATOM      1  C   UNL A   1      32.883  35.904  30.012  1.00  0.00     0.202 C 
ENDROOT
BRANCH   1   2
ATOM      2  C   UNL A   1      33.849  35.449  28.922  1.00  0.00     0.261 C 
BRANCH   2   3
ATOM      3  O   UNL A   1      33.529  34.201  28.299  1.00  0.00    -0.462 OA
BRANCH   3   4
ATOM      4  C   UNL A   1      34.413  33.213  28.020  1.00  0.00     0.325 C 
ATOM      5  O   UNL A   1      35.496  33.522  27.518  1.00  0.00    -0.250 OA
BRANCH   4   6
ATOM      6  C   UNL A   1      34.066  31.745  28.274  1.00  0.00     0.238 C 
BRANCH   6   7
ATOM      7  N   UNL A   1      34.732  30.822  27.371  1.00  0.00    -0.351 N 
ATOM      8  H   UNL A   1      35.705  30.894  27.241  1.00  0.00     0.163 HD
BRANCH   7   9
ATOM      9  C   UNL A   1      34.045  29.870  26.706  1.00  0.00     0.184 A 
ATOM     10  N   UNL A   1      34.502  28.703  26.316  1.00  0.00    -0.220 NA
ATOM     11  S   UNL A   1      32.429  30.218  26.225  1.00  0.00    -0.096 S 
ATOM     12  C   UNL A   1      33.549  28.048  25.544  1.00  0.00     0.091 A 
ATOM     13  C   UNL A   1      32.380  28.761  25.329  1.00  0.00     0.064 A 
BRANCH  12  14
ATOM     14  C   UNL A   1      33.707  26.660  25.121  1.00  0.00     0.002 A 
ATOM     15  C   UNL A   1      33.928  26.320  23.778  1.00  0.00     0.010 A 
ATOM     16  C   UNL A   1      33.461  25.641  26.050  1.00  0.00     0.010 A 
ATOM     17  C   UNL A   1      33.819  24.991  23.359  1.00  0.00     0.001 A 
ATOM     18  C   UNL A   1      33.352  24.313  25.629  1.00  0.00     0.001 A 
ATOM     19  C   UNL A   1      33.512  23.992  24.281  1.00  0.00     0.000 A 
ENDBRANCH  12  14
BRANCH  13  20
ATOM     20  C   UNL A   1      31.158  28.418  24.612  1.00  0.00    -0.006 A 
ATOM     21  C   UNL A   1      30.588  27.143  24.737  1.00  0.00     0.009 A 
ATOM     22  C   UNL A   1      30.535  29.376  23.804  1.00  0.00     0.009 A 
ATOM     23  C   UNL A   1      29.416  26.830  24.046  1.00  0.00     0.001 A 
ATOM     24  C   UNL A   1      29.367  29.060  23.114  1.00  0.00     0.001 A 
ATOM     25  C   UNL A   1      28.811  27.787  23.230  1.00  0.00     0.000 A 
ENDBRANCH  13  20
ENDBRANCH   7   9
ENDBRANCH   6   7
ENDBRANCH   4   6
ENDBRANCH   3   4
ENDBRANCH   2   3
ENDBRANCH   1   2
BRANCH   1  26
ATOM     26  O   UNL A   1      32.846  35.143  31.211  1.00  0.00    -0.374 OA
BRANCH  26  27
ATOM     27  C   UNL A   1      34.095  34.610  31.662  1.00  0.00     0.202 C 
BRANCH  27  28
ATOM     28  C   UNL A   1      33.996  33.370  32.558  1.00  0.00     0.261 C 
BRANCH  28  29
ATOM     29  O   UNL A   1      34.892  32.335  32.122  1.00  0.00    -0.460 OA
BRANCH  29  30
ATOM     30  C   UNL A   1      36.001  32.174  32.881  1.00  0.00     0.338 C 
ATOM     31  O   UNL A   1      36.137  32.429  34.067  1.00  0.00    -0.246 OA
BRANCH  30  32
ATOM     32  C   UNL A   1      37.005  31.423  32.103  1.00  0.00     0.060 A 
ATOM     33  C   UNL A   1      37.923  30.632  32.810  1.00  0.00     0.016 A 
ATOM     34  C   UNL A   1      37.050  31.492  30.709  1.00  0.00     0.016 A 
ATOM     35  C   UNL A   1      38.929  29.954  32.127  1.00  0.00     0.010 A 
ATOM     36  C   UNL A   1      38.063  30.817  30.026  1.00  0.00     0.010 A 
ATOM     37  C   UNL A   1      39.028  30.081  30.736  1.00  0.00    -0.014 A 
BRANCH  37  38
ATOM     38  C   UNL A   1      40.242  29.601  30.038  1.00  0.00     0.031 A 
ATOM     39  C   UNL A   1      41.376  30.567  29.835  1.00  0.00     0.074 A 
ATOM     40  C   UNL A   1      40.333  28.335  29.601  1.00  0.00     0.049 A 
ATOM     41  N   UNL A   1      42.502  30.404  29.192  1.00  0.00    -0.248 NA
ATOM     42  C   UNL A   1      41.212  31.902  30.434  1.00  0.00     0.031 C 
ATOM     43  C   UNL A   1      39.311  27.305  29.774  1.00  0.00     0.029 A 
ATOM     44  N   UNL A   1      41.334  27.706  28.906  1.00  0.00    -0.354 N 
ATOM     45  C   UNL A   1      43.173  31.616  29.296  1.00  0.00     0.074 A 
ATOM     46  C   UNL A   1      42.315  32.516  30.034  1.00  0.00     0.031 C 
ATOM     47  C   UNL A   1      39.732  26.172  29.185  1.00  0.00     0.029 A 
ATOM     48  C   UNL A   1      41.034  26.410  28.566  1.00  0.00     0.049 A 
ATOM     49  H   UNL A   1      42.186  28.141  28.673  1.00  0.00     0.167 HD
ATOM     50  C   UNL A   1      44.399  31.944  28.826  1.00  0.00     0.037 A 
ATOM     51  C   UNL A   1      41.724  25.531  27.815  1.00  0.00     0.037 A 
ATOM     52  C   UNL A   1      45.244  31.040  28.091  1.00  0.00     0.049 A 
ATOM     53  C   UNL A   1      43.054  25.943  27.240  1.00  0.00     0.074 A 
ATOM     54  C   UNL A   1      46.513  31.262  27.588  1.00  0.00     0.029 A 
ATOM     55  N   UNL A   1      44.897  29.742  27.747  1.00  0.00    -0.354 N 
ATOM     56  N   UNL A   1      43.696  27.080  27.368  1.00  0.00    -0.248 NA
ATOM     57  C   UNL A   1      43.757  24.947  26.419  1.00  0.00     0.031 C 
ATOM     58  C   UNL A   1      46.910  30.119  26.888  1.00  0.00     0.029 A 
ATOM     59  C   UNL A   1      45.916  29.160  27.010  1.00  0.00     0.049 A 
ATOM     60  H   UNL A   1      44.052  29.299  27.989  1.00  0.00     0.167 HD
ATOM     61  C   UNL A   1      44.889  26.926  26.671  1.00  0.00     0.074 A 
ATOM     62  C   UNL A   1      44.887  25.580  26.136  1.00  0.00     0.031 C 
ATOM     63  C   UNL A   1      45.897  27.816  26.491  1.00  0.00     0.037 A 
BRANCH  50  64
ATOM     64  C   UNL A   1      44.883  33.345  29.066  1.00  0.00     0.057 A 
ATOM     65  C   UNL A   1      45.670  33.681  30.176  1.00  0.00     0.134 A 
ATOM     66  C   UNL A   1      44.574  34.370  28.162  1.00  0.00     0.134 A 
ATOM     67  F   UNL A   1      45.989  32.752  31.091  1.00  0.00    -0.206 F 
ATOM     68  C   UNL A   1      46.112  34.988  30.390  1.00  0.00     0.040 A 
ATOM     69  C   UNL A   1      45.035  35.673  28.350  1.00  0.00     0.040 A 
ATOM     70  F   UNL A   1      43.826  34.118  27.078  1.00  0.00    -0.206 F 
ATOM     71  C   UNL A   1      45.801  35.987  29.470  1.00  0.00     0.006 A 
ENDBRANCH  50  64
BRANCH  51  72
ATOM     72  C   UNL A   1      41.168  24.178  27.550  1.00  0.00     0.057 A 
ATOM     73  C   UNL A   1      40.125  23.988  26.636  1.00  0.00     0.134 A 
ATOM     74  C   UNL A   1      41.651  23.047  28.220  1.00  0.00     0.134 A 
ATOM     75  F   UNL A   1      39.605  25.035  25.979  1.00  0.00    -0.206 F 
ATOM     76  C   UNL A   1      39.569  22.727  26.412  1.00  0.00     0.040 A 
ATOM     77  C   UNL A   1      41.124  21.775  27.984  1.00  0.00     0.040 A 
ATOM     78  F   UNL A   1      42.651  23.159  29.106  1.00  0.00    -0.206 F 
ATOM     79  C   UNL A   1      40.074  21.616  27.083  1.00  0.00     0.006 A 
ENDBRANCH  51  72
BRANCH  63  80
ATOM     80  C   UNL A   1      47.098  27.350  25.718  1.00  0.00     0.057 A 
ATOM     81  C   UNL A   1      47.225  27.564  24.340  1.00  0.00     0.134 A 
ATOM     82  C   UNL A   1      48.161  26.714  26.373  1.00  0.00     0.134 A 
ATOM     83  F   UNL A   1      46.238  28.156  23.650  1.00  0.00    -0.206 F 
ATOM     84  C   UNL A   1      48.352  27.137  23.636  1.00  0.00     0.040 A 
ATOM     85  C   UNL A   1      49.308  26.312  25.687  1.00  0.00     0.040 A 
ATOM     86  F   UNL A   1      48.111  26.489  27.695  1.00  0.00    -0.206 F 
ATOM     87  C   UNL A   1      49.402  26.518  24.312  1.00  0.00     0.006 A 
ENDBRANCH  63  80
ENDBRANCH  37  38
ENDBRANCH  30  32
ENDBRANCH  29  30
ENDBRANCH  28  29
ENDBRANCH  27  28
ENDBRANCH  26  27
ENDBRANCH   1  26
TORSDOF 18
ENDMDL
MODEL 2
REMARK VINA RESULT:     -11.5      5.410     10.506
REMARK SMILES O=C(CNc1nc(-c2ccccc2)c(-c2ccccc2)s1)OCCOCCOC(=O)c1ccc(-c2c3nc(c(-c4c(F)cccc4F)c4ccc([nH]4)c(-c4c(F)cccc4F)c4nc(c(-c5c(F)cccc5F)c5ccc2[nH]5)C=C4)C=C3)cc1
REMARK SMILES IDX 24 1 23 2 22 3 2 4 1 5 3 6 4 7 5 9 6 10 21 11 7 12 14 13
REMARK SMILES IDX 8 14 9 15 13 16 10 17 12 18 11 19 15 20 16 21 20 22 17 23
REMARK SMILES IDX 19 24 18 25 25 26 26 27 27 28 28 29 29 30 30 31 31 32 32 33
REMARK SMILES IDX 84 34 33 35 83 36 34 37 35 38 36 39 77 40 37 41 82 42 76 43
REMARK SMILES IDX 78 44 38 45 81 46 75 47 74 48 39 50 65 51 48 52 64 53 49 54
REMARK SMILES IDX 52 55 63 56 79 57 50 58 51 59 62 61 80 62 53 63 40 64 41 65
REMARK SMILES IDX 46 66 42 67 43 68 45 69 47 70 44 71 66 72 67 73 72 74 68 75
REMARK SMILES IDX 69 76 71 77 73 78 70 79 54 80 55 81 60 82 56 83 57 84 59 85
REMARK SMILES IDX 61 86 58 87
REMARK H PARENT 4 8 78 49 52 60
REMARK Flexibility Score: inf
ROOT
ATOM      1  C   UNL A   1      43.475  18.948  25.564  1.00  0.00     0.202 C 
ENDROOT
BRANCH   1   2
ATOM      2  C   UNL A   1      42.627  19.711  26.579  1.00  0.00     0.261 C 
BRANCH   2   3
ATOM      3  O   UNL A   1      41.679  20.628  26.021  1.00  0.00    -0.462 OA
BRANCH   3   4
ATOM      4  C   UNL A   1      40.581  21.104  26.655  1.00  0.00     0.325 C 
ATOM      5  O   UNL A   1      40.660  21.347  27.861  1.00  0.00    -0.250 OA
BRANCH   4   6
ATOM      6  C   UNL A   1      39.257  21.294  25.911  1.00  0.00     0.238 C 
BRANCH   6   7
ATOM      7  N   UNL A   1      38.547  22.505  26.282  1.00  0.00    -0.351 N 
ATOM      8  H   UNL A   1      38.995  23.172  26.851  1.00  0.00     0.163 HD
BRANCH   7   9
ATOM      9  C   UNL A   1      37.284  22.735  25.866  1.00  0.00     0.184 A 
ATOM     10  N   UNL A   1      36.439  23.604  26.371  1.00  0.00    -0.220 NA
ATOM     11  S   UNL A   1      36.649  21.749  24.605  1.00  0.00    -0.096 S 
ATOM     12  C   UNL A   1      35.192  23.463  25.772  1.00  0.00     0.091 A 
ATOM     13  C   UNL A   1      35.104  22.446  24.834  1.00  0.00     0.064 A 
BRANCH  12  14
ATOM     14  C   UNL A   1      34.104  24.408  26.003  1.00  0.00     0.002 A 
ATOM     15  C   UNL A   1      32.863  23.994  26.510  1.00  0.00     0.010 A 
ATOM     16  C   UNL A   1      34.248  25.725  25.547  1.00  0.00     0.010 A 
ATOM     17  C   UNL A   1      31.764  24.857  26.481  1.00  0.00     0.001 A 
ATOM     18  C   UNL A   1      33.148  26.587  25.519  1.00  0.00     0.001 A 
ATOM     19  C   UNL A   1      31.903  26.146  25.967  1.00  0.00     0.000 A 
ENDBRANCH  12  14
BRANCH  13  20
ATOM     20  C   UNL A   1      34.003  22.007  23.986  1.00  0.00    -0.006 A 
ATOM     21  C   UNL A   1      33.562  22.798  22.916  1.00  0.00     0.009 A 
ATOM     22  C   UNL A   1      33.389  20.774  24.230  1.00  0.00     0.009 A 
ATOM     23  C   UNL A   1      32.507  22.363  22.112  1.00  0.00     0.001 A 
ATOM     24  C   UNL A   1      32.335  20.342  23.428  1.00  0.00     0.001 A 
ATOM     25  C   UNL A   1      31.891  21.139  22.373  1.00  0.00     0.000 A 
ENDBRANCH  13  20
ENDBRANCH   7   9
ENDBRANCH   6   7
ENDBRANCH   4   6
ENDBRANCH   3   4
ENDBRANCH   2   3
ENDBRANCH   1   2
BRANCH   1  26
ATOM     26  O   UNL A   1      44.754  19.480  25.252  1.00  0.00    -0.374 OA
BRANCH  26  27
ATOM     27  C   UNL A   1      44.778  20.814  24.735  1.00  0.00     0.202 C 
BRANCH  27  28
ATOM     28  C   UNL A   1      45.420  21.863  25.650  1.00  0.00     0.261 C 
BRANCH  28  29
ATOM     29  O   UNL A   1      44.436  22.752  26.201  1.00  0.00    -0.460 OA
BRANCH  29  30
ATOM     30  C   UNL A   1      44.314  23.942  25.566  1.00  0.00     0.338 C 
ATOM     31  O   UNL A   1      44.584  24.198  24.403  1.00  0.00    -0.246 OA
BRANCH  30  32
ATOM     32  C   UNL A   1      43.583  24.877  26.443  1.00  0.00     0.060 A 
ATOM     33  C   UNL A   1      44.007  26.214  26.472  1.00  0.00     0.016 A 
ATOM     34  C   UNL A   1      42.505  24.455  27.224  1.00  0.00     0.016 A 
ATOM     35  C   UNL A   1      43.391  27.121  27.329  1.00  0.00     0.010 A 
ATOM     36  C   UNL A   1      41.893  25.364  28.088  1.00  0.00     0.010 A 
ATOM     37  C   UNL A   1      42.362  26.688  28.172  1.00  0.00    -0.014 A 
BRANCH  37  38
ATOM     38  C   UNL A   1      41.896  27.559  29.274  1.00  0.00     0.031 A 
ATOM     39  C   UNL A   1      42.613  27.488  30.593  1.00  0.00     0.074 A 
ATOM     40  C   UNL A   1      40.861  28.397  29.101  1.00  0.00     0.049 A 
ATOM     41  N   UNL A   1      42.345  28.093  31.720  1.00  0.00    -0.248 NA
ATOM     42  C   UNL A   1      43.791  26.605  30.648  1.00  0.00     0.031 C 
ATOM     43  C   UNL A   1      40.115  28.575  27.857  1.00  0.00     0.029 A 
ATOM     44  N   UNL A   1      40.251  29.249  29.987  1.00  0.00    -0.354 N 
ATOM     45  C   UNL A   1      43.309  27.655  32.619  1.00  0.00     0.074 A 
ATOM     46  C   UNL A   1      44.146  26.708  31.919  1.00  0.00     0.031 C 
ATOM     47  C   UNL A   1      39.134  29.472  28.063  1.00  0.00     0.029 A 
ATOM     48  C   UNL A   1      39.163  29.901  29.459  1.00  0.00     0.049 A 
ATOM     49  H   UNL A   1      40.562  29.381  30.911  1.00  0.00     0.167 HD
ATOM     50  C   UNL A   1      43.483  28.019  33.912  1.00  0.00     0.037 A 
ATOM     51  C   UNL A   1      38.279  30.726  30.051  1.00  0.00     0.037 A 
ATOM     52  C   UNL A   1      42.641  28.962  34.599  1.00  0.00     0.049 A 
ATOM     53  C   UNL A   1      38.450  31.060  31.510  1.00  0.00     0.074 A 
ATOM     54  C   UNL A   1      42.741  29.419  35.900  1.00  0.00     0.029 A 
ATOM     55  N   UNL A   1      41.535  29.586  34.039  1.00  0.00    -0.354 N 
ATOM     56  N   UNL A   1      39.381  30.667  32.347  1.00  0.00    -0.248 NA
ATOM     57  C   UNL A   1      37.449  31.956  32.106  1.00  0.00     0.031 C 
ATOM     58  C   UNL A   1      41.662  30.273  36.147  1.00  0.00     0.029 A 
ATOM     59  C   UNL A   1      40.925  30.400  34.979  1.00  0.00     0.049 A 
ATOM     60  H   UNL A   1      41.228  29.466  33.112  1.00  0.00     0.167 HD
ATOM     61  C   UNL A   1      39.096  31.289  33.556  1.00  0.00     0.074 A 
ATOM     62  C   UNL A   1      37.914  32.098  33.339  1.00  0.00     0.031 C 
ATOM     63  C   UNL A   1      39.752  31.202  34.740  1.00  0.00     0.037 A 
BRANCH  50  64
ATOM     64  C   UNL A   1      44.606  27.373  34.670  1.00  0.00     0.057 A 
ATOM     65  C   UNL A   1      44.429  26.187  35.396  1.00  0.00     0.134 A 
ATOM     66  C   UNL A   1      45.890  27.932  34.654  1.00  0.00     0.134 A 
ATOM     67  F   UNL A   1      43.221  25.607  35.468  1.00  0.00    -0.206 F 
ATOM     68  C   UNL A   1      45.481  25.596  36.099  1.00  0.00     0.040 A 
ATOM     69  C   UNL A   1      46.956  27.334  35.327  1.00  0.00     0.040 A 
ATOM     70  F   UNL A   1      46.131  29.065  33.977  1.00  0.00    -0.206 F 
ATOM     71  C   UNL A   1      46.752  26.167  36.058  1.00  0.00     0.006 A 
ENDBRANCH  50  64
BRANCH  51  72
ATOM     72  C   UNL A   1      37.145  31.286  29.271  1.00  0.00     0.057 A 
ATOM     73  C   UNL A   1      35.998  30.526  29.011  1.00  0.00     0.134 A 
ATOM     74  C   UNL A   1      37.188  32.585  28.750  1.00  0.00     0.134 A 
ATOM     75  F   UNL A   1      35.905  29.268  29.464  1.00  0.00    -0.206 F 
ATOM     76  C   UNL A   1      34.945  31.030  28.244  1.00  0.00     0.040 A 
ATOM     77  C   UNL A   1      36.130  33.112  28.007  1.00  0.00     0.040 A 
ATOM     78  F   UNL A   1      38.256  33.367  28.965  1.00  0.00    -0.206 F 
ATOM     79  C   UNL A   1      35.008  32.329  27.745  1.00  0.00     0.006 A 
ENDBRANCH  51  72
BRANCH  63  80
ATOM     80  C   UNL A   1      39.233  32.034  35.879  1.00  0.00     0.057 A 
ATOM     81  C   UNL A   1      39.646  33.356  36.083  1.00  0.00     0.134 A 
ATOM     82  C   UNL A   1      38.274  31.514  36.759  1.00  0.00     0.134 A 
ATOM     83  F   UNL A   1      40.572  33.911  35.284  1.00  0.00    -0.206 F 
ATOM     84  C   UNL A   1      39.147  34.122  37.137  1.00  0.00     0.040 A 
ATOM     85  C   UNL A   1      37.741  32.281  37.796  1.00  0.00     0.040 A 
ATOM     86  F   UNL A   1      37.824  30.259  36.613  1.00  0.00    -0.206 F 
ATOM     87  C   UNL A   1      38.184  33.587  37.992  1.00  0.00     0.006 A 
ENDBRANCH  63  80
ENDBRANCH  37  38
ENDBRANCH  30  32
ENDBRANCH  29  30
ENDBRANCH  28  29
ENDBRANCH  27  28
ENDBRANCH  26  27
ENDBRANCH   1  26
TORSDOF 18
ENDMDL
MODEL 3
REMARK VINA RESULT:     -11.4      4.006      6.930
REMARK SMILES O=C(CNc1nc(-c2ccccc2)c(-c2ccccc2)s1)OCCOCCOC(=O)c1ccc(-c2c3nc(c(-c4c(F)cccc4F)c4ccc([nH]4)c(-c4c(F)cccc4F)c4nc(c(-c5c(F)cccc5F)c5ccc2[nH]5)C=C4)C=C3)cc1
REMARK SMILES IDX 24 1 23 2 22 3 2 4 1 5 3 6 4 7 5 9 6 10 21 11 7 12 14 13
REMARK SMILES IDX 8 14 9 15 13 16 10 17 12 18 11 19 15 20 16 21 20 22 17 23
REMARK SMILES IDX 19 24 18 25 25 26 26 27 27 28 28 29 29 30 30 31 31 32 32 33
REMARK SMILES IDX 84 34 33 35 83 36 34 37 35 38 36 39 77 40 37 41 82 42 76 43
REMARK SMILES IDX 78 44 38 45 81 46 75 47 74 48 39 50 65 51 48 52 64 53 49 54
REMARK SMILES IDX 52 55 63 56 79 57 50 58 51 59 62 61 80 62 53 63 40 64 41 65
REMARK SMILES IDX 46 66 42 67 43 68 45 69 47 70 44 71 66 72 67 73 72 74 68 75
REMARK SMILES IDX 69 76 71 77 73 78 70 79 54 80 55 81 60 82 56 83 57 84 59 85
REMARK SMILES IDX 61 86 58 87
REMARK H PARENT 4 8 78 49 52 60
REMARK Flexibility Score: inf
ROOT
ATOM      1  C   UNL A   1      31.912  29.676  26.901  1.00  0.00     0.202 C 
ENDROOT
BRANCH   1   2
ATOM      2  C   UNL A   1      31.862  28.643  25.779  1.00  0.00     0.261 C 
BRANCH   2   3
ATOM      3  O   UNL A   1      31.002  28.968  24.682  1.00  0.00    -0.462 OA
BRANCH   3   4
ATOM      4  C   UNL A   1      31.246  28.682  23.381  1.00  0.00     0.325 C 
ATOM      5  O   UNL A   1      32.077  29.364  22.779  1.00  0.00    -0.250 OA
BRANCH   4   6
ATOM      6  C   UNL A   1      30.480  27.573  22.656  1.00  0.00     0.238 C 
BRANCH   6   7
ATOM      7  N   UNL A   1      31.319  26.737  21.816  1.00  0.00    -0.351 N 
ATOM      8  H   UNL A   1      31.397  26.942  20.857  1.00  0.00     0.163 HD
BRANCH   7   9
ATOM      9  C   UNL A   1      31.993  25.683  22.323  1.00  0.00     0.184 A 
ATOM     10  N   UNL A   1      31.492  24.513  22.642  1.00  0.00    -0.220 NA
ATOM     11  S   UNL A   1      33.665  25.883  22.684  1.00  0.00    -0.096 S 
ATOM     12  C   UNL A   1      32.460  23.727  23.258  1.00  0.00     0.091 A 
ATOM     13  C   UNL A   1      33.690  24.344  23.431  1.00  0.00     0.064 A 
BRANCH  12  14
ATOM     14  C   UNL A   1      32.244  22.317  23.562  1.00  0.00     0.002 A 
ATOM     15  C   UNL A   1      32.287  21.831  24.878  1.00  0.00     0.010 A 
ATOM     16  C   UNL A   1      32.164  21.404  22.502  1.00  0.00     0.010 A 
ATOM     17  C   UNL A   1      32.335  20.456  25.122  1.00  0.00     0.001 A 
ATOM     18  C   UNL A   1      32.212  20.030  22.748  1.00  0.00     0.001 A 
ATOM     19  C   UNL A   1      32.317  19.557  24.056  1.00  0.00     0.000 A 
ENDBRANCH  12  14
BRANCH  13  20
ATOM     20  C   UNL A   1      34.942  23.858  23.996  1.00  0.00    -0.006 A 
ATOM     21  C   UNL A   1      35.785  23.018  23.256  1.00  0.00     0.009 A 
ATOM     22  C   UNL A   1      35.318  24.248  25.287  1.00  0.00     0.009 A 
ATOM     23  C   UNL A   1      36.983  22.563  23.811  1.00  0.00     0.001 A 
ATOM     24  C   UNL A   1      36.512  23.790  25.839  1.00  0.00     0.001 A 
ATOM     25  C   UNL A   1      37.341  22.944  25.104  1.00  0.00     0.000 A 
ENDBRANCH  13  20
ENDBRANCH   7   9
ENDBRANCH   6   7
ENDBRANCH   4   6
ENDBRANCH   3   4
ENDBRANCH   2   3
ENDBRANCH   1   2
BRANCH   1  26
ATOM     26  O   UNL A   1      32.355  30.983  26.565  1.00  0.00    -0.374 OA
BRANCH  26  27
ATOM     27  C   UNL A   1      31.436  32.050  26.823  1.00  0.00     0.202 C 
BRANCH  27  28
ATOM     28  C   UNL A   1      32.060  33.447  26.920  1.00  0.00     0.261 C 
BRANCH  28  29
ATOM     29  O   UNL A   1      32.330  33.808  28.284  1.00  0.00    -0.460 OA
BRANCH  29  30
ATOM     30  C   UNL A   1      33.419  34.591  28.468  1.00  0.00     0.338 C 
ATOM     31  O   UNL A   1      33.457  35.809  28.550  1.00  0.00    -0.246 OA
BRANCH  30  32
ATOM     32  C   UNL A   1      34.577  33.730  28.780  1.00  0.00     0.060 A 
ATOM     33  C   UNL A   1      34.321  32.408  29.172  1.00  0.00     0.016 A 
ATOM     34  C   UNL A   1      35.886  34.207  28.694  1.00  0.00     0.016 A 
ATOM     35  C   UNL A   1      35.375  31.574  29.537  1.00  0.00     0.010 A 
ATOM     36  C   UNL A   1      36.940  33.372  29.066  1.00  0.00     0.010 A 
ATOM     37  C   UNL A   1      36.684  32.069  29.528  1.00  0.00    -0.014 A 
BRANCH  37  38
ATOM     38  C   UNL A   1      37.768  31.295  30.173  1.00  0.00     0.031 A 
ATOM     39  C   UNL A   1      38.061  31.553  31.625  1.00  0.00     0.074 A 
ATOM     40  C   UNL A   1      38.470  30.382  29.484  1.00  0.00     0.049 A 
ATOM     41  N   UNL A   1      39.003  31.058  32.384  1.00  0.00    -0.248 NA
ATOM     42  C   UNL A   1      37.172  32.506  32.312  1.00  0.00     0.031 C 
ATOM     43  C   UNL A   1      38.249  30.025  28.084  1.00  0.00     0.029 A 
ATOM     44  N   UNL A   1      39.526  29.596  29.872  1.00  0.00    -0.354 N 
ATOM     45  C   UNL A   1      38.830  31.648  33.630  1.00  0.00     0.074 A 
ATOM     46  C   UNL A   1      37.716  32.563  33.517  1.00  0.00     0.031 C 
ATOM     47  C   UNL A   1      39.155  29.099  27.724  1.00  0.00     0.029 A 
ATOM     48  C   UNL A   1      40.037  28.827  28.856  1.00  0.00     0.049 A 
ATOM     49  H   UNL A   1      39.882  29.584  30.789  1.00  0.00     0.167 HD
ATOM     50  C   UNL A   1      39.533  31.438  34.768  1.00  0.00     0.037 A 
ATOM     51  C   UNL A   1      41.114  28.018  28.841  1.00  0.00     0.037 A 
ATOM     52  C   UNL A   1      40.641  30.525  34.868  1.00  0.00     0.049 A 
ATOM     53  C   UNL A   1      41.926  27.856  30.100  1.00  0.00     0.074 A 
ATOM     54  C   UNL A   1      41.409  30.219  35.976  1.00  0.00     0.029 A 
ATOM     55  N   UNL A   1      41.145  29.779  33.812  1.00  0.00    -0.354 N 
ATOM     56  N   UNL A   1      41.739  28.393  31.282  1.00  0.00    -0.248 NA
ATOM     57  C   UNL A   1      43.097  26.971  30.023  1.00  0.00     0.031 C 
ATOM     58  C   UNL A   1      42.415  29.333  35.578  1.00  0.00     0.029 A 
ATOM     59  C   UNL A   1      42.235  29.036  34.236  1.00  0.00     0.049 A 
ATOM     60  H   UNL A   1      40.784  29.779  32.897  1.00  0.00     0.167 HD
ATOM     61  C   UNL A   1      42.747  27.889  32.095  1.00  0.00     0.074 A 
ATOM     62  C   UNL A   1      43.533  26.991  31.274  1.00  0.00     0.031 C 
ATOM     63  C   UNL A   1      43.000  28.143  33.403  1.00  0.00     0.037 A 
BRANCH  50  64
ATOM     64  C   UNL A   1      39.142  32.229  35.982  1.00  0.00     0.057 A 
ATOM     65  C   UNL A   1      38.274  31.719  36.956  1.00  0.00     0.134 A 
ATOM     66  C   UNL A   1      39.660  33.515  36.190  1.00  0.00     0.134 A 
ATOM     67  F   UNL A   1      37.729  30.501  36.812  1.00  0.00    -0.206 F 
ATOM     68  C   UNL A   1      37.917  32.466  38.081  1.00  0.00     0.040 A 
ATOM     69  C   UNL A   1      39.333  34.259  37.325  1.00  0.00     0.040 A 
ATOM     70  F   UNL A   1      40.497  34.064  35.298  1.00  0.00    -0.206 F 
ATOM     71  C   UNL A   1      38.453  33.738  38.271  1.00  0.00     0.006 A 
ENDBRANCH  50  64
BRANCH  51  72
ATOM     72  C   UNL A   1      41.498  27.310  27.593  1.00  0.00     0.057 A 
ATOM     73  C   UNL A   1      41.083  25.996  27.347  1.00  0.00     0.134 A 
ATOM     74  C   UNL A   1      42.305  27.921  26.625  1.00  0.00     0.134 A 
ATOM     75  F   UNL A   1      40.327  25.348  28.245  1.00  0.00    -0.206 F 
ATOM     76  C   UNL A   1      41.473  25.309  26.195  1.00  0.00     0.040 A 
ATOM     77  C   UNL A   1      42.678  27.257  25.455  1.00  0.00     0.040 A 
ATOM     78  F   UNL A   1      42.734  29.181  26.797  1.00  0.00    -0.206 F 
ATOM     79  C   UNL A   1      42.268  25.942  25.243  1.00  0.00     0.006 A 
ENDBRANCH  51  72
BRANCH  63  80
ATOM     80  C   UNL A   1      44.148  27.410  34.039  1.00  0.00     0.057 A 
ATOM     81  C   UNL A   1      45.440  27.949  34.085  1.00  0.00     0.134 A 
ATOM     82  C   UNL A   1      43.946  26.165  34.648  1.00  0.00     0.134 A 
ATOM     83  F   UNL A   1      45.705  29.133  33.509  1.00  0.00    -0.206 F 
ATOM     84  C   UNL A   1      46.495  27.264  34.689  1.00  0.00     0.040 A 
ATOM     85  C   UNL A   1      44.985  25.485  35.285  1.00  0.00     0.040 A 
ATOM     86  F   UNL A   1      42.731  25.597  34.652  1.00  0.00    -0.206 F 
ATOM     87  C   UNL A   1      46.266  26.032  35.300  1.00  0.00     0.006 A 
ENDBRANCH  63  80
ENDBRANCH  37  38
ENDBRANCH  30  32
ENDBRANCH  29  30
ENDBRANCH  28  29
ENDBRANCH  27  28
ENDBRANCH  26  27
ENDBRANCH   1  26
TORSDOF 18
ENDMDL
