MODEL 1
REMARK VINA RESULT:     -11.4      0.000      0.000
REMARK SMILES COc1ccc(-c2noc(CC(=O)OCCOCCOC(=O)c3ccc(-c4c5nc(c(-c6c(F)cccc6F)c6ccc([nH]6)c(-c6c(F)cccc6F)c6nc(c(-c7c(F)cccc7F)c7ccc4[nH]7)C=C6)C=C5)cc3)c2-c2ccc(OC)cc2)cc1
REMARK SMILES IDX 16 1 15 2 14 3 12 4 13 5 11 6 10 7 7 8 8 9 77 10 9 11 6 12
REMARK SMILES IDX 3 13 4 14 87 15 5 16 86 17 2 18 1 19 78 20 79 21 85 22 80 23
REMARK SMILES IDX 84 24 81 25 82 26 83 27 17 28 18 29 19 30 20 31 21 32 22 33
REMARK SMILES IDX 23 34 24 35 76 36 25 37 75 38 26 39 27 40 28 41 69 42 29 43
REMARK SMILES IDX 74 44 68 45 70 46 30 47 73 48 67 49 66 50 31 52 57 53 40 54
REMARK SMILES IDX 56 55 41 56 44 57 55 58 71 59 42 60 43 61 54 63 72 64 45 65
REMARK SMILES IDX 32 66 33 67 38 68 34 69 35 70 37 71 39 72 36 73 58 74 59 75
REMARK SMILES IDX 64 76 60 77 61 78 63 79 65 80 62 81 46 82 47 83 52 84 48 85
REMARK SMILES IDX 49 86 51 87 53 88 50 89
REMARK H PARENT 70 51 44 62
REMARK Flexibility Score: inf
ROOT
ATOM      1  C   UNL A   1      33.200  20.084  24.963  1.00  0.00     0.202 C 
ENDROOT
BRANCH   1   2
ATOM      2  C   UNL A   1      32.169  21.163  25.308  1.00  0.00     0.261 C 
BRANCH   2   3
ATOM      3  O   UNL A   1      32.470  21.798  26.562  1.00  0.00    -0.463 OA
BRANCH   3   4
ATOM      4  C   UNL A   1      32.010  23.066  26.697  1.00  0.00     0.313 C 
ATOM      5  O   UNL A   1      31.293  23.450  27.619  1.00  0.00    -0.252 OA
BRANCH   4   6
ATOM      6  C   UNL A   1      32.536  24.041  25.678  1.00  0.00     0.201 C 
BRANCH   6   7
ATOM      7  C   UNL A   1      31.538  24.913  25.011  1.00  0.00     0.156 A 
ATOM      8  C   UNL A   1      30.356  26.437  23.914  1.00  0.00     0.122 A 
ATOM      9  N   UNL A   1      29.938  25.244  23.466  1.00  0.00    -0.079 NA
ATOM     10  C   UNL A   1      31.313  26.271  24.959  1.00  0.00     0.053 A 
ATOM     11  O   UNL A   1      30.695  24.300  24.132  1.00  0.00    -0.359 OA
BRANCH   8  12
ATOM     12  C   UNL A   1      29.926  27.686  23.300  1.00  0.00     0.005 A 
ATOM     13  C   UNL A   1      29.019  30.045  22.072  1.00  0.00     0.118 A 
ATOM     14  C   UNL A   1      30.368  29.682  22.008  1.00  0.00     0.047 A 
ATOM     15  C   UNL A   1      28.121  29.224  22.750  1.00  0.00     0.047 A 
ATOM     16  C   UNL A   1      30.828  28.516  22.631  1.00  0.00     0.014 A 
ATOM     17  C   UNL A   1      28.573  28.051  23.361  1.00  0.00     0.014 A 
BRANCH  13  18
ATOM     18  O   UNL A   1      28.693  31.196  21.410  1.00  0.00    -0.497 OA
ATOM     19  C   UNL A   1      28.482  32.347  22.221  1.00  0.00     0.278 C 
ENDBRANCH  13  18
ENDBRANCH   8  12
BRANCH  10  20
ATOM     20  C   UNL A   1      32.009  27.261  25.748  1.00  0.00    -0.012 A 
ATOM     21  C   UNL A   1      33.317  27.617  25.409  1.00  0.00     0.013 A 
ATOM     22  C   UNL A   1      31.399  27.853  26.856  1.00  0.00     0.013 A 
ATOM     23  C   UNL A   1      33.993  28.583  26.156  1.00  0.00     0.047 A 
ATOM     24  C   UNL A   1      32.075  28.828  27.595  1.00  0.00     0.047 A 
ATOM     25  C   UNL A   1      33.370  29.206  27.239  1.00  0.00     0.118 A 
BRANCH  25  26
ATOM     26  O   UNL A   1      34.126  30.152  27.874  1.00  0.00    -0.497 OA
ATOM     27  C   UNL A   1      35.488  30.244  27.477  1.00  0.00     0.278 C 
ENDBRANCH  25  26
ENDBRANCH  10  20
ENDBRANCH   6   7
ENDBRANCH   4   6
ENDBRANCH   3   4
ENDBRANCH   2   3
ENDBRANCH   1   2
BRANCH   1  28
ATOM     28  O   UNL A   1      34.496  20.239  25.539  1.00  0.00    -0.374 OA
BRANCH  28  29
ATOM     29  C   UNL A   1      35.520  20.813  24.723  1.00  0.00     0.202 C 
BRANCH  29  30
ATOM     30  C   UNL A   1      36.956  20.341  24.981  1.00  0.00     0.261 C 
BRANCH  30  31
ATOM     31  O   UNL A   1      37.863  21.439  25.187  1.00  0.00    -0.460 OA
BRANCH  31  32
ATOM     32  C   UNL A   1      38.973  21.141  25.898  1.00  0.00     0.338 C 
ATOM     33  O   UNL A   1      39.592  20.084  25.903  1.00  0.00    -0.246 OA
BRANCH  32  34
ATOM     34  C   UNL A   1      39.485  22.345  26.571  1.00  0.00     0.060 A 
ATOM     35  C   UNL A   1      38.967  23.585  26.167  1.00  0.00     0.016 A 
ATOM     36  C   UNL A   1      40.522  22.279  27.505  1.00  0.00     0.016 A 
ATOM     37  C   UNL A   1      39.525  24.767  26.649  1.00  0.00     0.010 A 
ATOM     38  C   UNL A   1      41.090  23.467  27.977  1.00  0.00     0.010 A 
ATOM     39  C   UNL A   1      40.622  24.713  27.519  1.00  0.00    -0.014 A 
BRANCH  39  40
ATOM     40  C   UNL A   1      41.394  25.947  27.802  1.00  0.00     0.031 A 
ATOM     41  C   UNL A   1      40.733  27.045  28.587  1.00  0.00     0.074 A 
ATOM     42  C   UNL A   1      42.666  26.082  27.392  1.00  0.00     0.049 A 
ATOM     43  N   UNL A   1      41.177  28.240  28.883  1.00  0.00    -0.248 NA
ATOM     44  C   UNL A   1      39.387  26.757  29.109  1.00  0.00     0.031 C 
ATOM     45  C   UNL A   1      43.439  25.067  26.679  1.00  0.00     0.029 A 
ATOM     46  N   UNL A   1      43.529  27.143  27.510  1.00  0.00    -0.354 N 
ATOM     47  C   UNL A   1      40.164  28.848  29.613  1.00  0.00     0.074 A 
ATOM     48  C   UNL A   1      39.075  27.901  29.700  1.00  0.00     0.031 C 
ATOM     49  C   UNL A   1      44.659  25.562  26.408  1.00  0.00     0.029 A 
ATOM     50  C   UNL A   1      44.738  26.937  26.896  1.00  0.00     0.049 A 
ATOM     51  H   UNL A   1      43.301  27.972  27.990  1.00  0.00     0.167 HD
ATOM     52  C   UNL A   1      40.144  30.085  30.164  1.00  0.00     0.037 A 
ATOM     53  C   UNL A   1      45.778  27.777  26.722  1.00  0.00     0.037 A 
ATOM     54  C   UNL A   1      41.228  31.026  30.080  1.00  0.00     0.049 A 
ATOM     55  C   UNL A   1      45.702  29.176  27.272  1.00  0.00     0.074 A 
ATOM     56  C   UNL A   1      41.304  32.304  30.606  1.00  0.00     0.029 A 
ATOM     57  N   UNL A   1      42.425  30.792  29.421  1.00  0.00    -0.354 N 
ATOM     58  N   UNL A   1      44.740  29.745  27.959  1.00  0.00    -0.248 NA
ATOM     59  C   UNL A   1      46.855  30.054  27.019  1.00  0.00     0.031 C 
ATOM     60  C   UNL A   1      42.534  32.857  30.232  1.00  0.00     0.029 A 
ATOM     61  C   UNL A   1      43.239  31.907  29.511  1.00  0.00     0.049 A 
ATOM     62  H   UNL A   1      42.661  29.955  28.959  1.00  0.00     0.167 HD
ATOM     63  C   UNL A   1      45.184  31.029  28.248  1.00  0.00     0.074 A 
ATOM     64  C   UNL A   1      46.502  31.159  27.662  1.00  0.00     0.031 C 
ATOM     65  C   UNL A   1      44.557  32.012  28.940  1.00  0.00     0.037 A 
BRANCH  52  66
ATOM     66  C   UNL A   1      38.895  30.498  30.881  1.00  0.00     0.057 A 
ATOM     67  C   UNL A   1      38.672  30.174  32.226  1.00  0.00     0.134 A 
ATOM     68  C   UNL A   1      37.910  31.246  30.224  1.00  0.00     0.134 A 
ATOM     69  F   UNL A   1      39.569  29.446  32.908  1.00  0.00    -0.206 F 
ATOM     70  C   UNL A   1      37.503  30.560  32.885  1.00  0.00     0.040 A 
ATOM     71  C   UNL A   1      36.749  31.659  30.878  1.00  0.00     0.040 A 
ATOM     72  F   UNL A   1      38.064  31.592  28.937  1.00  0.00    -0.206 F 
ATOM     73  C   UNL A   1      36.541  31.311  32.211  1.00  0.00     0.006 A 
ENDBRANCH  52  66
BRANCH  53  74
ATOM     74  C   UNL A   1      46.978  27.325  25.975  1.00  0.00     0.057 A 
ATOM     75  C   UNL A   1      48.068  26.746  26.636  1.00  0.00     0.134 A 
ATOM     76  C   UNL A   1      47.071  27.476  24.587  1.00  0.00     0.134 A 
ATOM     77  F   UNL A   1      48.048  26.599  27.969  1.00  0.00    -0.206 F 
ATOM     78  C   UNL A   1      49.211  26.344  25.945  1.00  0.00     0.040 A 
ATOM     79  C   UNL A   1      48.199  27.057  23.880  1.00  0.00     0.040 A 
ATOM     80  F   UNL A   1      46.061  28.024  23.896  1.00  0.00    -0.206 F 
ATOM     81  C   UNL A   1      49.276  26.494  24.561  1.00  0.00     0.006 A 
ENDBRANCH  53  74
BRANCH  65  82
ATOM     82  C   UNL A   1      45.303  33.296  29.150  1.00  0.00     0.057 A 
ATOM     83  C   UNL A   1      45.170  34.381  28.278  1.00  0.00     0.134 A 
ATOM     84  C   UNL A   1      46.114  33.467  30.280  1.00  0.00     0.134 A 
ATOM     85  F   UNL A   1      44.416  34.276  27.172  1.00  0.00    -0.206 F 
ATOM     86  C   UNL A   1      45.826  35.590  28.515  1.00  0.00     0.040 A 
ATOM     87  C   UNL A   1      46.757  34.678  30.540  1.00  0.00     0.040 A 
ATOM     88  F   UNL A   1      46.275  32.467  31.160  1.00  0.00    -0.206 F 
ATOM     89  C   UNL A   1      46.616  35.743  29.654  1.00  0.00     0.006 A 
ENDBRANCH  65  82
ENDBRANCH  39  40
ENDBRANCH  32  34
ENDBRANCH  31  32
ENDBRANCH  30  31
ENDBRANCH  29  30
ENDBRANCH  28  29
ENDBRANCH   1  28
TORSDOF 19
ENDMDL
MODEL 2
REMARK VINA RESULT:     -11.4      0.375      6.040
REMARK SMILES COc1ccc(-c2noc(CC(=O)OCCOCCOC(=O)c3ccc(-c4c5nc(c(-c6c(F)cccc6F)c6ccc([nH]6)c(-c6c(F)cccc6F)c6nc(c(-c7c(F)cccc7F)c7ccc4[nH]7)C=C6)C=C5)cc3)c2-c2ccc(OC)cc2)cc1
REMARK SMILES IDX 16 1 15 2 14 3 12 4 13 5 11 6 10 7 7 8 8 9 77 10 9 11 6 12
REMARK SMILES IDX 3 13 4 14 87 15 5 16 86 17 2 18 1 19 78 20 79 21 85 22 80 23
REMARK SMILES IDX 84 24 81 25 82 26 83 27 17 28 18 29 19 30 20 31 21 32 22 33
REMARK SMILES IDX 23 34 24 35 76 36 25 37 75 38 26 39 27 40 28 41 69 42 29 43
REMARK SMILES IDX 74 44 68 45 70 46 30 47 73 48 67 49 66 50 31 52 57 53 40 54
REMARK SMILES IDX 56 55 41 56 44 57 55 58 71 59 42 60 43 61 54 63 72 64 45 65
REMARK SMILES IDX 32 66 33 67 38 68 34 69 35 70 37 71 39 72 36 73 58 74 59 75
REMARK SMILES IDX 64 76 60 77 61 78 63 79 65 80 62 81 46 82 47 83 52 84 48 85
REMARK SMILES IDX 49 86 51 87 53 88 50 89
REMARK H PARENT 70 51 44 62
REMARK Flexibility Score: inf
ROOT
ATOM      1  C   UNL A   1      33.626  20.447  25.115  1.00  0.00     0.202 C 
ENDROOT
BRANCH   1   2
ATOM      2  C   UNL A   1      32.385  21.255  25.505  1.00  0.00     0.261 C 
BRANCH   2   3
ATOM      3  O   UNL A   1      32.633  22.082  26.654  1.00  0.00    -0.463 OA
BRANCH   3   4
ATOM      4  C   UNL A   1      32.157  23.349  26.571  1.00  0.00     0.313 C 
ATOM      5  O   UNL A   1      31.565  23.928  27.480  1.00  0.00    -0.252 OA
BRANCH   4   6
ATOM      6  C   UNL A   1      32.504  24.073  25.299  1.00  0.00     0.201 C 
BRANCH   6   7
ATOM      7  C   UNL A   1      31.445  24.929  24.708  1.00  0.00     0.156 A 
ATOM      8  C   UNL A   1      30.161  26.439  23.710  1.00  0.00     0.122 A 
ATOM      9  N   UNL A   1      29.749  25.242  23.266  1.00  0.00    -0.079 NA
ATOM     10  C   UNL A   1      31.183  26.281  24.694  1.00  0.00     0.053 A 
ATOM     11  O   UNL A   1      30.569  24.309  23.869  1.00  0.00    -0.359 OA
BRANCH   8  12
ATOM     12  C   UNL A   1      29.664  27.686  23.145  1.00  0.00     0.005 A 
ATOM     13  C   UNL A   1      28.783  30.141  22.099  1.00  0.00     0.118 A 
ATOM     14  C   UNL A   1      27.887  29.273  22.732  1.00  0.00     0.047 A 
ATOM     15  C   UNL A   1      30.125  29.779  21.991  1.00  0.00     0.047 A 
ATOM     16  C   UNL A   1      28.317  28.043  23.241  1.00  0.00     0.014 A 
ATOM     17  C   UNL A   1      30.561  28.558  22.512  1.00  0.00     0.014 A 
BRANCH  13  18
ATOM     18  O   UNL A   1      28.244  31.318  21.660  1.00  0.00    -0.497 OA
ATOM     19  C   UNL A   1      28.699  32.497  22.312  1.00  0.00     0.278 C 
ENDBRANCH  13  18
ENDBRANCH   8  12
BRANCH  10  20
ATOM     20  C   UNL A   1      31.898  27.276  25.458  1.00  0.00    -0.012 A 
ATOM     21  C   UNL A   1      33.143  27.727  25.010  1.00  0.00     0.013 A 
ATOM     22  C   UNL A   1      31.372  27.781  26.650  1.00  0.00     0.013 A 
ATOM     23  C   UNL A   1      33.834  28.699  25.733  1.00  0.00     0.047 A 
ATOM     24  C   UNL A   1      32.062  28.762  27.367  1.00  0.00     0.047 A 
ATOM     25  C   UNL A   1      33.291  29.235  26.903  1.00  0.00     0.118 A 
BRANCH  25  26
ATOM     26  O   UNL A   1      34.053  30.196  27.506  1.00  0.00    -0.497 OA
ATOM     27  C   UNL A   1      35.347  29.799  27.939  1.00  0.00     0.278 C 
ENDBRANCH  25  26
ENDBRANCH  10  20
ENDBRANCH   6   7
ENDBRANCH   4   6
ENDBRANCH   3   4
ENDBRANCH   2   3
ENDBRANCH   1   2
BRANCH   1  28
ATOM     28  O   UNL A   1      34.863  20.874  25.683  1.00  0.00    -0.374 OA
BRANCH  28  29
ATOM     29  C   UNL A   1      35.968  21.067  24.796  1.00  0.00     0.202 C 
BRANCH  29  30
ATOM     30  C   UNL A   1      37.295  20.409  25.191  1.00  0.00     0.261 C 
BRANCH  30  31
ATOM     31  O   UNL A   1      38.402  21.328  25.121  1.00  0.00    -0.460 OA
BRANCH  31  32
ATOM     32  C   UNL A   1      39.369  21.131  26.043  1.00  0.00     0.338 C 
ATOM     33  O   UNL A   1      39.993  20.099  26.261  1.00  0.00    -0.246 OA
BRANCH  32  34
ATOM     34  C   UNL A   1      39.735  22.408  26.678  1.00  0.00     0.060 A 
ATOM     35  C   UNL A   1      39.102  23.569  26.211  1.00  0.00     0.016 A 
ATOM     36  C   UNL A   1      40.746  22.487  27.638  1.00  0.00     0.016 A 
ATOM     37  C   UNL A   1      39.521  24.821  26.655  1.00  0.00     0.010 A 
ATOM     38  C   UNL A   1      41.175  23.746  28.073  1.00  0.00     0.010 A 
ATOM     39  C   UNL A   1      40.592  24.917  27.552  1.00  0.00    -0.014 A 
BRANCH  39  40
ATOM     40  C   UNL A   1      41.224  26.235  27.802  1.00  0.00     0.031 A 
ATOM     41  C   UNL A   1      42.629  26.464  27.317  1.00  0.00     0.074 A 
ATOM     42  C   UNL A   1      40.557  27.220  28.427  1.00  0.00     0.049 A 
ATOM     43  N   UNL A   1      43.411  27.498  27.492  1.00  0.00    -0.248 NA
ATOM     44  C   UNL A   1      43.233  25.378  26.528  1.00  0.00     0.031 C 
ATOM     45  C   UNL A   1      39.173  27.145  28.888  1.00  0.00     0.029 A 
ATOM     46  N   UNL A   1      40.968  28.478  28.790  1.00  0.00    -0.354 N 
ATOM     47  C   UNL A   1      44.600  27.183  26.847  1.00  0.00     0.074 A 
ATOM     48  C   UNL A   1      44.446  25.856  26.293  1.00  0.00     0.031 C 
ATOM     49  C   UNL A   1      38.853  28.305  29.490  1.00  0.00     0.029 A 
ATOM     50  C   UNL A   1      40.020  29.185  29.487  1.00  0.00     0.049 A 
ATOM     51  H   UNL A   1      41.857  28.840  28.572  1.00  0.00     0.167 HD
ATOM     52  C   UNL A   1      45.721  27.934  26.725  1.00  0.00     0.037 A 
ATOM     53  C   UNL A   1      40.098  30.393  30.079  1.00  0.00     0.037 A 
ATOM     54  C   UNL A   1      45.874  29.254  27.274  1.00  0.00     0.049 A 
ATOM     55  C   UNL A   1      41.381  31.176  30.001  1.00  0.00     0.074 A 
ATOM     56  C   UNL A   1      46.971  30.096  27.203  1.00  0.00     0.029 A 
ATOM     57  N   UNL A   1      44.902  29.922  28.000  1.00  0.00    -0.354 N 
ATOM     58  N   UNL A   1      42.502  30.871  29.391  1.00  0.00    -0.248 NA
ATOM     59  C   UNL A   1      41.413  32.471  30.698  1.00  0.00     0.031 C 
ATOM     60  C   UNL A   1      46.674  31.260  27.920  1.00  0.00     0.029 A 
ATOM     61  C   UNL A   1      45.377  31.159  28.399  1.00  0.00     0.049 A 
ATOM     62  H   UNL A   1      44.004  29.570  28.201  1.00  0.00     0.167 HD
ATOM     63  C   UNL A   1      43.356  31.945  29.602  1.00  0.00     0.074 A 
ATOM     64  C   UNL A   1      42.627  32.913  30.395  1.00  0.00     0.031 C 
ATOM     65  C   UNL A   1      44.630  32.118  29.172  1.00  0.00     0.037 A 
BRANCH  52  66
ATOM     66  C   UNL A   1      46.879  27.326  25.992  1.00  0.00     0.057 A 
ATOM     67  C   UNL A   1      47.074  27.528  24.620  1.00  0.00     0.134 A 
ATOM     68  C   UNL A   1      47.821  26.546  26.673  1.00  0.00     0.134 A 
ATOM     69  F   UNL A   1      46.198  28.253  23.908  1.00  0.00    -0.206 F 
ATOM     70  C   UNL A   1      48.154  26.955  23.946  1.00  0.00     0.040 A 
ATOM     71  C   UNL A   1      48.918  25.988  26.015  1.00  0.00     0.040 A 
ATOM     72  F   UNL A   1      47.694  26.317  27.988  1.00  0.00    -0.206 F 
ATOM     73  C   UNL A   1      49.083  26.188  24.646  1.00  0.00     0.006 A 
ENDBRANCH  52  66
BRANCH  53  74
ATOM     74  C   UNL A   1      38.930  30.931  30.819  1.00  0.00     0.057 A 
ATOM     75  C   UNL A   1      38.759  30.680  32.185  1.00  0.00     0.134 A 
ATOM     76  C   UNL A   1      37.949  31.695  30.175  1.00  0.00     0.134 A 
ATOM     77  F   UNL A   1      39.652  29.933  32.850  1.00  0.00    -0.206 F 
ATOM     78  C   UNL A   1      37.650  31.159  32.882  1.00  0.00     0.040 A 
ATOM     79  C   UNL A   1      36.846  32.201  30.865  1.00  0.00     0.040 A 
ATOM     80  F   UNL A   1      38.055  31.970  28.867  1.00  0.00    -0.206 F 
ATOM     81  C   UNL A   1      36.691  31.928  32.222  1.00  0.00     0.006 A 
ENDBRANCH  53  74
BRANCH  65  82
ATOM     82  C   UNL A   1      45.304  33.416  29.502  1.00  0.00     0.057 A 
ATOM     83  C   UNL A   1      46.066  33.581  30.663  1.00  0.00     0.134 A 
ATOM     84  C   UNL A   1      45.241  34.494  28.609  1.00  0.00     0.134 A 
ATOM     85  F   UNL A   1      46.156  32.590  31.564  1.00  0.00    -0.206 F 
ATOM     86  C   UNL A   1      46.734  34.777  30.932  1.00  0.00     0.040 A 
ATOM     87  C   UNL A   1      45.922  35.687  28.855  1.00  0.00     0.040 A 
ATOM     88  F   UNL A   1      44.534  34.397  27.473  1.00  0.00    -0.206 F 
ATOM     89  C   UNL A   1      46.669  35.832  30.022  1.00  0.00     0.006 A 
ENDBRANCH  65  82
ENDBRANCH  39  40
ENDBRANCH  32  34
ENDBRANCH  31  32
ENDBRANCH  30  31
ENDBRANCH  29  30
ENDBRANCH  28  29
ENDBRANCH   1  28
TORSDOF 19
ENDMDL
MODEL 3
REMARK VINA RESULT:     -11.2      3.797      7.585
REMARK SMILES COc1ccc(-c2noc(CC(=O)OCCOCCOC(=O)c3ccc(-c4c5nc(c(-c6c(F)cccc6F)c6ccc([nH]6)c(-c6c(F)cccc6F)c6nc(c(-c7c(F)cccc7F)c7ccc4[nH]7)C=C6)C=C5)cc3)c2-c2ccc(OC)cc2)cc1
REMARK SMILES IDX 16 1 15 2 14 3 12 4 13 5 11 6 10 7 7 8 8 9 77 10 9 11 6 12
REMARK SMILES IDX 3 13 4 14 87 15 5 16 86 17 2 18 1 19 78 20 79 21 85 22 80 23
REMARK SMILES IDX 84 24 81 25 82 26 83 27 17 28 18 29 19 30 20 31 21 32 22 33
REMARK SMILES IDX 23 34 24 35 76 36 25 37 75 38 26 39 27 40 28 41 69 42 29 43
REMARK SMILES IDX 74 44 68 45 70 46 30 47 73 48 67 49 66 50 31 52 57 53 40 54
REMARK SMILES IDX 56 55 41 56 44 57 55 58 71 59 42 60 43 61 54 63 72 64 45 65
REMARK SMILES IDX 32 66 33 67 38 68 34 69 35 70 37 71 39 72 36 73 58 74 59 75
REMARK SMILES IDX 64 76 60 77 61 78 63 79 65 80 62 81 46 82 47 83 52 84 48 85
REMARK SMILES IDX 49 86 51 87 53 88 50 89
REMARK H PARENT 70 51 44 62
REMARK Flexibility Score: inf
ROOT
ATOM      1  C   UNL A   1      40.043  20.640  26.280  1.00  0.00     0.202 C 
ENDROOT
BRANCH   1   2
ATOM      2  C   UNL A   1      39.075  21.758  25.884  1.00  0.00     0.261 C 
BRANCH   2   3
ATOM      3  O   UNL A   1      37.791  21.234  25.505  1.00  0.00    -0.463 OA
BRANCH   3   4
ATOM      4  C   UNL A   1      36.757  22.107  25.599  1.00  0.00     0.313 C 
ATOM      5  O   UNL A   1      36.808  23.181  26.194  1.00  0.00    -0.252 OA
BRANCH   4   6
ATOM      6  C   UNL A   1      35.532  21.723  24.813  1.00  0.00     0.201 C 
BRANCH   6   7
ATOM      7  C   UNL A   1      34.922  22.781  23.970  1.00  0.00     0.156 A 
ATOM      8  C   UNL A   1      33.950  24.550  23.049  1.00  0.00     0.122 A 
ATOM      9  N   UNL A   1      35.072  24.331  22.348  1.00  0.00    -0.079 NA
ATOM     10  C   UNL A   1      33.772  23.536  24.038  1.00  0.00     0.053 A 
ATOM     11  O   UNL A   1      35.687  23.246  22.942  1.00  0.00    -0.359 OA
BRANCH   8  12
ATOM     12  C   UNL A   1      33.131  25.737  22.845  1.00  0.00     0.005 A 
ATOM     13  C   UNL A   1      31.565  28.051  22.549  1.00  0.00     0.118 A 
ATOM     14  C   UNL A   1      31.125  26.824  22.043  1.00  0.00     0.047 A 
ATOM     15  C   UNL A   1      32.791  28.121  23.207  1.00  0.00     0.047 A 
ATOM     16  C   UNL A   1      31.908  25.671  22.174  1.00  0.00     0.014 A 
ATOM     17  C   UNL A   1      33.569  26.969  23.353  1.00  0.00     0.014 A 
BRANCH  13  18
ATOM     18  O   UNL A   1      30.703  29.098  22.372  1.00  0.00    -0.497 OA
ATOM     19  C   UNL A   1      29.859  29.407  23.475  1.00  0.00     0.278 C 
ENDBRANCH  13  18
ENDBRANCH   8  12
BRANCH  10  20
ATOM     20  C   UNL A   1      32.708  23.349  24.996  1.00  0.00    -0.012 A 
ATOM     21  C   UNL A   1      32.506  24.303  25.997  1.00  0.00     0.013 A 
ATOM     22  C   UNL A   1      31.890  22.218  24.948  1.00  0.00     0.013 A 
ATOM     23  C   UNL A   1      31.471  24.139  26.918  1.00  0.00     0.047 A 
ATOM     24  C   UNL A   1      30.848  22.061  25.865  1.00  0.00     0.047 A 
ATOM     25  C   UNL A   1      30.626  23.029  26.846  1.00  0.00     0.118 A 
BRANCH  25  26
ATOM     26  O   UNL A   1      29.636  22.995  27.789  1.00  0.00    -0.497 OA
ATOM     27  C   UNL A   1      28.488  22.218  27.474  1.00  0.00     0.278 C 
ENDBRANCH  25  26
ENDBRANCH  10  20
ENDBRANCH   6   7
ENDBRANCH   4   6
ENDBRANCH   3   4
ENDBRANCH   2   3
ENDBRANCH   1   2
BRANCH   1  28
ATOM     28  O   UNL A   1      41.316  21.051  26.774  1.00  0.00    -0.374 OA
BRANCH  28  29
ATOM     29  C   UNL A   1      42.479  20.478  26.170  1.00  0.00     0.202 C 
BRANCH  29  30
ATOM     30  C   UNL A   1      43.466  21.448  25.509  1.00  0.00     0.261 C 
BRANCH  30  31
ATOM     31  O   UNL A   1      42.811  22.615  24.977  1.00  0.00    -0.460 OA
BRANCH  31  32
ATOM     32  C   UNL A   1      43.535  23.754  25.032  1.00  0.00     0.338 C 
ATOM     33  O   UNL A   1      44.549  24.023  24.398  1.00  0.00    -0.246 OA
BRANCH  32  34
ATOM     34  C   UNL A   1      42.841  24.760  25.852  1.00  0.00     0.060 A 
ATOM     35  C   UNL A   1      43.401  26.045  25.913  1.00  0.00     0.016 A 
ATOM     36  C   UNL A   1      41.726  24.433  26.626  1.00  0.00     0.016 A 
ATOM     37  C   UNL A   1      42.886  26.991  26.797  1.00  0.00     0.010 A 
ATOM     38  C   UNL A   1      41.218  25.379  27.523  1.00  0.00     0.010 A 
ATOM     39  C   UNL A   1      41.822  26.646  27.641  1.00  0.00    -0.014 A 
BRANCH  39  40
ATOM     40  C   UNL A   1      41.463  27.538  28.770  1.00  0.00     0.031 A 
ATOM     41  C   UNL A   1      42.265  27.451  30.039  1.00  0.00     0.074 A 
ATOM     42  C   UNL A   1      40.460  28.425  28.665  1.00  0.00     0.049 A 
ATOM     43  N   UNL A   1      42.086  28.065  31.180  1.00  0.00    -0.248 NA
ATOM     44  C   UNL A   1      43.426  26.546  30.018  1.00  0.00     0.031 C 
ATOM     45  C   UNL A   1      39.651  28.650  27.470  1.00  0.00     0.029 A 
ATOM     46  N   UNL A   1      39.947  29.297  29.592  1.00  0.00    -0.354 N 
ATOM     47  C   UNL A   1      43.101  27.615  32.014  1.00  0.00     0.074 A 
ATOM     48  C   UNL A   1      43.882  26.661  31.256  1.00  0.00     0.031 C 
ATOM     49  C   UNL A   1      38.728  29.590  27.742  1.00  0.00     0.029 A 
ATOM     50  C   UNL A   1      38.861  30.003  29.138  1.00  0.00     0.049 A 
ATOM     51  H   UNL A   1      40.321  29.407  30.496  1.00  0.00     0.167 HD
ATOM     52  C   UNL A   1      43.362  27.966  33.295  1.00  0.00     0.037 A 
ATOM     53  C   UNL A   1      38.050  30.863  29.786  1.00  0.00     0.037 A 
ATOM     54  C   UNL A   1      42.587  28.915  34.048  1.00  0.00     0.049 A 
ATOM     55  C   UNL A   1      38.309  31.176  31.236  1.00  0.00     0.074 A 
ATOM     56  C   UNL A   1      42.771  29.339  35.353  1.00  0.00     0.029 A 
ATOM     57  N   UNL A   1      41.475  29.586  33.562  1.00  0.00    -0.354 N 
ATOM     58  N   UNL A   1      39.269  30.745  32.018  1.00  0.00    -0.248 NA
ATOM     59  C   UNL A   1      37.368  32.094  31.896  1.00  0.00     0.031 C 
ATOM     60  C   UNL A   1      41.747  30.238  35.668  1.00  0.00     0.029 A 
ATOM     61  C   UNL A   1      40.952  30.406  34.546  1.00  0.00     0.049 A 
ATOM     62  H   UNL A   1      41.112  29.493  32.651  1.00  0.00     0.167 HD
ATOM     63  C   UNL A   1      39.069  31.361  33.246  1.00  0.00     0.074 A 
ATOM     64  C   UNL A   1      37.895  32.198  33.109  1.00  0.00     0.031 C 
ATOM     65  C   UNL A   1      39.794  31.248  34.385  1.00  0.00     0.037 A 
BRANCH  52  66
ATOM     66  C   UNL A   1      44.518  27.293  33.971  1.00  0.00     0.057 A 
ATOM     67  C   UNL A   1      44.373  26.073  34.644  1.00  0.00     0.134 A 
ATOM     68  C   UNL A   1      45.796  27.863  33.932  1.00  0.00     0.134 A 
ATOM     69  F   UNL A   1      43.171  25.483  34.731  1.00  0.00    -0.206 F 
ATOM     70  C   UNL A   1      45.455  25.455  35.274  1.00  0.00     0.040 A 
ATOM     71  C   UNL A   1      46.890  27.243  34.536  1.00  0.00     0.040 A 
ATOM     72  F   UNL A   1      46.003  29.028  33.301  1.00  0.00    -0.206 F 
ATOM     73  C   UNL A   1      46.719  26.038  35.215  1.00  0.00     0.006 A 
ENDBRANCH  52  66
BRANCH  53  74
ATOM     74  C   UNL A   1      36.900  31.475  29.076  1.00  0.00     0.057 A 
ATOM     75  C   UNL A   1      36.939  32.807  28.648  1.00  0.00     0.134 A 
ATOM     76  C   UNL A   1      35.731  30.749  28.823  1.00  0.00     0.134 A 
ATOM     77  F   UNL A   1      38.023  33.560  28.884  1.00  0.00    -0.206 F 
ATOM     78  C   UNL A   1      35.852  33.399  28.004  1.00  0.00     0.040 A 
ATOM     79  C   UNL A   1      34.644  31.322  28.160  1.00  0.00     0.040 A 
ATOM     80  F   UNL A   1      35.631  29.469  29.210  1.00  0.00    -0.206 F 
ATOM     81  C   UNL A   1      34.701  32.653  27.754  1.00  0.00     0.006 A 
ENDBRANCH  53  74
BRANCH  65  82
ATOM     82  C   UNL A   1      39.378  32.083  35.559  1.00  0.00     0.057 A 
ATOM     83  C   UNL A   1      39.819  33.400  35.726  1.00  0.00     0.134 A 
ATOM     84  C   UNL A   1      38.469  31.579  36.500  1.00  0.00     0.134 A 
ATOM     85  F   UNL A   1      40.698  33.936  34.865  1.00  0.00    -0.206 F 
ATOM     86  C   UNL A   1      39.380  34.186  36.793  1.00  0.00     0.040 A 
ATOM     87  C   UNL A   1      38.005  32.362  37.559  1.00  0.00     0.040 A 
ATOM     88  F   UNL A   1      38.001  30.327  36.391  1.00  0.00    -0.206 F 
ATOM     89  C   UNL A   1      38.464  33.669  37.708  1.00  0.00     0.006 A 
ENDBRANCH  65  82
ENDBRANCH  39  40
ENDBRANCH  32  34
ENDBRANCH  31  32
ENDBRANCH  30  31
ENDBRANCH  29  30
ENDBRANCH  28  29
ENDBRANCH   1  28
TORSDOF 19
ENDMDL
