MODEL 1
REMARK VINA RESULT:     -11.1      0.000      0.000
REMARK SMILES CC[C@@H](C(=O)OCCOCCOC(=O)c1ccc(-c2c3nc(c(-c4c(F)cccc4F)c4ccc([nH]4)c(-c4c(F)cccc4F)c4nc(c(-c5c(F)cccc5F)c5ccc2[nH]5)C=C4)C=C3)cc1)N1C(=O)/C(=C/C(C)=C/c2ccccc2)SC1=S
REMARK SMILES IDX 8 1 7 2 6 3 4 4 5 5 3 6 2 7 1 8 69 9 70 10 84 11 71 12 72 13
REMARK SMILES IDX 83 14 85 15 73 16 74 17 75 18 76 19 77 20 78 21 82 22 79 23
REMARK SMILES IDX 81 24 80 25 9 26 10 27 11 28 12 29 13 30 14 31 15 32 16 33
REMARK SMILES IDX 68 34 17 35 67 36 18 37 19 38 20 39 61 40 21 41 66 42 60 43
REMARK SMILES IDX 62 44 22 45 65 46 59 47 58 48 23 50 49 51 32 52 48 53 33 54
REMARK SMILES IDX 36 55 47 56 63 57 34 58 35 59 46 61 64 62 37 63 24 64 25 65
REMARK SMILES IDX 30 66 26 67 27 68 29 69 31 70 28 71 50 72 51 73 56 74 52 75
REMARK SMILES IDX 53 76 55 77 57 78 54 79 38 80 39 81 44 82 40 83 41 84 43 85
REMARK SMILES IDX 45 86 42 87
REMARK H PARENT 62 49 36 60
REMARK Flexibility Score: inf
ROOT
ATOM      1  C   UNL A   1      34.394  29.585  27.210  1.00  0.00     0.202 C 
ENDROOT
BRANCH   1   2
ATOM      2  C   UNL A   1      33.781  28.860  26.004  1.00  0.00     0.261 C 
BRANCH   2   3
ATOM      3  O   UNL A   1      33.222  27.613  26.443  1.00  0.00    -0.462 OA
BRANCH   3   4
ATOM      4  C   UNL A   1      31.882  27.456  26.291  1.00  0.00     0.329 C 
ATOM      5  O   UNL A   1      31.047  27.701  27.153  1.00  0.00    -0.250 OA
BRANCH   4   6
ATOM      6  C   UNL A   1      31.528  26.998  24.861  1.00  0.00     0.201 C 
BRANCH   6   7
ATOM      7  C   UNL A   1      30.049  27.115  24.424  1.00  0.00     0.034 C 
ATOM      8  C   UNL A   1      29.770  28.251  23.447  1.00  0.00     0.007 C 
ENDBRANCH   6   7
BRANCH   6   9
ATOM      9  N   UNL A   1      32.081  25.647  24.562  1.00  0.00    -0.278 N 
ATOM     10  C   UNL A   1      31.717  24.534  25.311  1.00  0.00     0.266 C 
ATOM     11  C   UNL A   1      32.854  25.385  23.450  1.00  0.00     0.149 C 
ATOM     12  O   UNL A   1      30.936  24.516  26.252  1.00  0.00    -0.268 OA
ATOM     13  C   UNL A   1      32.402  23.299  24.811  1.00  0.00     0.080 C 
ATOM     14  S   UNL A   1      33.133  23.665  23.306  1.00  0.00    -0.054 SA
ATOM     15  S   UNL A   1      33.468  26.451  22.322  1.00  0.00    -0.052 S 
ATOM     16  C   UNL A   1      32.414  22.157  25.522  1.00  0.00     0.024 C 
BRANCH  16  17
ATOM     17  C   UNL A   1      33.030  20.837  25.277  1.00  0.00    -0.049 C 
ATOM     18  C   UNL A   1      34.517  20.778  25.568  1.00  0.00     0.044 C 
ATOM     19  C   UNL A   1      32.353  19.762  24.829  1.00  0.00     0.011 C 
BRANCH  19  20
ATOM     20  C   UNL A   1      32.782  18.376  24.582  1.00  0.00    -0.025 A 
ATOM     21  C   UNL A   1      32.782  17.491  25.673  1.00  0.00     0.008 A 
ATOM     22  C   UNL A   1      33.360  17.962  23.379  1.00  0.00     0.008 A 
ATOM     23  C   UNL A   1      33.348  16.221  25.564  1.00  0.00     0.001 A 
ATOM     24  C   UNL A   1      33.920  16.685  23.267  1.00  0.00     0.001 A 
ATOM     25  C   UNL A   1      33.920  15.819  24.362  1.00  0.00     0.000 A 
ENDBRANCH  19  20
ENDBRANCH  16  17
ENDBRANCH   6   9
ENDBRANCH   4   6
ENDBRANCH   3   4
ENDBRANCH   2   3
ENDBRANCH   1   2
BRANCH   1  26
ATOM     26  O   UNL A   1      33.625  30.659  27.764  1.00  0.00    -0.374 OA
BRANCH  26  27
ATOM     27  C   UNL A   1      32.491  31.100  27.022  1.00  0.00     0.202 C 
BRANCH  27  28
ATOM     28  C   UNL A   1      32.076  32.561  27.226  1.00  0.00     0.261 C 
BRANCH  28  29
ATOM     29  O   UNL A   1      33.210  33.444  27.273  1.00  0.00    -0.460 OA
BRANCH  29  30
ATOM     30  C   UNL A   1      33.278  34.187  28.399  1.00  0.00     0.338 C 
ATOM     31  O   UNL A   1      32.460  35.010  28.798  1.00  0.00    -0.246 OA
BRANCH  30  32
ATOM     32  C   UNL A   1      34.427  33.784  29.225  1.00  0.00     0.060 A 
ATOM     33  C   UNL A   1      35.686  34.230  28.810  1.00  0.00     0.016 A 
ATOM     34  C   UNL A   1      34.301  32.905  30.304  1.00  0.00     0.016 A 
ATOM     35  C   UNL A   1      36.833  33.740  29.425  1.00  0.00     0.010 A 
ATOM     36  C   UNL A   1      35.458  32.413  30.921  1.00  0.00     0.010 A 
ATOM     37  C   UNL A   1      36.729  32.792  30.451  1.00  0.00    -0.014 A 
BRANCH  37  38
ATOM     38  C   UNL A   1      37.967  32.106  30.898  1.00  0.00     0.031 A 
ATOM     39  C   UNL A   1      38.527  32.413  32.261  1.00  0.00     0.074 A 
ATOM     40  C   UNL A   1      38.522  31.141  30.144  1.00  0.00     0.049 A 
ATOM     41  N   UNL A   1      39.524  31.848  32.895  1.00  0.00    -0.248 NA
ATOM     42  C   UNL A   1      37.874  33.496  33.012  1.00  0.00     0.031 C 
ATOM     43  C   UNL A   1      38.054  30.732  28.820  1.00  0.00     0.029 A 
ATOM     44  N   UNL A   1      39.590  30.318  30.395  1.00  0.00    -0.354 N 
ATOM     45  C   UNL A   1      39.612  32.500  34.118  1.00  0.00     0.074 A 
ATOM     46  C   UNL A   1      38.597  33.532  34.122  1.00  0.00     0.031 C 
ATOM     47  C   UNL A   1      38.824  29.722  28.381  1.00  0.00     0.029 A 
ATOM     48  C   UNL A   1      39.846  29.426  29.384  1.00  0.00     0.049 A 
ATOM     49  H   UNL A   1      40.121  30.362  31.223  1.00  0.00     0.167 HD
ATOM     50  C   UNL A   1      40.450  32.252  35.154  1.00  0.00     0.037 A 
ATOM     51  C   UNL A   1      40.794  28.475  29.281  1.00  0.00     0.037 A 
ATOM     52  C   UNL A   1      41.461  31.227  35.153  1.00  0.00     0.049 A 
ATOM     53  C   UNL A   1      41.744  28.250  30.427  1.00  0.00     0.074 A 
ATOM     54  C   UNL A   1      42.354  30.893  36.158  1.00  0.00     0.029 A 
ATOM     55  N   UNL A   1      41.717  30.373  34.092  1.00  0.00    -0.354 N 
ATOM     56  N   UNL A   1      41.797  28.852  31.591  1.00  0.00    -0.248 NA
ATOM     57  C   UNL A   1      42.757  27.201  30.248  1.00  0.00     0.031 C 
ATOM     58  C   UNL A   1      43.179  29.866  35.686  1.00  0.00     0.029 A 
ATOM     59  C   UNL A   1      42.766  29.525  34.409  1.00  0.00     0.049 A 
ATOM     60  H   UNL A   1      41.226  30.368  33.239  1.00  0.00     0.167 HD
ATOM     61  C   UNL A   1      42.825  28.236  32.292  1.00  0.00     0.074 A 
ATOM     62  C   UNL A   1      43.359  27.203  31.428  1.00  0.00     0.031 C 
ATOM     63  C   UNL A   1      43.287  28.499  33.541  1.00  0.00     0.037 A 
BRANCH  50  64
ATOM     64  C   UNL A   1      40.318  33.123  36.370  1.00  0.00     0.057 A 
ATOM     65  C   UNL A   1      41.132  34.246  36.568  1.00  0.00     0.134 A 
ATOM     66  C   UNL A   1      39.348  32.849  37.344  1.00  0.00     0.134 A 
ATOM     67  F   UNL A   1      42.091  34.555  35.682  1.00  0.00    -0.206 F 
ATOM     68  C   UNL A   1      41.003  35.052  37.702  1.00  0.00     0.040 A 
ATOM     69  C   UNL A   1      39.193  33.662  38.467  1.00  0.00     0.040 A 
ATOM     70  F   UNL A   1      38.533  31.791  37.214  1.00  0.00    -0.206 F 
ATOM     71  C   UNL A   1      40.026  34.763  38.652  1.00  0.00     0.006 A 
ENDBRANCH  50  64
BRANCH  51  72
ATOM     72  C   UNL A   1      40.887  27.651  28.051  1.00  0.00     0.057 A 
ATOM     73  C   UNL A   1      40.241  26.413  27.953  1.00  0.00     0.134 A 
ATOM     74  C   UNL A   1      41.643  28.073  26.950  1.00  0.00     0.134 A 
ATOM     75  F   UNL A   1      39.521  25.944  28.982  1.00  0.00    -0.206 F 
ATOM     76  C   UNL A   1      40.357  25.617  26.812  1.00  0.00     0.040 A 
ATOM     77  C   UNL A   1      41.746  27.299  25.794  1.00  0.00     0.040 A 
ATOM     78  F   UNL A   1      42.284  29.250  26.981  1.00  0.00    -0.206 F 
ATOM     79  C   UNL A   1      41.107  26.062  25.726  1.00  0.00     0.006 A 
ENDBRANCH  51  72
BRANCH  63  80
ATOM     80  C   UNL A   1      44.397  27.630  34.056  1.00  0.00     0.057 A 
ATOM     81  C   UNL A   1      44.150  26.411  34.699  1.00  0.00     0.134 A 
ATOM     82  C   UNL A   1      45.735  28.015  33.896  1.00  0.00     0.134 A 
ATOM     83  F   UNL A   1      42.891  25.988  34.895  1.00  0.00    -0.206 F 
ATOM     84  C   UNL A   1      45.190  25.624  35.197  1.00  0.00     0.040 A 
ATOM     85  C   UNL A   1      46.785  27.223  34.363  1.00  0.00     0.040 A 
ATOM     86  F   UNL A   1      46.044  29.165  33.279  1.00  0.00    -0.206 F 
ATOM     87  C   UNL A   1      46.513  26.028  35.026  1.00  0.00     0.006 A 
ENDBRANCH  63  80
ENDBRANCH  37  38
ENDBRANCH  30  32
ENDBRANCH  29  30
ENDBRANCH  28  29
ENDBRANCH  27  28
ENDBRANCH  26  27
ENDBRANCH   1  26
TORSDOF 18
ENDMDL
MODEL 2
REMARK VINA RESULT:     -10.8      4.149     10.073
REMARK SMILES CC[C@@H](C(=O)OCCOCCOC(=O)c1ccc(-c2c3nc(c(-c4c(F)cccc4F)c4ccc([nH]4)c(-c4c(F)cccc4F)c4nc(c(-c5c(F)cccc5F)c5ccc2[nH]5)C=C4)C=C3)cc1)N1C(=O)/C(=C/C(C)=C/c2ccccc2)SC1=S
REMARK SMILES IDX 8 1 7 2 6 3 4 4 5 5 3 6 2 7 1 8 69 9 70 10 84 11 71 12 72 13
REMARK SMILES IDX 83 14 85 15 73 16 74 17 75 18 76 19 77 20 78 21 82 22 79 23
REMARK SMILES IDX 81 24 80 25 9 26 10 27 11 28 12 29 13 30 14 31 15 32 16 33
REMARK SMILES IDX 68 34 17 35 67 36 18 37 19 38 20 39 61 40 21 41 66 42 60 43
REMARK SMILES IDX 62 44 22 45 65 46 59 47 58 48 23 50 49 51 32 52 48 53 33 54
REMARK SMILES IDX 36 55 47 56 63 57 34 58 35 59 46 61 64 62 37 63 24 64 25 65
REMARK SMILES IDX 30 66 26 67 27 68 29 69 31 70 28 71 50 72 51 73 56 74 52 75
REMARK SMILES IDX 53 76 55 77 57 78 54 79 38 80 39 81 44 82 40 83 41 84 43 85
REMARK SMILES IDX 45 86 42 87
REMARK H PARENT 62 49 36 60
REMARK Flexibility Score: inf
ROOT
ATOM      1  C   UNL A   1      33.744  22.226  23.676  1.00  0.00     0.202 C 
ENDROOT
BRANCH   1   2
ATOM      2  C   UNL A   1      33.365  22.935  22.369  1.00  0.00     0.261 C 
BRANCH   2   3
ATOM      3  O   UNL A   1      34.053  24.195  22.304  1.00  0.00    -0.462 OA
BRANCH   3   4
ATOM      4  C   UNL A   1      33.285  25.302  22.140  1.00  0.00     0.329 C 
ATOM      5  O   UNL A   1      33.274  26.002  21.134  1.00  0.00    -0.250 OA
BRANCH   4   6
ATOM      6  C   UNL A   1      32.363  25.534  23.355  1.00  0.00     0.201 C 
BRANCH   6   7
ATOM      7  C   UNL A   1      30.841  25.366  23.133  1.00  0.00     0.034 C 
ATOM      8  C   UNL A   1      30.257  24.088  23.726  1.00  0.00     0.007 C 
ENDBRANCH   6   7
BRANCH   6   9
ATOM      9  N   UNL A   1      32.676  26.815  24.047  1.00  0.00    -0.278 N 
ATOM     10  C   UNL A   1      33.648  26.884  25.040  1.00  0.00     0.266 C 
ATOM     11  C   UNL A   1      32.148  28.027  23.653  1.00  0.00     0.149 C 
ATOM     12  O   UNL A   1      34.336  25.959  25.446  1.00  0.00    -0.268 OA
ATOM     13  C   UNL A   1      33.777  28.277  25.574  1.00  0.00     0.080 C 
ATOM     14  S   UNL A   1      32.903  29.329  24.542  1.00  0.00    -0.054 SA
ATOM     15  S   UNL A   1      30.983  28.339  22.499  1.00  0.00    -0.052 S 
ATOM     16  C   UNL A   1      34.455  28.543  26.705  1.00  0.00     0.024 C 
BRANCH  16  17
ATOM     17  C   UNL A   1      34.701  29.796  27.448  1.00  0.00    -0.049 C 
ATOM     18  C   UNL A   1      35.816  29.707  28.471  1.00  0.00     0.044 C 
ATOM     19  C   UNL A   1      34.006  30.934  27.255  1.00  0.00     0.011 C 
BRANCH  19  20
ATOM     20  C   UNL A   1      34.145  32.272  27.854  1.00  0.00    -0.025 A 
ATOM     21  C   UNL A   1      32.981  33.044  27.999  1.00  0.00     0.008 A 
ATOM     22  C   UNL A   1      35.385  32.868  28.101  1.00  0.00     0.008 A 
ATOM     23  C   UNL A   1      33.054  34.384  28.382  1.00  0.00     0.001 A 
ATOM     24  C   UNL A   1      35.458  34.208  28.494  1.00  0.00     0.001 A 
ATOM     25  C   UNL A   1      34.294  34.966  28.626  1.00  0.00     0.000 A 
ENDBRANCH  19  20
ENDBRANCH  16  17
ENDBRANCH   6   9
ENDBRANCH   4   6
ENDBRANCH   3   4
ENDBRANCH   2   3
ENDBRANCH   1   2
BRANCH   1  26
ATOM     26  O   UNL A   1      35.141  22.168  23.986  1.00  0.00    -0.374 OA
BRANCH  26  27
ATOM     27  C   UNL A   1      35.531  21.355  25.090  1.00  0.00     0.202 C 
BRANCH  27  28
ATOM     28  C   UNL A   1      36.908  20.689  24.987  1.00  0.00     0.261 C 
BRANCH  28  29
ATOM     29  O   UNL A   1      37.976  21.651  25.004  1.00  0.00    -0.460 OA
BRANCH  29  30
ATOM     30  C   UNL A   1      39.024  21.290  25.777  1.00  0.00     0.338 C 
ATOM     31  O   UNL A   1      39.615  20.214  25.775  1.00  0.00    -0.246 OA
BRANCH  30  32
ATOM     32  C   UNL A   1      39.513  22.432  26.564  1.00  0.00     0.060 A 
ATOM     33  C   UNL A   1      38.937  23.677  26.290  1.00  0.00     0.016 A 
ATOM     34  C   UNL A   1      40.580  22.322  27.460  1.00  0.00     0.016 A 
ATOM     35  C   UNL A   1      39.472  24.829  26.855  1.00  0.00     0.010 A 
ATOM     36  C   UNL A   1      41.118  23.485  28.027  1.00  0.00     0.010 A 
ATOM     37  C   UNL A   1      40.596  24.747  27.687  1.00  0.00    -0.014 A 
BRANCH  37  38
ATOM     38  C   UNL A   1      41.289  26.006  28.055  1.00  0.00     0.031 A 
ATOM     39  C   UNL A   1      42.677  26.263  27.533  1.00  0.00     0.074 A 
ATOM     40  C   UNL A   1      40.647  26.957  28.756  1.00  0.00     0.049 A 
ATOM     41  N   UNL A   1      43.415  27.339  27.633  1.00  0.00    -0.248 NA
ATOM     42  C   UNL A   1      43.316  25.162  26.796  1.00  0.00     0.031 C 
ATOM     43  C   UNL A   1      39.291  26.840  29.291  1.00  0.00     0.029 A 
ATOM     44  N   UNL A   1      41.046  28.219  29.119  1.00  0.00    -0.354 N 
ATOM     45  C   UNL A   1      44.599  27.049  26.967  1.00  0.00     0.074 A 
ATOM     46  C   UNL A   1      44.500  25.681  26.504  1.00  0.00     0.031 C 
ATOM     47  C   UNL A   1      38.964  27.992  29.902  1.00  0.00     0.029 A 
ATOM     48  C   UNL A   1      40.092  28.918  29.816  1.00  0.00     0.049 A 
ATOM     49  H   UNL A   1      41.932  28.587  28.900  1.00  0.00     0.167 HD
ATOM     50  C   UNL A   1      45.667  27.853  26.743  1.00  0.00     0.037 A 
ATOM     51  C   UNL A   1      40.124  30.165  30.322  1.00  0.00     0.037 A 
ATOM     52  C   UNL A   1      45.769  29.213  27.204  1.00  0.00     0.049 A 
ATOM     53  C   UNL A   1      41.341  31.023  30.101  1.00  0.00     0.074 A 
ATOM     54  C   UNL A   1      46.807  30.112  27.020  1.00  0.00     0.029 A 
ATOM     55  N   UNL A   1      44.799  29.871  27.943  1.00  0.00    -0.354 N 
ATOM     56  N   UNL A   1      42.441  30.748  29.441  1.00  0.00    -0.248 NA
ATOM     57  C   UNL A   1      41.312  32.372  30.683  1.00  0.00     0.031 C 
ATOM     58  C   UNL A   1      46.483  31.298  27.689  1.00  0.00     0.029 A 
ATOM     59  C   UNL A   1      45.221  31.156  28.242  1.00  0.00     0.049 A 
ATOM     60  H   UNL A   1      43.937  29.482  28.217  1.00  0.00     0.167 HD
ATOM     61  C   UNL A   1      43.220  31.896  29.504  1.00  0.00     0.074 A 
ATOM     62  C   UNL A   1      42.459  32.876  30.252  1.00  0.00     0.031 C 
ATOM     63  C   UNL A   1      44.453  32.123  28.987  1.00  0.00     0.037 A 
BRANCH  50  64
ATOM     64  C   UNL A   1      46.821  27.270  25.981  1.00  0.00     0.057 A 
ATOM     65  C   UNL A   1      47.809  26.499  26.608  1.00  0.00     0.134 A 
ATOM     66  C   UNL A   1      46.932  27.459  24.597  1.00  0.00     0.134 A 
ATOM     67  F   UNL A   1      47.771  26.293  27.933  1.00  0.00    -0.206 F 
ATOM     68  C   UNL A   1      48.880  25.959  25.892  1.00  0.00     0.040 A 
ATOM     69  C   UNL A   1      47.983  26.902  23.866  1.00  0.00     0.040 A 
ATOM     70  F   UNL A   1      46.018  28.183  23.933  1.00  0.00    -0.206 F 
ATOM     71  C   UNL A   1      48.964  26.155  24.515  1.00  0.00     0.006 A 
ENDBRANCH  50  64
BRANCH  51  72
ATOM     72  C   UNL A   1      38.959  30.688  31.078  1.00  0.00     0.057 A 
ATOM     73  C   UNL A   1      38.735  30.327  32.412  1.00  0.00     0.134 A 
ATOM     74  C   UNL A   1      38.030  31.547  30.477  1.00  0.00     0.134 A 
ATOM     75  F   UNL A   1      39.577  29.490  33.036  1.00  0.00    -0.206 F 
ATOM     76  C   UNL A   1      37.621  30.786  33.116  1.00  0.00     0.040 A 
ATOM     77  C   UNL A   1      36.926  32.034  31.177  1.00  0.00     0.040 A 
ATOM     78  F   UNL A   1      38.190  31.931  29.203  1.00  0.00    -0.206 F 
ATOM     79  C   UNL A   1      36.715  31.647  32.499  1.00  0.00     0.006 A 
ENDBRANCH  51  72
BRANCH  63  80
ATOM     80  C   UNL A   1      45.036  33.493  29.182  1.00  0.00     0.057 A 
ATOM     81  C   UNL A   1      45.863  33.800  30.270  1.00  0.00     0.134 A 
ATOM     82  C   UNL A   1      44.774  34.516  28.261  1.00  0.00     0.134 A 
ATOM     83  F   UNL A   1      46.145  32.869  31.195  1.00  0.00    -0.206 F 
ATOM     84  C   UNL A   1      46.378  35.084  30.455  1.00  0.00     0.040 A 
ATOM     85  C   UNL A   1      45.307  35.796  28.420  1.00  0.00     0.040 A 
ATOM     86  F   UNL A   1      44.000  34.287  27.190  1.00  0.00    -0.206 F 
ATOM     87  C   UNL A   1      46.103  36.086  29.526  1.00  0.00     0.006 A 
ENDBRANCH  63  80
ENDBRANCH  37  38
ENDBRANCH  30  32
ENDBRANCH  29  30
ENDBRANCH  28  29
ENDBRANCH  27  28
ENDBRANCH  26  27
ENDBRANCH   1  26
TORSDOF 18
ENDMDL
MODEL 3
REMARK VINA RESULT:     -10.6      3.930      7.566
REMARK SMILES CC[C@@H](C(=O)OCCOCCOC(=O)c1ccc(-c2c3nc(c(-c4c(F)cccc4F)c4ccc([nH]4)c(-c4c(F)cccc4F)c4nc(c(-c5c(F)cccc5F)c5ccc2[nH]5)C=C4)C=C3)cc1)N1C(=O)/C(=C/C(C)=C/c2ccccc2)SC1=S
REMARK SMILES IDX 8 1 7 2 6 3 4 4 5 5 3 6 2 7 1 8 69 9 70 10 84 11 71 12 72 13
REMARK SMILES IDX 83 14 85 15 73 16 74 17 75 18 76 19 77 20 78 21 82 22 79 23
REMARK SMILES IDX 81 24 80 25 9 26 10 27 11 28 12 29 13 30 14 31 15 32 16 33
REMARK SMILES IDX 68 34 17 35 67 36 18 37 19 38 20 39 61 40 21 41 66 42 60 43
REMARK SMILES IDX 62 44 22 45 65 46 59 47 58 48 23 50 49 51 32 52 48 53 33 54
REMARK SMILES IDX 36 55 47 56 63 57 34 58 35 59 46 61 64 62 37 63 24 64 25 65
REMARK SMILES IDX 30 66 26 67 27 68 29 69 31 70 28 71 50 72 51 73 56 74 52 75
REMARK SMILES IDX 53 76 55 77 57 78 54 79 38 80 39 81 44 82 40 83 41 84 43 85
REMARK SMILES IDX 45 86 42 87
REMARK H PARENT 62 49 36 60
REMARK Flexibility Score: inf
ROOT
ATOM      1  C   UNL A   1      34.691  31.256  27.653  1.00  0.00     0.202 C 
ENDROOT
BRANCH   1   2
ATOM      2  C   UNL A   1      34.425  29.750  27.513  1.00  0.00     0.261 C 
BRANCH   2   3
ATOM      3  O   UNL A   1      33.819  29.500  26.235  1.00  0.00    -0.462 OA
BRANCH   3   4
ATOM      4  C   UNL A   1      32.508  29.147  26.239  1.00  0.00     0.329 C 
ATOM      5  O   UNL A   1      31.778  29.182  27.222  1.00  0.00    -0.250 OA
BRANCH   4   6
ATOM      6  C   UNL A   1      32.023  28.765  24.826  1.00  0.00     0.201 C 
BRANCH   6   7
ATOM      7  C   UNL A   1      30.512  28.910  24.530  1.00  0.00     0.034 C 
ATOM      8  C   UNL A   1      30.157  28.888  23.047  1.00  0.00     0.007 C 
ENDBRANCH   6   7
BRANCH   6   9
ATOM      9  N   UNL A   1      32.535  27.428  24.411  1.00  0.00    -0.278 N 
ATOM     10  C   UNL A   1      32.102  26.262  25.032  1.00  0.00     0.266 C 
ATOM     11  C   UNL A   1      33.337  27.245  23.303  1.00  0.00     0.149 C 
ATOM     12  O   UNL A   1      31.288  26.183  25.941  1.00  0.00    -0.268 OA
ATOM     13  C   UNL A   1      32.757  25.056  24.433  1.00  0.00     0.080 C 
ATOM     14  S   UNL A   1      33.556  25.538  22.996  1.00  0.00    -0.054 SA
ATOM     15  S   UNL A   1      34.031  28.391  22.309  1.00  0.00    -0.052 S 
ATOM     16  C   UNL A   1      32.701  23.849  25.026  1.00  0.00     0.024 C 
BRANCH  16  17
ATOM     17  C   UNL A   1      33.274  22.536  24.670  1.00  0.00    -0.049 C 
ATOM     18  C   UNL A   1      34.789  22.492  24.683  1.00  0.00     0.044 C 
ATOM     19  C   UNL A   1      32.537  21.453  24.351  1.00  0.00     0.011 C 
BRANCH  19  20
ATOM     20  C   UNL A   1      32.928  20.072  24.028  1.00  0.00    -0.025 A 
ATOM     21  C   UNL A   1      32.348  19.480  22.893  1.00  0.00     0.008 A 
ATOM     22  C   UNL A   1      33.686  19.276  24.890  1.00  0.00     0.008 A 
ATOM     23  C   UNL A   1      32.521  18.122  22.627  1.00  0.00     0.001 A 
ATOM     24  C   UNL A   1      33.867  17.916  24.618  1.00  0.00     0.001 A 
ATOM     25  C   UNL A   1      33.279  17.339  23.492  1.00  0.00     0.000 A 
ENDBRANCH  19  20
ENDBRANCH  16  17
ENDBRANCH   6   9
ENDBRANCH   4   6
ENDBRANCH   3   4
ENDBRANCH   2   3
ENDBRANCH   1   2
BRANCH   1  26
ATOM     26  O   UNL A   1      33.877  31.959  28.598  1.00  0.00    -0.374 OA
BRANCH  26  27
ATOM     27  C   UNL A   1      34.388  33.187  29.113  1.00  0.00     0.202 C 
BRANCH  27  28
ATOM     28  C   UNL A   1      34.529  33.274  30.636  1.00  0.00     0.261 C 
BRANCH  28  29
ATOM     29  O   UNL A   1      34.773  31.988  31.231  1.00  0.00    -0.460 OA
BRANCH  29  30
ATOM     30  C   UNL A   1      35.884  31.942  31.999  1.00  0.00     0.338 C 
ATOM     31  O   UNL A   1      36.023  32.386  33.134  1.00  0.00    -0.246 OA
BRANCH  30  32
ATOM     32  C   UNL A   1      36.929  31.130  31.359  1.00  0.00     0.060 A 
ATOM     33  C   UNL A   1      37.950  30.653  32.189  1.00  0.00     0.016 A 
ATOM     34  C   UNL A   1      36.983  30.932  29.977  1.00  0.00     0.016 A 
ATOM     35  C   UNL A   1      39.067  30.040  31.633  1.00  0.00     0.010 A 
ATOM     36  C   UNL A   1      38.110  30.314  29.419  1.00  0.00     0.010 A 
ATOM     37  C   UNL A   1      39.178  29.910  30.242  1.00  0.00    -0.014 A 
BRANCH  37  38
ATOM     38  C   UNL A   1      40.486  29.493  29.680  1.00  0.00     0.031 A 
ATOM     39  C   UNL A   1      40.646  28.095  29.146  1.00  0.00     0.074 A 
ATOM     40  C   UNL A   1      41.485  30.383  29.546  1.00  0.00     0.049 A 
ATOM     41  N   UNL A   1      41.658  27.560  28.510  1.00  0.00    -0.248 NA
ATOM     42  C   UNL A   1      39.514  27.179  29.353  1.00  0.00     0.031 C 
ATOM     43  C   UNL A   1      41.442  31.774  29.995  1.00  0.00     0.029 A 
ATOM     44  N   UNL A   1      42.725  30.251  28.973  1.00  0.00    -0.354 N 
ATOM     45  C   UNL A   1      41.281  26.251  28.234  1.00  0.00     0.074 A 
ATOM     46  C   UNL A   1      39.968  26.059  28.810  1.00  0.00     0.031 C 
ATOM     47  C   UNL A   1      42.599  32.373  29.667  1.00  0.00     0.029 A 
ATOM     48  C   UNL A   1      43.468  31.404  29.001  1.00  0.00     0.049 A 
ATOM     49  H   UNL A   1      43.050  29.409  28.579  1.00  0.00     0.167 HD
ATOM     50  C   UNL A   1      41.960  25.300  27.548  1.00  0.00     0.037 A 
ATOM     51  C   UNL A   1      44.708  31.652  28.536  1.00  0.00     0.037 A 
ATOM     52  C   UNL A   1      43.267  25.489  26.975  1.00  0.00     0.049 A 
ATOM     53  C   UNL A   1      45.461  30.564  27.818  1.00  0.00     0.074 A 
ATOM     54  C   UNL A   1      44.033  24.587  26.254  1.00  0.00     0.029 A 
ATOM     55  N   UNL A   1      44.005  26.659  27.062  1.00  0.00    -0.354 N 
ATOM     56  N   UNL A   1      45.081  29.340  27.536  1.00  0.00    -0.248 NA
ATOM     57  C   UNL A   1      46.810  30.898  27.341  1.00  0.00     0.031 C 
ATOM     58  C   UNL A   1      45.253  25.199  25.945  1.00  0.00     0.029 A 
ATOM     59  C   UNL A   1      45.225  26.498  26.426  1.00  0.00     0.049 A 
ATOM     60  H   UNL A   1      43.707  27.483  27.509  1.00  0.00     0.167 HD
ATOM     61  C   UNL A   1      46.130  28.771  26.824  1.00  0.00     0.074 A 
ATOM     62  C   UNL A   1      47.154  29.789  26.705  1.00  0.00     0.031 C 
ATOM     63  C   UNL A   1      46.236  27.519  26.312  1.00  0.00     0.037 A 
BRANCH  50  64
ATOM     64  C   UNL A   1      41.302  23.959  27.398  1.00  0.00     0.057 A 
ATOM     65  C   UNL A   1      40.224  23.756  26.526  1.00  0.00     0.134 A 
ATOM     66  C   UNL A   1      41.769  22.850  28.116  1.00  0.00     0.134 A 
ATOM     67  F   UNL A   1      39.719  24.779  25.820  1.00  0.00    -0.206 F 
ATOM     68  C   UNL A   1      39.618  22.505  26.391  1.00  0.00     0.040 A 
ATOM     69  C   UNL A   1      41.188  21.589  27.970  1.00  0.00     0.040 A 
ATOM     70  F   UNL A   1      42.800  22.973  28.965  1.00  0.00    -0.206 F 
ATOM     71  C   UNL A   1      40.106  21.415  27.110  1.00  0.00     0.006 A 
ENDBRANCH  50  64
BRANCH  51  72
ATOM     72  C   UNL A   1      45.316  32.993  28.723  1.00  0.00     0.057 A 
ATOM     73  C   UNL A   1      46.047  33.308  29.874  1.00  0.00     0.134 A 
ATOM     74  C   UNL A   1      45.162  33.999  27.760  1.00  0.00     0.134 A 
ATOM     75  F   UNL A   1      46.209  32.394  30.842  1.00  0.00    -0.206 F 
ATOM     76  C   UNL A   1      46.587  34.580  30.070  1.00  0.00     0.040 A 
ATOM     77  C   UNL A   1      45.719  35.266  27.932  1.00  0.00     0.040 A 
ATOM     78  F   UNL A   1      44.474  33.759  26.635  1.00  0.00    -0.206 F 
ATOM     79  C   UNL A   1      46.428  35.562  29.095  1.00  0.00     0.006 A 
ENDBRANCH  51  72
BRANCH  63  80
ATOM     80  C   UNL A   1      47.486  27.198  25.546  1.00  0.00     0.057 A 
ATOM     81  C   UNL A   1      47.600  27.443  24.172  1.00  0.00     0.134 A 
ATOM     82  C   UNL A   1      48.598  26.645  26.196  1.00  0.00     0.134 A 
ATOM     83  F   UNL A   1      46.569  27.961  23.486  1.00  0.00    -0.206 F 
ATOM     84  C   UNL A   1      48.758  27.116  23.465  1.00  0.00     0.040 A 
ATOM     85  C   UNL A   1      49.772  26.341  25.506  1.00  0.00     0.040 A 
ATOM     86  F   UNL A   1      48.562  26.395  27.513  1.00  0.00    -0.206 F 
ATOM     87  C   UNL A   1      49.851  26.566  24.133  1.00  0.00     0.006 A 
ENDBRANCH  63  80
ENDBRANCH  37  38
ENDBRANCH  30  32
ENDBRANCH  29  30
ENDBRANCH  28  29
ENDBRANCH  27  28
ENDBRANCH  26  27
ENDBRANCH   1  26
TORSDOF 18
ENDMDL
