MODEL 1
REMARK VINA RESULT:     -10.7      0.000      0.000
REMARK SMILES O=C(OCCOCCOC(=O)[C@H]1CSC2(CCCCC2)[NH2+]1)c1ccc(-c2c3nc(c(-c4c(F)cccc4F)c4ccc([nH]4)c(-c4c(F)cccc4F)c4nc(c(-c5c(F)cccc5F)c5ccc2[nH]5)C=C4)C=C3)cc1
REMARK SMILES IDX 5 1 4 2 3 3 2 4 1 5 22 6 23 7 75 8 24 9 74 10 25 11 26 12
REMARK SMILES IDX 27 13 68 14 28 15 73 16 67 17 69 18 29 19 72 20 66 21 65 22
REMARK SMILES IDX 30 24 56 25 39 26 55 27 40 28 43 29 54 30 70 31 41 32 42 33
REMARK SMILES IDX 53 35 71 36 44 37 31 38 32 39 37 40 33 41 34 42 36 43 38 44
REMARK SMILES IDX 35 45 57 46 58 47 63 48 59 49 60 50 62 51 64 52 61 53 45 54
REMARK SMILES IDX 46 55 51 56 47 57 48 58 50 59 52 60 49 61 6 62 7 63 8 64
REMARK SMILES IDX 9 65 10 66 11 67 12 68 13 69 21 70 14 71 15 72 16 75 20 76
REMARK SMILES IDX 17 77 19 78 18 79
REMARK H PARENT 69 23 43 34 21 73 21 74
REMARK Flexibility Score: inf
ROOT
ATOM      1  C   UNL A   1      38.229  19.375  25.007  1.00  0.00     0.202 C 
ENDROOT
BRANCH   1   2
ATOM      2  C   UNL A   1      39.329  19.539  26.069  1.00  0.00     0.261 C 
BRANCH   2   3
ATOM      3  O   UNL A   1      40.551  18.888  25.670  1.00  0.00    -0.460 OA
BRANCH   3   4
ATOM      4  C   UNL A   1      41.816  19.300  25.947  1.00  0.00     0.338 C 
ATOM      5  O   UNL A   1      42.764  18.545  25.765  1.00  0.00    -0.246 OA
BRANCH   4   6
ATOM      6  C   UNL A   1      42.078  20.681  26.430  1.00  0.00     0.060 A 
ATOM      7  C   UNL A   1      42.081  21.774  25.576  1.00  0.00     0.016 A 
ATOM      8  C   UNL A   1      42.299  20.908  27.792  1.00  0.00     0.016 A 
ATOM      9  C   UNL A   1      42.472  23.020  25.983  1.00  0.00     0.010 A 
ATOM     10  C   UNL A   1      42.564  22.206  28.250  1.00  0.00     0.010 A 
ATOM     11  C   UNL A   1      42.671  23.259  27.331  1.00  0.00    -0.014 A 
BRANCH  11  12
ATOM     12  C   UNL A   1      43.063  24.631  27.674  1.00  0.00     0.031 A 
ATOM     13  C   UNL A   1      44.449  25.074  27.348  1.00  0.00     0.074 A 
ATOM     14  C   UNL A   1      42.101  25.496  28.055  1.00  0.00     0.049 A 
ATOM     15  N   UNL A   1      45.025  26.216  27.594  1.00  0.00    -0.248 NA
ATOM     16  C   UNL A   1      45.301  24.106  26.633  1.00  0.00     0.031 C 
ATOM     17  C   UNL A   1      40.678  25.164  28.216  1.00  0.00     0.029 A 
ATOM     18  N   UNL A   1      42.153  26.838  28.308  1.00  0.00    -0.354 N 
ATOM     19  C   UNL A   1      46.318  26.089  27.109  1.00  0.00     0.074 A 
ATOM     20  C   UNL A   1      46.445  24.764  26.547  1.00  0.00     0.031 C 
ATOM     21  C   UNL A   1      39.991  26.282  28.486  1.00  0.00     0.029 A 
ATOM     22  C   UNL A   1      40.933  27.378  28.636  1.00  0.00     0.049 A 
ATOM     23  H   UNL A   1      42.983  27.365  28.259  1.00  0.00     0.167 HD
ATOM     24  C   UNL A   1      47.306  27.010  27.150  1.00  0.00     0.037 A 
ATOM     25  C   UNL A   1      40.633  28.615  29.069  1.00  0.00     0.037 A 
ATOM     26  C   UNL A   1      47.121  28.320  27.713  1.00  0.00     0.049 A 
ATOM     27  C   UNL A   1      41.774  29.579  29.219  1.00  0.00     0.074 A 
ATOM     28  C   UNL A   1      48.055  29.315  27.927  1.00  0.00     0.029 A 
ATOM     29  N   UNL A   1      45.894  28.814  28.144  1.00  0.00    -0.354 N 
ATOM     30  N   UNL A   1      43.036  29.418  28.892  1.00  0.00    -0.248 NA
ATOM     31  C   UNL A   1      41.466  30.877  29.823  1.00  0.00     0.031 C 
ATOM     32  C   UNL A   1      47.397  30.399  28.521  1.00  0.00     0.029 A 
ATOM     33  C   UNL A   1      46.046  30.098  28.631  1.00  0.00     0.049 A 
ATOM     34  H   UNL A   1      45.044  28.321  28.107  1.00  0.00     0.167 HD
ATOM     35  C   UNL A   1      43.674  30.598  29.242  1.00  0.00     0.074 A 
ATOM     36  C   UNL A   1      42.649  31.474  29.780  1.00  0.00     0.031 C 
ATOM     37  C   UNL A   1      44.985  30.930  29.143  1.00  0.00     0.037 A 
BRANCH  24  38
ATOM     38  C   UNL A   1      48.655  26.581  26.660  1.00  0.00     0.057 A 
ATOM     39  C   UNL A   1      49.582  25.931  27.486  1.00  0.00     0.134 A 
ATOM     40  C   UNL A   1      49.054  26.877  25.351  1.00  0.00     0.134 A 
ATOM     41  F   UNL A   1      49.276  25.654  28.763  1.00  0.00    -0.206 F 
ATOM     42  C   UNL A   1      50.866  25.617  27.035  1.00  0.00     0.040 A 
ATOM     43  C   UNL A   1      50.328  26.547  24.881  1.00  0.00     0.040 A 
ATOM     44  F   UNL A   1      48.222  27.511  24.511  1.00  0.00    -0.206 F 
ATOM     45  C   UNL A   1      51.240  25.922  25.728  1.00  0.00     0.006 A 
ENDBRANCH  24  38
BRANCH  25  46
ATOM     46  C   UNL A   1      39.247  28.963  29.478  1.00  0.00     0.057 A 
ATOM     47  C   UNL A   1      38.794  28.762  30.787  1.00  0.00     0.134 A 
ATOM     48  C   UNL A   1      38.327  29.489  28.559  1.00  0.00     0.134 A 
ATOM     49  F   UNL A   1      39.614  28.247  31.713  1.00  0.00    -0.206 F 
ATOM     50  C   UNL A   1      37.478  29.048  31.159  1.00  0.00     0.040 A 
ATOM     51  C   UNL A   1      37.020  29.811  28.924  1.00  0.00     0.040 A 
ATOM     52  F   UNL A   1      38.690  29.711  27.286  1.00  0.00    -0.206 F 
ATOM     53  C   UNL A   1      36.588  29.580  30.227  1.00  0.00     0.006 A 
ENDBRANCH  25  46
BRANCH  37  54
ATOM     54  C   UNL A   1      45.353  32.309  29.591  1.00  0.00     0.057 A 
ATOM     55  C   UNL A   1      45.781  32.570  30.897  1.00  0.00     0.134 A 
ATOM     56  C   UNL A   1      45.308  33.378  28.689  1.00  0.00     0.134 A 
ATOM     57  F   UNL A   1      45.827  31.586  31.808  1.00  0.00    -0.206 F 
ATOM     58  C   UNL A   1      46.133  33.857  31.298  1.00  0.00     0.040 A 
ATOM     59  C   UNL A   1      45.683  34.664  29.071  1.00  0.00     0.040 A 
ATOM     60  F   UNL A   1      44.910  33.185  27.422  1.00  0.00    -0.206 F 
ATOM     61  C   UNL A   1      46.091  34.907  30.381  1.00  0.00     0.006 A 
ENDBRANCH  37  54
ENDBRANCH  11  12
ENDBRANCH   4   6
ENDBRANCH   3   4
ENDBRANCH   2   3
ENDBRANCH   1   2
BRANCH   1  62
ATOM     62  O   UNL A   1      37.212  20.373  24.947  1.00  0.00    -0.374 OA
BRANCH  62  63
ATOM     63  C   UNL A   1      37.683  21.721  24.985  1.00  0.00     0.202 C 
BRANCH  63  64
ATOM     64  C   UNL A   1      36.688  22.623  24.264  1.00  0.00     0.261 C 
BRANCH  64  65
ATOM     65  O   UNL A   1      35.478  22.669  25.047  1.00  0.00    -0.459 OA
BRANCH  65  66
ATOM     66  C   UNL A   1      34.329  22.369  24.373  1.00  0.00     0.365 C 
ATOM     67  O   UNL A   1      33.959  22.928  23.346  1.00  0.00    -0.245 OA
BRANCH  66  68
ATOM     68  C   UNL A   1      33.526  21.253  25.072  1.00  0.00     0.304 C 
ATOM     69  C   UNL A   1      32.251  20.974  24.277  1.00  0.00     0.153 C 
ATOM     70  N   UNL A   1      34.327  20.010  25.322  1.00  0.00    -0.320 N 
ATOM     71  S   UNL A   1      32.524  19.388  23.479  1.00  0.00    -0.089 SA
ATOM     72  C   UNL A   1      33.675  18.815  24.765  1.00  0.00     0.143 C 
ATOM     73  H   UNL A   1      34.439  19.887  26.328  1.00  0.00     0.348 HD
ATOM     74  H   UNL A   1      35.232  20.120  24.862  1.00  0.00     0.348 HD
ATOM     75  C   UNL A   1      34.716  17.809  24.215  1.00  0.00     0.081 C 
ATOM     76  C   UNL A   1      32.887  18.095  25.877  1.00  0.00     0.081 C 
ATOM     77  C   UNL A   1      34.089  16.527  23.666  1.00  0.00     0.007 C 
ATOM     78  C   UNL A   1      32.244  16.783  25.401  1.00  0.00     0.007 C 
ATOM     79  C   UNL A   1      33.238  15.839  24.725  1.00  0.00     0.001 C 
ENDBRANCH  66  68
ENDBRANCH  65  66
ENDBRANCH  64  65
ENDBRANCH  63  64
ENDBRANCH  62  63
ENDBRANCH   1  62
TORSDOF 14
ENDMDL
MODEL 2
REMARK VINA RESULT:     -10.7      6.549     11.505
REMARK SMILES O=C(OCCOCCOC(=O)[C@H]1CSC2(CCCCC2)[NH2+]1)c1ccc(-c2c3nc(c(-c4c(F)cccc4F)c4ccc([nH]4)c(-c4c(F)cccc4F)c4nc(c(-c5c(F)cccc5F)c5ccc2[nH]5)C=C4)C=C3)cc1
REMARK SMILES IDX 5 1 4 2 3 3 2 4 1 5 22 6 23 7 75 8 24 9 74 10 25 11 26 12
REMARK SMILES IDX 27 13 68 14 28 15 73 16 67 17 69 18 29 19 72 20 66 21 65 22
REMARK SMILES IDX 30 24 56 25 39 26 55 27 40 28 43 29 54 30 70 31 41 32 42 33
REMARK SMILES IDX 53 35 71 36 44 37 31 38 32 39 37 40 33 41 34 42 36 43 38 44
REMARK SMILES IDX 35 45 57 46 58 47 63 48 59 49 60 50 62 51 64 52 61 53 45 54
REMARK SMILES IDX 46 55 51 56 47 57 48 58 50 59 52 60 49 61 6 62 7 63 8 64
REMARK SMILES IDX 9 65 10 66 11 67 12 68 13 69 21 70 14 71 15 72 16 75 20 76
REMARK SMILES IDX 17 77 19 78 18 79
REMARK H PARENT 69 23 43 34 21 73 21 74
REMARK Flexibility Score: inf
ROOT
ATOM      1  C   UNL A   1      33.362  35.756  31.796  1.00  0.00     0.202 C 
ENDROOT
BRANCH   1   2
ATOM      2  C   UNL A   1      33.160  36.052  30.300  1.00  0.00     0.261 C 
BRANCH   2   3
ATOM      3  O   UNL A   1      32.530  34.947  29.623  1.00  0.00    -0.460 OA
BRANCH   3   4
ATOM      4  C   UNL A   1      33.105  34.126  28.706  1.00  0.00     0.338 C 
ATOM      5  O   UNL A   1      32.536  33.891  27.646  1.00  0.00    -0.246 OA
BRANCH   4   6
ATOM      6  C   UNL A   1      34.447  33.535  28.948  1.00  0.00     0.060 A 
ATOM      7  C   UNL A   1      34.720  32.755  30.063  1.00  0.00     0.016 A 
ATOM      8  C   UNL A   1      35.469  33.732  28.015  1.00  0.00     0.016 A 
ATOM      9  C   UNL A   1      35.986  32.338  30.372  1.00  0.00     0.010 A 
ATOM     10  C   UNL A   1      36.741  33.191  28.248  1.00  0.00     0.010 A 
ATOM     11  C   UNL A   1      36.999  32.510  29.445  1.00  0.00    -0.014 A 
BRANCH  11  12
ATOM     12  C   UNL A   1      38.316  32.007  29.855  1.00  0.00     0.031 A 
ATOM     13  C   UNL A   1      38.776  30.699  29.306  1.00  0.00     0.074 A 
ATOM     14  C   UNL A   1      39.142  32.841  30.518  1.00  0.00     0.049 A 
ATOM     15  N   UNL A   1      39.874  30.045  29.556  1.00  0.00    -0.248 NA
ATOM     16  C   UNL A   1      37.888  30.045  28.328  1.00  0.00     0.031 C 
ATOM     17  C   UNL A   1      38.811  34.215  30.926  1.00  0.00     0.029 A 
ATOM     18  N   UNL A   1      40.444  32.691  30.905  1.00  0.00    -0.354 N 
ATOM     19  C   UNL A   1      39.789  28.881  28.807  1.00  0.00     0.074 A 
ATOM     20  C   UNL A   1      38.537  28.918  28.086  1.00  0.00     0.031 C 
ATOM     21  C   UNL A   1      39.898  34.793  31.455  1.00  0.00     0.029 A 
ATOM     22  C   UNL A   1      40.957  33.800  31.533  1.00  0.00     0.049 A 
ATOM     23  H   UNL A   1      40.963  31.870  30.749  1.00  0.00     0.167 HD
ATOM     24  C   UNL A   1      40.686  27.872  28.751  1.00  0.00     0.037 A 
ATOM     25  C   UNL A   1      42.138  33.962  32.155  1.00  0.00     0.037 A 
ATOM     26  C   UNL A   1      41.922  27.892  29.484  1.00  0.00     0.049 A 
ATOM     27  C   UNL A   1      43.063  32.780  32.178  1.00  0.00     0.074 A 
ATOM     28  C   UNL A   1      42.874  26.899  29.615  1.00  0.00     0.029 A 
ATOM     29  N   UNL A   1      42.378  28.989  30.208  1.00  0.00    -0.354 N 
ATOM     30  N   UNL A   1      42.926  31.616  31.585  1.00  0.00    -0.248 NA
ATOM     31  C   UNL A   1      44.285  32.913  32.975  1.00  0.00     0.031 C 
ATOM     32  C   UNL A   1      43.888  27.385  30.448  1.00  0.00     0.029 A 
ATOM     33  C   UNL A   1      43.594  28.696  30.796  1.00  0.00     0.049 A 
ATOM     34  H   UNL A   1      41.904  29.847  30.290  1.00  0.00     0.167 HD
ATOM     35  C   UNL A   1      44.048  30.879  31.929  1.00  0.00     0.074 A 
ATOM     36  C   UNL A   1      44.868  31.742  32.759  1.00  0.00     0.031 C 
ATOM     37  C   UNL A   1      44.372  29.603  31.604  1.00  0.00     0.037 A 
BRANCH  24  38
ATOM     38  C   UNL A   1      40.300  26.665  27.951  1.00  0.00     0.057 A 
ATOM     39  C   UNL A   1      39.445  25.675  28.453  1.00  0.00     0.134 A 
ATOM     40  C   UNL A   1      40.844  26.463  26.677  1.00  0.00     0.134 A 
ATOM     41  F   UNL A   1      38.922  25.788  29.683  1.00  0.00    -0.206 F 
ATOM     42  C   UNL A   1      39.166  24.515  27.725  1.00  0.00     0.040 A 
ATOM     43  C   UNL A   1      40.554  25.319  25.930  1.00  0.00     0.040 A 
ATOM     44  F   UNL A   1      41.681  27.365  26.142  1.00  0.00    -0.206 F 
ATOM     45  C   UNL A   1      39.720  24.337  26.459  1.00  0.00     0.006 A 
ENDBRANCH  24  38
BRANCH  25  46
ATOM     46  C   UNL A   1      42.453  35.225  32.874  1.00  0.00     0.057 A 
ATOM     47  C   UNL A   1      41.965  35.479  34.160  1.00  0.00     0.134 A 
ATOM     48  C   UNL A   1      43.237  36.224  32.279  1.00  0.00     0.134 A 
ATOM     49  F   UNL A   1      41.195  34.575  34.782  1.00  0.00    -0.206 F 
ATOM     50  C   UNL A   1      42.225  36.685  34.817  1.00  0.00     0.040 A 
ATOM     51  C   UNL A   1      43.534  37.419  32.937  1.00  0.00     0.040 A 
ATOM     52  F   UNL A   1      43.741  36.051  31.048  1.00  0.00    -0.206 F 
ATOM     53  C   UNL A   1      43.017  37.657  34.207  1.00  0.00     0.006 A 
ENDBRANCH  25  46
BRANCH  37  54
ATOM     54  C   UNL A   1      45.684  29.102  32.120  1.00  0.00     0.057 A 
ATOM     55  C   UNL A   1      45.791  28.453  33.355  1.00  0.00     0.134 A 
ATOM     56  C   UNL A   1      46.845  29.246  31.352  1.00  0.00     0.134 A 
ATOM     57  F   UNL A   1      44.714  28.303  34.141  1.00  0.00    -0.206 F 
ATOM     58  C   UNL A   1      47.017  27.981  33.820  1.00  0.00     0.040 A 
ATOM     59  C   UNL A   1      48.071  28.754  31.793  1.00  0.00     0.040 A 
ATOM     60  F   UNL A   1      46.801  29.855  30.157  1.00  0.00    -0.206 F 
ATOM     61  C   UNL A   1      48.160  28.124  33.034  1.00  0.00     0.006 A 
ENDBRANCH  37  54
ENDBRANCH  11  12
ENDBRANCH   4   6
ENDBRANCH   3   4
ENDBRANCH   2   3
ENDBRANCH   1   2
BRANCH   1  62
ATOM     62  O   UNL A   1      34.693  35.808  32.307  1.00  0.00    -0.374 OA
BRANCH  62  63
ATOM     63  C   UNL A   1      34.829  35.438  33.681  1.00  0.00     0.202 C 
BRANCH  63  64
ATOM     64  C   UNL A   1      34.849  33.918  33.794  1.00  0.00     0.261 C 
BRANCH  64  65
ATOM     65  O   UNL A   1      36.215  33.504  34.000  1.00  0.00    -0.459 OA
BRANCH  65  66
ATOM     66  C   UNL A   1      36.634  33.483  35.300  1.00  0.00     0.365 C 
ATOM     67  O   UNL A   1      35.930  33.768  36.263  1.00  0.00    -0.245 OA
BRANCH  66  68
ATOM     68  C   UNL A   1      38.119  33.082  35.419  1.00  0.00     0.304 C 
ATOM     69  C   UNL A   1      38.290  32.123  36.596  1.00  0.00     0.153 C 
ATOM     70  N   UNL A   1      38.691  32.533  34.146  1.00  0.00    -0.320 N 
ATOM     71  S   UNL A   1      38.582  30.510  35.859  1.00  0.00    -0.089 SA
ATOM     72  C   UNL A   1      39.307  31.213  34.345  1.00  0.00     0.143 C 
ATOM     73  H   UNL A   1      39.400  33.179  33.798  1.00  0.00     0.348 HD
ATOM     74  H   UNL A   1      37.928  32.428  33.476  1.00  0.00     0.348 HD
ATOM     75  C   UNL A   1      39.093  30.298  33.114  1.00  0.00     0.081 C 
ATOM     76  C   UNL A   1      40.828  31.378  34.532  1.00  0.00     0.081 C 
ATOM     77  C   UNL A   1      39.755  28.927  33.254  1.00  0.00     0.007 C 
ATOM     78  C   UNL A   1      41.564  30.035  34.660  1.00  0.00     0.007 C 
ATOM     79  C   UNL A   1      41.247  29.067  33.520  1.00  0.00     0.001 C 
ENDBRANCH  66  68
ENDBRANCH  65  66
ENDBRANCH  64  65
ENDBRANCH  63  64
ENDBRANCH  62  63
ENDBRANCH   1  62
TORSDOF 14
ENDMDL
MODEL 3
REMARK VINA RESULT:     -10.6      6.450     11.327
REMARK SMILES O=C(OCCOCCOC(=O)[C@H]1CSC2(CCCCC2)[NH2+]1)c1ccc(-c2c3nc(c(-c4c(F)cccc4F)c4ccc([nH]4)c(-c4c(F)cccc4F)c4nc(c(-c5c(F)cccc5F)c5ccc2[nH]5)C=C4)C=C3)cc1
REMARK SMILES IDX 5 1 4 2 3 3 2 4 1 5 22 6 23 7 75 8 24 9 74 10 25 11 26 12
REMARK SMILES IDX 27 13 68 14 28 15 73 16 67 17 69 18 29 19 72 20 66 21 65 22
REMARK SMILES IDX 30 24 56 25 39 26 55 27 40 28 43 29 54 30 70 31 41 32 42 33
REMARK SMILES IDX 53 35 71 36 44 37 31 38 32 39 37 40 33 41 34 42 36 43 38 44
REMARK SMILES IDX 35 45 57 46 58 47 63 48 59 49 60 50 62 51 64 52 61 53 45 54
REMARK SMILES IDX 46 55 51 56 47 57 48 58 50 59 52 60 49 61 6 62 7 63 8 64
REMARK SMILES IDX 9 65 10 66 11 67 12 68 13 69 21 70 14 71 15 72 16 75 20 76
REMARK SMILES IDX 17 77 19 78 18 79
REMARK H PARENT 69 23 43 34 21 73 21 74
REMARK Flexibility Score: inf
ROOT
ATOM      1  C   UNL A   1      31.412  32.308  26.573  1.00  0.00     0.202 C 
ENDROOT
BRANCH   1   2
ATOM      2  C   UNL A   1      32.545  32.868  27.449  1.00  0.00     0.261 C 
BRANCH   2   3
ATOM      3  O   UNL A   1      32.330  34.257  27.767  1.00  0.00    -0.460 OA
BRANCH   3   4
ATOM      4  C   UNL A   1      32.952  34.971  28.742  1.00  0.00     0.338 C 
ATOM      5  O   UNL A   1      32.514  36.064  29.081  1.00  0.00    -0.246 OA
BRANCH   4   6
ATOM      6  C   UNL A   1      34.143  34.425  29.443  1.00  0.00     0.060 A 
ATOM      7  C   UNL A   1      35.419  34.506  28.904  1.00  0.00     0.016 A 
ATOM      8  C   UNL A   1      33.996  33.836  30.702  1.00  0.00     0.016 A 
ATOM      9  C   UNL A   1      36.493  33.873  29.466  1.00  0.00     0.010 A 
ATOM     10  C   UNL A   1      35.114  33.304  31.360  1.00  0.00     0.010 A 
ATOM     11  C   UNL A   1      36.362  33.307  30.722  1.00  0.00    -0.014 A 
BRANCH  11  12
ATOM     12  C   UNL A   1      37.574  32.673  31.255  1.00  0.00     0.031 A 
ATOM     13  C   UNL A   1      38.059  33.094  32.601  1.00  0.00     0.074 A 
ATOM     14  C   UNL A   1      38.063  31.589  30.619  1.00  0.00     0.049 A 
ATOM     15  N   UNL A   1      39.120  32.706  33.248  1.00  0.00    -0.248 NA
ATOM     16  C   UNL A   1      37.230  34.074  33.325  1.00  0.00     0.031 C 
ATOM     17  C   UNL A   1      37.513  31.012  29.383  1.00  0.00     0.029 A 
ATOM     18  N   UNL A   1      39.080  30.740  30.951  1.00  0.00    -0.354 N 
ATOM     19  C   UNL A   1      39.114  33.426  34.433  1.00  0.00     0.074 A 
ATOM     20  C   UNL A   1      37.942  34.271  34.423  1.00  0.00     0.031 C 
ATOM     21  C   UNL A   1      38.166  29.877  29.097  1.00  0.00     0.029 A 
ATOM     22  C   UNL A   1      39.249  29.714  30.052  1.00  0.00     0.049 A 
ATOM     23  H   UNL A   1      39.637  30.851  31.755  1.00  0.00     0.167 HD
ATOM     24  C   UNL A   1      40.027  33.382  35.428  1.00  0.00     0.037 A 
ATOM     25  C   UNL A   1      40.218  28.785  29.986  1.00  0.00     0.037 A 
ATOM     26  C   UNL A   1      41.172  32.513  35.391  1.00  0.00     0.049 A 
ATOM     27  C   UNL A   1      41.286  28.838  31.040  1.00  0.00     0.074 A 
ATOM     28  C   UNL A   1      42.237  32.438  36.267  1.00  0.00     0.029 A 
ATOM     29  N   UNL A   1      41.385  31.550  34.410  1.00  0.00    -0.354 N 
ATOM     30  N   UNL A   1      41.362  29.617  32.095  1.00  0.00    -0.248 NA
ATOM     31  C   UNL A   1      42.414  27.916  30.885  1.00  0.00     0.031 C 
ATOM     32  C   UNL A   1      43.112  31.453  35.794  1.00  0.00     0.029 A 
ATOM     33  C   UNL A   1      42.569  30.881  34.652  1.00  0.00     0.049 A 
ATOM     34  H   UNL A   1      40.781  31.373  33.653  1.00  0.00     0.167 HD
ATOM     35  C   UNL A   1      42.542  29.274  32.737  1.00  0.00     0.074 A 
ATOM     36  C   UNL A   1      43.131  28.195  31.964  1.00  0.00     0.031 C 
ATOM     37  C   UNL A   1      43.100  29.804  33.854  1.00  0.00     0.037 A 
BRANCH  24  38
ATOM     38  C   UNL A   1      39.850  34.352  36.556  1.00  0.00     0.057 A 
ATOM     39  C   UNL A   1      40.344  35.663  36.501  1.00  0.00     0.134 A 
ATOM     40  C   UNL A   1      39.225  33.947  37.741  1.00  0.00     0.134 A 
ATOM     41  F   UNL A   1      40.988  36.102  35.409  1.00  0.00    -0.206 F 
ATOM     42  C   UNL A   1      40.245  36.525  37.596  1.00  0.00     0.040 A 
ATOM     43  C   UNL A   1      39.100  34.807  38.834  1.00  0.00     0.040 A 
ATOM     44  F   UNL A   1      38.743  32.701  37.866  1.00  0.00    -0.206 F 
ATOM     45  C   UNL A   1      39.618  36.098  38.765  1.00  0.00     0.006 A 
ENDBRANCH  24  38
BRANCH  25  46
ATOM     46  C   UNL A   1      40.274  27.822  28.855  1.00  0.00     0.057 A 
ATOM     47  C   UNL A   1      40.983  28.108  27.682  1.00  0.00     0.134 A 
ATOM     48  C   UNL A   1      39.598  26.595  28.908  1.00  0.00     0.134 A 
ATOM     49  F   UNL A   1      41.639  29.270  27.555  1.00  0.00    -0.206 F 
ATOM     50  C   UNL A   1      40.999  27.222  26.601  1.00  0.00     0.040 A 
ATOM     51  C   UNL A   1      39.633  25.685  27.850  1.00  0.00     0.040 A 
ATOM     52  F   UNL A   1      38.899  26.252  30.001  1.00  0.00    -0.206 F 
ATOM     53  C   UNL A   1      40.327  26.003  26.686  1.00  0.00     0.006 A 
ENDBRANCH  25  46
BRANCH  37  54
ATOM     54  C   UNL A   1      44.384  29.185  34.308  1.00  0.00     0.057 A 
ATOM     55  C   UNL A   1      45.627  29.678  33.895  1.00  0.00     0.134 A 
ATOM     56  C   UNL A   1      44.370  28.104  35.197  1.00  0.00     0.134 A 
ATOM     57  F   UNL A   1      45.700  30.701  33.029  1.00  0.00    -0.206 F 
ATOM     58  C   UNL A   1      46.816  29.100  34.335  1.00  0.00     0.040 A 
ATOM     59  C   UNL A   1      45.551  27.536  35.665  1.00  0.00     0.040 A 
ATOM     60  F   UNL A   1      43.207  27.594  35.631  1.00  0.00    -0.206 F 
ATOM     61  C   UNL A   1      46.780  28.030  35.229  1.00  0.00     0.006 A 
ENDBRANCH  37  54
ENDBRANCH  11  12
ENDBRANCH   4   6
ENDBRANCH   3   4
ENDBRANCH   2   3
ENDBRANCH   1   2
BRANCH   1  62
ATOM     62  O   UNL A   1      31.473  30.929  26.213  1.00  0.00    -0.374 OA
BRANCH  62  63
ATOM     63  C   UNL A   1      32.364  30.137  27.001  1.00  0.00     0.202 C 
BRANCH  63  64
ATOM     64  C   UNL A   1      31.839  28.708  27.073  1.00  0.00     0.261 C 
BRANCH  64  65
ATOM     65  O   UNL A   1      32.158  28.052  25.828  1.00  0.00    -0.459 OA
BRANCH  65  66
ATOM     66  C   UNL A   1      31.118  27.408  25.220  1.00  0.00     0.365 C 
ATOM     67  O   UNL A   1      30.489  26.480  25.716  1.00  0.00    -0.245 OA
BRANCH  66  68
ATOM     68  C   UNL A   1      30.841  27.969  23.810  1.00  0.00     0.304 C 
ATOM     69  C   UNL A   1      29.591  27.302  23.239  1.00  0.00     0.153 C 
ATOM     70  N   UNL A   1      30.760  29.466  23.769  1.00  0.00    -0.320 N 
ATOM     71  S   UNL A   1      28.312  28.564  23.287  1.00  0.00    -0.089 SA
ATOM     72  C   UNL A   1      29.506  29.932  23.161  1.00  0.00     0.143 C 
ATOM     73  H   UNL A   1      31.545  29.823  23.224  1.00  0.00     0.348 HD
ATOM     74  H   UNL A   1      30.792  29.810  24.730  1.00  0.00     0.348 HD
ATOM     75  C   UNL A   1      28.991  31.223  23.844  1.00  0.00     0.081 C 
ATOM     76  C   UNL A   1      29.748  30.266  21.676  1.00  0.00     0.081 C 
ATOM     77  C   UNL A   1      27.711  31.773  23.216  1.00  0.00     0.007 C 
ATOM     78  C   UNL A   1      28.505  30.846  20.982  1.00  0.00     0.007 C 
ATOM     79  C   UNL A   1      27.903  32.036  21.729  1.00  0.00     0.001 C 
ENDBRANCH  66  68
ENDBRANCH  65  66
ENDBRANCH  64  65
ENDBRANCH  63  64
ENDBRANCH  62  63
ENDBRANCH   1  62
TORSDOF 14
ENDMDL
