MODEL 1
REMARK VINA RESULT:     -12.1      0.000      0.000
REMARK SMILES CC1(C)CC[C@@]2(C(=O)OCCOCCOC(=O)c3ccc(-c4c5nc(c(-c6c(F)cccc6F)c6ccc([nH]6)c(-c6c(F)cccc6F)c6nc(c(-c7c(F)cccc7F)c7ccc4[nH]7)C=C6)C=C5)cc3)CC[C@@]3(C)C(=CC[C@H]4[C@@]5(C)CC[C@H](O)C(C)(C)[C@@H]5CC[C@]43C)[C@@H]2C1
REMARK SMILES IDX 13 1 12 2 11 3 10 4 9 5 7 6 8 7 6 8 1 9 2 10 3 11 4 12 95 13
REMARK SMILES IDX 5 14 94 15 76 16 72 17 74 18 77 19 73 20 75 21 92 22 78 23
REMARK SMILES IDX 79 24 91 25 93 26 80 27 90 28 81 29 82 30 89 31 83 32 86 33
REMARK SMILES IDX 84 34 87 35 88 36 85 37 14 39 15 40 16 41 17 42 18 43 19 44
REMARK SMILES IDX 71 45 20 46 70 47 21 48 22 49 23 50 64 51 24 52 69 53 63 54
REMARK SMILES IDX 65 55 25 56 68 57 62 58 61 59 26 61 52 62 35 63 51 64 36 65
REMARK SMILES IDX 39 66 50 67 66 68 37 69 38 70 49 72 67 73 40 74 27 75 28 76
REMARK SMILES IDX 33 77 29 78 30 79 32 80 34 81 31 82 53 83 54 84 59 85 55 86
REMARK SMILES IDX 56 87 58 88 60 89 57 90 41 91 42 92 47 93 43 94 44 95 46 96
REMARK SMILES IDX 48 97 45 98
REMARK H PARENT 85 38 65 60 39 71
REMARK Flexibility Score: inf
ROOT
ATOM      1  C   UNL A   1      39.363  21.336  25.771  1.00  0.00     0.202 C 
ENDROOT
BRANCH   1   2
ATOM      2  O   UNL A   1      38.558  22.238  26.501  1.00  0.00    -0.374 OA
BRANCH   2   3
ATOM      3  C   UNL A   1      37.898  23.244  25.764  1.00  0.00     0.202 C 
BRANCH   3   4
ATOM      4  C   UNL A   1      36.756  23.990  26.354  1.00  0.00     0.261 C 
BRANCH   4   5
ATOM      5  O   UNL A   1      35.653  24.085  25.472  1.00  0.00    -0.463 OA
BRANCH   5   6
ATOM      6  C   UNL A   1      34.671  23.185  25.316  1.00  0.00     0.312 C 
ATOM      7  O   UNL A   1      33.753  22.940  26.101  1.00  0.00    -0.252 OA
BRANCH   6   8
ATOM      8  C   UNL A   1      34.779  22.632  23.917  1.00  0.00     0.075 C 
ATOM      9  C   UNL A   1      33.785  18.428  24.246  1.00  0.00     0.011 C 
ATOM     10  C   UNL A   1      33.690  19.862  24.822  1.00  0.00    -0.035 C 
ATOM     11  C   UNL A   1      32.854  19.616  26.130  1.00  0.00     0.011 C 
ATOM     12  C   UNL A   1      35.138  20.331  25.121  1.00  0.00     0.007 C 
ATOM     13  C   UNL A   1      32.880  20.802  23.838  1.00  0.00     0.015 C 
ATOM     14  C   UNL A   1      35.708  21.399  24.137  1.00  0.00     0.020 C 
ATOM     15  C   UNL A   1      33.422  22.218  23.293  1.00  0.00     0.033 C 
ATOM     16  C   UNL A   1      32.463  23.492  23.299  1.00  0.00    -0.063 C 
ATOM     17  C   UNL A   1      35.319  23.780  23.006  1.00  0.00     0.020 C 
ATOM     18  C   UNL A   1      32.860  24.890  22.605  1.00  0.00    -0.006 C 
ATOM     19  C   UNL A   1      31.380  23.435  24.088  1.00  0.00    -0.027 C 
ATOM     20  C   UNL A   1      34.392  25.085  22.946  1.00  0.00     0.013 C 
ATOM     21  C   UNL A   1      32.904  24.726  21.052  1.00  0.00     0.017 C 
ATOM     22  C   UNL A   1      31.580  26.117  22.939  1.00  0.00    -0.020 C 
ATOM     23  C   UNL A   1      30.652  24.574  24.689  1.00  0.00     0.032 C 
ATOM     24  C   UNL A   1      31.155  26.012  24.407  1.00  0.00     0.006 C 
ATOM     25  C   UNL A   1      31.482  27.733  22.715  1.00  0.00     0.008 C 
ATOM     26  C   UNL A   1      30.369  25.637  22.019  1.00  0.00     0.012 C 
ATOM     27  C   UNL A   1      31.952  27.031  25.462  1.00  0.00    -0.025 C 
ATOM     28  C   UNL A   1      30.814  28.652  23.954  1.00  0.00     0.005 C 
ATOM     29  C   UNL A   1      31.202  26.831  26.772  1.00  0.00     0.012 C 
ATOM     30  C   UNL A   1      33.516  27.035  25.468  1.00  0.00     0.010 C 
ATOM     31  C   UNL A   1      31.780  28.546  25.128  1.00  0.00     0.003 C 
ATOM     32  C   UNL A   1      34.245  28.043  26.391  1.00  0.00     0.033 C 
ATOM     33  C   UNL A   1      32.173  29.559  26.361  1.00  0.00    -0.006 C 
ATOM     34  C   UNL A   1      33.747  29.507  26.314  1.00  0.00     0.120 C 
ATOM     35  C   UNL A   1      31.833  29.304  27.879  1.00  0.00     0.014 C 
ATOM     36  C   UNL A   1      31.617  30.967  26.125  1.00  0.00     0.014 C 
BRANCH  34  37
ATOM     37  O   UNL A   1      34.371  30.289  27.331  1.00  0.00    -0.393 OA
ATOM     38  H   UNL A   1      34.676  29.707  28.046  1.00  0.00     0.210 HD
ENDBRANCH  34  37
ENDBRANCH   6   8
ENDBRANCH   5   6
ENDBRANCH   4   5
ENDBRANCH   3   4
ENDBRANCH   2   3
ENDBRANCH   1   2
BRANCH   1  39
ATOM     39  C   UNL A   1      40.843  21.507  26.107  1.00  0.00     0.261 C 
BRANCH  39  40
ATOM     40  O   UNL A   1      41.083  22.597  27.032  1.00  0.00    -0.460 OA
BRANCH  40  41
ATOM     41  C   UNL A   1      41.676  23.697  26.510  1.00  0.00     0.338 C 
ATOM     42  O   UNL A   1      42.411  23.742  25.527  1.00  0.00    -0.246 OA
BRANCH  41  43
ATOM     43  C   UNL A   1      41.150  24.933  27.132  1.00  0.00     0.060 A 
ATOM     44  C   UNL A   1      41.815  26.137  26.860  1.00  0.00     0.016 A 
ATOM     45  C   UNL A   1      40.118  24.921  28.058  1.00  0.00     0.016 A 
ATOM     46  C   UNL A   1      41.493  27.329  27.482  1.00  0.00     0.010 A 
ATOM     47  C   UNL A   1      39.846  26.097  28.767  1.00  0.00     0.010 A 
ATOM     48  C   UNL A   1      40.562  27.285  28.507  1.00  0.00    -0.014 A 
BRANCH  48  49
ATOM     49  C   UNL A   1      40.550  28.376  29.495  1.00  0.00     0.031 A 
ATOM     50  C   UNL A   1      41.498  28.266  30.650  1.00  0.00     0.074 A 
ATOM     51  C   UNL A   1      39.723  29.422  29.364  1.00  0.00     0.049 A 
ATOM     52  N   UNL A   1      41.473  28.871  31.804  1.00  0.00    -0.248 NA
ATOM     53  C   UNL A   1      42.616  27.321  30.483  1.00  0.00     0.031 C 
ATOM     54  C   UNL A   1      38.875  29.696  28.205  1.00  0.00     0.029 A 
ATOM     55  N   UNL A   1      39.430  30.423  30.249  1.00  0.00    -0.354 N 
ATOM     56  C   UNL A   1      42.527  28.328  32.529  1.00  0.00     0.074 A 
ATOM     57  C   UNL A   1      43.181  27.359  31.680  1.00  0.00     0.031 C 
ATOM     58  C   UNL A   1      38.100  30.757  28.480  1.00  0.00     0.029 A 
ATOM     59  C   UNL A   1      38.358  31.183  29.853  1.00  0.00     0.049 A 
ATOM     60  H   UNL A   1      39.933  30.581  31.080  1.00  0.00     0.167 HD
ATOM     61  C   UNL A   1      42.886  28.607  33.803  1.00  0.00     0.037 A 
ATOM     62  C   UNL A   1      37.626  32.062  30.559  1.00  0.00     0.037 A 
ATOM     63  C   UNL A   1      42.210  29.590  34.609  1.00  0.00     0.049 A 
ATOM     64  C   UNL A   1      37.991  32.307  31.998  1.00  0.00     0.074 A 
ATOM     65  C   UNL A   1      42.469  29.971  35.912  1.00  0.00     0.029 A 
ATOM     66  N   UNL A   1      41.130  30.349  34.175  1.00  0.00    -0.354 N 
ATOM     67  N   UNL A   1      38.944  31.759  32.717  1.00  0.00    -0.248 NA
ATOM     68  C   UNL A   1      37.178  33.290  32.723  1.00  0.00     0.031 C 
ATOM     69  C   UNL A   1      41.511  30.921  36.283  1.00  0.00     0.029 A 
ATOM     70  C   UNL A   1      40.695  31.181  35.191  1.00  0.00     0.049 A 
ATOM     71  H   UNL A   1      40.733  30.302  33.276  1.00  0.00     0.167 HD
ATOM     72  C   UNL A   1      38.861  32.348  33.973  1.00  0.00     0.074 A 
ATOM     73  C   UNL A   1      37.778  33.311  33.904  1.00  0.00     0.031 C 
ATOM     74  C   UNL A   1      39.605  32.120  35.085  1.00  0.00     0.037 A 
BRANCH  61  75
ATOM     75  C   UNL A   1      43.995  27.794  34.407  1.00  0.00     0.057 A 
ATOM     76  C   UNL A   1      45.329  28.219  34.404  1.00  0.00     0.134 A 
ATOM     77  C   UNL A   1      43.717  26.552  34.995  1.00  0.00     0.134 A 
ATOM     78  F   UNL A   1      45.672  29.385  33.835  1.00  0.00    -0.206 F 
ATOM     79  C   UNL A   1      46.350  27.429  34.942  1.00  0.00     0.040 A 
ATOM     80  C   UNL A   1      44.723  25.768  35.562  1.00  0.00     0.040 A 
ATOM     81  F   UNL A   1      42.462  26.079  35.026  1.00  0.00    -0.206 F 
ATOM     82  C   UNL A   1      46.045  26.202  35.529  1.00  0.00     0.006 A 
ENDBRANCH  61  75
BRANCH  62  83
ATOM     83  C   UNL A   1      36.458  32.728  29.930  1.00  0.00     0.057 A 
ATOM     84  C   UNL A   1      36.630  33.788  29.035  1.00  0.00     0.134 A 
ATOM     85  C   UNL A   1      35.145  32.318  30.199  1.00  0.00     0.134 A 
ATOM     86  F   UNL A   1      37.862  34.238  28.752  1.00  0.00    -0.206 F 
ATOM     87  C   UNL A   1      35.542  34.427  28.439  1.00  0.00     0.040 A 
ATOM     88  C   UNL A   1      34.048  32.929  29.589  1.00  0.00     0.040 A 
ATOM     89  F   UNL A   1      34.910  31.303  31.044  1.00  0.00    -0.206 F 
ATOM     90  C   UNL A   1      34.246  33.992  28.711  1.00  0.00     0.006 A 
ENDBRANCH  62  83
BRANCH  74  91
ATOM     91  C   UNL A   1      39.286  32.959  36.289  1.00  0.00     0.057 A 
ATOM     92  C   UNL A   1      39.873  34.216  36.495  1.00  0.00     0.134 A 
ATOM     93  C   UNL A   1      38.380  32.502  37.254  1.00  0.00     0.134 A 
ATOM     94  F   UNL A   1      40.757  34.705  35.614  1.00  0.00    -0.206 F 
ATOM     95  C   UNL A   1      39.604  34.964  37.642  1.00  0.00     0.040 A 
ATOM     96  C   UNL A   1      38.077  33.257  38.385  1.00  0.00     0.040 A 
ATOM     97  F   UNL A   1      37.773  31.314  37.110  1.00  0.00    -0.206 F 
ATOM     98  C   UNL A   1      38.701  34.486  38.589  1.00  0.00     0.006 A 
ENDBRANCH  74  91
ENDBRANCH  48  49
ENDBRANCH  41  43
ENDBRANCH  40  41
ENDBRANCH  39  40
ENDBRANCH   1  39
TORSDOF 15
ENDMDL
MODEL 2
REMARK VINA RESULT:     -12.1      1.794      7.917
REMARK SMILES CC1(C)CC[C@@]2(C(=O)OCCOCCOC(=O)c3ccc(-c4c5nc(c(-c6c(F)cccc6F)c6ccc([nH]6)c(-c6c(F)cccc6F)c6nc(c(-c7c(F)cccc7F)c7ccc4[nH]7)C=C6)C=C5)cc3)CC[C@@]3(C)C(=CC[C@H]4[C@@]5(C)CC[C@H](O)C(C)(C)[C@@H]5CC[C@]43C)[C@@H]2C1
REMARK SMILES IDX 13 1 12 2 11 3 10 4 9 5 7 6 8 7 6 8 1 9 2 10 3 11 4 12 95 13
REMARK SMILES IDX 5 14 94 15 76 16 72 17 74 18 77 19 73 20 75 21 92 22 78 23
REMARK SMILES IDX 79 24 91 25 93 26 80 27 90 28 81 29 82 30 89 31 83 32 86 33
REMARK SMILES IDX 84 34 87 35 88 36 85 37 14 39 15 40 16 41 17 42 18 43 19 44
REMARK SMILES IDX 71 45 20 46 70 47 21 48 22 49 23 50 64 51 24 52 69 53 63 54
REMARK SMILES IDX 65 55 25 56 68 57 62 58 61 59 26 61 52 62 35 63 51 64 36 65
REMARK SMILES IDX 39 66 50 67 66 68 37 69 38 70 49 72 67 73 40 74 27 75 28 76
REMARK SMILES IDX 33 77 29 78 30 79 32 80 34 81 31 82 53 83 54 84 59 85 55 86
REMARK SMILES IDX 56 87 58 88 60 89 57 90 41 91 42 92 47 93 43 94 44 95 46 96
REMARK SMILES IDX 48 97 45 98
REMARK H PARENT 85 38 65 60 39 71
REMARK Flexibility Score: inf
ROOT
ATOM      1  C   UNL A   1      34.064  31.693  27.648  1.00  0.00     0.202 C 
ENDROOT
BRANCH   1   2
ATOM      2  O   UNL A   1      33.539  30.382  27.664  1.00  0.00    -0.374 OA
BRANCH   2   3
ATOM      3  C   UNL A   1      34.405  29.343  27.261  1.00  0.00     0.202 C 
BRANCH   3   4
ATOM      4  C   UNL A   1      34.425  28.879  25.850  1.00  0.00     0.261 C 
BRANCH   4   5
ATOM      5  O   UNL A   1      33.705  27.675  25.661  1.00  0.00    -0.463 OA
BRANCH   5   6
ATOM      6  C   UNL A   1      32.697  27.471  24.799  1.00  0.00     0.312 C 
ATOM      7  O   UNL A   1      32.785  27.178  23.606  1.00  0.00    -0.252 OA
BRANCH   6   8
ATOM      8  C   UNL A   1      31.413  27.493  25.590  1.00  0.00     0.075 C 
ATOM      9  C   UNL A   1      28.627  29.819  23.223  1.00  0.00     0.011 C 
ATOM     10  C   UNL A   1      29.906  28.949  23.290  1.00  0.00    -0.035 C 
ATOM     11  C   UNL A   1      30.373  28.968  21.790  1.00  0.00     0.011 C 
ATOM     12  C   UNL A   1      30.904  29.676  24.231  1.00  0.00     0.007 C 
ATOM     13  C   UNL A   1      29.549  27.469  23.722  1.00  0.00     0.015 C 
ATOM     14  C   UNL A   1      31.094  29.018  25.633  1.00  0.00     0.020 C 
ATOM     15  C   UNL A   1      30.257  26.689  24.940  1.00  0.00     0.033 C 
ATOM     16  C   UNL A   1      30.747  25.184  24.745  1.00  0.00    -0.063 C 
ATOM     17  C   UNL A   1      31.696  26.782  26.952  1.00  0.00     0.020 C 
ATOM     18  C   UNL A   1      31.291  24.275  25.958  1.00  0.00    -0.006 C 
ATOM     19  C   UNL A   1      30.890  24.750  23.484  1.00  0.00    -0.027 C 
ATOM     20  C   UNL A   1      32.170  25.257  26.830  1.00  0.00     0.013 C 
ATOM     21  C   UNL A   1      30.125  23.939  26.942  1.00  0.00     0.017 C 
ATOM     22  C   UNL A   1      31.869  22.691  25.315  1.00  0.00    -0.020 C 
ATOM     23  C   UNL A   1      31.785  23.673  23.006  1.00  0.00     0.032 C 
ATOM     24  C   UNL A   1      32.675  22.933  24.035  1.00  0.00     0.006 C 
ATOM     25  C   UNL A   1      32.710  21.450  25.967  1.00  0.00     0.008 C 
ATOM     26  C   UNL A   1      30.516  21.938  24.934  1.00  0.00     0.012 C 
ATOM     27  C   UNL A   1      34.325  23.085  24.241  1.00  0.00    -0.025 C 
ATOM     28  C   UNL A   1      33.927  20.759  25.036  1.00  0.00     0.005 C 
ATOM     29  C   UNL A   1      34.851  23.128  22.812  1.00  0.00     0.012 C 
ATOM     30  C   UNL A   1      34.862  24.116  25.286  1.00  0.00     0.010 C 
ATOM     31  C   UNL A   1      35.000  21.830  24.879  1.00  0.00     0.003 C 
ATOM     32  C   UNL A   1      36.390  24.190  25.529  1.00  0.00     0.033 C 
ATOM     33  C   UNL A   1      36.632  21.773  24.695  1.00  0.00    -0.006 C 
ATOM     34  C   UNL A   1      37.099  22.834  25.762  1.00  0.00     0.120 C 
ATOM     35  C   UNL A   1      37.406  22.190  23.387  1.00  0.00     0.014 C 
ATOM     36  C   UNL A   1      37.177  20.368  24.974  1.00  0.00     0.014 C 
BRANCH  34  37
ATOM     37  O   UNL A   1      38.514  23.022  25.793  1.00  0.00    -0.393 OA
ATOM     38  H   UNL A   1      38.722  23.837  26.277  1.00  0.00     0.210 HD
ENDBRANCH  34  37
ENDBRANCH   6   8
ENDBRANCH   5   6
ENDBRANCH   4   5
ENDBRANCH   3   4
ENDBRANCH   2   3
ENDBRANCH   1   2
BRANCH   1  39
ATOM     39  C   UNL A   1      32.954  32.742  27.650  1.00  0.00     0.261 C 
BRANCH  39  40
ATOM     40  O   UNL A   1      33.464  34.093  27.526  1.00  0.00    -0.460 OA
BRANCH  40  41
ATOM     41  C   UNL A   1      33.383  34.860  28.639  1.00  0.00     0.338 C 
ATOM     42  O   UNL A   1      32.499  35.666  28.917  1.00  0.00    -0.246 OA
BRANCH  41  43
ATOM     43  C   UNL A   1      34.393  34.453  29.643  1.00  0.00     0.060 A 
ATOM     44  C   UNL A   1      35.741  34.455  29.254  1.00  0.00     0.016 A 
ATOM     45  C   UNL A   1      34.047  33.959  30.891  1.00  0.00     0.016 A 
ATOM     46  C   UNL A   1      36.755  33.977  30.062  1.00  0.00     0.010 A 
ATOM     47  C   UNL A   1      35.049  33.381  31.679  1.00  0.00     0.010 A 
ATOM     48  C   UNL A   1      36.392  33.354  31.245  1.00  0.00    -0.014 A 
BRANCH  48  49
ATOM     49  C   UNL A   1      37.344  32.424  31.873  1.00  0.00     0.031 A 
ATOM     50  C   UNL A   1      37.862  32.786  33.231  1.00  0.00     0.074 A 
ATOM     51  C   UNL A   1      37.729  31.301  31.252  1.00  0.00     0.049 A 
ATOM     52  N   UNL A   1      38.922  32.358  33.856  1.00  0.00    -0.248 NA
ATOM     53  C   UNL A   1      37.083  33.791  33.976  1.00  0.00     0.031 C 
ATOM     54  C   UNL A   1      37.171  30.786  30.003  1.00  0.00     0.029 A 
ATOM     55  N   UNL A   1      38.724  30.419  31.575  1.00  0.00    -0.354 N 
ATOM     56  C   UNL A   1      38.981  33.092  35.034  1.00  0.00     0.074 A 
ATOM     57  C   UNL A   1      37.840  33.981  35.045  1.00  0.00     0.031 C 
ATOM     58  C   UNL A   1      37.884  29.712  29.625  1.00  0.00     0.029 A 
ATOM     59  C   UNL A   1      38.977  29.517  30.572  1.00  0.00     0.049 A 
ATOM     60  H   UNL A   1      39.206  30.431  32.433  1.00  0.00     0.167 HD
ATOM     61  C   UNL A   1      39.926  33.037  35.999  1.00  0.00     0.037 A 
ATOM     62  C   UNL A   1      40.025  28.690  30.411  1.00  0.00     0.037 A 
ATOM     63  C   UNL A   1      41.042  32.128  35.950  1.00  0.00     0.049 A 
ATOM     64  C   UNL A   1      41.108  28.693  31.456  1.00  0.00     0.074 A 
ATOM     65  C   UNL A   1      42.071  31.967  36.858  1.00  0.00     0.029 A 
ATOM     66  N   UNL A   1      41.266  31.220  34.922  1.00  0.00    -0.354 N 
ATOM     67  N   UNL A   1      41.211  29.423  32.543  1.00  0.00    -0.248 NA
ATOM     68  C   UNL A   1      42.221  27.759  31.250  1.00  0.00     0.031 C 
ATOM     69  C   UNL A   1      42.947  31.001  36.351  1.00  0.00     0.029 A 
ATOM     70  C   UNL A   1      42.430  30.512  35.160  1.00  0.00     0.049 A 
ATOM     71  H   UNL A   1      40.682  31.099  34.139  1.00  0.00     0.167 HD
ATOM     72  C   UNL A   1      42.387  29.021  33.164  1.00  0.00     0.074 A 
ATOM     73  C   UNL A   1      42.946  27.966  32.339  1.00  0.00     0.031 C 
ATOM     74  C   UNL A   1      42.959  29.475  34.308  1.00  0.00     0.037 A 
BRANCH  61  75
ATOM     75  C   UNL A   1      39.829  34.025  37.126  1.00  0.00     0.057 A 
ATOM     76  C   UNL A   1      39.128  33.754  38.308  1.00  0.00     0.134 A 
ATOM     77  C   UNL A   1      40.445  35.280  37.016  1.00  0.00     0.134 A 
ATOM     78  F   UNL A   1      38.493  32.584  38.470  1.00  0.00    -0.206 F 
ATOM     79  C   UNL A   1      39.023  34.703  39.329  1.00  0.00     0.040 A 
ATOM     80  C   UNL A   1      40.372  36.224  38.042  1.00  0.00     0.040 A 
ATOM     81  F   UNL A   1      41.126  35.610  35.909  1.00  0.00    -0.206 F 
ATOM     82  C   UNL A   1      39.652  35.940  39.199  1.00  0.00     0.006 A 
ENDBRANCH  61  75
BRANCH  62  83
ATOM     83  C   UNL A   1      40.118  27.838  29.199  1.00  0.00     0.057 A 
ATOM     84  C   UNL A   1      39.465  26.604  29.137  1.00  0.00     0.134 A 
ATOM     85  C   UNL A   1      40.851  28.238  28.074  1.00  0.00     0.134 A 
ATOM     86  F   UNL A   1      38.763  26.158  30.189  1.00  0.00    -0.206 F 
ATOM     87  C   UNL A   1      39.546  25.789  28.006  1.00  0.00     0.040 A 
ATOM     88  C   UNL A   1      40.918  27.447  26.925  1.00  0.00     0.040 A 
ATOM     89  F   UNL A   1      41.496  29.414  28.066  1.00  0.00    -0.206 F 
ATOM     90  C   UNL A   1      40.269  26.215  26.893  1.00  0.00     0.006 A 
ENDBRANCH  62  83
BRANCH  74  91
ATOM     91  C   UNL A   1      44.228  28.797  34.737  1.00  0.00     0.057 A 
ATOM     92  C   UNL A   1      45.490  29.272  34.354  1.00  0.00     0.134 A 
ATOM     93  C   UNL A   1      44.185  27.654  35.545  1.00  0.00     0.134 A 
ATOM     94  F   UNL A   1      45.600  30.355  33.571  1.00  0.00    -0.206 F 
ATOM     95  C   UNL A   1      46.660  28.604  34.720  1.00  0.00     0.040 A 
ATOM     96  C   UNL A   1      45.348  27.000  35.947  1.00  0.00     0.040 A 
ATOM     97  F   UNL A   1      43.009  27.156  35.959  1.00  0.00    -0.206 F 
ATOM     98  C   UNL A   1      46.590  27.466  35.521  1.00  0.00     0.006 A 
ENDBRANCH  74  91
ENDBRANCH  48  49
ENDBRANCH  41  43
ENDBRANCH  40  41
ENDBRANCH  39  40
ENDBRANCH   1  39
TORSDOF 15
ENDMDL
MODEL 3
REMARK VINA RESULT:     -12.0      4.112      9.623
REMARK SMILES CC1(C)CC[C@@]2(C(=O)OCCOCCOC(=O)c3ccc(-c4c5nc(c(-c6c(F)cccc6F)c6ccc([nH]6)c(-c6c(F)cccc6F)c6nc(c(-c7c(F)cccc7F)c7ccc4[nH]7)C=C6)C=C5)cc3)CC[C@@]3(C)C(=CC[C@H]4[C@@]5(C)CC[C@H](O)C(C)(C)[C@@H]5CC[C@]43C)[C@@H]2C1
REMARK SMILES IDX 13 1 12 2 11 3 10 4 9 5 7 6 8 7 6 8 1 9 2 10 3 11 4 12 95 13
REMARK SMILES IDX 5 14 94 15 76 16 72 17 74 18 77 19 73 20 75 21 92 22 78 23
REMARK SMILES IDX 79 24 91 25 93 26 80 27 90 28 81 29 82 30 89 31 83 32 86 33
REMARK SMILES IDX 84 34 87 35 88 36 85 37 14 39 15 40 16 41 17 42 18 43 19 44
REMARK SMILES IDX 71 45 20 46 70 47 21 48 22 49 23 50 64 51 24 52 69 53 63 54
REMARK SMILES IDX 65 55 25 56 68 57 62 58 61 59 26 61 52 62 35 63 51 64 36 65
REMARK SMILES IDX 39 66 50 67 66 68 37 69 38 70 49 72 67 73 40 74 27 75 28 76
REMARK SMILES IDX 33 77 29 78 30 79 32 80 34 81 31 82 53 83 54 84 59 85 55 86
REMARK SMILES IDX 56 87 58 88 60 89 57 90 41 91 42 92 47 93 43 94 44 95 46 96
REMARK SMILES IDX 48 97 45 98
REMARK H PARENT 85 38 65 60 39 71
REMARK Flexibility Score: inf
ROOT
ATOM      1  C   UNL A   1      33.994  31.711  27.453  1.00  0.00     0.202 C 
ENDROOT
BRANCH   1   2
ATOM      2  O   UNL A   1      33.494  30.407  27.663  1.00  0.00    -0.374 OA
BRANCH   2   3
ATOM      3  C   UNL A   1      34.334  29.335  27.293  1.00  0.00     0.202 C 
BRANCH   3   4
ATOM      4  C   UNL A   1      34.398  28.874  25.882  1.00  0.00     0.261 C 
BRANCH   4   5
ATOM      5  O   UNL A   1      33.692  27.665  25.671  1.00  0.00    -0.463 OA
BRANCH   5   6
ATOM      6  C   UNL A   1      32.698  27.461  24.794  1.00  0.00     0.312 C 
ATOM      7  O   UNL A   1      32.805  27.165  23.602  1.00  0.00    -0.252 OA
BRANCH   6   8
ATOM      8  C   UNL A   1      31.401  27.484  25.563  1.00  0.00     0.075 C 
ATOM      9  C   UNL A   1      28.666  29.838  23.166  1.00  0.00     0.011 C 
ATOM     10  C   UNL A   1      29.939  28.962  23.249  1.00  0.00    -0.035 C 
ATOM     11  C   UNL A   1      30.429  28.986  21.756  1.00  0.00     0.011 C 
ATOM     12  C   UNL A   1      30.925  29.677  24.209  1.00  0.00     0.007 C 
ATOM     13  C   UNL A   1      29.568  27.481  23.666  1.00  0.00     0.015 C 
ATOM     14  C   UNL A   1      31.090  29.011  25.610  1.00  0.00     0.020 C 
ATOM     15  C   UNL A   1      30.252  26.690  24.891  1.00  0.00     0.033 C 
ATOM     16  C   UNL A   1      30.738  25.183  24.695  1.00  0.00    -0.063 C 
ATOM     17  C   UNL A   1      31.659  26.764  26.926  1.00  0.00     0.020 C 
ATOM     18  C   UNL A   1      31.257  24.265  25.911  1.00  0.00    -0.006 C 
ATOM     19  C   UNL A   1      30.899  24.757  23.434  1.00  0.00    -0.027 C 
ATOM     20  C   UNL A   1      32.127  25.238  26.803  1.00  0.00     0.013 C 
ATOM     21  C   UNL A   1      30.075  23.930  26.875  1.00  0.00     0.017 C 
ATOM     22  C   UNL A   1      31.838  22.682  25.268  1.00  0.00    -0.020 C 
ATOM     23  C   UNL A   1      31.795  23.677  22.964  1.00  0.00     0.032 C 
ATOM     24  C   UNL A   1      32.665  22.927  24.003  1.00  0.00     0.006 C 
ATOM     25  C   UNL A   1      32.662  21.433  25.926  1.00  0.00     0.008 C 
ATOM     26  C   UNL A   1      30.488  21.938  24.862  1.00  0.00     0.012 C 
ATOM     27  C   UNL A   1      34.312  23.069  24.236  1.00  0.00    -0.025 C 
ATOM     28  C   UNL A   1      33.890  20.741  25.011  1.00  0.00     0.005 C 
ATOM     29  C   UNL A   1      34.861  23.118  22.816  1.00  0.00     0.012 C 
ATOM     30  C   UNL A   1      34.838  24.092  25.296  1.00  0.00     0.010 C 
ATOM     31  C   UNL A   1      34.971  21.807  24.878  1.00  0.00     0.003 C 
ATOM     32  C   UNL A   1      36.362  24.157  25.563  1.00  0.00     0.033 C 
ATOM     33  C   UNL A   1      36.606  21.743  24.720  1.00  0.00    -0.006 C 
ATOM     34  C   UNL A   1      37.061  22.795  25.800  1.00  0.00     0.120 C 
ATOM     35  C   UNL A   1      37.402  22.163  23.426  1.00  0.00     0.014 C 
ATOM     36  C   UNL A   1      37.138  20.334  24.999  1.00  0.00     0.014 C 
BRANCH  34  37
ATOM     37  O   UNL A   1      38.476  22.976  25.854  1.00  0.00    -0.393 OA
ATOM     38  H   UNL A   1      38.917  22.127  25.689  1.00  0.00     0.210 HD
ENDBRANCH  34  37
ENDBRANCH   6   8
ENDBRANCH   5   6
ENDBRANCH   4   5
ENDBRANCH   3   4
ENDBRANCH   2   3
ENDBRANCH   1   2
BRANCH   1  39
ATOM     39  C   UNL A   1      34.175  32.461  28.772  1.00  0.00     0.261 C 
BRANCH  39  40
ATOM     40  O   UNL A   1      35.563  32.540  29.182  1.00  0.00    -0.460 OA
BRANCH  40  41
ATOM     41  C   UNL A   1      35.911  31.773  30.242  1.00  0.00     0.338 C 
ATOM     42  O   UNL A   1      35.334  31.706  31.325  1.00  0.00    -0.246 OA
BRANCH  41  43
ATOM     43  C   UNL A   1      36.974  30.810  29.879  1.00  0.00     0.060 A 
ATOM     44  C   UNL A   1      37.691  30.202  30.920  1.00  0.00     0.016 A 
ATOM     45  C   UNL A   1      37.363  30.589  28.567  1.00  0.00     0.016 A 
ATOM     46  C   UNL A   1      38.785  29.386  30.701  1.00  0.00     0.010 A 
ATOM     47  C   UNL A   1      38.526  29.846  28.333  1.00  0.00     0.010 A 
ATOM     48  C   UNL A   1      39.256  29.282  29.402  1.00  0.00    -0.014 A 
BRANCH  48  49
ATOM     49  C   UNL A   1      40.649  28.855  29.190  1.00  0.00     0.031 A 
ATOM     50  C   UNL A   1      41.703  29.919  29.205  1.00  0.00     0.074 A 
ATOM     51  C   UNL A   1      40.956  27.566  28.991  1.00  0.00     0.049 A 
ATOM     52  N   UNL A   1      42.915  29.894  28.727  1.00  0.00    -0.248 NA
ATOM     53  C   UNL A   1      41.322  31.201  29.826  1.00  0.00     0.031 C 
ATOM     54  C   UNL A   1      40.029  26.443  29.108  1.00  0.00     0.029 A 
ATOM     55  N   UNL A   1      42.138  26.999  28.598  1.00  0.00    -0.354 N 
ATOM     56  C   UNL A   1      43.418  31.174  28.923  1.00  0.00     0.074 A 
ATOM     57  C   UNL A   1      42.387  31.947  29.578  1.00  0.00     0.031 C 
ATOM     58  C   UNL A   1      40.660  25.322  28.721  1.00  0.00     0.029 A 
ATOM     59  C   UNL A   1      42.004  25.672  28.271  1.00  0.00     0.049 A 
ATOM     60  H   UNL A   1      42.990  27.489  28.552  1.00  0.00     0.167 HD
ATOM     61  C   UNL A   1      44.629  31.654  28.558  1.00  0.00     0.037 A 
ATOM     62  C   UNL A   1      42.852  24.865  27.610  1.00  0.00     0.037 A 
ATOM     63  C   UNL A   1      45.629  30.842  27.914  1.00  0.00     0.049 A 
ATOM     64  C   UNL A   1      44.165  25.433  27.143  1.00  0.00     0.074 A 
ATOM     65  C   UNL A   1      46.895  31.199  27.491  1.00  0.00     0.029 A 
ATOM     66  N   UNL A   1      45.466  29.498  27.604  1.00  0.00    -0.354 N 
ATOM     67  N   UNL A   1      44.631  26.655  27.264  1.00  0.00    -0.248 NA
ATOM     68  C   UNL A   1      45.067  24.511  26.444  1.00  0.00     0.031 C 
ATOM     69  C   UNL A   1      47.475  30.084  26.875  1.00  0.00     0.029 A 
ATOM     70  C   UNL A   1      46.597  29.015  26.973  1.00  0.00     0.049 A 
ATOM     71  H   UNL A   1      44.662  28.967  27.805  1.00  0.00     0.167 HD
ATOM     72  C   UNL A   1      45.891  26.643  26.679  1.00  0.00     0.074 A 
ATOM     73  C   UNL A   1      46.120  25.284  26.226  1.00  0.00     0.031 C 
ATOM     74  C   UNL A   1      46.783  27.656  26.527  1.00  0.00     0.037 A 
BRANCH  61  75
ATOM     75  C   UNL A   1      44.892  33.115  28.775  1.00  0.00     0.057 A 
ATOM     76  C   UNL A   1      45.522  33.605  29.926  1.00  0.00     0.134 A 
ATOM     77  C   UNL A   1      44.495  34.053  27.811  1.00  0.00     0.134 A 
ATOM     78  F   UNL A   1      45.905  32.768  30.901  1.00  0.00    -0.206 F 
ATOM     79  C   UNL A   1      45.726  34.974  30.122  1.00  0.00     0.040 A 
ATOM     80  C   UNL A   1      44.720  35.420  27.981  1.00  0.00     0.040 A 
ATOM     81  F   UNL A   1      43.879  33.656  26.688  1.00  0.00    -0.206 F 
ATOM     82  C   UNL A   1      45.331  35.885  29.144  1.00  0.00     0.006 A 
ENDBRANCH  61  75
BRANCH  62  83
ATOM     83  C   UNL A   1      42.462  23.464  27.313  1.00  0.00     0.057 A 
ATOM     84  C   UNL A   1      42.445  22.495  28.320  1.00  0.00     0.134 A 
ATOM     85  C   UNL A   1      42.091  23.062  26.024  1.00  0.00     0.134 A 
ATOM     86  F   UNL A   1      42.809  22.814  29.570  1.00  0.00    -0.206 F 
ATOM     87  C   UNL A   1      42.085  21.172  28.056  1.00  0.00     0.040 A 
ATOM     88  C   UNL A   1      41.701  21.749  25.750  1.00  0.00     0.040 A 
ATOM     89  F   UNL A   1      42.080  23.944  25.013  1.00  0.00    -0.206 F 
ATOM     90  C   UNL A   1      41.705  20.798  26.768  1.00  0.00     0.006 A 
ENDBRANCH  62  83
BRANCH  74  91
ATOM     91  C   UNL A   1      48.091  27.305  25.878  1.00  0.00     0.057 A 
ATOM     92  C   UNL A   1      49.197  26.872  26.622  1.00  0.00     0.134 A 
ATOM     93  C   UNL A   1      48.243  27.403  24.489  1.00  0.00     0.134 A 
ATOM     94  F   UNL A   1      49.119  26.768  27.957  1.00  0.00    -0.206 F 
ATOM     95  C   UNL A   1      50.420  26.595  26.011  1.00  0.00     0.040 A 
ATOM     96  C   UNL A   1      49.451  27.094  23.865  1.00  0.00     0.040 A 
ATOM     97  F   UNL A   1      47.219  27.797  23.717  1.00  0.00    -0.206 F 
ATOM     98  C   UNL A   1      50.548  26.703  24.628  1.00  0.00     0.006 A 
ENDBRANCH  74  91
ENDBRANCH  48  49
ENDBRANCH  41  43
ENDBRANCH  40  41
ENDBRANCH  39  40
ENDBRANCH   1  39
TORSDOF 15
ENDMDL
