MODEL 1
REMARK VINA RESULT:     -12.5      0.000      0.000
REMARK SMILES O=C(OCCOCCOC(=O)C1(Cc2ccccc2Cl)CCN(c2ncnc3[nH]ccc23)CC1)c1ccc(-c2c3nc(c(-c4c(F)cccc4F)c4ccc([nH]4)c(-c4c(F)cccc4F)c4nc(c(-c5c(F)cccc5F)c5ccc2[nH]5)C=C4)C=C3)cc1
REMARK SMILES IDX 6 1 5 2 4 3 3 4 2 5 1 6 35 7 36 8 88 9 37 10 87 11 38 12
REMARK SMILES IDX 39 13 40 14 81 15 41 16 86 17 80 18 82 19 42 20 85 21 79 22
REMARK SMILES IDX 78 23 43 25 69 26 52 27 68 28 53 29 56 30 67 31 83 32 54 33
REMARK SMILES IDX 55 34 66 36 84 37 57 38 44 39 45 40 50 41 46 42 47 43 49 44
REMARK SMILES IDX 51 45 48 46 70 47 71 48 76 49 72 50 73 51 75 52 77 53 74 54
REMARK SMILES IDX 58 55 59 56 64 57 60 58 61 59 63 60 65 61 62 62 7 63 8 64
REMARK SMILES IDX 9 65 10 66 11 67 12 68 21 69 34 70 22 71 33 72 23 73 13 74
REMARK SMILES IDX 14 75 15 76 19 77 16 78 18 79 20 80 17 81 24 82 25 83 32 84
REMARK SMILES IDX 26 85 28 86 31 87 27 88 29 89 30 90
REMARK H PARENT 82 24 56 35 29 91
REMARK Flexibility Score: inf
ROOT
ATOM      1  O   UNL A   1      31.763  30.684  26.393  1.00  0.00    -0.374 OA
ENDROOT
BRANCH   1   2
ATOM      2  C   UNL A   1      31.407  32.026  26.680  1.00  0.00     0.202 C 
BRANCH   2   3
ATOM      3  C   UNL A   1      32.531  33.048  26.891  1.00  0.00     0.261 C 
BRANCH   3   4
ATOM      4  O   UNL A   1      32.173  34.124  27.794  1.00  0.00    -0.460 OA
BRANCH   4   5
ATOM      5  C   UNL A   1      33.013  34.708  28.699  1.00  0.00     0.338 C 
ATOM      6  O   UNL A   1      32.775  35.799  29.191  1.00  0.00    -0.246 OA
BRANCH   5   7
ATOM      7  C   UNL A   1      34.231  33.969  29.086  1.00  0.00     0.060 A 
ATOM      8  C   UNL A   1      34.099  32.693  29.590  1.00  0.00     0.016 A 
ATOM      9  C   UNL A   1      35.507  34.499  28.972  1.00  0.00     0.016 A 
ATOM     10  C   UNL A   1      35.068  32.110  30.348  1.00  0.00     0.010 A 
ATOM     11  C   UNL A   1      36.587  33.747  29.450  1.00  0.00     0.010 A 
ATOM     12  C   UNL A   1      36.356  32.560  30.176  1.00  0.00    -0.014 A 
BRANCH  12  13
ATOM     13  C   UNL A   1      37.408  31.738  30.786  1.00  0.00     0.031 A 
ATOM     14  C   UNL A   1      37.689  31.935  32.233  1.00  0.00     0.074 A 
ATOM     15  C   UNL A   1      37.993  30.757  30.064  1.00  0.00     0.049 A 
ATOM     16  N   UNL A   1      38.705  31.523  32.932  1.00  0.00    -0.248 NA
ATOM     17  C   UNL A   1      36.701  32.719  32.997  1.00  0.00     0.031 C 
ATOM     18  C   UNL A   1      37.648  30.382  28.680  1.00  0.00     0.029 A 
ATOM     19  N   UNL A   1      38.973  29.863  30.395  1.00  0.00    -0.354 N 
ATOM     20  C   UNL A   1      38.530  32.073  34.191  1.00  0.00     0.074 A 
ATOM     21  C   UNL A   1      37.297  32.824  34.174  1.00  0.00     0.031 C 
ATOM     22  C   UNL A   1      38.359  29.308  28.313  1.00  0.00     0.029 A 
ATOM     23  C   UNL A   1      39.320  29.024  29.360  1.00  0.00     0.049 A 
ATOM     24  H   UNL A   1      39.389  29.823  31.286  1.00  0.00     0.167 HD
ATOM     25  C   UNL A   1      39.368  31.969  35.244  1.00  0.00     0.037 A 
ATOM     26  C   UNL A   1      40.364  28.186  29.246  1.00  0.00     0.037 A 
ATOM     27  C   UNL A   1      40.561  31.170  35.197  1.00  0.00     0.049 A 
ATOM     28  C   UNL A   1      41.321  28.153  30.401  1.00  0.00     0.074 A 
ATOM     29  C   UNL A   1      41.539  31.012  36.158  1.00  0.00     0.029 A 
ATOM     30  N   UNL A   1      40.924  30.377  34.113  1.00  0.00    -0.354 N 
ATOM     31  N   UNL A   1      41.240  28.775  31.555  1.00  0.00    -0.248 NA
ATOM     32  C   UNL A   1      42.529  27.342  30.232  1.00  0.00     0.031 C 
ATOM     33  C   UNL A   1      42.513  30.155  35.638  1.00  0.00     0.029 A 
ATOM     34  C   UNL A   1      42.118  29.736  34.374  1.00  0.00     0.049 A 
ATOM     35  H   UNL A   1      40.404  30.286  33.282  1.00  0.00     0.167 HD
ATOM     36  C   UNL A   1      42.379  28.421  32.259  1.00  0.00     0.074 A 
ATOM     37  C   UNL A   1      43.119  27.508  31.407  1.00  0.00     0.031 C 
ATOM     38  C   UNL A   1      42.791  28.819  33.487  1.00  0.00     0.037 A 
BRANCH  25  39
ATOM     39  C   UNL A   1      39.062  32.804  36.446  1.00  0.00     0.057 A 
ATOM     40  C   UNL A   1      39.583  34.092  36.626  1.00  0.00     0.134 A 
ATOM     41  C   UNL A   1      38.262  32.282  37.471  1.00  0.00     0.134 A 
ATOM     42  F   UNL A   1      40.392  34.633  35.702  1.00  0.00    -0.206 F 
ATOM     43  C   UNL A   1      39.332  34.824  37.788  1.00  0.00     0.040 A 
ATOM     44  C   UNL A   1      37.983  33.015  38.627  1.00  0.00     0.040 A 
ATOM     45  F   UNL A   1      37.749  31.047  37.373  1.00  0.00    -0.206 F 
ATOM     46  C   UNL A   1      38.524  34.287  38.790  1.00  0.00     0.006 A 
ENDBRANCH  25  39
BRANCH  26  47
ATOM     47  C   UNL A   1      40.618  27.435  27.986  1.00  0.00     0.057 A 
ATOM     48  C   UNL A   1      40.113  26.144  27.795  1.00  0.00     0.134 A 
ATOM     49  C   UNL A   1      41.400  27.970  26.952  1.00  0.00     0.134 A 
ATOM     50  F   UNL A   1      39.371  25.562  28.748  1.00  0.00    -0.206 F 
ATOM     51  C   UNL A   1      40.398  25.405  26.643  1.00  0.00     0.040 A 
ATOM     52  C   UNL A   1      41.664  27.258  25.779  1.00  0.00     0.040 A 
ATOM     53  F   UNL A   1      41.918  29.204  27.057  1.00  0.00    -0.206 F 
ATOM     54  C   UNL A   1      41.173  25.965  25.629  1.00  0.00     0.006 A 
ENDBRANCH  26  47
BRANCH  38  55
ATOM     55  C   UNL A   1      44.066  28.217  33.981  1.00  0.00     0.057 A 
ATOM     56  C   UNL A   1      45.300  28.854  33.803  1.00  0.00     0.134 A 
ATOM     57  C   UNL A   1      44.046  27.007  34.682  1.00  0.00     0.134 A 
ATOM     58  F   UNL A   1      45.379  30.007  33.121  1.00  0.00    -0.206 F 
ATOM     59  C   UNL A   1      46.478  28.294  34.291  1.00  0.00     0.040 A 
ATOM     60  C   UNL A   1      45.213  26.454  35.203  1.00  0.00     0.040 A 
ATOM     61  F   UNL A   1      42.890  26.356  34.888  1.00  0.00    -0.206 F 
ATOM     62  C   UNL A   1      46.434  27.095  35.002  1.00  0.00     0.006 A 
ENDBRANCH  38  55
ENDBRANCH  12  13
ENDBRANCH   5   7
ENDBRANCH   4   5
ENDBRANCH   3   4
ENDBRANCH   2   3
ENDBRANCH   1   2
BRANCH   1  63
ATOM     63  C   UNL A   1      33.127  30.319  26.632  1.00  0.00     0.202 C 
BRANCH  63  64
ATOM     64  C   UNL A   1      33.491  29.223  25.669  1.00  0.00     0.261 C 
BRANCH  64  65
ATOM     65  O   UNL A   1      32.349  29.050  24.825  1.00  0.00    -0.463 OA
BRANCH  65  66
ATOM     66  C   UNL A   1      32.572  28.486  23.610  1.00  0.00     0.312 C 
ATOM     67  O   UNL A   1      33.246  28.975  22.712  1.00  0.00    -0.252 OA
BRANCH  66  68
ATOM     68  C   UNL A   1      31.759  27.208  23.467  1.00  0.00     0.075 C 
ATOM     69  C   UNL A   1      31.031  26.759  24.767  1.00  0.00     0.040 C 
ATOM     70  C   UNL A   1      32.724  26.080  23.019  1.00  0.00     0.040 C 
ATOM     71  C   UNL A   1      31.840  26.062  25.852  1.00  0.00     0.119 C 
ATOM     72  C   UNL A   1      33.661  25.625  24.144  1.00  0.00     0.119 C 
ATOM     73  N   UNL A   1      32.866  25.230  25.283  1.00  0.00    -0.356 N 
BRANCH  68  74
ATOM     74  C   UNL A   1      30.714  27.530  22.328  1.00  0.00     0.056 C 
BRANCH  74  75
ATOM     75  C   UNL A   1      29.665  28.574  22.724  1.00  0.00    -0.028 A 
ATOM     76  C   UNL A   1      29.918  29.922  22.411  1.00  0.00     0.005 A 
ATOM     77  C   UNL A   1      28.380  28.241  23.191  1.00  0.00     0.044 A 
ATOM     78  C   UNL A   1      28.885  30.861  22.376  1.00  0.00     0.000 A 
ATOM     79  C   UNL A   1      27.344  29.185  23.153  1.00  0.00     0.021 A 
ATOM     80  Cl  UNL A   1      27.978  26.654  23.747  1.00  0.00    -0.084 Cl
ATOM     81  C   UNL A   1      27.589  30.482  22.708  1.00  0.00     0.002 A 
ENDBRANCH  74  75
ENDBRANCH  68  74
BRANCH  73  82
ATOM     82  C   UNL A   1      33.268  24.139  26.019  1.00  0.00     0.141 A 
ATOM     83  N   UNL A   1      32.430  23.508  26.873  1.00  0.00    -0.219 NA
ATOM     84  C   UNL A   1      34.589  23.682  25.920  1.00  0.00     0.061 A 
ATOM     85  C   UNL A   1      32.918  22.464  27.582  1.00  0.00     0.226 A 
ATOM     86  C   UNL A   1      34.956  22.623  26.726  1.00  0.00     0.142 A 
ATOM     87  C   UNL A   1      35.739  24.068  25.178  1.00  0.00     0.033 A 
ATOM     88  N   UNL A   1      34.167  21.955  27.581  1.00  0.00    -0.218 NA
ATOM     89  N   UNL A   1      36.287  22.382  26.514  1.00  0.00    -0.346 N 
ATOM     90  C   UNL A   1      36.776  23.254  25.572  1.00  0.00     0.085 A 
ATOM     91  H   UNL A   1      36.816  21.687  26.969  1.00  0.00     0.167 HD
ENDBRANCH  73  82
ENDBRANCH  66  68
ENDBRANCH  65  66
ENDBRANCH  64  65
ENDBRANCH  63  64
ENDBRANCH   1  63
TORSDOF 17
ENDMDL
MODEL 2
REMARK VINA RESULT:     -12.4      2.272      7.404
REMARK SMILES O=C(OCCOCCOC(=O)C1(Cc2ccccc2Cl)CCN(c2ncnc3[nH]ccc23)CC1)c1ccc(-c2c3nc(c(-c4c(F)cccc4F)c4ccc([nH]4)c(-c4c(F)cccc4F)c4nc(c(-c5c(F)cccc5F)c5ccc2[nH]5)C=C4)C=C3)cc1
REMARK SMILES IDX 6 1 5 2 4 3 3 4 2 5 1 6 35 7 36 8 88 9 37 10 87 11 38 12
REMARK SMILES IDX 39 13 40 14 81 15 41 16 86 17 80 18 82 19 42 20 85 21 79 22
REMARK SMILES IDX 78 23 43 25 69 26 52 27 68 28 53 29 56 30 67 31 83 32 54 33
REMARK SMILES IDX 55 34 66 36 84 37 57 38 44 39 45 40 50 41 46 42 47 43 49 44
REMARK SMILES IDX 51 45 48 46 70 47 71 48 76 49 72 50 73 51 75 52 77 53 74 54
REMARK SMILES IDX 58 55 59 56 64 57 60 58 61 59 63 60 65 61 62 62 7 63 8 64
REMARK SMILES IDX 9 65 10 66 11 67 12 68 21 69 34 70 22 71 33 72 23 73 13 74
REMARK SMILES IDX 14 75 15 76 19 77 16 78 18 79 20 80 17 81 24 82 25 83 32 84
REMARK SMILES IDX 26 85 28 86 31 87 27 88 29 89 30 90
REMARK H PARENT 82 24 56 35 29 91
REMARK Flexibility Score: inf
ROOT
ATOM      1  O   UNL A   1      31.544  28.014  22.808  1.00  0.00    -0.374 OA
ENDROOT
BRANCH   1   2
ATOM      2  C   UNL A   1      31.557  28.412  24.168  1.00  0.00     0.202 C 
BRANCH   2   3
ATOM      3  C   UNL A   1      32.724  29.276  24.663  1.00  0.00     0.261 C 
BRANCH   3   4
ATOM      4  O   UNL A   1      32.820  29.349  26.107  1.00  0.00    -0.460 OA
BRANCH   4   5
ATOM      5  C   UNL A   1      33.137  30.468  26.822  1.00  0.00     0.338 C 
ATOM      6  O   UNL A   1      32.349  31.389  26.964  1.00  0.00    -0.246 OA
BRANCH   5   7
ATOM      7  C   UNL A   1      34.475  30.533  27.443  1.00  0.00     0.060 A 
ATOM      8  C   UNL A   1      35.120  29.354  27.753  1.00  0.00     0.016 A 
ATOM      9  C   UNL A   1      35.116  31.726  27.737  1.00  0.00     0.016 A 
ATOM     10  C   UNL A   1      36.116  29.295  28.677  1.00  0.00     0.010 A 
ATOM     11  C   UNL A   1      36.345  31.676  28.407  1.00  0.00     0.010 A 
ATOM     12  C   UNL A   1      36.826  30.450  28.911  1.00  0.00    -0.014 A 
BRANCH  12  13
ATOM     13  C   UNL A   1      38.060  30.296  29.692  1.00  0.00     0.031 A 
ATOM     14  C   UNL A   1      39.211  29.619  29.038  1.00  0.00     0.074 A 
ATOM     15  C   UNL A   1      38.157  30.873  30.909  1.00  0.00     0.049 A 
ATOM     16  N   UNL A   1      40.298  29.152  29.578  1.00  0.00    -0.248 NA
ATOM     17  C   UNL A   1      39.122  29.423  27.579  1.00  0.00     0.031 C 
ATOM     18  C   UNL A   1      37.126  31.707  31.553  1.00  0.00     0.029 A 
ATOM     19  N   UNL A   1      39.180  30.886  31.816  1.00  0.00    -0.354 N 
ATOM     20  C   UNL A   1      40.978  28.525  28.547  1.00  0.00     0.074 A 
ATOM     21  C   UNL A   1      40.201  28.695  27.341  1.00  0.00     0.031 C 
ATOM     22  C   UNL A   1      37.596  32.192  32.710  1.00  0.00     0.029 A 
ATOM     23  C   UNL A   1      38.881  31.573  32.970  1.00  0.00     0.049 A 
ATOM     24  H   UNL A   1      40.047  30.446  31.658  1.00  0.00     0.167 HD
ATOM     25  C   UNL A   1      42.139  27.842  28.639  1.00  0.00     0.037 A 
ATOM     26  C   UNL A   1      39.537  31.615  34.141  1.00  0.00     0.037 A 
ATOM     27  C   UNL A   1      42.876  27.748  29.868  1.00  0.00     0.049 A 
ATOM     28  C   UNL A   1      40.781  30.782  34.238  1.00  0.00     0.074 A 
ATOM     29  C   UNL A   1      44.034  27.045  30.135  1.00  0.00     0.029 A 
ATOM     30  N   UNL A   1      42.518  28.405  31.042  1.00  0.00    -0.354 N 
ATOM     31  N   UNL A   1      41.369  30.070  33.304  1.00  0.00    -0.248 NA
ATOM     32  C   UNL A   1      41.431  30.719  35.548  1.00  0.00     0.031 C 
ATOM     33  C   UNL A   1      44.352  27.245  31.483  1.00  0.00     0.029 A 
ATOM     34  C   UNL A   1      43.424  28.114  32.042  1.00  0.00     0.049 A 
ATOM     35  H   UNL A   1      41.734  28.991  31.144  1.00  0.00     0.167 HD
ATOM     36  C   UNL A   1      42.469  29.484  33.907  1.00  0.00     0.074 A 
ATOM     37  C   UNL A   1      42.476  29.948  35.283  1.00  0.00     0.031 C 
ATOM     38  C   UNL A   1      43.383  28.630  33.388  1.00  0.00     0.037 A 
BRANCH  25  39
ATOM     39  C   UNL A   1      42.588  27.091  27.427  1.00  0.00     0.057 A 
ATOM     40  C   UNL A   1      42.423  25.707  27.290  1.00  0.00     0.134 A 
ATOM     41  C   UNL A   1      43.246  27.768  26.391  1.00  0.00     0.134 A 
ATOM     42  F   UNL A   1      41.841  24.991  28.265  1.00  0.00    -0.206 F 
ATOM     43  C   UNL A   1      42.910  25.022  26.174  1.00  0.00     0.040 A 
ATOM     44  C   UNL A   1      43.714  27.098  25.260  1.00  0.00     0.040 A 
ATOM     45  F   UNL A   1      43.456  29.090  26.469  1.00  0.00    -0.206 F 
ATOM     46  C   UNL A   1      43.552  25.719  25.152  1.00  0.00     0.006 A 
ENDBRANCH  25  39
BRANCH  26  47
ATOM     47  C   UNL A   1      38.984  32.348  35.312  1.00  0.00     0.057 A 
ATOM     48  C   UNL A   1      39.241  33.710  35.507  1.00  0.00     0.134 A 
ATOM     49  C   UNL A   1      38.209  31.703  36.289  1.00  0.00     0.134 A 
ATOM     50  F   UNL A   1      39.987  34.388  34.623  1.00  0.00    -0.206 F 
ATOM     51  C   UNL A   1      38.778  34.393  36.635  1.00  0.00     0.040 A 
ATOM     52  C   UNL A   1      37.710  32.380  37.403  1.00  0.00     0.040 A 
ATOM     53  F   UNL A   1      37.915  30.399  36.173  1.00  0.00    -0.206 F 
ATOM     54  C   UNL A   1      38.007  33.727  37.586  1.00  0.00     0.006 A 
ENDBRANCH  26  47
BRANCH  38  55
ATOM     55  C   UNL A   1      44.482  28.203  34.307  1.00  0.00     0.057 A 
ATOM     56  C   UNL A   1      44.378  27.051  35.095  1.00  0.00     0.134 A 
ATOM     57  C   UNL A   1      45.674  28.934  34.363  1.00  0.00     0.134 A 
ATOM     58  F   UNL A   1      43.251  26.324  35.094  1.00  0.00    -0.206 F 
ATOM     59  C   UNL A   1      45.421  26.651  35.928  1.00  0.00     0.040 A 
ATOM     60  C   UNL A   1      46.735  28.525  35.167  1.00  0.00     0.040 A 
ATOM     61  F   UNL A   1      45.830  30.042  33.623  1.00  0.00    -0.206 F 
ATOM     62  C   UNL A   1      46.607  27.384  35.957  1.00  0.00     0.006 A 
ENDBRANCH  38  55
ENDBRANCH  12  13
ENDBRANCH   5   7
ENDBRANCH   4   5
ENDBRANCH   3   4
ENDBRANCH   2   3
ENDBRANCH   1   2
BRANCH   1  63
ATOM     63  C   UNL A   1      31.395  26.612  22.554  1.00  0.00     0.202 C 
BRANCH  63  64
ATOM     64  C   UNL A   1      32.703  25.941  22.873  1.00  0.00     0.261 C 
BRANCH  64  65
ATOM     65  O   UNL A   1      32.367  24.621  23.312  1.00  0.00    -0.463 OA
BRANCH  65  66
ATOM     66  C   UNL A   1      32.544  24.358  24.632  1.00  0.00     0.312 C 
ATOM     67  O   UNL A   1      32.376  25.156  25.546  1.00  0.00    -0.252 OA
BRANCH  66  68
ATOM     68  C   UNL A   1      33.110  22.957  24.817  1.00  0.00     0.075 C 
ATOM     69  C   UNL A   1      33.600  22.645  26.260  1.00  0.00     0.040 C 
ATOM     70  C   UNL A   1      34.302  22.795  23.838  1.00  0.00     0.040 C 
ATOM     71  C   UNL A   1      34.948  23.193  26.707  1.00  0.00     0.119 C 
ATOM     72  C   UNL A   1      35.535  23.595  24.273  1.00  0.00     0.119 C 
ATOM     73  N   UNL A   1      35.890  23.209  25.619  1.00  0.00    -0.356 N 
BRANCH  68  74
ATOM     74  C   UNL A   1      31.924  21.996  24.413  1.00  0.00     0.056 C 
BRANCH  74  75
ATOM     75  C   UNL A   1      32.364  20.560  24.107  1.00  0.00    -0.028 A 
ATOM     76  C   UNL A   1      32.751  19.741  25.184  1.00  0.00     0.005 A 
ATOM     77  C   UNL A   1      32.205  19.954  22.848  1.00  0.00     0.044 A 
ATOM     78  C   UNL A   1      32.785  18.350  25.056  1.00  0.00     0.000 A 
ATOM     79  C   UNL A   1      32.238  18.558  22.722  1.00  0.00     0.021 A 
ATOM     80  Cl  UNL A   1      31.875  20.865  21.416  1.00  0.00    -0.084 Cl
ATOM     81  C   UNL A   1      32.490  17.757  23.834  1.00  0.00     0.002 A 
ENDBRANCH  74  75
ENDBRANCH  68  74
BRANCH  73  82
ATOM     82  C   UNL A   1      37.224  23.104  25.943  1.00  0.00     0.141 A 
ATOM     83  N   UNL A   1      37.923  24.154  26.429  1.00  0.00    -0.219 NA
ATOM     84  C   UNL A   1      37.896  21.893  25.732  1.00  0.00     0.061 A 
ATOM     85  C   UNL A   1      39.238  23.971  26.689  1.00  0.00     0.226 A 
ATOM     86  C   UNL A   1      39.247  21.860  26.016  1.00  0.00     0.142 A 
ATOM     87  C   UNL A   1      37.535  20.608  25.240  1.00  0.00     0.033 A 
ATOM     88  N   UNL A   1      39.987  22.864  26.508  1.00  0.00    -0.218 NA
ATOM     89  N   UNL A   1      39.710  20.615  25.686  1.00  0.00    -0.346 N 
ATOM     90  C   UNL A   1      38.678  19.842  25.214  1.00  0.00     0.085 A 
ATOM     91  H   UNL A   1      40.645  20.317  25.774  1.00  0.00     0.167 HD
ENDBRANCH  73  82
ENDBRANCH  66  68
ENDBRANCH  65  66
ENDBRANCH  64  65
ENDBRANCH  63  64
ENDBRANCH   1  63
TORSDOF 17
ENDMDL
MODEL 3
REMARK VINA RESULT:     -12.1      4.368      7.632
REMARK SMILES O=C(OCCOCCOC(=O)C1(Cc2ccccc2Cl)CCN(c2ncnc3[nH]ccc23)CC1)c1ccc(-c2c3nc(c(-c4c(F)cccc4F)c4ccc([nH]4)c(-c4c(F)cccc4F)c4nc(c(-c5c(F)cccc5F)c5ccc2[nH]5)C=C4)C=C3)cc1
REMARK SMILES IDX 6 1 5 2 4 3 3 4 2 5 1 6 35 7 36 8 88 9 37 10 87 11 38 12
REMARK SMILES IDX 39 13 40 14 81 15 41 16 86 17 80 18 82 19 42 20 85 21 79 22
REMARK SMILES IDX 78 23 43 25 69 26 52 27 68 28 53 29 56 30 67 31 83 32 54 33
REMARK SMILES IDX 55 34 66 36 84 37 57 38 44 39 45 40 50 41 46 42 47 43 49 44
REMARK SMILES IDX 51 45 48 46 70 47 71 48 76 49 72 50 73 51 75 52 77 53 74 54
REMARK SMILES IDX 58 55 59 56 64 57 60 58 61 59 63 60 65 61 62 62 7 63 8 64
REMARK SMILES IDX 9 65 10 66 11 67 12 68 21 69 34 70 22 71 33 72 23 73 13 74
REMARK SMILES IDX 14 75 15 76 19 77 16 78 18 79 20 80 17 81 24 82 25 83 32 84
REMARK SMILES IDX 26 85 28 86 31 87 27 88 29 89 30 90
REMARK H PARENT 82 24 56 35 29 91
REMARK Flexibility Score: inf
ROOT
ATOM      1  O   UNL A   1      33.751  21.937  26.860  1.00  0.00    -0.374 OA
ENDROOT
BRANCH   1   2
ATOM      2  C   UNL A   1      35.055  22.414  26.575  1.00  0.00     0.202 C 
BRANCH   2   3
ATOM      3  C   UNL A   1      36.004  21.510  25.779  1.00  0.00     0.261 C 
BRANCH   3   4
ATOM      4  O   UNL A   1      37.256  22.150  25.428  1.00  0.00    -0.460 OA
BRANCH   4   5
ATOM      5  C   UNL A   1      38.482  21.818  25.931  1.00  0.00     0.338 C 
ATOM      6  O   UNL A   1      38.920  20.680  25.866  1.00  0.00    -0.246 OA
BRANCH   5   7
ATOM      7  C   UNL A   1      39.284  22.888  26.553  1.00  0.00     0.060 A 
ATOM      8  C   UNL A   1      38.965  24.201  26.279  1.00  0.00     0.016 A 
ATOM      9  C   UNL A   1      40.352  22.638  27.401  1.00  0.00     0.016 A 
ATOM     10  C   UNL A   1      39.860  25.213  26.441  1.00  0.00     0.010 A 
ATOM     11  C   UNL A   1      41.103  23.726  27.867  1.00  0.00     0.010 A 
ATOM     12  C   UNL A   1      40.873  25.017  27.350  1.00  0.00    -0.014 A 
BRANCH  12  13
ATOM     13  C   UNL A   1      41.648  26.210  27.712  1.00  0.00     0.031 A 
ATOM     14  C   UNL A   1      41.029  27.178  28.655  1.00  0.00     0.074 A 
ATOM     15  C   UNL A   1      42.926  26.330  27.287  1.00  0.00     0.049 A 
ATOM     16  N   UNL A   1      41.393  28.396  28.932  1.00  0.00    -0.248 NA
ATOM     17  C   UNL A   1      39.824  26.723  29.373  1.00  0.00     0.031 C 
ATOM     18  C   UNL A   1      43.669  25.334  26.496  1.00  0.00     0.029 A 
ATOM     19  N   UNL A   1      43.847  27.320  27.488  1.00  0.00    -0.354 N 
ATOM     20  C   UNL A   1      40.415  28.885  29.781  1.00  0.00     0.074 A 
ATOM     21  C   UNL A   1      39.455  27.828  30.002  1.00  0.00     0.031 C 
ATOM     22  C   UNL A   1      44.936  25.737  26.336  1.00  0.00     0.029 A 
ATOM     23  C   UNL A   1      45.049  27.084  26.861  1.00  0.00     0.049 A 
ATOM     24  H   UNL A   1      43.668  28.124  28.029  1.00  0.00     0.167 HD
ATOM     25  C   UNL A   1      40.334  30.132  30.291  1.00  0.00     0.037 A 
ATOM     26  C   UNL A   1      46.089  27.909  26.657  1.00  0.00     0.037 A 
ATOM     27  C   UNL A   1      41.349  31.121  30.058  1.00  0.00     0.049 A 
ATOM     28  C   UNL A   1      45.936  29.312  27.166  1.00  0.00     0.074 A 
ATOM     29  C   UNL A   1      41.382  32.443  30.455  1.00  0.00     0.029 A 
ATOM     30  N   UNL A   1      42.531  30.875  29.366  1.00  0.00    -0.354 N 
ATOM     31  N   UNL A   1      44.950  29.833  27.859  1.00  0.00    -0.248 NA
ATOM     32  C   UNL A   1      47.008  30.254  26.834  1.00  0.00     0.031 C 
ATOM     33  C   UNL A   1      42.565  33.005  29.967  1.00  0.00     0.029 A 
ATOM     34  C   UNL A   1      43.296  32.023  29.312  1.00  0.00     0.049 A 
ATOM     35  H   UNL A   1      42.784  30.009  28.973  1.00  0.00     0.167 HD
ATOM     36  C   UNL A   1      45.287  31.160  28.062  1.00  0.00     0.074 A 
ATOM     37  C   UNL A   1      46.584  31.354  27.438  1.00  0.00     0.031 C 
ATOM     38  C   UNL A   1      44.592  32.139  28.690  1.00  0.00     0.037 A 
BRANCH  25  39
ATOM     39  C   UNL A   1      39.086  30.488  31.035  1.00  0.00     0.057 A 
ATOM     40  C   UNL A   1      38.035  31.205  30.450  1.00  0.00     0.134 A 
ATOM     41  C   UNL A   1      38.958  30.142  32.386  1.00  0.00     0.134 A 
ATOM     42  F   UNL A   1      38.114  31.606  29.171  1.00  0.00    -0.206 F 
ATOM     43  C   UNL A   1      36.909  31.579  31.186  1.00  0.00     0.040 A 
ATOM     44  C   UNL A   1      37.826  30.487  33.126  1.00  0.00     0.040 A 
ATOM     45  F   UNL A   1      39.937  29.474  33.014  1.00  0.00    -0.206 F 
ATOM     46  C   UNL A   1      36.800  31.214  32.527  1.00  0.00     0.006 A 
ENDBRANCH  25  39
BRANCH  26  47
ATOM     47  C   UNL A   1      47.270  27.482  25.856  1.00  0.00     0.057 A 
ATOM     48  C   UNL A   1      47.288  27.609  24.463  1.00  0.00     0.134 A 
ATOM     49  C   UNL A   1      48.399  26.905  26.456  1.00  0.00     0.134 A 
ATOM     50  F   UNL A   1      46.237  28.137  23.820  1.00  0.00    -0.206 F 
ATOM     51  C   UNL A   1      48.365  27.154  23.697  1.00  0.00     0.040 A 
ATOM     52  C   UNL A   1      49.498  26.479  25.707  1.00  0.00     0.040 A 
ATOM     53  F   UNL A   1      48.460  26.753  27.788  1.00  0.00    -0.206 F 
ATOM     54  C   UNL A   1      49.476  26.590  24.320  1.00  0.00     0.006 A 
ENDBRANCH  26  47
BRANCH  38  55
ATOM     55  C   UNL A   1      45.259  33.475  28.769  1.00  0.00     0.057 A 
ATOM     56  C   UNL A   1      45.037  34.468  27.807  1.00  0.00     0.134 A 
ATOM     57  C   UNL A   1      46.097  33.778  29.847  1.00  0.00     0.134 A 
ATOM     58  F   UNL A   1      44.259  34.222  26.743  1.00  0.00    -0.206 F 
ATOM     59  C   UNL A   1      45.646  35.716  27.907  1.00  0.00     0.040 A 
ATOM     60  C   UNL A   1      46.684  35.035  29.975  1.00  0.00     0.040 A 
ATOM     61  F   UNL A   1      46.339  32.867  30.802  1.00  0.00    -0.206 F 
ATOM     62  C   UNL A   1      46.464  36.005  28.999  1.00  0.00     0.006 A 
ENDBRANCH  38  55
ENDBRANCH  12  13
ENDBRANCH   5   7
ENDBRANCH   4   5
ENDBRANCH   3   4
ENDBRANCH   2   3
ENDBRANCH   1   2
BRANCH   1  63
ATOM     63  C   UNL A   1      32.856  21.819  25.747  1.00  0.00     0.202 C 
BRANCH  63  64
ATOM     64  C   UNL A   1      31.584  22.541  26.096  1.00  0.00     0.261 C 
BRANCH  64  65
ATOM     65  O   UNL A   1      31.939  23.922  26.217  1.00  0.00    -0.463 OA
BRANCH  65  66
ATOM     66  C   UNL A   1      30.913  24.812  26.246  1.00  0.00     0.312 C 
ATOM     67  O   UNL A   1      29.877  24.682  26.885  1.00  0.00    -0.252 OA
BRANCH  66  68
ATOM     68  C   UNL A   1      31.174  25.945  25.264  1.00  0.00     0.075 C 
ATOM     69  C   UNL A   1      32.671  26.139  24.888  1.00  0.00     0.040 C 
ATOM     70  C   UNL A   1      30.645  27.255  25.903  1.00  0.00     0.040 C 
ATOM     71  C   UNL A   1      33.585  26.852  25.874  1.00  0.00     0.119 C 
ATOM     72  C   UNL A   1      31.529  27.748  27.055  1.00  0.00     0.119 C 
ATOM     73  N   UNL A   1      32.883  27.894  26.575  1.00  0.00    -0.356 N 
BRANCH  68  74
ATOM     74  C   UNL A   1      30.325  25.566  23.988  1.00  0.00     0.056 C 
BRANCH  74  75
ATOM     75  C   UNL A   1      29.611  26.756  23.340  1.00  0.00    -0.028 A 
ATOM     76  C   UNL A   1      28.259  26.976  23.662  1.00  0.00     0.005 A 
ATOM     77  C   UNL A   1      30.280  27.757  22.611  1.00  0.00     0.044 A 
ATOM     78  C   UNL A   1      27.656  28.216  23.441  1.00  0.00     0.000 A 
ATOM     79  C   UNL A   1      29.673  29.002  22.391  1.00  0.00     0.021 A 
ATOM     80  Cl  UNL A   1      31.894  27.554  22.025  1.00  0.00    -0.084 Cl
ATOM     81  C   UNL A   1      28.377  29.242  22.842  1.00  0.00     0.002 A 
ENDBRANCH  74  75
ENDBRANCH  68  74
BRANCH  73  82
ATOM     82  C   UNL A   1      33.629  28.960  27.024  1.00  0.00     0.141 A 
ATOM     83  N   UNL A   1      34.882  28.798  27.507  1.00  0.00    -0.219 NA
ATOM     84  C   UNL A   1      33.073  30.246  27.023  1.00  0.00     0.061 A 
ATOM     85  C   UNL A   1      35.531  29.896  27.959  1.00  0.00     0.226 A 
ATOM     86  C   UNL A   1      33.842  31.269  27.541  1.00  0.00     0.142 A 
ATOM     87  C   UNL A   1      31.828  30.809  26.629  1.00  0.00     0.033 A 
ATOM     88  N   UNL A   1      35.090  31.169  28.022  1.00  0.00    -0.218 NA
ATOM     89  N   UNL A   1      33.093  32.414  27.498  1.00  0.00    -0.346 N 
ATOM     90  C   UNL A   1      31.865  32.149  26.942  1.00  0.00     0.085 A 
ATOM     91  H   UNL A   1      33.390  33.297  27.816  1.00  0.00     0.167 HD
ENDBRANCH  73  82
ENDBRANCH  66  68
ENDBRANCH  65  66
ENDBRANCH  64  65
ENDBRANCH  63  64
ENDBRANCH   1  63
TORSDOF 17
ENDMDL
