MODEL 1
REMARK VINA RESULT:     -11.3      0.000      0.000
REMARK SMILES CC[NH+]1CC[NH+]([C@@H]2CC(=O)N(c3ccc(C(=O)OCCOCCOC(=O)c4ccc(-c5c6nc(c(-c7c(F)cccc7F)c7ccc([nH]7)c(-c7c(F)cccc7F)c7nc(c(-c8c(F)cccc8F)c8ccc5[nH]8)C=C7)C=C6)cc4)cc3)C2=O)CC1
REMARK SMILES IDX 20 1 19 2 18 3 16 4 17 5 15 6 12 7 13 8 82 9 14 10 81 11
REMARK SMILES IDX 11 12 7 13 8 14 83 15 9 16 84 17 10 18 6 19 3 20 4 21 86 22
REMARK SMILES IDX 5 24 85 25 2 27 1 28 21 29 22 30 23 31 24 32 25 33 26 34
REMARK SMILES IDX 27 35 28 36 80 37 29 38 79 39 30 40 31 41 32 42 73 43 33 44
REMARK SMILES IDX 78 45 72 46 74 47 34 48 77 49 71 50 70 51 35 53 61 54 44 55
REMARK SMILES IDX 60 56 45 57 48 58 59 59 75 60 46 61 47 62 58 64 76 65 49 66
REMARK SMILES IDX 36 67 37 68 42 69 38 70 39 71 41 72 43 73 40 74 62 75 63 76
REMARK SMILES IDX 68 77 64 78 65 79 67 80 69 81 66 82 50 83 51 84 56 85 52 86
REMARK SMILES IDX 53 87 55 88 57 89 54 90
REMARK H PARENT 3 23 6 26 74 52 48 63
REMARK Flexibility Score: inf
ROOT
ATOM      1  C   UNL A   1      42.982  19.738  25.745  1.00  0.00     0.202 C 
ENDROOT
BRANCH   1   2
ATOM      2  C   UNL A   1      41.730  20.107  26.547  1.00  0.00     0.261 C 
BRANCH   2   3
ATOM      3  O   UNL A   1      40.952  21.107  25.873  1.00  0.00    -0.460 OA
BRANCH   3   4
ATOM      4  C   UNL A   1      40.129  21.822  26.676  1.00  0.00     0.338 C 
ATOM      5  O   UNL A   1      40.423  22.385  27.720  1.00  0.00    -0.246 OA
BRANCH   4   6
ATOM      6  C   UNL A   1      38.810  21.981  26.029  1.00  0.00     0.060 A 
ATOM      7  C   UNL A   1      36.226  22.345  24.979  1.00  0.00     0.052 A 
ATOM      8  C   UNL A   1      36.867  23.383  25.669  1.00  0.00     0.028 A 
ATOM      9  C   UNL A   1      36.936  21.152  24.755  1.00  0.00     0.028 A 
ATOM     10  C   UNL A   1      38.138  23.193  26.215  1.00  0.00     0.018 A 
ATOM     11  C   UNL A   1      38.229  20.973  25.259  1.00  0.00     0.018 A 
BRANCH   7  12
ATOM     12  N   UNL A   1      34.859  22.466  24.618  1.00  0.00    -0.245 N 
ATOM     13  C   UNL A   1      32.869  23.358  23.714  1.00  0.00     0.285 C 
ATOM     14  C   UNL A   1      32.526  22.332  24.782  1.00  0.00     0.176 C 
ATOM     15  C   UNL A   1      34.389  23.266  23.599  1.00  0.00     0.292 C 
ATOM     16  C   UNL A   1      33.841  21.874  25.324  1.00  0.00     0.240 C 
ATOM     17  O   UNL A   1      35.046  23.821  22.726  1.00  0.00    -0.267 OA
ATOM     18  O   UNL A   1      33.914  21.126  26.290  1.00  0.00    -0.274 OA
BRANCH  13  19
ATOM     19  N   UNL A   1      32.412  24.756  23.857  1.00  0.00    -0.315 N 
ATOM     20  N   UNL A   1      31.514  25.842  26.533  1.00  0.00    -0.326 N 
ATOM     21  C   UNL A   1      30.630  25.008  25.692  1.00  0.00     0.324 C 
ATOM     22  C   UNL A   1      32.929  25.611  26.184  1.00  0.00     0.324 C 
ATOM     23  H   UNL A   1      31.404  25.564  27.509  1.00  0.00     0.348 HD
ATOM     24  C   UNL A   1      30.986  24.923  24.183  1.00  0.00     0.325 C 
ATOM     25  C   UNL A   1      33.232  25.659  24.675  1.00  0.00     0.325 C 
ATOM     26  H   UNL A   1      32.554  25.064  22.895  1.00  0.00     0.349 HD
BRANCH  20  27
ATOM     27  C   UNL A   1      31.124  27.259  26.469  1.00  0.00     0.259 C 
ATOM     28  C   UNL A   1      31.775  28.099  27.566  1.00  0.00     0.071 C 
ENDBRANCH  20  27
ENDBRANCH  13  19
ENDBRANCH   7  12
ENDBRANCH   4   6
ENDBRANCH   3   4
ENDBRANCH   2   3
ENDBRANCH   1   2
BRANCH   1  29
ATOM     29  O   UNL A   1      44.096  20.622  25.857  1.00  0.00    -0.374 OA
BRANCH  29  30
ATOM     30  C   UNL A   1      44.632  21.160  24.647  1.00  0.00     0.202 C 
BRANCH  30  31
ATOM     31  C   UNL A   1      43.936  22.402  24.076  1.00  0.00     0.261 C 
BRANCH  31  32
ATOM     32  O   UNL A   1      43.490  23.294  25.112  1.00  0.00    -0.460 OA
BRANCH  32  33
ATOM     33  C   UNL A   1      44.254  24.396  25.292  1.00  0.00     0.338 C 
ATOM     34  O   UNL A   1      45.289  24.690  24.710  1.00  0.00    -0.246 OA
BRANCH  33  35
ATOM     35  C   UNL A   1      43.560  25.326  26.198  1.00  0.00     0.060 A 
ATOM     36  C   UNL A   1      43.874  26.690  26.111  1.00  0.00     0.016 A 
ATOM     37  C   UNL A   1      42.658  24.861  27.154  1.00  0.00     0.016 A 
ATOM     38  C   UNL A   1      43.310  27.594  27.008  1.00  0.00     0.010 A 
ATOM     39  C   UNL A   1      42.101  25.767  28.060  1.00  0.00     0.010 A 
ATOM     40  C   UNL A   1      42.447  27.130  28.009  1.00  0.00    -0.014 A 
BRANCH  40  41
ATOM     41  C   UNL A   1      41.997  28.029  29.096  1.00  0.00     0.031 A 
ATOM     42  C   UNL A   1      42.726  27.995  30.408  1.00  0.00     0.074 A 
ATOM     43  C   UNL A   1      40.924  28.819  28.936  1.00  0.00     0.049 A 
ATOM     44  N   UNL A   1      42.415  28.558  31.546  1.00  0.00    -0.248 NA
ATOM     45  C   UNL A   1      43.967  27.206  30.441  1.00  0.00     0.031 C 
ATOM     46  C   UNL A   1      40.156  28.960  27.700  1.00  0.00     0.029 A 
ATOM     47  N   UNL A   1      40.273  29.625  29.836  1.00  0.00    -0.354 N 
ATOM     48  C   UNL A   1      43.404  28.166  32.440  1.00  0.00     0.074 A 
ATOM     49  C   UNL A   1      44.315  27.306  31.715  1.00  0.00     0.031 C 
ATOM     50  C   UNL A   1      39.112  29.774  27.930  1.00  0.00     0.029 A 
ATOM     51  C   UNL A   1      39.118  30.173  29.336  1.00  0.00     0.049 A 
ATOM     52  H   UNL A   1      40.601  29.793  30.748  1.00  0.00     0.167 HD
ATOM     53  C   UNL A   1      43.535  28.492  33.747  1.00  0.00     0.037 A 
ATOM     54  C   UNL A   1      38.152  30.879  29.955  1.00  0.00     0.037 A 
ATOM     55  C   UNL A   1      42.625  29.351  34.458  1.00  0.00     0.049 A 
ATOM     56  C   UNL A   1      38.287  31.191  31.422  1.00  0.00     0.074 A 
ATOM     57  C   UNL A   1      42.691  29.781  35.771  1.00  0.00     0.029 A 
ATOM     58  N   UNL A   1      41.472  29.899  33.914  1.00  0.00    -0.354 N 
ATOM     59  N   UNL A   1      39.239  30.845  32.255  1.00  0.00    -0.248 NA
ATOM     60  C   UNL A   1      37.216  31.991  32.033  1.00  0.00     0.031 C 
ATOM     61  C   UNL A   1      41.548  30.541  36.039  1.00  0.00     0.029 A 
ATOM     62  C   UNL A   1      40.800  30.637  34.876  1.00  0.00     0.049 A 
ATOM     63  H   UNL A   1      41.174  29.781  32.983  1.00  0.00     0.167 HD
ATOM     64  C   UNL A   1      38.899  31.408  33.479  1.00  0.00     0.074 A 
ATOM     65  C   UNL A   1      37.654  32.120  33.278  1.00  0.00     0.031 C 
ATOM     66  C   UNL A   1      39.564  31.348  34.660  1.00  0.00     0.037 A 
BRANCH  53  67
ATOM     67  C   UNL A   1      44.678  27.875  34.500  1.00  0.00     0.057 A 
ATOM     68  C   UNL A   1      45.952  28.454  34.532  1.00  0.00     0.134 A 
ATOM     69  C   UNL A   1      44.495  26.679  35.209  1.00  0.00     0.134 A 
ATOM     70  F   UNL A   1      46.201  29.591  33.865  1.00  0.00    -0.206 F 
ATOM     71  C   UNL A   1      47.013  27.849  35.211  1.00  0.00     0.040 A 
ATOM     72  C   UNL A   1      45.538  26.081  35.916  1.00  0.00     0.040 A 
ATOM     73  F   UNL A   1      43.298  26.073  35.225  1.00  0.00    -0.206 F 
ATOM     74  C   UNL A   1      46.805  26.660  35.910  1.00  0.00     0.006 A 
ENDBRANCH  53  67
BRANCH  54  75
ATOM     75  C   UNL A   1      36.960  31.313  29.186  1.00  0.00     0.057 A 
ATOM     76  C   UNL A   1      36.837  32.626  28.718  1.00  0.00     0.134 A 
ATOM     77  C   UNL A   1      35.928  30.417  28.876  1.00  0.00     0.134 A 
ATOM     78  F   UNL A   1      37.782  33.534  29.001  1.00  0.00    -0.206 F 
ATOM     79  C   UNL A   1      35.729  33.034  27.972  1.00  0.00     0.040 A 
ATOM     80  C   UNL A   1      34.828  30.805  28.112  1.00  0.00     0.040 A 
ATOM     81  F   UNL A   1      35.991  29.143  29.292  1.00  0.00    -0.206 F 
ATOM     82  C   UNL A   1      34.725  32.119  27.660  1.00  0.00     0.006 A 
ENDBRANCH  54  75
BRANCH  66  83
ATOM     83  C   UNL A   1      38.990  32.106  35.821  1.00  0.00     0.057 A 
ATOM     84  C   UNL A   1      38.175  31.493  36.781  1.00  0.00     0.134 A 
ATOM     85  C   UNL A   1      39.316  33.455  36.017  1.00  0.00     0.134 A 
ATOM     86  F   UNL A   1      37.816  30.207  36.648  1.00  0.00    -0.206 F 
ATOM     87  C   UNL A   1      37.695  32.198  37.887  1.00  0.00     0.040 A 
ATOM     88  C   UNL A   1      38.864  34.163  37.131  1.00  0.00     0.040 A 
ATOM     89  F   UNL A   1      40.100  34.100  35.139  1.00  0.00    -0.206 F 
ATOM     90  C   UNL A   1      38.049  33.535  38.068  1.00  0.00     0.006 A 
ENDBRANCH  66  83
ENDBRANCH  40  41
ENDBRANCH  33  35
ENDBRANCH  32  33
ENDBRANCH  31  32
ENDBRANCH  30  31
ENDBRANCH  29  30
ENDBRANCH   1  29
TORSDOF 17
ENDMDL
MODEL 2
REMARK VINA RESULT:     -11.1      4.770     10.101
REMARK SMILES CC[NH+]1CC[NH+]([C@@H]2CC(=O)N(c3ccc(C(=O)OCCOCCOC(=O)c4ccc(-c5c6nc(c(-c7c(F)cccc7F)c7ccc([nH]7)c(-c7c(F)cccc7F)c7nc(c(-c8c(F)cccc8F)c8ccc5[nH]8)C=C7)C=C6)cc4)cc3)C2=O)CC1
REMARK SMILES IDX 20 1 19 2 18 3 16 4 17 5 15 6 12 7 13 8 82 9 14 10 81 11
REMARK SMILES IDX 11 12 7 13 8 14 83 15 9 16 84 17 10 18 6 19 3 20 4 21 86 22
REMARK SMILES IDX 5 24 85 25 2 27 1 28 21 29 22 30 23 31 24 32 25 33 26 34
REMARK SMILES IDX 27 35 28 36 80 37 29 38 79 39 30 40 31 41 32 42 73 43 33 44
REMARK SMILES IDX 78 45 72 46 74 47 34 48 77 49 71 50 70 51 35 53 61 54 44 55
REMARK SMILES IDX 60 56 45 57 48 58 59 59 75 60 46 61 47 62 58 64 76 65 49 66
REMARK SMILES IDX 36 67 37 68 42 69 38 70 39 71 41 72 43 73 40 74 62 75 63 76
REMARK SMILES IDX 68 77 64 78 65 79 67 80 69 81 66 82 50 83 51 84 56 85 52 86
REMARK SMILES IDX 53 87 55 88 57 89 54 90
REMARK H PARENT 3 23 6 26 74 52 48 63
REMARK Flexibility Score: inf
ROOT
ATOM      1  C   UNL A   1      34.189  34.854  28.339  1.00  0.00     0.202 C 
ENDROOT
BRANCH   1   2
ATOM      2  C   UNL A   1      33.115  33.780  28.133  1.00  0.00     0.261 C 
BRANCH   2   3
ATOM      3  O   UNL A   1      33.579  32.737  27.263  1.00  0.00    -0.460 OA
BRANCH   3   4
ATOM      4  C   UNL A   1      33.974  31.606  27.894  1.00  0.00     0.338 C 
ATOM      5  O   UNL A   1      34.447  31.515  29.017  1.00  0.00    -0.246 OA
BRANCH   4   6
ATOM      6  C   UNL A   1      33.597  30.425  27.090  1.00  0.00     0.060 A 
ATOM      7  C   UNL A   1      32.705  28.170  25.666  1.00  0.00     0.052 A 
ATOM      8  C   UNL A   1      31.907  29.319  25.752  1.00  0.00     0.028 A 
ATOM      9  C   UNL A   1      33.989  28.202  26.237  1.00  0.00     0.028 A 
ATOM     10  C   UNL A   1      32.338  30.428  26.483  1.00  0.00     0.018 A 
ATOM     11  C   UNL A   1      34.445  29.328  26.930  1.00  0.00     0.018 A 
BRANCH   7  12
ATOM     12  N   UNL A   1      32.176  26.975  25.111  1.00  0.00    -0.245 N 
ATOM     13  C   UNL A   1      31.393  24.754  24.952  1.00  0.00     0.285 C 
ATOM     14  C   UNL A   1      31.804  25.246  23.574  1.00  0.00     0.176 C 
ATOM     15  C   UNL A   1      31.547  25.987  25.838  1.00  0.00     0.292 C 
ATOM     16  C   UNL A   1      32.332  26.628  23.792  1.00  0.00     0.240 C 
ATOM     17  O   UNL A   1      31.158  26.052  26.998  1.00  0.00    -0.267 OA
ATOM     18  O   UNL A   1      32.860  27.265  22.891  1.00  0.00    -0.274 OA
BRANCH  13  19
ATOM     19  N   UNL A   1      32.048  23.568  25.541  1.00  0.00    -0.315 N 
ATOM     20  N   UNL A   1      34.320  22.169  24.116  1.00  0.00    -0.326 N 
ATOM     21  C   UNL A   1      32.907  21.945  23.742  1.00  0.00     0.324 C 
ATOM     22  C   UNL A   1      34.472  23.458  24.815  1.00  0.00     0.324 C 
ATOM     23  H   UNL A   1      34.883  22.227  23.268  1.00  0.00     0.348 HD
ATOM     24  C   UNL A   1      31.841  22.306  24.811  1.00  0.00     0.325 C 
ATOM     25  C   UNL A   1      33.454  23.699  25.946  1.00  0.00     0.325 C 
ATOM     26  H   UNL A   1      31.522  23.518  26.413  1.00  0.00     0.349 HD
BRANCH  20  27
ATOM     27  C   UNL A   1      34.851  21.029  24.879  1.00  0.00     0.259 C 
ATOM     28  C   UNL A   1      36.280  21.262  25.367  1.00  0.00     0.071 C 
ENDBRANCH  20  27
ENDBRANCH  13  19
ENDBRANCH   7  12
ENDBRANCH   4   6
ENDBRANCH   3   4
ENDBRANCH   2   3
ENDBRANCH   1   2
BRANCH   1  29
ATOM     29  O   UNL A   1      34.054  35.678  29.495  1.00  0.00    -0.374 OA
BRANCH  29  30
ATOM     30  C   UNL A   1      33.568  35.062  30.690  1.00  0.00     0.202 C 
BRANCH  30  31
ATOM     31  C   UNL A   1      34.620  34.622  31.716  1.00  0.00     0.261 C 
BRANCH  31  32
ATOM     32  O   UNL A   1      35.472  33.582  31.204  1.00  0.00    -0.460 OA
BRANCH  32  33
ATOM     33  C   UNL A   1      36.010  32.766  32.138  1.00  0.00     0.338 C 
ATOM     34  O   UNL A   1      35.614  32.574  33.280  1.00  0.00    -0.246 OA
BRANCH  33  35
ATOM     35  C   UNL A   1      37.085  31.967  31.525  1.00  0.00     0.060 A 
ATOM     36  C   UNL A   1      37.885  31.181  32.366  1.00  0.00     0.016 A 
ATOM     37  C   UNL A   1      37.339  32.033  30.156  1.00  0.00     0.016 A 
ATOM     38  C   UNL A   1      38.969  30.480  31.843  1.00  0.00     0.010 A 
ATOM     39  C   UNL A   1      38.432  31.339  29.634  1.00  0.00     0.010 A 
ATOM     40  C   UNL A   1      39.268  30.584  30.479  1.00  0.00    -0.014 A 
BRANCH  40  41
ATOM     41  C   UNL A   1      40.524  30.022  29.935  1.00  0.00     0.031 A 
ATOM     42  C   UNL A   1      41.689  30.942  29.711  1.00  0.00     0.074 A 
ATOM     43  C   UNL A   1      40.608  28.726  29.594  1.00  0.00     0.049 A 
ATOM     44  N   UNL A   1      42.820  30.717  29.094  1.00  0.00    -0.248 NA
ATOM     45  C   UNL A   1      41.550  32.307  30.242  1.00  0.00     0.031 C 
ATOM     46  C   UNL A   1      39.556  27.731  29.794  1.00  0.00     0.029 A 
ATOM     47  N   UNL A   1      41.616  28.035  28.971  1.00  0.00    -0.354 N 
ATOM     48  C   UNL A   1      43.515  31.919  29.135  1.00  0.00     0.074 A 
ATOM     49  C   UNL A   1      42.672  32.873  29.824  1.00  0.00     0.031 C 
ATOM     50  C   UNL A   1      39.959  26.563  29.267  1.00  0.00     0.029 A 
ATOM     51  C   UNL A   1      41.275  26.743  28.658  1.00  0.00     0.049 A 
ATOM     52  H   UNL A   1      42.496  28.427  28.769  1.00  0.00     0.167 HD
ATOM     53  C   UNL A   1      44.743  32.199  28.639  1.00  0.00     0.037 A 
ATOM     54  C   UNL A   1      41.933  25.824  27.924  1.00  0.00     0.037 A 
ATOM     55  C   UNL A   1      45.574  31.241  27.959  1.00  0.00     0.049 A 
ATOM     56  C   UNL A   1      43.275  26.167  27.337  1.00  0.00     0.074 A 
ATOM     57  C   UNL A   1      46.853  31.410  27.459  1.00  0.00     0.029 A 
ATOM     58  N   UNL A   1      45.201  29.936  27.673  1.00  0.00    -0.354 N 
ATOM     59  N   UNL A   1      43.942  27.295  27.405  1.00  0.00    -0.248 NA
ATOM     60  C   UNL A   1      43.956  25.112  26.573  1.00  0.00     0.031 C 
ATOM     61  C   UNL A   1      47.229  30.226  26.817  1.00  0.00     0.029 A 
ATOM     62  C   UNL A   1      46.212  29.298  26.972  1.00  0.00     0.049 A 
ATOM     63  H   UNL A   1      44.343  29.524  27.928  1.00  0.00     0.167 HD
ATOM     64  C   UNL A   1      45.132  27.077  26.720  1.00  0.00     0.074 A 
ATOM     65  C   UNL A   1      45.095  25.709  26.247  1.00  0.00     0.031 C 
ATOM     66  C   UNL A   1      46.164  27.932  26.512  1.00  0.00     0.037 A 
BRANCH  53  67
ATOM     67  C   UNL A   1      45.234  33.612  28.773  1.00  0.00     0.057 A 
ATOM     68  C   UNL A   1      44.985  34.586  27.799  1.00  0.00     0.134 A 
ATOM     69  C   UNL A   1      45.967  34.001  29.902  1.00  0.00     0.134 A 
ATOM     70  F   UNL A   1      44.302  34.277  26.686  1.00  0.00    -0.206 F 
ATOM     71  C   UNL A   1      45.477  35.887  27.924  1.00  0.00     0.040 A 
ATOM     72  C   UNL A   1      46.437  35.307  30.054  1.00  0.00     0.040 A 
ATOM     73  F   UNL A   1      46.236  33.120  30.878  1.00  0.00    -0.206 F 
ATOM     74  C   UNL A   1      46.202  36.251  29.058  1.00  0.00     0.006 A 
ENDBRANCH  53  67
BRANCH  54  75
ATOM     75  C   UNL A   1      41.308  24.499  27.687  1.00  0.00     0.057 A 
ATOM     76  C   UNL A   1      40.325  24.326  26.706  1.00  0.00     0.134 A 
ATOM     77  C   UNL A   1      41.698  23.369  28.417  1.00  0.00     0.134 A 
ATOM     78  F   UNL A   1      39.895  25.375  25.990  1.00  0.00    -0.206 F 
ATOM     79  C   UNL A   1      39.751  23.077  26.461  1.00  0.00     0.040 A 
ATOM     80  C   UNL A   1      41.150  22.111  28.166  1.00  0.00     0.040 A 
ATOM     81  F   UNL A   1      42.638  23.470  29.368  1.00  0.00    -0.206 F 
ATOM     82  C   UNL A   1      40.170  21.964  27.187  1.00  0.00     0.006 A 
ENDBRANCH  54  75
BRANCH  66  83
ATOM     83  C   UNL A   1      47.364  27.407  25.778  1.00  0.00     0.057 A 
ATOM     84  C   UNL A   1      48.422  26.770  26.438  1.00  0.00     0.134 A 
ATOM     85  C   UNL A   1      47.427  27.482  24.380  1.00  0.00     0.134 A 
ATOM     86  F   UNL A   1      48.429  26.674  27.777  1.00  0.00    -0.206 F 
ATOM     87  C   UNL A   1      49.504  26.236  25.736  1.00  0.00     0.040 A 
ATOM     88  C   UNL A   1      48.490  26.930  23.665  1.00  0.00     0.040 A 
ATOM     89  F   UNL A   1      46.442  28.072  23.685  1.00  0.00    -0.206 F 
ATOM     90  C   UNL A   1      49.534  26.307  24.343  1.00  0.00     0.006 A 
ENDBRANCH  66  83
ENDBRANCH  40  41
ENDBRANCH  33  35
ENDBRANCH  32  33
ENDBRANCH  31  32
ENDBRANCH  30  31
ENDBRANCH  29  30
ENDBRANCH   1  29
TORSDOF 17
ENDMDL
MODEL 3
REMARK VINA RESULT:     -11.0      0.799      6.097
REMARK SMILES CC[NH+]1CC[NH+]([C@@H]2CC(=O)N(c3ccc(C(=O)OCCOCCOC(=O)c4ccc(-c5c6nc(c(-c7c(F)cccc7F)c7ccc([nH]7)c(-c7c(F)cccc7F)c7nc(c(-c8c(F)cccc8F)c8ccc5[nH]8)C=C7)C=C6)cc4)cc3)C2=O)CC1
REMARK SMILES IDX 20 1 19 2 18 3 16 4 17 5 15 6 12 7 13 8 82 9 14 10 81 11
REMARK SMILES IDX 11 12 7 13 8 14 83 15 9 16 84 17 10 18 6 19 3 20 4 21 86 22
REMARK SMILES IDX 5 24 85 25 2 27 1 28 21 29 22 30 23 31 24 32 25 33 26 34
REMARK SMILES IDX 27 35 28 36 80 37 29 38 79 39 30 40 31 41 32 42 73 43 33 44
REMARK SMILES IDX 78 45 72 46 74 47 34 48 77 49 71 50 70 51 35 53 61 54 44 55
REMARK SMILES IDX 60 56 45 57 48 58 59 59 75 60 46 61 47 62 58 64 76 65 49 66
REMARK SMILES IDX 36 67 37 68 42 69 38 70 39 71 41 72 43 73 40 74 62 75 63 76
REMARK SMILES IDX 68 77 64 78 65 79 67 80 69 81 66 82 50 83 51 84 56 85 52 86
REMARK SMILES IDX 53 87 55 88 57 89 54 90
REMARK H PARENT 3 23 6 26 74 52 48 63
REMARK Flexibility Score: inf
ROOT
ATOM      1  C   UNL A   1      42.309  20.463  26.373  1.00  0.00     0.202 C 
ENDROOT
BRANCH   1   2
ATOM      2  C   UNL A   1      40.936  20.096  25.801  1.00  0.00     0.261 C 
BRANCH   2   3
ATOM      3  O   UNL A   1      39.874  20.660  26.584  1.00  0.00    -0.460 OA
BRANCH   3   4
ATOM      4  C   UNL A   1      39.650  21.978  26.370  1.00  0.00     0.338 C 
ATOM      5  O   UNL A   1      40.455  22.890  26.477  1.00  0.00    -0.246 OA
BRANCH   4   6
ATOM      6  C   UNL A   1      38.296  22.172  25.809  1.00  0.00     0.060 A 
ATOM      7  C   UNL A   1      35.671  22.639  24.916  1.00  0.00     0.052 A 
ATOM      8  C   UNL A   1      36.471  23.701  25.361  1.00  0.00     0.028 A 
ATOM      9  C   UNL A   1      36.238  21.356  24.850  1.00  0.00     0.028 A 
ATOM     10  C   UNL A   1      37.764  23.465  25.831  1.00  0.00     0.018 A 
ATOM     11  C   UNL A   1      37.550  21.121  25.276  1.00  0.00     0.018 A 
BRANCH   7  12
ATOM     12  N   UNL A   1      34.293  22.850  24.646  1.00  0.00    -0.245 N 
ATOM     13  C   UNL A   1      32.327  23.661  23.624  1.00  0.00     0.285 C 
ATOM     14  C   UNL A   1      32.009  23.195  25.035  1.00  0.00     0.176 C 
ATOM     15  C   UNL A   1      33.790  23.270  23.434  1.00  0.00     0.292 C 
ATOM     16  C   UNL A   1      33.318  22.757  25.608  1.00  0.00     0.240 C 
ATOM     17  O   UNL A   1      34.383  23.328  22.363  1.00  0.00    -0.267 OA
ATOM     18  O   UNL A   1      33.431  22.433  26.783  1.00  0.00    -0.274 OA
BRANCH  13  19
ATOM     19  N   UNL A   1      32.078  25.065  23.235  1.00  0.00    -0.315 N 
ATOM     20  N   UNL A   1      31.273  27.137  25.285  1.00  0.00    -0.326 N 
ATOM     21  C   UNL A   1      30.300  26.179  24.719  1.00  0.00     0.324 C 
ATOM     22  C   UNL A   1      32.647  26.619  25.152  1.00  0.00     0.324 C 
ATOM     23  H   UNL A   1      31.095  27.241  26.284  1.00  0.00     0.348 HD
ATOM     24  C   UNL A   1      30.683  25.518  23.368  1.00  0.00     0.325 C 
ATOM     25  C   UNL A   1      32.998  26.087  23.749  1.00  0.00     0.325 C 
ATOM     26  H   UNL A   1      32.291  24.989  22.240  1.00  0.00     0.349 HD
BRANCH  20  27
ATOM     27  C   UNL A   1      31.099  28.476  24.701  1.00  0.00     0.259 C 
ATOM     28  C   UNL A   1      31.975  29.531  25.374  1.00  0.00     0.071 C 
ENDBRANCH  20  27
ENDBRANCH  13  19
ENDBRANCH   7  12
ENDBRANCH   4   6
ENDBRANCH   3   4
ENDBRANCH   2   3
ENDBRANCH   1   2
BRANCH   1  29
ATOM     29  O   UNL A   1      43.337  20.756  25.429  1.00  0.00    -0.374 OA
BRANCH  29  30
ATOM     30  C   UNL A   1      44.095  21.951  25.631  1.00  0.00     0.202 C 
BRANCH  30  31
ATOM     31  C   UNL A   1      44.233  22.892  24.428  1.00  0.00     0.261 C 
BRANCH  31  32
ATOM     32  O   UNL A   1      43.565  24.148  24.647  1.00  0.00    -0.460 OA
BRANCH  32  33
ATOM     33  C   UNL A   1      44.335  25.126  25.176  1.00  0.00     0.338 C 
ATOM     34  O   UNL A   1      45.430  25.507  24.786  1.00  0.00    -0.246 OA
BRANCH  33  35
ATOM     35  C   UNL A   1      43.578  25.825  26.227  1.00  0.00     0.060 A 
ATOM     36  C   UNL A   1      43.905  27.161  26.498  1.00  0.00     0.016 A 
ATOM     37  C   UNL A   1      42.603  25.165  26.973  1.00  0.00     0.016 A 
ATOM     38  C   UNL A   1      43.279  27.835  27.544  1.00  0.00     0.010 A 
ATOM     39  C   UNL A   1      41.983  25.837  28.028  1.00  0.00     0.010 A 
ATOM     40  C   UNL A   1      42.339  27.164  28.336  1.00  0.00    -0.014 A 
BRANCH  40  41
ATOM     41  C   UNL A   1      41.812  27.783  29.573  1.00  0.00     0.031 A 
ATOM     42  C   UNL A   1      40.578  28.634  29.485  1.00  0.00     0.074 A 
ATOM     43  C   UNL A   1      42.453  27.636  30.743  1.00  0.00     0.049 A 
ATOM     44  N   UNL A   1      40.035  29.407  30.389  1.00  0.00    -0.248 NA
ATOM     45  C   UNL A   1      39.871  28.621  28.195  1.00  0.00     0.031 C 
ATOM     46  C   UNL A   1      43.639  26.810  30.958  1.00  0.00     0.029 A 
ATOM     47  N   UNL A   1      42.213  28.211  31.966  1.00  0.00    -0.354 N 
ATOM     48  C   UNL A   1      38.941  29.997  29.768  1.00  0.00     0.074 A 
ATOM     49  C   UNL A   1      38.907  29.504  28.408  1.00  0.00     0.031 C 
ATOM     50  C   UNL A   1      44.049  26.962  32.228  1.00  0.00     0.029 A 
ATOM     51  C   UNL A   1      43.178  27.927  32.899  1.00  0.00     0.049 A 
ATOM     52  H   UNL A   1      41.427  28.773  32.154  1.00  0.00     0.167 HD
ATOM     53  C   UNL A   1      38.050  30.873  30.288  1.00  0.00     0.037 A 
ATOM     54  C   UNL A   1      43.364  28.423  34.137  1.00  0.00     0.037 A 
ATOM     55  C   UNL A   1      38.091  31.354  31.644  1.00  0.00     0.049 A 
ATOM     56  C   UNL A   1      42.392  29.435  34.683  1.00  0.00     0.074 A 
ATOM     57  C   UNL A   1      37.210  32.208  32.284  1.00  0.00     0.029 A 
ATOM     58  N   UNL A   1      39.077  31.032  32.565  1.00  0.00    -0.354 N 
ATOM     59  N   UNL A   1      41.342  29.966  34.104  1.00  0.00    -0.248 NA
ATOM     60  C   UNL A   1      42.630  29.914  36.051  1.00  0.00     0.031 C 
ATOM     61  C   UNL A   1      37.696  32.449  33.573  1.00  0.00     0.029 A 
ATOM     62  C   UNL A   1      38.845  31.697  33.759  1.00  0.00     0.049 A 
ATOM     63  H   UNL A   1      39.832  30.422  32.397  1.00  0.00     0.167 HD
ATOM     64  C   UNL A   1      40.777  30.819  35.045  1.00  0.00     0.074 A 
ATOM     65  C   UNL A   1      41.601  30.731  36.233  1.00  0.00     0.031 C 
ATOM     66  C   UNL A   1      39.670  31.595  34.937  1.00  0.00     0.037 A 
BRANCH  53  67
ATOM     67  C   UNL A   1      36.987  31.402  29.368  1.00  0.00     0.057 A 
ATOM     68  C   UNL A   1      37.040  32.693  28.829  1.00  0.00     0.134 A 
ATOM     69  C   UNL A   1      35.894  30.600  29.016  1.00  0.00     0.134 A 
ATOM     70  F   UNL A   1      38.052  33.519  29.136  1.00  0.00    -0.206 F 
ATOM     71  C   UNL A   1      36.027  33.181  28.001  1.00  0.00     0.040 A 
ATOM     72  C   UNL A   1      34.891  31.065  28.164  1.00  0.00     0.040 A 
ATOM     73  F   UNL A   1      35.783  29.351  29.492  1.00  0.00    -0.206 F 
ATOM     74  C   UNL A   1      34.950  32.363  27.663  1.00  0.00     0.006 A 
ENDBRANCH  53  67
BRANCH  54  75
ATOM     75  C   UNL A   1      44.538  27.982  34.930  1.00  0.00     0.057 A 
ATOM     76  C   UNL A   1      44.467  26.865  35.771  1.00  0.00     0.134 A 
ATOM     77  C   UNL A   1      45.766  28.650  34.845  1.00  0.00     0.134 A 
ATOM     78  F   UNL A   1      43.313  26.198  35.910  1.00  0.00    -0.206 F 
ATOM     79  C   UNL A   1      45.576  26.431  36.500  1.00  0.00     0.040 A 
ATOM     80  C   UNL A   1      46.887  28.213  35.550  1.00  0.00     0.040 A 
ATOM     81  F   UNL A   1      45.897  29.725  34.053  1.00  0.00    -0.206 F 
ATOM     82  C   UNL A   1      46.793  27.101  36.384  1.00  0.00     0.006 A 
ENDBRANCH  54  75
BRANCH  66  83
ATOM     83  C   UNL A   1      39.252  32.383  36.145  1.00  0.00     0.057 A 
ATOM     84  C   UNL A   1      39.741  33.669  36.402  1.00  0.00     0.134 A 
ATOM     85  C   UNL A   1      38.290  31.869  37.026  1.00  0.00     0.134 A 
ATOM     86  F   UNL A   1      40.672  34.215  35.603  1.00  0.00    -0.206 F 
ATOM     87  C   UNL A   1      39.300  34.411  37.499  1.00  0.00     0.040 A 
ATOM     88  C   UNL A   1      37.822  32.611  38.111  1.00  0.00     0.040 A 
ATOM     89  F   UNL A   1      37.774  30.646  36.832  1.00  0.00    -0.206 F 
ATOM     90  C   UNL A   1      38.329  33.885  38.351  1.00  0.00     0.006 A 
ENDBRANCH  66  83
ENDBRANCH  40  41
ENDBRANCH  33  35
ENDBRANCH  32  33
ENDBRANCH  31  32
ENDBRANCH  30  31
ENDBRANCH  29  30
ENDBRANCH   1  29
TORSDOF 17
ENDMDL
