MODEL 1
REMARK VINA RESULT:     -10.6      0.000      0.000
REMARK SMILES O=C(OCCOCCOC(=O)c1sccc1NS(=O)(=O)N1CCCC1)c1ccc(-c2c3nc(c(-c4c(F)cccc4F)c4ccc([nH]4)c(-c4c(F)cccc4F)c4nc(c(-c5c(F)cccc5F)c5ccc2[nH]5)C=C4)C=C3)cc1
REMARK SMILES IDX 7 1 6 2 5 3 4 4 3 5 2 6 1 7 26 8 27 9 79 10 28 11 78 12
REMARK SMILES IDX 29 13 30 14 31 15 72 16 32 17 77 18 71 19 73 20 33 21 76 22
REMARK SMILES IDX 70 23 69 24 34 26 60 27 43 28 59 29 44 30 47 31 58 32 74 33
REMARK SMILES IDX 45 34 46 35 57 37 75 38 48 39 35 40 36 41 41 42 37 43 38 44
REMARK SMILES IDX 40 45 42 46 39 47 61 48 62 49 67 50 63 51 64 52 66 53 68 54
REMARK SMILES IDX 65 55 49 56 50 57 55 58 51 59 52 60 54 61 56 62 53 63 8 64
REMARK SMILES IDX 9 65 10 66 11 67 12 68 13 69 16 70 14 71 15 72 17 73 18 75
REMARK SMILES IDX 19 76 20 77 21 78 22 79 25 80 23 81 24 82
REMARK H PARENT 73 25 47 36 17 74
REMARK Flexibility Score: inf
ROOT
ATOM      1  C   UNL A   1      32.975  30.060  26.766  1.00  0.00     0.202 C 
ENDROOT
BRANCH   1   2
ATOM      2  O   UNL A   1      31.631  30.497  26.532  1.00  0.00    -0.374 OA
BRANCH   2   3
ATOM      3  C   UNL A   1      31.404  31.904  26.623  1.00  0.00     0.202 C 
BRANCH   3   4
ATOM      4  C   UNL A   1      32.641  32.711  27.025  1.00  0.00     0.261 C 
BRANCH   4   5
ATOM      5  O   UNL A   1      32.244  33.954  27.630  1.00  0.00    -0.460 OA
BRANCH   5   6
ATOM      6  C   UNL A   1      32.910  34.695  28.545  1.00  0.00     0.338 C 
ATOM      7  O   UNL A   1      32.544  35.853  28.739  1.00  0.00    -0.246 OA
BRANCH   6   8
ATOM      8  C   UNL A   1      34.092  34.202  29.317  1.00  0.00     0.060 A 
ATOM      9  C   UNL A   1      34.027  33.398  30.458  1.00  0.00     0.016 A 
ATOM     10  C   UNL A   1      35.361  34.471  28.775  1.00  0.00     0.016 A 
ATOM     11  C   UNL A   1      35.171  32.897  31.063  1.00  0.00     0.010 A 
ATOM     12  C   UNL A   1      36.517  33.938  29.353  1.00  0.00     0.010 A 
ATOM     13  C   UNL A   1      36.420  33.144  30.500  1.00  0.00    -0.014 A 
BRANCH  13  14
ATOM     14  C   UNL A   1      37.609  32.561  31.141  1.00  0.00     0.031 A 
ATOM     15  C   UNL A   1      38.304  31.419  30.474  1.00  0.00     0.074 A 
ATOM     16  C   UNL A   1      38.080  33.116  32.272  1.00  0.00     0.049 A 
ATOM     17  N   UNL A   1      39.308  30.704  30.900  1.00  0.00    -0.248 NA
ATOM     18  C   UNL A   1      37.806  31.036  29.141  1.00  0.00     0.031 C 
ATOM     19  C   UNL A   1      37.512  34.297  32.931  1.00  0.00     0.029 A 
ATOM     20  N   UNL A   1      39.141  32.771  33.065  1.00  0.00    -0.354 N 
ATOM     21  C   UNL A   1      39.545  29.767  29.905  1.00  0.00     0.074 A 
ATOM     22  C   UNL A   1      38.589  30.008  28.847  1.00  0.00     0.031 C 
ATOM     23  C   UNL A   1      38.233  34.575  34.029  1.00  0.00     0.029 A 
ATOM     24  C   UNL A   1      39.264  33.556  34.186  1.00  0.00     0.049 A 
ATOM     25  H   UNL A   1      39.756  32.032  32.853  1.00  0.00     0.167 HD
ATOM     26  C   UNL A   1      40.474  28.785  29.897  1.00  0.00     0.037 A 
ATOM     27  C   UNL A   1      40.088  33.426  35.242  1.00  0.00     0.037 A 
ATOM     28  C   UNL A   1      41.414  28.578  30.964  1.00  0.00     0.049 A 
ATOM     29  C   UNL A   1      41.051  32.269  35.245  1.00  0.00     0.074 A 
ATOM     30  C   UNL A   1      42.398  27.614  31.076  1.00  0.00     0.029 A 
ATOM     31  N   UNL A   1      41.477  29.357  32.112  1.00  0.00    -0.354 N 
ATOM     32  N   UNL A   1      41.263  31.371  34.311  1.00  0.00    -0.248 NA
ATOM     33  C   UNL A   1      41.868  32.087  36.450  1.00  0.00     0.031 C 
ATOM     34  C   UNL A   1      43.022  27.778  32.317  1.00  0.00     0.029 A 
ATOM     35  C   UNL A   1      42.456  28.869  32.958  1.00  0.00     0.049 A 
ATOM     36  H   UNL A   1      40.909  30.140  32.296  1.00  0.00     0.167 HD
ATOM     37  C   UNL A   1      42.236  30.521  34.814  1.00  0.00     0.074 A 
ATOM     38  C   UNL A   1      42.594  31.027  36.123  1.00  0.00     0.031 C 
ATOM     39  C   UNL A   1      42.779  29.412  34.255  1.00  0.00     0.037 A 
BRANCH  26  40
ATOM     40  C   UNL A   1      40.460  27.830  28.744  1.00  0.00     0.057 A 
ATOM     41  C   UNL A   1      41.222  28.038  27.588  1.00  0.00     0.134 A 
ATOM     42  C   UNL A   1      39.665  26.678  28.797  1.00  0.00     0.134 A 
ATOM     43  F   UNL A   1      41.984  29.135  27.465  1.00  0.00    -0.206 F 
ATOM     44  C   UNL A   1      41.184  27.138  26.520  1.00  0.00     0.040 A 
ATOM     45  C   UNL A   1      39.633  25.763  27.744  1.00  0.00     0.040 A 
ATOM     46  F   UNL A   1      38.904  26.425  29.872  1.00  0.00    -0.206 F 
ATOM     47  C   UNL A   1      40.392  25.994  26.599  1.00  0.00     0.006 A 
ENDBRANCH  26  40
BRANCH  27  48
ATOM     48  C   UNL A   1      39.981  34.344  36.406  1.00  0.00     0.057 A 
ATOM     49  C   UNL A   1      39.136  34.064  37.487  1.00  0.00     0.134 A 
ATOM     50  C   UNL A   1      40.698  35.548  36.452  1.00  0.00     0.134 A 
ATOM     51  F   UNL A   1      38.403  32.941  37.498  1.00  0.00    -0.206 F 
ATOM     52  C   UNL A   1      38.993  34.953  38.555  1.00  0.00     0.040 A 
ATOM     53  C   UNL A   1      40.587  36.433  37.526  1.00  0.00     0.040 A 
ATOM     54  F   UNL A   1      41.524  35.883  35.449  1.00  0.00    -0.206 F 
ATOM     55  C   UNL A   1      39.723  36.140  38.578  1.00  0.00     0.006 A 
ENDBRANCH  27  48
BRANCH  39  56
ATOM     56  C   UNL A   1      43.809  28.684  35.061  1.00  0.00     0.057 A 
ATOM     57  C   UNL A   1      43.453  27.645  35.930  1.00  0.00     0.134 A 
ATOM     58  C   UNL A   1      45.168  28.979  34.916  1.00  0.00     0.134 A 
ATOM     59  F   UNL A   1      42.163  27.328  36.119  1.00  0.00    -0.206 F 
ATOM     60  C   UNL A   1      44.418  26.928  36.634  1.00  0.00     0.040 A 
ATOM     61  C   UNL A   1      46.144  28.253  35.596  1.00  0.00     0.040 A 
ATOM     62  F   UNL A   1      45.569  29.959  34.091  1.00  0.00    -0.206 F 
ATOM     63  C   UNL A   1      45.769  27.225  36.460  1.00  0.00     0.006 A 
ENDBRANCH  39  56
ENDBRANCH  13  14
ENDBRANCH   6   8
ENDBRANCH   5   6
ENDBRANCH   4   5
ENDBRANCH   3   4
ENDBRANCH   2   3
ENDBRANCH   1   2
BRANCH   1  64
ATOM     64  C   UNL A   1      32.936  28.598  27.226  1.00  0.00     0.261 C 
BRANCH  64  65
ATOM     65  O   UNL A   1      33.861  27.862  26.407  1.00  0.00    -0.459 OA
BRANCH  65  66
ATOM     66  C   UNL A   1      33.423  27.649  25.120  1.00  0.00     0.350 C 
ATOM     67  O   UNL A   1      34.021  28.028  24.125  1.00  0.00    -0.245 OA
BRANCH  66  68
ATOM     68  C   UNL A   1      32.230  26.821  25.158  1.00  0.00     0.136 A 
ATOM     69  S   UNL A   1      32.363  25.240  25.816  1.00  0.00    -0.135 S 
ATOM     70  C   UNL A   1      30.923  27.117  24.795  1.00  0.00     0.075 A 
ATOM     71  C   UNL A   1      30.696  24.948  25.634  1.00  0.00     0.068 A 
ATOM     72  C   UNL A   1      30.053  26.012  25.045  1.00  0.00     0.039 A 
BRANCH  70  73
ATOM     73  N   UNL A   1      30.470  28.373  24.323  1.00  0.00    -0.269 N 
ATOM     74  H   UNL A   1      30.680  29.186  24.838  1.00  0.00     0.181 HD
BRANCH  73  75
ATOM     75  S   UNL A   1      29.578  28.505  22.902  1.00  0.00     0.301 S 
ATOM     76  O   UNL A   1      30.364  27.880  21.864  1.00  0.00    -0.189 OA
ATOM     77  O   UNL A   1      28.229  28.067  23.171  1.00  0.00    -0.189 OA
BRANCH  75  78
ATOM     78  N   UNL A   1      29.565  30.166  22.619  1.00  0.00    -0.185 NA
ATOM     79  C   UNL A   1      29.133  30.968  23.800  1.00  0.00     0.104 C 
ATOM     80  C   UNL A   1      28.771  30.630  21.443  1.00  0.00     0.104 C 
ATOM     81  C   UNL A   1      27.804  31.578  23.389  1.00  0.00     0.018 C 
ATOM     82  C   UNL A   1      28.028  31.869  21.922  1.00  0.00     0.018 C 
ENDBRANCH  75  78
ENDBRANCH  73  75
ENDBRANCH  70  73
ENDBRANCH  66  68
ENDBRANCH  65  66
ENDBRANCH  64  65
ENDBRANCH   1  64
TORSDOF 17
ENDMDL
MODEL 2
REMARK VINA RESULT:     -10.1      3.398      8.350
REMARK SMILES O=C(OCCOCCOC(=O)c1sccc1NS(=O)(=O)N1CCCC1)c1ccc(-c2c3nc(c(-c4c(F)cccc4F)c4ccc([nH]4)c(-c4c(F)cccc4F)c4nc(c(-c5c(F)cccc5F)c5ccc2[nH]5)C=C4)C=C3)cc1
REMARK SMILES IDX 7 1 6 2 5 3 4 4 3 5 2 6 1 7 26 8 27 9 79 10 28 11 78 12
REMARK SMILES IDX 29 13 30 14 31 15 72 16 32 17 77 18 71 19 73 20 33 21 76 22
REMARK SMILES IDX 70 23 69 24 34 26 60 27 43 28 59 29 44 30 47 31 58 32 74 33
REMARK SMILES IDX 45 34 46 35 57 37 75 38 48 39 35 40 36 41 41 42 37 43 38 44
REMARK SMILES IDX 40 45 42 46 39 47 61 48 62 49 67 50 63 51 64 52 66 53 68 54
REMARK SMILES IDX 65 55 49 56 50 57 55 58 51 59 52 60 54 61 56 62 53 63 8 64
REMARK SMILES IDX 9 65 10 66 11 67 12 68 13 69 16 70 14 71 15 72 17 73 18 75
REMARK SMILES IDX 19 76 20 77 21 78 22 79 25 80 23 81 24 82
REMARK H PARENT 73 25 47 36 17 74
REMARK Flexibility Score: inf
ROOT
ATOM      1  C   UNL A   1      39.036  21.931  26.368  1.00  0.00     0.202 C 
ENDROOT
BRANCH   1   2
ATOM      2  O   UNL A   1      40.175  21.354  25.717  1.00  0.00    -0.374 OA
BRANCH   2   3
ATOM      3  C   UNL A   1      41.206  20.864  26.574  1.00  0.00     0.202 C 
BRANCH   3   4
ATOM      4  C   UNL A   1      42.619  21.267  26.145  1.00  0.00     0.261 C 
BRANCH   4   5
ATOM      5  O   UNL A   1      42.560  22.391  25.248  1.00  0.00    -0.460 OA
BRANCH   5   6
ATOM      6  C   UNL A   1      43.079  23.629  25.415  1.00  0.00     0.338 C 
ATOM      7  O   UNL A   1      44.042  23.958  24.722  1.00  0.00    -0.246 OA
BRANCH   6   8
ATOM      8  C   UNL A   1      42.577  24.617  26.418  1.00  0.00     0.060 A 
ATOM      9  C   UNL A   1      41.635  24.342  27.413  1.00  0.00     0.016 A 
ATOM     10  C   UNL A   1      43.197  25.879  26.432  1.00  0.00     0.016 A 
ATOM     11  C   UNL A   1      41.292  25.284  28.373  1.00  0.00     0.010 A 
ATOM     12  C   UNL A   1      42.887  26.820  27.418  1.00  0.00     0.010 A 
ATOM     13  C   UNL A   1      41.934  26.519  28.394  1.00  0.00    -0.014 A 
BRANCH  13  14
ATOM     14  C   UNL A   1      41.578  27.479  29.452  1.00  0.00     0.031 A 
ATOM     15  C   UNL A   1      42.383  27.499  30.710  1.00  0.00     0.074 A 
ATOM     16  C   UNL A   1      40.585  28.358  29.230  1.00  0.00     0.049 A 
ATOM     17  N   UNL A   1      42.195  28.195  31.797  1.00  0.00    -0.248 NA
ATOM     18  C   UNL A   1      43.566  26.622  30.747  1.00  0.00     0.031 C 
ATOM     19  C   UNL A   1      39.817  28.465  27.985  1.00  0.00     0.029 A 
ATOM     20  N   UNL A   1      40.053  29.331  30.033  1.00  0.00    -0.354 N 
ATOM     21  C   UNL A   1      43.215  27.821  32.660  1.00  0.00     0.074 A 
ATOM     22  C   UNL A   1      44.028  26.845  31.969  1.00  0.00     0.031 C 
ATOM     23  C   UNL A   1      38.913  29.448  28.111  1.00  0.00     0.029 A 
ATOM     24  C   UNL A   1      38.991  29.990  29.462  1.00  0.00     0.049 A 
ATOM     25  H   UNL A   1      40.398  29.537  30.931  1.00  0.00     0.167 HD
ATOM     26  C   UNL A   1      43.431  28.252  33.922  1.00  0.00     0.037 A 
ATOM     27  C   UNL A   1      38.150  30.893  29.999  1.00  0.00     0.037 A 
ATOM     28  C   UNL A   1      42.605  29.231  34.575  1.00  0.00     0.049 A 
ATOM     29  C   UNL A   1      38.363  31.286  31.436  1.00  0.00     0.074 A 
ATOM     30  C   UNL A   1      42.717  29.742  35.854  1.00  0.00     0.029 A 
ATOM     31  N   UNL A   1      41.503  29.839  33.989  1.00  0.00    -0.354 N 
ATOM     32  N   UNL A   1      39.318  30.919  32.258  1.00  0.00    -0.248 NA
ATOM     33  C   UNL A   1      37.374  32.193  32.031  1.00  0.00     0.031 C 
ATOM     34  C   UNL A   1      41.651  30.624  36.060  1.00  0.00     0.029 A 
ATOM     35  C   UNL A   1      40.901  30.693  34.896  1.00  0.00     0.049 A 
ATOM     36  H   UNL A   1      41.197  29.687  33.066  1.00  0.00     0.167 HD
ATOM     37  C   UNL A   1      39.048  31.549  33.463  1.00  0.00     0.074 A 
ATOM     38  C   UNL A   1      37.855  32.346  33.257  1.00  0.00     0.031 C 
ATOM     39  C   UNL A   1      39.713  31.470  34.642  1.00  0.00     0.037 A 
BRANCH  26  40
ATOM     40  C   UNL A   1      44.548  27.614  34.688  1.00  0.00     0.057 A 
ATOM     41  C   UNL A   1      45.840  28.154  34.720  1.00  0.00     0.134 A 
ATOM     42  C   UNL A   1      44.321  26.435  35.409  1.00  0.00     0.134 A 
ATOM     43  F   UNL A   1      46.129  29.267  34.029  1.00  0.00    -0.206 F 
ATOM     44  C   UNL A   1      46.870  27.535  35.432  1.00  0.00     0.040 A 
ATOM     45  C   UNL A   1      45.337  25.818  36.139  1.00  0.00     0.040 A 
ATOM     46  F   UNL A   1      43.108  25.863  35.412  1.00  0.00    -0.206 F 
ATOM     47  C   UNL A   1      46.618  26.366  36.149  1.00  0.00     0.006 A 
ENDBRANCH  26  40
BRANCH  27  48
ATOM     48  C   UNL A   1      36.994  31.410  29.221  1.00  0.00     0.057 A 
ATOM     49  C   UNL A   1      35.876  30.612  28.947  1.00  0.00     0.134 A 
ATOM     50  C   UNL A   1      36.993  32.711  28.697  1.00  0.00     0.134 A 
ATOM     51  F   UNL A   1      35.822  29.350  29.396  1.00  0.00    -0.206 F 
ATOM     52  C   UNL A   1      34.815  31.080  28.168  1.00  0.00     0.040 A 
ATOM     53  C   UNL A   1      35.926  33.202  27.942  1.00  0.00     0.040 A 
ATOM     54  F   UNL A   1      38.032  33.531  28.918  1.00  0.00    -0.206 F 
ATOM     55  C   UNL A   1      34.836  32.380  27.667  1.00  0.00     0.006 A 
ENDBRANCH  27  48
BRANCH  39  56
ATOM     56  C   UNL A   1      39.160  32.263  35.784  1.00  0.00     0.057 A 
ATOM     57  C   UNL A   1      38.258  31.699  36.694  1.00  0.00     0.134 A 
ATOM     58  C   UNL A   1      39.584  33.577  36.012  1.00  0.00     0.134 A 
ATOM     59  F   UNL A   1      37.806  30.448  36.517  1.00  0.00    -0.206 F 
ATOM     60  C   UNL A   1      37.791  32.419  37.792  1.00  0.00     0.040 A 
ATOM     61  C   UNL A   1      39.142  34.298  37.119  1.00  0.00     0.040 A 
ATOM     62  F   UNL A   1      40.453  34.167  35.177  1.00  0.00    -0.206 F 
ATOM     63  C   UNL A   1      38.241  33.720  38.012  1.00  0.00     0.006 A 
ENDBRANCH  39  56
ENDBRANCH  13  14
ENDBRANCH   6   8
ENDBRANCH   5   6
ENDBRANCH   4   5
ENDBRANCH   3   4
ENDBRANCH   2   3
ENDBRANCH   1   2
BRANCH   1  64
ATOM     64  C   UNL A   1      37.940  22.155  25.319  1.00  0.00     0.261 C 
BRANCH  64  65
ATOM     65  O   UNL A   1      36.730  21.565  25.825  1.00  0.00    -0.459 OA
BRANCH  65  66
ATOM     66  C   UNL A   1      35.634  22.393  25.760  1.00  0.00     0.350 C 
ATOM     67  O   UNL A   1      35.650  23.571  26.082  1.00  0.00    -0.245 OA
BRANCH  66  68
ATOM     68  C   UNL A   1      34.531  21.671  25.149  1.00  0.00     0.136 A 
ATOM     69  S   UNL A   1      34.672  19.967  24.986  1.00  0.00    -0.135 S 
ATOM     70  C   UNL A   1      33.297  22.128  24.707  1.00  0.00     0.075 A 
ATOM     71  C   UNL A   1      33.101  19.828  24.344  1.00  0.00     0.068 A 
ATOM     72  C   UNL A   1      32.494  21.055  24.214  1.00  0.00     0.039 A 
BRANCH  70  73
ATOM     73  N   UNL A   1      32.836  23.464  24.807  1.00  0.00    -0.269 N 
ATOM     74  H   UNL A   1      32.455  23.780  25.659  1.00  0.00     0.181 HD
BRANCH  73  75
ATOM     75  S   UNL A   1      32.924  24.520  23.501  1.00  0.00     0.301 S 
ATOM     76  O   UNL A   1      34.151  24.212  22.804  1.00  0.00    -0.189 OA
ATOM     77  O   UNL A   1      31.657  24.494  22.810  1.00  0.00    -0.189 OA
BRANCH  75  78
ATOM     78  N   UNL A   1      33.107  26.022  24.243  1.00  0.00    -0.185 NA
ATOM     79  C   UNL A   1      33.145  25.950  25.733  1.00  0.00     0.104 C 
ATOM     80  C   UNL A   1      32.115  27.071  23.866  1.00  0.00     0.104 C 
ATOM     81  C   UNL A   1      31.873  26.645  26.186  1.00  0.00     0.018 C 
ATOM     82  C   UNL A   1      31.740  27.759  25.172  1.00  0.00     0.018 C 
ENDBRANCH  75  78
ENDBRANCH  73  75
ENDBRANCH  70  73
ENDBRANCH  66  68
ENDBRANCH  65  66
ENDBRANCH  64  65
ENDBRANCH   1  64
TORSDOF 17
ENDMDL
MODEL 3
REMARK VINA RESULT:     -10.1      1.389      2.829
REMARK SMILES O=C(OCCOCCOC(=O)c1sccc1NS(=O)(=O)N1CCCC1)c1ccc(-c2c3nc(c(-c4c(F)cccc4F)c4ccc([nH]4)c(-c4c(F)cccc4F)c4nc(c(-c5c(F)cccc5F)c5ccc2[nH]5)C=C4)C=C3)cc1
REMARK SMILES IDX 7 1 6 2 5 3 4 4 3 5 2 6 1 7 26 8 27 9 79 10 28 11 78 12
REMARK SMILES IDX 29 13 30 14 31 15 72 16 32 17 77 18 71 19 73 20 33 21 76 22
REMARK SMILES IDX 70 23 69 24 34 26 60 27 43 28 59 29 44 30 47 31 58 32 74 33
REMARK SMILES IDX 45 34 46 35 57 37 75 38 48 39 35 40 36 41 41 42 37 43 38 44
REMARK SMILES IDX 40 45 42 46 39 47 61 48 62 49 67 50 63 51 64 52 66 53 68 54
REMARK SMILES IDX 65 55 49 56 50 57 55 58 51 59 52 60 54 61 56 62 53 63 8 64
REMARK SMILES IDX 9 65 10 66 11 67 12 68 13 69 16 70 14 71 15 72 17 73 18 75
REMARK SMILES IDX 19 76 20 77 21 78 22 79 25 80 23 81 24 82
REMARK H PARENT 73 25 47 36 17 74
REMARK Flexibility Score: inf
ROOT
ATOM      1  C   UNL A   1      32.506  29.931  26.558  1.00  0.00     0.202 C 
ENDROOT
BRANCH   1   2
ATOM      2  O   UNL A   1      31.509  30.728  25.906  1.00  0.00    -0.374 OA
BRANCH   2   3
ATOM      3  C   UNL A   1      31.307  32.038  26.437  1.00  0.00     0.202 C 
BRANCH   3   4
ATOM      4  C   UNL A   1      32.488  32.570  27.251  1.00  0.00     0.261 C 
BRANCH   4   5
ATOM      5  O   UNL A   1      32.249  33.936  27.634  1.00  0.00    -0.460 OA
BRANCH   5   6
ATOM      6  C   UNL A   1      32.906  34.680  28.552  1.00  0.00     0.338 C 
ATOM      7  O   UNL A   1      32.529  35.835  28.748  1.00  0.00    -0.246 OA
BRANCH   6   8
ATOM      8  C   UNL A   1      34.091  34.197  29.325  1.00  0.00     0.060 A 
ATOM      9  C   UNL A   1      34.029  33.442  30.499  1.00  0.00     0.016 A 
ATOM     10  C   UNL A   1      35.356  34.417  28.752  1.00  0.00     0.016 A 
ATOM     11  C   UNL A   1      35.174  32.944  31.107  1.00  0.00     0.010 A 
ATOM     12  C   UNL A   1      36.511  33.885  29.334  1.00  0.00     0.010 A 
ATOM     13  C   UNL A   1      36.417  33.142  30.514  1.00  0.00    -0.014 A 
BRANCH  13  14
ATOM     14  C   UNL A   1      37.605  32.563  31.161  1.00  0.00     0.031 A 
ATOM     15  C   UNL A   1      38.306  31.423  30.496  1.00  0.00     0.074 A 
ATOM     16  C   UNL A   1      38.070  33.118  32.294  1.00  0.00     0.049 A 
ATOM     17  N   UNL A   1      39.311  30.711  30.926  1.00  0.00    -0.248 NA
ATOM     18  C   UNL A   1      37.816  31.039  29.161  1.00  0.00     0.031 C 
ATOM     19  C   UNL A   1      37.496  34.297  32.950  1.00  0.00     0.029 A 
ATOM     20  N   UNL A   1      39.129  32.777  33.091  1.00  0.00    -0.354 N 
ATOM     21  C   UNL A   1      39.555  29.774  29.932  1.00  0.00     0.074 A 
ATOM     22  C   UNL A   1      38.603  30.013  28.871  1.00  0.00     0.031 C 
ATOM     23  C   UNL A   1      38.211  34.578  34.051  1.00  0.00     0.029 A 
ATOM     24  C   UNL A   1      39.244  33.562  34.213  1.00  0.00     0.049 A 
ATOM     25  H   UNL A   1      39.747  32.040  32.881  1.00  0.00     0.167 HD
ATOM     26  C   UNL A   1      40.487  28.795  29.928  1.00  0.00     0.037 A 
ATOM     27  C   UNL A   1      40.064  33.434  35.272  1.00  0.00     0.037 A 
ATOM     28  C   UNL A   1      41.423  28.591  30.999  1.00  0.00     0.049 A 
ATOM     29  C   UNL A   1      41.030  32.280  35.279  1.00  0.00     0.074 A 
ATOM     30  C   UNL A   1      42.409  27.630  31.115  1.00  0.00     0.029 A 
ATOM     31  N   UNL A   1      41.478  29.370  32.148  1.00  0.00    -0.354 N 
ATOM     32  N   UNL A   1      41.249  31.383  34.346  1.00  0.00    -0.248 NA
ATOM     33  C   UNL A   1      41.843  32.100  36.488  1.00  0.00     0.031 C 
ATOM     34  C   UNL A   1      43.027  27.795  32.359  1.00  0.00     0.029 A 
ATOM     35  C   UNL A   1      42.455  28.885  32.998  1.00  0.00     0.049 A 
ATOM     36  H   UNL A   1      40.908  30.151  32.329  1.00  0.00     0.167 HD
ATOM     37  C   UNL A   1      42.222  30.535  34.853  1.00  0.00     0.074 A 
ATOM     38  C   UNL A   1      42.573  31.042  36.164  1.00  0.00     0.031 C 
ATOM     39  C   UNL A   1      42.771  29.428  34.296  1.00  0.00     0.037 A 
BRANCH  26  40
ATOM     40  C   UNL A   1      40.480  27.840  28.775  1.00  0.00     0.057 A 
ATOM     41  C   UNL A   1      41.252  28.048  27.625  1.00  0.00     0.134 A 
ATOM     42  C   UNL A   1      39.684  26.689  28.821  1.00  0.00     0.134 A 
ATOM     43  F   UNL A   1      42.016  29.144  27.507  1.00  0.00    -0.206 F 
ATOM     44  C   UNL A   1      41.221  27.149  26.556  1.00  0.00     0.040 A 
ATOM     45  C   UNL A   1      39.659  25.774  27.768  1.00  0.00     0.040 A 
ATOM     46  F   UNL A   1      38.915  26.437  29.891  1.00  0.00    -0.206 F 
ATOM     47  C   UNL A   1      40.427  26.005  26.629  1.00  0.00     0.006 A 
ENDBRANCH  26  40
BRANCH  27  48
ATOM     48  C   UNL A   1      39.949  34.351  36.436  1.00  0.00     0.057 A 
ATOM     49  C   UNL A   1      39.085  34.079  37.504  1.00  0.00     0.134 A 
ATOM     50  C   UNL A   1      40.678  35.548  36.495  1.00  0.00     0.134 A 
ATOM     51  F   UNL A   1      38.339  32.964  37.501  1.00  0.00    -0.206 F 
ATOM     52  C   UNL A   1      38.935  34.968  38.571  1.00  0.00     0.040 A 
ATOM     53  C   UNL A   1      40.561  36.431  37.569  1.00  0.00     0.040 A 
ATOM     54  F   UNL A   1      41.524  35.874  35.505  1.00  0.00    -0.206 F 
ATOM     55  C   UNL A   1      39.678  36.147  38.607  1.00  0.00     0.006 A 
ENDBRANCH  27  48
BRANCH  39  56
ATOM     56  C   UNL A   1      43.800  28.703  35.106  1.00  0.00     0.057 A 
ATOM     57  C   UNL A   1      43.439  27.693  36.006  1.00  0.00     0.134 A 
ATOM     58  C   UNL A   1      45.162  28.971  34.936  1.00  0.00     0.134 A 
ATOM     59  F   UNL A   1      42.146  27.403  36.221  1.00  0.00    -0.206 F 
ATOM     60  C   UNL A   1      44.401  26.977  36.715  1.00  0.00     0.040 A 
ATOM     61  C   UNL A   1      46.134  28.245  35.621  1.00  0.00     0.040 A 
ATOM     62  F   UNL A   1      45.567  29.922  34.081  1.00  0.00    -0.206 F 
ATOM     63  C   UNL A   1      45.754  27.246  36.516  1.00  0.00     0.006 A 
ENDBRANCH  39  56
ENDBRANCH  13  14
ENDBRANCH   6   8
ENDBRANCH   5   6
ENDBRANCH   4   5
ENDBRANCH   3   4
ENDBRANCH   2   3
ENDBRANCH   1   2
BRANCH   1  64
ATOM     64  C   UNL A   1      33.270  29.142  25.489  1.00  0.00     0.261 C 
BRANCH  64  65
ATOM     65  O   UNL A   1      32.535  29.257  24.258  1.00  0.00    -0.459 OA
BRANCH  65  66
ATOM     66  C   UNL A   1      32.342  28.061  23.607  1.00  0.00     0.350 C 
ATOM     67  O   UNL A   1      33.247  27.376  23.156  1.00  0.00    -0.245 OA
BRANCH  66  68
ATOM     68  C   UNL A   1      30.932  27.716  23.661  1.00  0.00     0.136 A 
ATOM     69  S   UNL A   1      29.790  28.895  23.155  1.00  0.00    -0.135 S 
ATOM     70  C   UNL A   1      30.314  26.522  24.010  1.00  0.00     0.075 A 
ATOM     71  C   UNL A   1      28.483  27.829  23.382  1.00  0.00     0.068 A 
ATOM     72  C   UNL A   1      28.896  26.614  23.875  1.00  0.00     0.039 A 
BRANCH  70  73
ATOM     73  N   UNL A   1      30.987  25.327  24.366  1.00  0.00    -0.269 N 
ATOM     74  H   UNL A   1      31.279  24.708  23.658  1.00  0.00     0.181 HD
BRANCH  73  75
ATOM     75  S   UNL A   1      31.297  24.944  25.975  1.00  0.00     0.301 S 
ATOM     76  O   UNL A   1      32.156  25.986  26.488  1.00  0.00    -0.189 OA
ATOM     77  O   UNL A   1      30.041  24.639  26.618  1.00  0.00    -0.189 OA
BRANCH  75  78
ATOM     78  N   UNL A   1      32.205  23.529  25.856  1.00  0.00    -0.185 NA
ATOM     79  C   UNL A   1      33.194  23.548  24.740  1.00  0.00     0.104 C 
ATOM     80  C   UNL A   1      31.434  22.255  25.756  1.00  0.00     0.104 C 
ATOM     81  C   UNL A   1      32.694  22.498  23.763  1.00  0.00     0.018 C 
ATOM     82  C   UNL A   1      32.147  21.435  24.690  1.00  0.00     0.018 C 
ENDBRANCH  75  78
ENDBRANCH  73  75
ENDBRANCH  70  73
ENDBRANCH  66  68
ENDBRANCH  65  66
ENDBRANCH  64  65
ENDBRANCH   1  64
TORSDOF 17
ENDMDL
