MODEL 1
REMARK VINA RESULT:      -9.4      0.000      0.000
REMARK SMILES O=C(OCCOCCOC(=O)[C@H]1CCCC[C@H]1C(=O)N1CCN(S(=O)(=O)c2ccc(F)cc2)CC1)c1ccc(-c2c3nc(c(-c4c(F)cccc4F)c4ccc([nH]4)c(-c4c(F)cccc4F)c4nc(c(-c5c(F)cccc5F)c5ccc2[nH]5)C=C4)C=C3)cc1
REMARK SMILES IDX 7 1 6 2 5 3 4 4 3 5 2 6 1 7 36 8 37 9 89 10 38 11 88 12
REMARK SMILES IDX 39 13 40 14 41 15 82 16 42 17 87 18 81 19 83 20 43 21 86 22
REMARK SMILES IDX 80 23 79 24 44 26 70 27 53 28 69 29 54 30 57 31 68 32 84 33
REMARK SMILES IDX 55 34 56 35 67 37 85 38 58 39 45 40 46 41 51 42 47 43 48 44
REMARK SMILES IDX 50 45 52 46 49 47 71 48 72 49 77 50 73 51 74 52 76 53 78 54
REMARK SMILES IDX 75 55 59 56 60 57 65 58 61 59 62 60 64 61 66 62 63 63 8 64
REMARK SMILES IDX 9 65 10 66 11 67 12 68 13 69 17 70 14 71 16 72 15 73 18 74
REMARK SMILES IDX 19 75 20 76 21 77 35 78 22 79 34 80 23 81 24 82 25 83 26 84
REMARK SMILES IDX 27 85 28 86 33 87 29 88 32 89 30 90 31 91
REMARK H PARENT 83 25 57 36
REMARK Flexibility Score: inf
ROOT
ATOM      1  C   UNL A   1      34.412  33.325  30.759  1.00  0.00     0.202 C 
ENDROOT
BRANCH   1   2
ATOM      2  O   UNL A   1      34.424  34.450  29.877  1.00  0.00    -0.374 OA
BRANCH   2   3
ATOM      3  C   UNL A   1      34.169  34.175  28.509  1.00  0.00     0.202 C 
BRANCH   3   4
ATOM      4  C   UNL A   1      35.103  33.066  28.002  1.00  0.00     0.261 C 
BRANCH   4   5
ATOM      5  O   UNL A   1      34.433  31.793  27.846  1.00  0.00    -0.460 OA
BRANCH   5   6
ATOM      6  C   UNL A   1      34.875  30.511  27.852  1.00  0.00     0.338 C 
ATOM      7  O   UNL A   1      34.075  29.647  27.482  1.00  0.00    -0.246 OA
BRANCH   6   8
ATOM      8  C   UNL A   1      36.250  30.022  28.253  1.00  0.00     0.060 A 
ATOM      9  C   UNL A   1      36.646  29.540  29.494  1.00  0.00     0.016 A 
ATOM     10  C   UNL A   1      37.270  30.091  27.276  1.00  0.00     0.016 A 
ATOM     11  C   UNL A   1      37.938  28.967  29.683  1.00  0.00     0.010 A 
ATOM     12  C   UNL A   1      38.566  29.547  27.472  1.00  0.00     0.010 A 
ATOM     13  C   UNL A   1      38.906  28.885  28.655  1.00  0.00    -0.014 A 
BRANCH  13  14
ATOM     14  C   UNL A   1      40.334  28.412  28.884  1.00  0.00     0.031 A 
ATOM     15  C   UNL A   1      41.291  29.506  29.263  1.00  0.00     0.074 A 
ATOM     16  C   UNL A   1      40.864  27.154  28.789  1.00  0.00     0.049 A 
ATOM     17  N   UNL A   1      42.571  29.419  29.498  1.00  0.00    -0.248 NA
ATOM     18  C   UNL A   1      40.726  30.848  29.497  1.00  0.00     0.031 C 
ATOM     19  C   UNL A   1      40.193  25.869  28.799  1.00  0.00     0.029 A 
ATOM     20  N   UNL A   1      42.174  26.725  28.620  1.00  0.00    -0.354 N 
ATOM     21  C   UNL A   1      42.935  30.657  29.992  1.00  0.00     0.074 A 
ATOM     22  C   UNL A   1      41.762  31.495  29.998  1.00  0.00     0.031 C 
ATOM     23  C   UNL A   1      40.971  24.860  28.427  1.00  0.00     0.029 A 
ATOM     24  C   UNL A   1      42.280  25.395  28.236  1.00  0.00     0.049 A 
ATOM     25  H   UNL A   1      42.955  27.309  28.758  1.00  0.00     0.167 HD
ATOM     26  C   UNL A   1      44.154  31.056  30.403  1.00  0.00     0.037 A 
ATOM     27  C   UNL A   1      43.280  24.606  27.811  1.00  0.00     0.037 A 
ATOM     28  C   UNL A   1      45.337  30.259  30.276  1.00  0.00     0.049 A 
ATOM     29  C   UNL A   1      44.638  25.139  28.024  1.00  0.00     0.074 A 
ATOM     30  C   UNL A   1      46.637  30.608  30.581  1.00  0.00     0.029 A 
ATOM     31  N   UNL A   1      45.370  28.972  29.755  1.00  0.00    -0.354 N 
ATOM     32  N   UNL A   1      44.954  26.310  28.511  1.00  0.00    -0.248 NA
ATOM     33  C   UNL A   1      45.764  24.250  27.746  1.00  0.00     0.031 C 
ATOM     34  C   UNL A   1      47.467  29.560  30.176  1.00  0.00     0.029 A 
ATOM     35  C   UNL A   1      46.682  28.539  29.663  1.00  0.00     0.049 A 
ATOM     36  H   UNL A   1      44.580  28.447  29.492  1.00  0.00     0.167 HD
ATOM     37  C   UNL A   1      46.320  26.294  28.646  1.00  0.00     0.074 A 
ATOM     38  C   UNL A   1      46.774  24.995  28.177  1.00  0.00     0.031 C 
ATOM     39  C   UNL A   1      47.113  27.270  29.139  1.00  0.00     0.037 A 
BRANCH  26  40
ATOM     40  C   UNL A   1      44.241  32.449  30.928  1.00  0.00     0.057 A 
ATOM     41  C   UNL A   1      44.123  32.693  32.300  1.00  0.00     0.134 A 
ATOM     42  C   UNL A   1      44.510  33.536  30.087  1.00  0.00     0.134 A 
ATOM     43  F   UNL A   1      43.910  31.681  33.153  1.00  0.00    -0.206 F 
ATOM     44  C   UNL A   1      44.250  33.980  32.819  1.00  0.00     0.040 A 
ATOM     45  C   UNL A   1      44.652  34.827  30.598  1.00  0.00     0.040 A 
ATOM     46  F   UNL A   1      44.690  33.353  28.770  1.00  0.00    -0.206 F 
ATOM     47  C   UNL A   1      44.514  35.051  31.967  1.00  0.00     0.006 A 
ENDBRANCH  26  40
BRANCH  27  48
ATOM     48  C   UNL A   1      42.982  23.246  27.275  1.00  0.00     0.057 A 
ATOM     49  C   UNL A   1      42.803  23.053  25.895  1.00  0.00     0.134 A 
ATOM     50  C   UNL A   1      42.725  22.150  28.106  1.00  0.00     0.134 A 
ATOM     51  F   UNL A   1      42.992  24.069  25.040  1.00  0.00    -0.206 F 
ATOM     52  C   UNL A   1      42.377  21.830  25.365  1.00  0.00     0.040 A 
ATOM     53  C   UNL A   1      42.309  20.917  27.589  1.00  0.00     0.040 A 
ATOM     54  F   UNL A   1      42.847  22.269  29.435  1.00  0.00    -0.206 F 
ATOM     55  C   UNL A   1      42.128  20.756  26.216  1.00  0.00     0.006 A 
ENDBRANCH  27  48
BRANCH  39  56
ATOM     56  C   UNL A   1      48.570  26.984  29.120  1.00  0.00     0.057 A 
ATOM     57  C   UNL A   1      49.346  27.305  28.005  1.00  0.00     0.134 A 
ATOM     58  C   UNL A   1      49.184  26.345  30.202  1.00  0.00     0.134 A 
ATOM     59  F   UNL A   1      48.801  27.926  26.947  1.00  0.00    -0.206 F 
ATOM     60  C   UNL A   1      50.697  26.977  27.957  1.00  0.00     0.040 A 
ATOM     61  C   UNL A   1      50.538  26.033  30.174  1.00  0.00     0.040 A 
ATOM     62  F   UNL A   1      48.480  26.042  31.304  1.00  0.00    -0.206 F 
ATOM     63  C   UNL A   1      51.295  26.339  29.044  1.00  0.00     0.006 A 
ENDBRANCH  39  56
ENDBRANCH  13  14
ENDBRANCH   6   8
ENDBRANCH   5   6
ENDBRANCH   4   5
ENDBRANCH   3   4
ENDBRANCH   2   3
ENDBRANCH   1   2
BRANCH   1  64
ATOM     64  C   UNL A   1      34.762  33.766  32.180  1.00  0.00     0.261 C 
BRANCH  64  65
ATOM     65  O   UNL A   1      35.978  33.088  32.548  1.00  0.00    -0.463 OA
BRANCH  65  66
ATOM     66  C   UNL A   1      37.129  33.813  32.458  1.00  0.00     0.309 C 
ATOM     67  O   UNL A   1      37.263  34.954  32.880  1.00  0.00    -0.252 OA
BRANCH  66  68
ATOM     68  C   UNL A   1      38.250  32.918  31.896  1.00  0.00     0.111 C 
ATOM     69  C   UNL A   1      37.989  32.948  30.382  1.00  0.00     0.016 C 
ATOM     70  C   UNL A   1      39.760  33.231  32.150  1.00  0.00     0.093 C 
ATOM     71  C   UNL A   1      38.429  34.278  29.753  1.00  0.00     0.001 C 
ATOM     72  C   UNL A   1      40.205  34.564  31.541  1.00  0.00     0.014 C 
ATOM     73  C   UNL A   1      39.885  34.617  30.053  1.00  0.00     0.001 C 
BRANCH  70  74
ATOM     74  C   UNL A   1      40.499  33.049  33.509  1.00  0.00     0.226 C 
ATOM     75  O   UNL A   1      40.961  34.021  34.106  1.00  0.00    -0.275 OA
ATOM     76  N   UNL A   1      40.431  31.805  34.098  1.00  0.00    -0.340 N 
ATOM     77  C   UNL A   1      40.521  31.595  35.550  1.00  0.00     0.136 C 
ATOM     78  C   UNL A   1      40.806  30.670  33.315  1.00  0.00     0.136 C 
ATOM     79  C   UNL A   1      39.886  30.237  35.960  1.00  0.00     0.124 C 
ATOM     80  C   UNL A   1      40.059  29.404  33.672  1.00  0.00     0.124 C 
ATOM     81  N   UNL A   1      40.349  29.072  35.077  1.00  0.00    -0.194 NA
BRANCH  81  82
ATOM     82  S   UNL A   1      41.970  28.633  35.362  1.00  0.00     0.243 S 
ATOM     83  O   UNL A   1      42.801  29.222  34.321  1.00  0.00    -0.207 OA
ATOM     84  O   UNL A   1      42.233  29.092  36.685  1.00  0.00    -0.207 OA
BRANCH  82  85
ATOM     85  C   UNL A   1      42.066  26.802  35.092  1.00  0.00     0.082 A 
ATOM     86  C   UNL A   1      43.189  26.372  34.388  1.00  0.00     0.025 A 
ATOM     87  C   UNL A   1      41.308  25.782  35.675  1.00  0.00     0.025 A 
ATOM     88  C   UNL A   1      43.595  25.030  34.339  1.00  0.00     0.040 A 
ATOM     89  C   UNL A   1      41.709  24.430  35.661  1.00  0.00     0.040 A 
ATOM     90  C   UNL A   1      42.864  24.068  35.006  1.00  0.00     0.123 A 
ATOM     91  F   UNL A   1      43.289  22.801  35.041  1.00  0.00    -0.207 F 
ENDBRANCH  82  85
ENDBRANCH  81  82
ENDBRANCH  70  74
ENDBRANCH  66  68
ENDBRANCH  65  66
ENDBRANCH  64  65
ENDBRANCH   1  64
TORSDOF 17
ENDMDL
MODEL 2
REMARK VINA RESULT:      -9.1      4.740      7.973
REMARK SMILES O=C(OCCOCCOC(=O)[C@H]1CCCC[C@H]1C(=O)N1CCN(S(=O)(=O)c2ccc(F)cc2)CC1)c1ccc(-c2c3nc(c(-c4c(F)cccc4F)c4ccc([nH]4)c(-c4c(F)cccc4F)c4nc(c(-c5c(F)cccc5F)c5ccc2[nH]5)C=C4)C=C3)cc1
REMARK SMILES IDX 7 1 6 2 5 3 4 4 3 5 2 6 1 7 36 8 37 9 89 10 38 11 88 12
REMARK SMILES IDX 39 13 40 14 41 15 82 16 42 17 87 18 81 19 83 20 43 21 86 22
REMARK SMILES IDX 80 23 79 24 44 26 70 27 53 28 69 29 54 30 57 31 68 32 84 33
REMARK SMILES IDX 55 34 56 35 67 37 85 38 58 39 45 40 46 41 51 42 47 43 48 44
REMARK SMILES IDX 50 45 52 46 49 47 71 48 72 49 77 50 73 51 74 52 76 53 78 54
REMARK SMILES IDX 75 55 59 56 60 57 65 58 61 59 62 60 64 61 66 62 63 63 8 64
REMARK SMILES IDX 9 65 10 66 11 67 12 68 13 69 17 70 14 71 16 72 15 73 18 74
REMARK SMILES IDX 19 75 20 76 21 77 35 78 22 79 34 80 23 81 24 82 25 83 26 84
REMARK SMILES IDX 27 85 28 86 33 87 29 88 32 89 30 90 31 91
REMARK H PARENT 83 25 57 36
REMARK Flexibility Score: inf
ROOT
ATOM      1  C   UNL A   1      34.856  31.126  27.311  1.00  0.00     0.202 C 
ENDROOT
BRANCH   1   2
ATOM      2  O   UNL A   1      33.989  31.853  28.185  1.00  0.00    -0.374 OA
BRANCH   2   3
ATOM      3  C   UNL A   1      34.142  33.263  28.185  1.00  0.00     0.202 C 
BRANCH   3   4
ATOM      4  C   UNL A   1      33.941  33.825  29.601  1.00  0.00     0.261 C 
BRANCH   4   5
ATOM      5  O   UNL A   1      34.362  32.904  30.636  1.00  0.00    -0.460 OA
BRANCH   5   6
ATOM      6  C   UNL A   1      35.461  32.847  31.429  1.00  0.00     0.338 C 
ATOM      7  O   UNL A   1      35.392  33.428  32.515  1.00  0.00    -0.246 OA
BRANCH   6   8
ATOM      8  C   UNL A   1      36.764  32.137  31.131  1.00  0.00     0.060 A 
ATOM      9  C   UNL A   1      37.612  31.514  32.038  1.00  0.00     0.016 A 
ATOM     10  C   UNL A   1      37.203  32.129  29.788  1.00  0.00     0.016 A 
ATOM     11  C   UNL A   1      38.730  30.748  31.594  1.00  0.00     0.010 A 
ATOM     12  C   UNL A   1      38.333  31.391  29.348  1.00  0.00     0.010 A 
ATOM     13  C   UNL A   1      39.076  30.603  30.232  1.00  0.00    -0.014 A 
BRANCH  13  14
ATOM     14  C   UNL A   1      40.347  29.913  29.757  1.00  0.00     0.031 A 
ATOM     15  C   UNL A   1      41.494  30.849  29.499  1.00  0.00     0.074 A 
ATOM     16  C   UNL A   1      40.589  28.586  29.530  1.00  0.00     0.049 A 
ATOM     17  N   UNL A   1      42.692  30.564  29.068  1.00  0.00    -0.248 NA
ATOM     18  C   UNL A   1      41.304  32.267  29.855  1.00  0.00     0.031 C 
ATOM     19  C   UNL A   1      39.860  27.424  29.998  1.00  0.00     0.029 A 
ATOM     20  N   UNL A   1      41.563  27.952  28.769  1.00  0.00    -0.354 N 
ATOM     21  C   UNL A   1      43.411  31.737  29.192  1.00  0.00     0.074 A 
ATOM     22  C   UNL A   1      42.523  32.750  29.705  1.00  0.00     0.031 C 
ATOM     23  C   UNL A   1      40.203  26.298  29.384  1.00  0.00     0.029 A 
ATOM     24  C   UNL A   1      41.287  26.616  28.513  1.00  0.00     0.049 A 
ATOM     25  H   UNL A   1      42.372  28.407  28.441  1.00  0.00     0.167 HD
ATOM     26  C   UNL A   1      44.709  31.945  28.897  1.00  0.00     0.037 A 
ATOM     27  C   UNL A   1      41.821  25.671  27.722  1.00  0.00     0.037 A 
ATOM     28  C   UNL A   1      45.549  30.969  28.270  1.00  0.00     0.049 A 
ATOM     29  C   UNL A   1      43.152  25.985  27.173  1.00  0.00     0.074 A 
ATOM     30  C   UNL A   1      46.855  31.113  27.848  1.00  0.00     0.029 A 
ATOM     31  N   UNL A   1      45.147  29.684  27.928  1.00  0.00    -0.354 N 
ATOM     32  N   UNL A   1      43.819  27.100  27.322  1.00  0.00    -0.248 NA
ATOM     33  C   UNL A   1      43.855  24.924  26.455  1.00  0.00     0.031 C 
ATOM     34  C   UNL A   1      47.220  29.940  27.183  1.00  0.00     0.029 A 
ATOM     35  C   UNL A   1      46.161  29.047  27.234  1.00  0.00     0.049 A 
ATOM     36  H   UNL A   1      44.274  29.286  28.149  1.00  0.00     0.167 HD
ATOM     37  C   UNL A   1      45.047  26.870  26.754  1.00  0.00     0.074 A 
ATOM     38  C   UNL A   1      45.029  25.508  26.248  1.00  0.00     0.031 C 
ATOM     39  C   UNL A   1      46.098  27.717  26.688  1.00  0.00     0.037 A 
BRANCH  26  40
ATOM     40  C   UNL A   1      45.228  33.315  29.171  1.00  0.00     0.057 A 
ATOM     41  C   UNL A   1      45.819  33.611  30.404  1.00  0.00     0.134 A 
ATOM     42  C   UNL A   1      45.206  34.319  28.196  1.00  0.00     0.134 A 
ATOM     43  F   UNL A   1      45.906  32.671  31.357  1.00  0.00    -0.206 F 
ATOM     44  C   UNL A   1      46.356  34.869  30.666  1.00  0.00     0.040 A 
ATOM     45  C   UNL A   1      45.752  35.580  28.442  1.00  0.00     0.040 A 
ATOM     46  F   UNL A   1      44.703  34.075  26.976  1.00  0.00    -0.206 F 
ATOM     47  C   UNL A   1      46.322  35.858  29.684  1.00  0.00     0.006 A 
ENDBRANCH  26  40
BRANCH  27  48
ATOM     48  C   UNL A   1      41.120  24.366  27.540  1.00  0.00     0.057 A 
ATOM     49  C   UNL A   1      41.560  23.224  28.231  1.00  0.00     0.134 A 
ATOM     50  C   UNL A   1      40.111  24.181  26.590  1.00  0.00     0.134 A 
ATOM     51  F   UNL A   1      42.552  23.318  29.129  1.00  0.00    -0.206 F 
ATOM     52  C   UNL A   1      41.029  21.954  27.980  1.00  0.00     0.040 A 
ATOM     53  C   UNL A   1      39.563  22.918  26.336  1.00  0.00     0.040 A 
ATOM     54  F   UNL A   1      39.661  25.220  25.873  1.00  0.00    -0.206 F 
ATOM     55  C   UNL A   1      40.026  21.799  27.027  1.00  0.00     0.006 A 
ENDBRANCH  27  48
BRANCH  39  56
ATOM     56  C   UNL A   1      47.291  27.203  25.969  1.00  0.00     0.057 A 
ATOM     57  C   UNL A   1      48.311  26.544  26.660  1.00  0.00     0.134 A 
ATOM     58  C   UNL A   1      47.440  27.411  24.595  1.00  0.00     0.134 A 
ATOM     59  F   UNL A   1      48.208  26.316  27.978  1.00  0.00    -0.206 F 
ATOM     60  C   UNL A   1      49.462  26.122  26.001  1.00  0.00     0.040 A 
ATOM     61  C   UNL A   1      48.575  26.973  23.923  1.00  0.00     0.040 A 
ATOM     62  F   UNL A   1      46.472  28.017  23.889  1.00  0.00    -0.206 F 
ATOM     63  C   UNL A   1      49.595  26.337  24.629  1.00  0.00     0.006 A 
ENDBRANCH  39  56
ENDBRANCH  13  14
ENDBRANCH   6   8
ENDBRANCH   5   6
ENDBRANCH   4   5
ENDBRANCH   3   4
ENDBRANCH   2   3
ENDBRANCH   1   2
BRANCH   1  64
ATOM     64  C   UNL A   1      34.835  29.640  27.668  1.00  0.00     0.261 C 
BRANCH  64  65
ATOM     65  O   UNL A   1      33.487  29.174  27.469  1.00  0.00    -0.463 OA
BRANCH  65  66
ATOM     66  C   UNL A   1      33.317  28.170  26.564  1.00  0.00     0.309 C 
ATOM     67  O   UNL A   1      34.157  27.317  26.311  1.00  0.00    -0.252 OA
BRANCH  66  68
ATOM     68  C   UNL A   1      31.867  28.195  26.044  1.00  0.00     0.111 C 
ATOM     69  C   UNL A   1      31.832  29.464  25.179  1.00  0.00     0.016 C 
ATOM     70  C   UNL A   1      31.267  27.010  25.219  1.00  0.00     0.093 C 
ATOM     71  C   UNL A   1      32.547  29.260  23.835  1.00  0.00     0.001 C 
ATOM     72  C   UNL A   1      31.984  26.787  23.884  1.00  0.00     0.014 C 
ATOM     73  C   UNL A   1      32.006  28.065  23.057  1.00  0.00     0.001 C 
BRANCH  70  74
ATOM     74  C   UNL A   1      30.879  25.618  25.799  1.00  0.00     0.226 C 
ATOM     75  O   UNL A   1      29.875  25.489  26.500  1.00  0.00    -0.275 OA
ATOM     76  N   UNL A   1      31.579  24.526  25.333  1.00  0.00    -0.340 N 
ATOM     77  C   UNL A   1      31.016  23.170  25.281  1.00  0.00     0.136 C 
ATOM     78  C   UNL A   1      33.006  24.569  25.391  1.00  0.00     0.136 C 
ATOM     79  C   UNL A   1      31.773  22.287  24.250  1.00  0.00     0.124 C 
ATOM     80  C   UNL A   1      33.689  23.799  24.282  1.00  0.00     0.124 C 
ATOM     81  N   UNL A   1      33.296  22.384  24.387  1.00  0.00    -0.194 NA
BRANCH  81  82
ATOM     82  S   UNL A   1      33.882  21.607  25.786  1.00  0.00     0.243 S 
ATOM     83  O   UNL A   1      35.264  22.014  25.999  1.00  0.00    -0.207 OA
ATOM     84  O   UNL A   1      32.969  21.990  26.811  1.00  0.00    -0.207 OA
BRANCH  82  85
ATOM     85  C   UNL A   1      33.957  19.800  25.383  1.00  0.00     0.082 A 
ATOM     86  C   UNL A   1      32.796  19.086  25.674  1.00  0.00     0.025 A 
ATOM     87  C   UNL A   1      34.909  19.101  24.634  1.00  0.00     0.025 A 
ATOM     88  C   UNL A   1      32.546  17.797  25.179  1.00  0.00     0.040 A 
ATOM     89  C   UNL A   1      34.670  17.816  24.105  1.00  0.00     0.040 A 
ATOM     90  C   UNL A   1      33.477  17.181  24.368  1.00  0.00     0.123 A 
ATOM     91  F   UNL A   1      33.212  15.991  23.819  1.00  0.00    -0.207 F 
ENDBRANCH  82  85
ENDBRANCH  81  82
ENDBRANCH  70  74
ENDBRANCH  66  68
ENDBRANCH  65  66
ENDBRANCH  64  65
ENDBRANCH   1  64
TORSDOF 17
ENDMDL
MODEL 3
REMARK VINA RESULT:      -9.0      5.324     11.144
REMARK SMILES O=C(OCCOCCOC(=O)[C@H]1CCCC[C@H]1C(=O)N1CCN(S(=O)(=O)c2ccc(F)cc2)CC1)c1ccc(-c2c3nc(c(-c4c(F)cccc4F)c4ccc([nH]4)c(-c4c(F)cccc4F)c4nc(c(-c5c(F)cccc5F)c5ccc2[nH]5)C=C4)C=C3)cc1
REMARK SMILES IDX 7 1 6 2 5 3 4 4 3 5 2 6 1 7 36 8 37 9 89 10 38 11 88 12
REMARK SMILES IDX 39 13 40 14 41 15 82 16 42 17 87 18 81 19 83 20 43 21 86 22
REMARK SMILES IDX 80 23 79 24 44 26 70 27 53 28 69 29 54 30 57 31 68 32 84 33
REMARK SMILES IDX 55 34 56 35 67 37 85 38 58 39 45 40 46 41 51 42 47 43 48 44
REMARK SMILES IDX 50 45 52 46 49 47 71 48 72 49 77 50 73 51 74 52 76 53 78 54
REMARK SMILES IDX 75 55 59 56 60 57 65 58 61 59 62 60 64 61 66 62 63 63 8 64
REMARK SMILES IDX 9 65 10 66 11 67 12 68 13 69 17 70 14 71 16 72 15 73 18 74
REMARK SMILES IDX 19 75 20 76 21 77 35 78 22 79 34 80 23 81 24 82 25 83 26 84
REMARK SMILES IDX 27 85 28 86 33 87 29 88 32 89 30 90 31 91
REMARK H PARENT 83 25 57 36
REMARK Flexibility Score: inf
ROOT
ATOM      1  C   UNL A   1      33.897  30.194  26.790  1.00  0.00     0.202 C 
ENDROOT
BRANCH   1   2
ATOM      2  O   UNL A   1      32.720  30.866  27.247  1.00  0.00    -0.374 OA
BRANCH   2   3
ATOM      3  C   UNL A   1      32.925  32.095  27.925  1.00  0.00     0.202 C 
BRANCH   3   4
ATOM      4  C   UNL A   1      32.330  33.259  27.118  1.00  0.00     0.261 C 
BRANCH   4   5
ATOM      5  O   UNL A   1      32.273  34.494  27.871  1.00  0.00    -0.460 OA
BRANCH   5   6
ATOM      6  C   UNL A   1      33.034  34.998  28.875  1.00  0.00     0.338 C 
ATOM      7  O   UNL A   1      32.625  36.029  29.416  1.00  0.00    -0.246 OA
BRANCH   6   8
ATOM      8  C   UNL A   1      34.328  34.428  29.414  1.00  0.00     0.060 A 
ATOM      9  C   UNL A   1      35.538  34.302  28.744  1.00  0.00     0.016 A 
ATOM     10  C   UNL A   1      34.312  33.926  30.735  1.00  0.00     0.016 A 
ATOM     11  C   UNL A   1      36.719  33.889  29.429  1.00  0.00     0.010 A 
ATOM     12  C   UNL A   1      35.480  33.486  31.409  1.00  0.00     0.010 A 
ATOM     13  C   UNL A   1      36.737  33.543  30.799  1.00  0.00    -0.014 A 
BRANCH  13  14
ATOM     14  C   UNL A   1      37.955  32.961  31.502  1.00  0.00     0.031 A 
ATOM     15  C   UNL A   1      38.454  31.677  30.903  1.00  0.00     0.074 A 
ATOM     16  C   UNL A   1      38.645  33.429  32.587  1.00  0.00     0.049 A 
ATOM     17  N   UNL A   1      39.454  30.935  31.293  1.00  0.00    -0.248 NA
ATOM     18  C   UNL A   1      37.811  31.215  29.659  1.00  0.00     0.031 C 
ATOM     19  C   UNL A   1      38.662  34.758  33.163  1.00  0.00     0.029 A 
ATOM     20  N   UNL A   1      39.495  32.784  33.476  1.00  0.00    -0.354 N 
ATOM     21  C   UNL A   1      39.612  29.988  30.300  1.00  0.00     0.074 A 
ATOM     22  C   UNL A   1      38.597  30.215  29.303  1.00  0.00     0.031 C 
ATOM     23  C   UNL A   1      39.231  34.811  34.362  1.00  0.00     0.029 A 
ATOM     24  C   UNL A   1      39.740  33.507  34.636  1.00  0.00     0.049 A 
ATOM     25  H   UNL A   1      39.887  31.898  33.301  1.00  0.00     0.167 HD
ATOM     26  C   UNL A   1      40.533  29.007  30.233  1.00  0.00     0.037 A 
ATOM     27  C   UNL A   1      40.338  33.244  35.809  1.00  0.00     0.037 A 
ATOM     28  C   UNL A   1      41.457  28.710  31.287  1.00  0.00     0.049 A 
ATOM     29  C   UNL A   1      41.162  32.023  35.839  1.00  0.00     0.074 A 
ATOM     30  C   UNL A   1      42.371  27.678  31.354  1.00  0.00     0.029 A 
ATOM     31  N   UNL A   1      41.546  29.414  32.481  1.00  0.00    -0.354 N 
ATOM     32  N   UNL A   1      41.308  31.151  34.876  1.00  0.00    -0.248 NA
ATOM     33  C   UNL A   1      41.975  31.784  37.030  1.00  0.00     0.031 C 
ATOM     34  C   UNL A   1      42.962  27.712  32.619  1.00  0.00     0.029 A 
ATOM     35  C   UNL A   1      42.453  28.793  33.323  1.00  0.00     0.049 A 
ATOM     36  H   UNL A   1      41.042  30.232  32.696  1.00  0.00     0.167 HD
ATOM     37  C   UNL A   1      42.267  30.274  35.317  1.00  0.00     0.074 A 
ATOM     38  C   UNL A   1      42.662  30.716  36.645  1.00  0.00     0.031 C 
ATOM     39  C   UNL A   1      42.783  29.214  34.659  1.00  0.00     0.037 A 
BRANCH  26  40
ATOM     40  C   UNL A   1      40.488  28.151  29.014  1.00  0.00     0.057 A 
ATOM     41  C   UNL A   1      41.269  28.470  27.900  1.00  0.00     0.134 A 
ATOM     42  C   UNL A   1      39.725  26.977  28.967  1.00  0.00     0.134 A 
ATOM     43  F   UNL A   1      42.052  29.559  27.909  1.00  0.00    -0.206 F 
ATOM     44  C   UNL A   1      41.281  27.659  26.767  1.00  0.00     0.040 A 
ATOM     45  C   UNL A   1      39.738  26.150  27.843  1.00  0.00     0.040 A 
ATOM     46  F   UNL A   1      39.000  26.592  30.029  1.00  0.00    -0.206 F 
ATOM     47  C   UNL A   1      40.513  26.496  26.737  1.00  0.00     0.006 A 
ENDBRANCH  26  40
BRANCH  27  48
ATOM     48  C   UNL A   1      40.232  34.218  36.935  1.00  0.00     0.057 A 
ATOM     49  C   UNL A   1      39.157  34.143  37.837  1.00  0.00     0.134 A 
ATOM     50  C   UNL A   1      41.089  35.316  37.062  1.00  0.00     0.134 A 
ATOM     51  F   UNL A   1      38.270  33.140  37.751  1.00  0.00    -0.206 F 
ATOM     52  C   UNL A   1      38.938  35.121  38.814  1.00  0.00     0.040 A 
ATOM     53  C   UNL A   1      40.889  36.296  38.042  1.00  0.00     0.040 A 
ATOM     54  F   UNL A   1      42.119  35.468  36.219  1.00  0.00    -0.206 F 
ATOM     55  C   UNL A   1      39.807  36.204  38.917  1.00  0.00     0.006 A 
ENDBRANCH  27  48
BRANCH  39  56
ATOM     56  C   UNL A   1      43.784  28.416  35.411  1.00  0.00     0.057 A 
ATOM     57  C   UNL A   1      43.378  27.412  36.293  1.00  0.00     0.134 A 
ATOM     58  C   UNL A   1      45.150  28.685  35.287  1.00  0.00     0.134 A 
ATOM     59  F   UNL A   1      42.078  27.114  36.440  1.00  0.00    -0.206 F 
ATOM     60  C   UNL A   1      44.309  26.708  37.051  1.00  0.00     0.040 A 
ATOM     61  C   UNL A   1      46.090  27.973  36.022  1.00  0.00     0.040 A 
ATOM     62  F   UNL A   1      45.584  29.624  34.432  1.00  0.00    -0.206 F 
ATOM     63  C   UNL A   1      45.669  26.989  36.916  1.00  0.00     0.006 A 
ENDBRANCH  39  56
ENDBRANCH  13  14
ENDBRANCH   6   8
ENDBRANCH   5   6
ENDBRANCH   4   5
ENDBRANCH   3   4
ENDBRANCH   2   3
ENDBRANCH   1   2
BRANCH   1  64
ATOM     64  C   UNL A   1      33.956  28.782  27.373  1.00  0.00     0.261 C 
BRANCH  64  65
ATOM     65  O   UNL A   1      32.914  28.017  26.737  1.00  0.00    -0.463 OA
BRANCH  65  66
ATOM     66  C   UNL A   1      33.257  27.349  25.600  1.00  0.00     0.309 C 
ATOM     67  O   UNL A   1      34.165  26.531  25.527  1.00  0.00    -0.252 OA
BRANCH  66  68
ATOM     68  C   UNL A   1      32.234  27.668  24.494  1.00  0.00     0.111 C 
ATOM     69  C   UNL A   1      32.824  28.921  23.830  1.00  0.00     0.016 C 
ATOM     70  C   UNL A   1      31.876  26.632  23.379  1.00  0.00     0.093 C 
ATOM     71  C   UNL A   1      34.024  28.582  22.933  1.00  0.00     0.001 C 
ATOM     72  C   UNL A   1      33.070  26.274  22.489  1.00  0.00     0.014 C 
ATOM     73  C   UNL A   1      33.693  27.525  21.885  1.00  0.00     0.001 C 
BRANCH  70  74
ATOM     74  C   UNL A   1      31.025  25.345  23.590  1.00  0.00     0.226 C 
ATOM     75  O   UNL A   1      29.796  25.392  23.543  1.00  0.00    -0.275 OA
ATOM     76  N   UNL A   1      31.701  24.145  23.624  1.00  0.00    -0.340 N 
ATOM     77  C   UNL A   1      31.094  22.866  23.225  1.00  0.00     0.136 C 
ATOM     78  C   UNL A   1      32.799  24.017  24.530  1.00  0.00     0.136 C 
ATOM     79  C   UNL A   1      32.182  21.824  22.845  1.00  0.00     0.124 C 
ATOM     80  C   UNL A   1      33.890  23.089  24.045  1.00  0.00     0.124 C 
ATOM     81  N   UNL A   1      33.316  21.744  23.873  1.00  0.00    -0.194 NA
BRANCH  81  82
ATOM     82  S   UNL A   1      32.832  21.009  25.332  1.00  0.00     0.243 S 
ATOM     83  O   UNL A   1      33.563  21.627  26.429  1.00  0.00    -0.207 OA
ATOM     84  O   UNL A   1      31.418  21.187  25.365  1.00  0.00    -0.207 OA
BRANCH  82  85
ATOM     85  C   UNL A   1      33.440  19.260  25.258  1.00  0.00     0.082 A 
ATOM     86  C   UNL A   1      32.563  18.312  25.781  1.00  0.00     0.025 A 
ATOM     87  C   UNL A   1      34.533  18.733  24.563  1.00  0.00     0.025 A 
ATOM     88  C   UNL A   1      32.700  16.935  25.554  1.00  0.00     0.040 A 
ATOM     89  C   UNL A   1      34.678  17.356  24.300  1.00  0.00     0.040 A 
ATOM     90  C   UNL A   1      33.746  16.467  24.784  1.00  0.00     0.123 A 
ATOM     91  F   UNL A   1      33.837  15.166  24.487  1.00  0.00    -0.207 F 
ENDBRANCH  82  85
ENDBRANCH  81  82
ENDBRANCH  70  74
ENDBRANCH  66  68
ENDBRANCH  65  66
ENDBRANCH  64  65
ENDBRANCH   1  64
TORSDOF 17
ENDMDL
