MODEL 1
REMARK VINA RESULT:     -10.9      0.000      0.000
REMARK SMILES C[C@H]1[C@H](C(=O)OCCOCCOC(=O)c2ccc(-c3c4nc(c(-c5c(F)cccc5F)c5ccc([nH]5)c(-c5c(F)cccc5F)c5nc(c(-c6c(F)cccc6F)c6ccc3[nH]6)C=C5)C=C4)cc2)CCN1C(=O)[C@H]1CC[C@@H](C[NH3+])CC1
REMARK SMILES IDX 8 1 7 2 6 3 4 4 5 5 3 6 1 7 2 8 71 9 69 10 70 11 72 12 73 13
REMARK SMILES IDX 74 14 81 15 75 16 80 17 76 18 77 19 78 20 79 21 9 25 10 26
REMARK SMILES IDX 11 27 12 28 13 29 14 30 15 31 16 32 68 33 17 34 67 35 18 36
REMARK SMILES IDX 19 37 20 38 61 39 21 40 66 41 60 42 62 43 22 44 65 45 59 46
REMARK SMILES IDX 58 47 23 49 49 50 32 51 48 52 33 53 36 54 47 55 63 56 34 57
REMARK SMILES IDX 35 58 46 60 64 61 37 62 24 63 25 64 30 65 26 66 27 67 29 68
REMARK SMILES IDX 31 69 28 70 50 71 51 72 56 73 52 74 53 75 55 76 57 77 54 78
REMARK SMILES IDX 38 79 39 80 44 81 40 82 41 83 43 84 45 85 42 86
REMARK H PARENT 79 22 79 23 79 24 62 48 36 59
REMARK Flexibility Score: inf
ROOT
ATOM      1  C   UNL A   1      41.078  21.051  26.170  1.00  0.00     0.202 C 
ENDROOT
BRANCH   1   2
ATOM      2  C   UNL A   1      39.978  21.943  26.755  1.00  0.00     0.261 C 
BRANCH   2   3
ATOM      3  O   UNL A   1      38.718  21.847  26.066  1.00  0.00    -0.463 OA
BRANCH   3   4
ATOM      4  C   UNL A   1      38.057  23.026  25.916  1.00  0.00     0.311 C 
ATOM      5  O   UNL A   1      38.482  24.117  26.277  1.00  0.00    -0.252 OA
BRANCH   4   6
ATOM      6  C   UNL A   1      36.682  22.882  25.312  1.00  0.00     0.123 C 
ATOM      7  C   UNL A   1      34.677  23.200  26.725  1.00  0.00     0.032 C 
ATOM      8  C   UNL A   1      35.586  23.907  25.711  1.00  0.00     0.096 C 
ATOM      9  N   UNL A   1      34.898  24.225  24.438  1.00  0.00    -0.339 N 
ATOM     10  C   UNL A   1      36.759  22.948  23.797  1.00  0.00     0.039 C 
ATOM     11  C   UNL A   1      35.336  23.285  23.412  1.00  0.00     0.121 C 
BRANCH   9  12
ATOM     12  C   UNL A   1      34.042  25.230  24.036  1.00  0.00     0.225 C 
ATOM     13  O   UNL A   1      33.895  25.444  22.822  1.00  0.00    -0.275 OA
BRANCH  12  14
ATOM     14  C   UNL A   1      33.216  26.116  24.975  1.00  0.00     0.078 C 
ATOM     15  C   UNL A   1      34.039  27.167  25.717  1.00  0.00     0.014 C 
ATOM     16  C   UNL A   1      31.886  26.645  24.441  1.00  0.00     0.014 C 
ATOM     17  C   UNL A   1      33.222  27.897  26.785  1.00  0.00     0.010 C 
ATOM     18  C   UNL A   1      31.104  27.342  25.566  1.00  0.00     0.010 C 
ATOM     19  C   UNL A   1      31.907  28.473  26.233  1.00  0.00     0.044 C 
BRANCH  19  20
ATOM     20  C   UNL A   1      32.172  29.676  25.303  1.00  0.00     0.262 C 
BRANCH  20  21
ATOM     21  N   UNL A   1      31.512  30.888  25.773  1.00  0.00    -0.357 N 
ATOM     22  H   UNL A   1      31.094  30.714  26.687  1.00  0.00     0.344 HD
ATOM     23  H   UNL A   1      30.784  31.157  25.112  1.00  0.00     0.344 HD
ATOM     24  H   UNL A   1      32.196  31.640  25.851  1.00  0.00     0.344 HD
ENDBRANCH  20  21
ENDBRANCH  19  20
ENDBRANCH  12  14
ENDBRANCH   9  12
ENDBRANCH   4   6
ENDBRANCH   3   4
ENDBRANCH   2   3
ENDBRANCH   1   2
BRANCH   1  25
ATOM     25  O   UNL A   1      42.082  21.679  25.380  1.00  0.00    -0.374 OA
BRANCH  25  26
ATOM     26  C   UNL A   1      43.446  21.428  25.704  1.00  0.00     0.202 C 
BRANCH  26  27
ATOM     27  C   UNL A   1      44.490  22.405  25.153  1.00  0.00     0.261 C 
BRANCH  27  28
ATOM     28  O   UNL A   1      43.903  23.588  24.577  1.00  0.00    -0.460 OA
BRANCH  28  29
ATOM     29  C   UNL A   1      44.474  24.746  24.992  1.00  0.00     0.338 C 
ATOM     30  O   UNL A   1      45.573  25.177  24.669  1.00  0.00    -0.246 OA
BRANCH  29  31
ATOM     31  C   UNL A   1      43.553  25.542  25.825  1.00  0.00     0.060 A 
ATOM     32  C   UNL A   1      43.939  26.849  26.142  1.00  0.00     0.016 A 
ATOM     33  C   UNL A   1      42.414  24.985  26.408  1.00  0.00     0.016 A 
ATOM     34  C   UNL A   1      43.234  27.569  27.104  1.00  0.00     0.010 A 
ATOM     35  C   UNL A   1      41.711  25.705  27.382  1.00  0.00     0.010 A 
ATOM     36  C   UNL A   1      42.151  26.979  27.771  1.00  0.00    -0.014 A 
BRANCH  36  37
ATOM     37  C   UNL A   1      41.592  27.659  28.965  1.00  0.00     0.031 A 
ATOM     38  C   UNL A   1      42.300  27.531  30.287  1.00  0.00     0.074 A 
ATOM     39  C   UNL A   1      40.507  28.444  28.857  1.00  0.00     0.049 A 
ATOM     40  N   UNL A   1      42.057  28.139  31.420  1.00  0.00    -0.248 NA
ATOM     41  C   UNL A   1      43.435  26.595  30.338  1.00  0.00     0.031 C 
ATOM     42  C   UNL A   1      39.732  28.650  27.635  1.00  0.00     0.029 A 
ATOM     43  N   UNL A   1      39.878  29.226  29.793  1.00  0.00    -0.354 N 
ATOM     44  C   UNL A   1      43.013  27.671  32.313  1.00  0.00     0.074 A 
ATOM     45  C   UNL A   1      43.813  26.695  31.604  1.00  0.00     0.031 C 
ATOM     46  C   UNL A   1      38.733  29.512  27.894  1.00  0.00     0.029 A 
ATOM     47  C   UNL A   1      38.798  29.912  29.298  1.00  0.00     0.049 A 
ATOM     48  H   UNL A   1      40.173  29.287  30.730  1.00  0.00     0.167 HD
ATOM     49  C   UNL A   1      43.218  28.034  33.602  1.00  0.00     0.037 A 
ATOM     50  C   UNL A   1      37.963  30.775  29.908  1.00  0.00     0.037 A 
ATOM     51  C   UNL A   1      42.424  29.001  34.312  1.00  0.00     0.049 A 
ATOM     52  C   UNL A   1      38.196  31.142  31.348  1.00  0.00     0.074 A 
ATOM     53  C   UNL A   1      42.571  29.454  35.612  1.00  0.00     0.029 A 
ATOM     54  N   UNL A   1      41.325  29.658  33.782  1.00  0.00    -0.354 N 
ATOM     55  N   UNL A   1      39.141  30.741  32.163  1.00  0.00    -0.248 NA
ATOM     56  C   UNL A   1      37.254  32.099  31.947  1.00  0.00     0.031 C 
ATOM     57  C   UNL A   1      41.538  30.359  35.880  1.00  0.00     0.029 A 
ATOM     58  C   UNL A   1      40.773  30.500  34.734  1.00  0.00     0.049 A 
ATOM     59  H   UNL A   1      40.987  29.544  32.865  1.00  0.00     0.167 HD
ATOM     60  C   UNL A   1      38.923  31.413  33.359  1.00  0.00     0.074 A 
ATOM     61  C   UNL A   1      37.765  32.259  33.160  1.00  0.00     0.031 C 
ATOM     62  C   UNL A   1      39.622  31.339  34.519  1.00  0.00     0.037 A 
BRANCH  49  63
ATOM     63  C   UNL A   1      44.352  27.373  34.330  1.00  0.00     0.057 A 
ATOM     64  C   UNL A   1      44.182  26.159  35.010  1.00  0.00     0.134 A 
ATOM     65  C   UNL A   1      45.633  27.938  34.324  1.00  0.00     0.134 A 
ATOM     66  F   UNL A   1      42.977  25.573  35.063  1.00  0.00    -0.206 F 
ATOM     67  C   UNL A   1      45.242  25.542  35.676  1.00  0.00     0.040 A 
ATOM     68  C   UNL A   1      46.706  27.319  34.969  1.00  0.00     0.040 A 
ATOM     69  F   UNL A   1      45.864  29.096  33.689  1.00  0.00    -0.206 F 
ATOM     70  C   UNL A   1      46.510  26.120  35.652  1.00  0.00     0.006 A 
ENDBRANCH  49  63
BRANCH  50  71
ATOM     71  C   UNL A   1      36.839  31.375  29.149  1.00  0.00     0.057 A 
ATOM     72  C   UNL A   1      35.690  30.637  28.848  1.00  0.00     0.134 A 
ATOM     73  C   UNL A   1      36.895  32.698  28.697  1.00  0.00     0.134 A 
ATOM     74  F   UNL A   1      35.588  29.358  29.238  1.00  0.00    -0.206 F 
ATOM     75  C   UNL A   1      34.641  31.188  28.110  1.00  0.00     0.040 A 
ATOM     76  C   UNL A   1      35.845  33.269  27.977  1.00  0.00     0.040 A 
ATOM     77  F   UNL A   1      37.970  33.458  28.957  1.00  0.00    -0.206 F 
ATOM     78  C   UNL A   1      34.717  32.510  27.676  1.00  0.00     0.006 A 
ENDBRANCH  50  71
BRANCH  62  79
ATOM     79  C   UNL A   1      39.168  32.216  35.649  1.00  0.00     0.057 A 
ATOM     80  C   UNL A   1      39.569  33.553  35.753  1.00  0.00     0.134 A 
ATOM     81  C   UNL A   1      38.300  31.720  36.630  1.00  0.00     0.134 A 
ATOM     82  F   UNL A   1      40.409  34.083  34.851  1.00  0.00    -0.206 F 
ATOM     83  C   UNL A   1      39.144  34.361  36.809  1.00  0.00     0.040 A 
ATOM     84  C   UNL A   1      37.848  32.525  37.677  1.00  0.00     0.040 A 
ATOM     85  F   UNL A   1      37.870  30.450  36.583  1.00  0.00    -0.206 F 
ATOM     86  C   UNL A   1      38.276  33.848  37.772  1.00  0.00     0.006 A 
ENDBRANCH  62  79
ENDBRANCH  36  37
ENDBRANCH  29  31
ENDBRANCH  28  29
ENDBRANCH  27  28
ENDBRANCH  26  27
ENDBRANCH  25  26
ENDBRANCH   1  25
TORSDOF 18
ENDMDL
MODEL 2
REMARK VINA RESULT:     -10.4      0.950      6.399
REMARK SMILES C[C@H]1[C@H](C(=O)OCCOCCOC(=O)c2ccc(-c3c4nc(c(-c5c(F)cccc5F)c5ccc([nH]5)c(-c5c(F)cccc5F)c5nc(c(-c6c(F)cccc6F)c6ccc3[nH]6)C=C5)C=C4)cc2)CCN1C(=O)[C@H]1CC[C@@H](C[NH3+])CC1
REMARK SMILES IDX 8 1 7 2 6 3 4 4 5 5 3 6 1 7 2 8 71 9 69 10 70 11 72 12 73 13
REMARK SMILES IDX 74 14 81 15 75 16 80 17 76 18 77 19 78 20 79 21 9 25 10 26
REMARK SMILES IDX 11 27 12 28 13 29 14 30 15 31 16 32 68 33 17 34 67 35 18 36
REMARK SMILES IDX 19 37 20 38 61 39 21 40 66 41 60 42 62 43 22 44 65 45 59 46
REMARK SMILES IDX 58 47 23 49 49 50 32 51 48 52 33 53 36 54 47 55 63 56 34 57
REMARK SMILES IDX 35 58 46 60 64 61 37 62 24 63 25 64 30 65 26 66 27 67 29 68
REMARK SMILES IDX 31 69 28 70 50 71 51 72 56 73 52 74 53 75 55 76 57 77 54 78
REMARK SMILES IDX 38 79 39 80 44 81 40 82 41 83 43 84 45 85 42 86
REMARK H PARENT 79 22 79 23 79 24 62 48 36 59
REMARK Flexibility Score: inf
ROOT
ATOM      1  C   UNL A   1      39.982  20.809  26.146  1.00  0.00     0.202 C 
ENDROOT
BRANCH   1   2
ATOM      2  C   UNL A   1      39.287  22.172  26.073  1.00  0.00     0.261 C 
BRANCH   2   3
ATOM      3  O   UNL A   1      37.998  22.139  25.432  1.00  0.00    -0.463 OA
BRANCH   3   4
ATOM      4  C   UNL A   1      37.269  23.279  25.558  1.00  0.00     0.311 C 
ATOM      5  O   UNL A   1      37.631  24.279  26.168  1.00  0.00    -0.252 OA
BRANCH   4   6
ATOM      6  C   UNL A   1      35.900  23.200  24.927  1.00  0.00     0.123 C 
ATOM      7  C   UNL A   1      33.942  24.139  26.112  1.00  0.00     0.032 C 
ATOM      8  C   UNL A   1      34.971  24.441  25.014  1.00  0.00     0.096 C 
ATOM      9  N   UNL A   1      34.366  24.544  23.665  1.00  0.00    -0.339 N 
ATOM     10  C   UNL A   1      36.016  22.889  23.445  1.00  0.00     0.039 C 
ATOM     11  C   UNL A   1      34.672  23.332  22.913  1.00  0.00     0.121 C 
BRANCH   9  12
ATOM     12  C   UNL A   1      33.687  25.538  22.993  1.00  0.00     0.225 C 
ATOM     13  O   UNL A   1      33.655  25.510  21.751  1.00  0.00    -0.275 OA
BRANCH  12  14
ATOM     14  C   UNL A   1      32.929  26.694  23.654  1.00  0.00     0.078 C 
ATOM     15  C   UNL A   1      31.708  26.254  24.460  1.00  0.00     0.014 C 
ATOM     16  C   UNL A   1      33.764  27.769  24.347  1.00  0.00     0.014 C 
ATOM     17  C   UNL A   1      30.868  27.439  24.937  1.00  0.00     0.010 C 
ATOM     18  C   UNL A   1      32.868  28.941  24.777  1.00  0.00     0.010 C 
ATOM     19  C   UNL A   1      31.704  28.496  25.680  1.00  0.00     0.044 C 
BRANCH  19  20
ATOM     20  C   UNL A   1      32.154  27.979  27.063  1.00  0.00     0.262 C 
BRANCH  20  21
ATOM     21  N   UNL A   1      31.041  27.880  27.999  1.00  0.00    -0.357 N 
ATOM     22  H   UNL A   1      31.227  28.468  28.812  1.00  0.00     0.344 HD
ATOM     23  H   UNL A   1      30.933  26.911  28.298  1.00  0.00     0.344 HD
ATOM     24  H   UNL A   1      30.184  28.193  27.543  1.00  0.00     0.344 HD
ENDBRANCH  20  21
ENDBRANCH  19  20
ENDBRANCH  12  14
ENDBRANCH   9  12
ENDBRANCH   4   6
ENDBRANCH   3   4
ENDBRANCH   2   3
ENDBRANCH   1   2
BRANCH   1  25
ATOM     25  O   UNL A   1      40.883  20.588  27.226  1.00  0.00    -0.374 OA
BRANCH  25  26
ATOM     26  C   UNL A   1      42.219  20.203  26.918  1.00  0.00     0.202 C 
BRANCH  26  27
ATOM     27  C   UNL A   1      43.023  21.133  26.002  1.00  0.00     0.261 C 
BRANCH  27  28
ATOM     28  O   UNL A   1      43.352  22.390  26.627  1.00  0.00    -0.460 OA
BRANCH  28  29
ATOM     29  C   UNL A   1      43.123  23.472  25.844  1.00  0.00     0.338 C 
ATOM     30  O   UNL A   1      43.291  23.549  24.634  1.00  0.00    -0.246 OA
BRANCH  29  31
ATOM     31  C   UNL A   1      42.509  24.577  26.603  1.00  0.00     0.060 A 
ATOM     32  C   UNL A   1      43.218  25.781  26.676  1.00  0.00     0.016 A 
ATOM     33  C   UNL A   1      41.344  24.403  27.351  1.00  0.00     0.016 A 
ATOM     34  C   UNL A   1      42.809  26.777  27.560  1.00  0.00     0.010 A 
ATOM     35  C   UNL A   1      40.937  25.400  28.246  1.00  0.00     0.010 A 
ATOM     36  C   UNL A   1      41.699  26.569  28.391  1.00  0.00    -0.014 A 
BRANCH  36  37
ATOM     37  C   UNL A   1      41.448  27.524  29.498  1.00  0.00     0.031 A 
ATOM     38  C   UNL A   1      40.298  28.489  29.394  1.00  0.00     0.074 A 
ATOM     39  C   UNL A   1      42.190  27.480  30.617  1.00  0.00     0.049 A 
ATOM     40  N   UNL A   1      39.827  29.317  30.292  1.00  0.00    -0.248 NA
ATOM     41  C   UNL A   1      39.583  28.526  28.107  1.00  0.00     0.031 C 
ATOM     42  C   UNL A   1      43.329  26.593  30.840  1.00  0.00     0.029 A 
ATOM     43  N   UNL A   1      42.083  28.195  31.783  1.00  0.00    -0.354 N 
ATOM     44  C   UNL A   1      38.755  29.962  29.686  1.00  0.00     0.074 A 
ATOM     45  C   UNL A   1      38.672  29.462  28.330  1.00  0.00     0.031 C 
ATOM     46  C   UNL A   1      43.813  26.810  32.076  1.00  0.00     0.029 A 
ATOM     47  C   UNL A   1      43.021  27.853  32.724  1.00  0.00     0.049 A 
ATOM     48  H   UNL A   1      41.400  28.888  31.930  1.00  0.00     0.167 HD
ATOM     49  C   UNL A   1      37.905  30.874  30.216  1.00  0.00     0.037 A 
ATOM     50  C   UNL A   1      43.210  28.321  33.973  1.00  0.00     0.037 A 
ATOM     51  C   UNL A   1      37.985  31.375  31.563  1.00  0.00     0.049 A 
ATOM     52  C   UNL A   1      42.268  29.353  34.531  1.00  0.00     0.074 A 
ATOM     53  C   UNL A   1      37.153  32.280  32.199  1.00  0.00     0.029 A 
ATOM     54  N   UNL A   1      38.963  31.019  32.478  1.00  0.00    -0.354 N 
ATOM     55  N   UNL A   1      41.221  29.907  33.970  1.00  0.00    -0.248 NA
ATOM     56  C   UNL A   1      42.526  29.810  35.904  1.00  0.00     0.031 C 
ATOM     57  C   UNL A   1      37.650  32.500  33.489  1.00  0.00     0.029 A 
ATOM     58  C   UNL A   1      38.766  31.700  33.668  1.00  0.00     0.049 A 
ATOM     59  H   UNL A   1      39.689  30.377  32.308  1.00  0.00     0.167 HD
ATOM     60  C   UNL A   1      40.682  30.757  34.928  1.00  0.00     0.074 A 
ATOM     61  C   UNL A   1      41.509  30.634  36.110  1.00  0.00     0.031 C 
ATOM     62  C   UNL A   1      39.596  31.564  34.838  1.00  0.00     0.037 A 
BRANCH  49  63
ATOM     63  C   UNL A   1      36.811  31.391  29.329  1.00  0.00     0.057 A 
ATOM     64  C   UNL A   1      36.855  32.680  28.782  1.00  0.00     0.134 A 
ATOM     65  C   UNL A   1      35.719  30.582  28.991  1.00  0.00     0.134 A 
ATOM     66  F   UNL A   1      37.868  33.509  29.077  1.00  0.00    -0.206 F 
ATOM     67  C   UNL A   1      35.841  33.154  27.948  1.00  0.00     0.040 A 
ATOM     68  C   UNL A   1      34.710  31.037  28.141  1.00  0.00     0.040 A 
ATOM     69  F   UNL A   1      35.619  29.336  29.477  1.00  0.00    -0.206 F 
ATOM     70  C   UNL A   1      34.767  32.328  27.621  1.00  0.00     0.006 A 
ENDBRANCH  49  63
BRANCH  50  71
ATOM     71  C   UNL A   1      44.327  27.796  34.796  1.00  0.00     0.057 A 
ATOM     72  C   UNL A   1      45.568  28.441  34.831  1.00  0.00     0.134 A 
ATOM     73  C   UNL A   1      44.181  26.631  35.557  1.00  0.00     0.134 A 
ATOM     74  F   UNL A   1      45.773  29.550  34.106  1.00  0.00    -0.206 F 
ATOM     75  C   UNL A   1      46.632  27.936  35.581  1.00  0.00     0.040 A 
ATOM     76  C   UNL A   1      45.229  26.127  36.328  1.00  0.00     0.040 A 
ATOM     77  F   UNL A   1      43.014  25.970  35.566  1.00  0.00    -0.206 F 
ATOM     78  C   UNL A   1      46.461  26.778  36.336  1.00  0.00     0.006 A 
ENDBRANCH  50  71
BRANCH  62  79
ATOM     79  C   UNL A   1      39.228  32.354  36.059  1.00  0.00     0.057 A 
ATOM     80  C   UNL A   1      38.359  31.848  37.032  1.00  0.00     0.134 A 
ATOM     81  C   UNL A   1      39.769  33.629  36.273  1.00  0.00     0.134 A 
ATOM     82  F   UNL A   1      37.799  30.638  36.880  1.00  0.00    -0.206 F 
ATOM     83  C   UNL A   1      38.020  32.590  38.164  1.00  0.00     0.040 A 
ATOM     84  C   UNL A   1      39.457  34.371  37.412  1.00  0.00     0.040 A 
ATOM     85  F   UNL A   1      40.615  34.169  35.383  1.00  0.00    -0.206 F 
ATOM     86  C   UNL A   1      38.574  33.854  38.359  1.00  0.00     0.006 A 
ENDBRANCH  62  79
ENDBRANCH  36  37
ENDBRANCH  29  31
ENDBRANCH  28  29
ENDBRANCH  27  28
ENDBRANCH  26  27
ENDBRANCH  25  26
ENDBRANCH   1  25
TORSDOF 18
ENDMDL
MODEL 3
REMARK VINA RESULT:     -10.2      3.937      8.970
REMARK SMILES C[C@H]1[C@H](C(=O)OCCOCCOC(=O)c2ccc(-c3c4nc(c(-c5c(F)cccc5F)c5ccc([nH]5)c(-c5c(F)cccc5F)c5nc(c(-c6c(F)cccc6F)c6ccc3[nH]6)C=C5)C=C4)cc2)CCN1C(=O)[C@H]1CC[C@@H](C[NH3+])CC1
REMARK SMILES IDX 8 1 7 2 6 3 4 4 5 5 3 6 1 7 2 8 71 9 69 10 70 11 72 12 73 13
REMARK SMILES IDX 74 14 81 15 75 16 80 17 76 18 77 19 78 20 79 21 9 25 10 26
REMARK SMILES IDX 11 27 12 28 13 29 14 30 15 31 16 32 68 33 17 34 67 35 18 36
REMARK SMILES IDX 19 37 20 38 61 39 21 40 66 41 60 42 62 43 22 44 65 45 59 46
REMARK SMILES IDX 58 47 23 49 49 50 32 51 48 52 33 53 36 54 47 55 63 56 34 57
REMARK SMILES IDX 35 58 46 60 64 61 37 62 24 63 25 64 30 65 26 66 27 67 29 68
REMARK SMILES IDX 31 69 28 70 50 71 51 72 56 73 52 74 53 75 55 76 57 77 54 78
REMARK SMILES IDX 38 79 39 80 44 81 40 82 41 83 43 84 45 85 42 86
REMARK H PARENT 79 22 79 23 79 24 62 48 36 59
REMARK Flexibility Score: inf
ROOT
ATOM      1  C   UNL A   1      34.923  33.503  29.256  1.00  0.00     0.202 C 
ENDROOT
BRANCH   1   2
ATOM      2  C   UNL A   1      35.677  32.745  28.159  1.00  0.00     0.261 C 
BRANCH   2   3
ATOM      3  O   UNL A   1      34.831  31.948  27.309  1.00  0.00    -0.463 OA
BRANCH   3   4
ATOM      4  C   UNL A   1      34.662  30.662  27.716  1.00  0.00     0.311 C 
ATOM      5  O   UNL A   1      35.537  29.968  28.222  1.00  0.00    -0.252 OA
BRANCH   4   6
ATOM      6  C   UNL A   1      33.291  30.105  27.427  1.00  0.00     0.123 C 
ATOM      7  C   UNL A   1      31.469  31.622  26.719  1.00  0.00     0.032 C 
ATOM      8  C   UNL A   1      32.519  30.637  26.189  1.00  0.00     0.096 C 
ATOM      9  N   UNL A   1      31.923  29.426  25.577  1.00  0.00    -0.339 N 
ATOM     10  C   UNL A   1      33.358  28.600  27.240  1.00  0.00     0.039 C 
ATOM     11  C   UNL A   1      32.074  28.304  26.498  1.00  0.00     0.121 C 
BRANCH   9  12
ATOM     12  C   UNL A   1      31.365  29.150  24.347  1.00  0.00     0.225 C 
ATOM     13  O   UNL A   1      32.053  28.567  23.492  1.00  0.00    -0.275 OA
BRANCH  12  14
ATOM     14  C   UNL A   1      29.928  29.484  23.932  1.00  0.00     0.078 C 
ATOM     15  C   UNL A   1      29.674  30.977  23.728  1.00  0.00     0.014 C 
ATOM     16  C   UNL A   1      29.290  28.604  22.859  1.00  0.00     0.014 C 
ATOM     17  C   UNL A   1      28.193  31.290  23.510  1.00  0.00     0.010 C 
ATOM     18  C   UNL A   1      27.800  28.949  22.708  1.00  0.00     0.010 C 
ATOM     19  C   UNL A   1      27.566  30.437  22.394  1.00  0.00     0.044 C 
BRANCH  19  20
ATOM     20  C   UNL A   1      28.085  30.867  21.005  1.00  0.00     0.262 C 
BRANCH  20  21
ATOM     21  N   UNL A   1      28.030  32.312  20.824  1.00  0.00    -0.357 N 
ATOM     22  H   UNL A   1      28.811  32.612  20.241  1.00  0.00     0.344 HD
ATOM     23  H   UNL A   1      28.089  32.771  21.733  1.00  0.00     0.344 HD
ATOM     24  H   UNL A   1      27.152  32.565  20.371  1.00  0.00     0.344 HD
ENDBRANCH  20  21
ENDBRANCH  19  20
ENDBRANCH  12  14
ENDBRANCH   9  12
ENDBRANCH   4   6
ENDBRANCH   3   4
ENDBRANCH   2   3
ENDBRANCH   1   2
BRANCH   1  25
ATOM     25  O   UNL A   1      34.620  34.874  29.018  1.00  0.00    -0.374 OA
BRANCH  25  26
ATOM     26  C   UNL A   1      33.275  35.219  28.703  1.00  0.00     0.202 C 
BRANCH  26  27
ATOM     27  C   UNL A   1      32.538  36.138  29.684  1.00  0.00     0.261 C 
BRANCH  27  28
ATOM     28  O   UNL A   1      33.265  36.347  30.911  1.00  0.00    -0.460 OA
BRANCH  28  29
ATOM     29  C   UNL A   1      32.898  35.516  31.918  1.00  0.00     0.338 C 
ATOM     30  O   UNL A   1      31.758  35.179  32.211  1.00  0.00    -0.246 OA
BRANCH  29  31
ATOM     31  C   UNL A   1      34.068  34.929  32.597  1.00  0.00     0.060 A 
ATOM     32  C   UNL A   1      35.287  35.605  32.478  1.00  0.00     0.016 A 
ATOM     33  C   UNL A   1      34.017  33.676  33.208  1.00  0.00     0.016 A 
ATOM     34  C   UNL A   1      36.467  34.992  32.895  1.00  0.00     0.010 A 
ATOM     35  C   UNL A   1      35.203  33.055  33.619  1.00  0.00     0.010 A 
ATOM     36  C   UNL A   1      36.438  33.690  33.415  1.00  0.00    -0.014 A 
BRANCH  36  37
ATOM     37  C   UNL A   1      37.719  32.967  33.600  1.00  0.00     0.031 A 
ATOM     38  C   UNL A   1      38.531  33.207  34.845  1.00  0.00     0.074 A 
ATOM     39  C   UNL A   1      38.119  32.049  32.704  1.00  0.00     0.049 A 
ATOM     40  N   UNL A   1      39.609  32.594  35.263  1.00  0.00    -0.248 NA
ATOM     41  C   UNL A   1      38.064  34.281  35.738  1.00  0.00     0.031 C 
ATOM     42  C   UNL A   1      37.424  31.725  31.460  1.00  0.00     0.029 A 
ATOM     43  N   UNL A   1      39.206  31.212  32.713  1.00  0.00    -0.354 N 
ATOM     44  C   UNL A   1      39.942  33.196  36.470  1.00  0.00     0.074 A 
ATOM     45  C   UNL A   1      38.978  34.251  36.697  1.00  0.00     0.031 C 
ATOM     46  C   UNL A   1      38.098  30.749  30.827  1.00  0.00     0.029 A 
ATOM     47  C   UNL A   1      39.271  30.386  31.619  1.00  0.00     0.049 A 
ATOM     48  H   UNL A   1      39.876  31.205  33.434  1.00  0.00     0.167 HD
ATOM     49  C   UNL A   1      40.948  32.885  37.323  1.00  0.00     0.037 A 
ATOM     50  C   UNL A   1      40.170  29.436  31.300  1.00  0.00     0.037 A 
ATOM     51  C   UNL A   1      41.910  31.838  37.101  1.00  0.00     0.049 A 
ATOM     52  C   UNL A   1      41.295  29.126  32.251  1.00  0.00     0.074 A 
ATOM     53  C   UNL A   1      42.949  31.431  37.919  1.00  0.00     0.029 A 
ATOM     54  N   UNL A   1      41.954  31.038  35.970  1.00  0.00    -0.354 N 
ATOM     55  N   UNL A   1      41.561  29.659  33.419  1.00  0.00    -0.248 NA
ATOM     56  C   UNL A   1      42.233  28.069  31.846  1.00  0.00     0.031 C 
ATOM     57  C   UNL A   1      43.645  30.407  37.267  1.00  0.00     0.029 A 
ATOM     58  C   UNL A   1      43.014  30.150  36.061  1.00  0.00     0.049 A 
ATOM     59  H   UNL A   1      41.326  31.091  35.215  1.00  0.00     0.167 HD
ATOM     60  C   UNL A   1      42.678  28.986  33.898  1.00  0.00     0.074 A 
ATOM     61  C   UNL A   1      43.031  27.997  32.901  1.00  0.00     0.031 C 
ATOM     62  C   UNL A   1      43.350  29.169  35.062  1.00  0.00     0.037 A 
BRANCH  49  63
ATOM     63  C   UNL A   1      41.058  33.696  38.580  1.00  0.00     0.057 A 
ATOM     64  C   UNL A   1      41.915  34.802  38.669  1.00  0.00     0.134 A 
ATOM     65  C   UNL A   1      40.278  33.391  39.702  1.00  0.00     0.134 A 
ATOM     66  F   UNL A   1      42.698  35.140  37.634  1.00  0.00    -0.206 F 
ATOM     67  C   UNL A   1      42.006  35.562  39.837  1.00  0.00     0.040 A 
ATOM     68  C   UNL A   1      40.345  34.155  40.868  1.00  0.00     0.040 A 
ATOM     69  F   UNL A   1      39.434  32.348  39.681  1.00  0.00    -0.206 F 
ATOM     70  C   UNL A   1      41.215  35.241  40.939  1.00  0.00     0.006 A 
ENDBRANCH  49  63
BRANCH  50  71
ATOM     71  C   UNL A   1      40.031  28.684  30.029  1.00  0.00     0.057 A 
ATOM     72  C   UNL A   1      39.245  27.530  29.951  1.00  0.00     0.134 A 
ATOM     73  C   UNL A   1      40.691  29.099  28.867  1.00  0.00     0.134 A 
ATOM     74  F   UNL A   1      38.605  27.073  31.037  1.00  0.00    -0.206 F 
ATOM     75  C   UNL A   1      39.133  26.803  28.764  1.00  0.00     0.040 A 
ATOM     76  C   UNL A   1      40.570  28.394  27.669  1.00  0.00     0.040 A 
ATOM     77  F   UNL A   1      41.456  30.200  28.879  1.00  0.00    -0.206 F 
ATOM     78  C   UNL A   1      39.794  27.238  27.618  1.00  0.00     0.006 A 
ENDBRANCH  50  71
BRANCH  62  79
ATOM     79  C   UNL A   1      44.516  28.263  35.328  1.00  0.00     0.057 A 
ATOM     80  C   UNL A   1      45.817  28.599  34.937  1.00  0.00     0.134 A 
ATOM     81  C   UNL A   1      44.335  27.050  36.005  1.00  0.00     0.134 A 
ATOM     82  F   UNL A   1      46.055  29.741  34.275  1.00  0.00    -0.206 F 
ATOM     83  C   UNL A   1      46.896  27.749  35.186  1.00  0.00     0.040 A 
ATOM     84  C   UNL A   1      45.409  26.202  36.281  1.00  0.00     0.040 A 
ATOM     85  F   UNL A   1      43.115  26.672  36.415  1.00  0.00    -0.206 F 
ATOM     86  C   UNL A   1      46.694  26.549  35.865  1.00  0.00     0.006 A 
ENDBRANCH  62  79
ENDBRANCH  36  37
ENDBRANCH  29  31
ENDBRANCH  28  29
ENDBRANCH  27  28
ENDBRANCH  26  27
ENDBRANCH  25  26
ENDBRANCH   1  25
TORSDOF 18
ENDMDL
