MODEL 1
REMARK VINA RESULT:     -12.3      0.000      0.000
REMARK SMILES CC(C)n1c2c(c3ccccc31)[C@@H](c1ccccc1)N(CC(=O)OCCOCCOC(=O)c1ccc(-c3c4nc(c(-c5c(F)cccc5F)c5ccc([nH]5)c(-c5c(F)cccc5F)c5nc(c(-c6c(F)cccc6F)c6ccc3[nH]6)C=C5)C=C4)cc1)C2=O
REMARK SMILES IDX 27 1 26 2 25 3 24 4 22 5 23 6 21 7 20 8 4 9 5 10 12 11 6 12
REMARK SMILES IDX 87 13 7 14 11 15 13 16 88 17 8 18 10 19 9 20 2 21 1 22 3 23
REMARK SMILES IDX 14 24 15 25 19 26 16 27 18 28 17 29 28 30 29 31 30 32 31 33
REMARK SMILES IDX 32 34 33 35 34 36 86 37 35 38 85 39 36 40 37 41 38 42 79 43
REMARK SMILES IDX 39 44 84 45 78 46 80 47 40 48 83 49 77 50 76 51 41 53 67 54
REMARK SMILES IDX 50 55 66 56 51 57 54 58 65 59 81 60 52 61 53 62 64 64 82 65
REMARK SMILES IDX 55 66 42 67 43 68 48 69 44 70 45 71 47 72 49 73 46 74 68 75
REMARK SMILES IDX 69 76 74 77 70 78 71 79 73 80 75 81 72 82 56 83 57 84 62 85
REMARK SMILES IDX 58 86 59 87 61 88 63 89 60 90
REMARK H PARENT 80 52 54 63
REMARK Flexibility Score: inf
ROOT
ATOM      1  O   UNL A   1      33.662  29.528  26.640  1.00  0.00    -0.374 OA
ENDROOT
BRANCH   1   2
ATOM      2  C   UNL A   1      33.165  28.258  27.034  1.00  0.00     0.202 C 
BRANCH   2   3
ATOM      3  C   UNL A   1      31.692  27.923  26.766  1.00  0.00     0.261 C 
BRANCH   3   4
ATOM      4  O   UNL A   1      31.308  26.574  27.126  1.00  0.00    -0.462 OA
BRANCH   4   5
ATOM      5  C   UNL A   1      30.698  25.878  26.130  1.00  0.00     0.325 C 
ATOM      6  O   UNL A   1      30.105  26.406  25.190  1.00  0.00    -0.250 OA
BRANCH   5   7
ATOM      7  C   UNL A   1      30.822  24.350  26.196  1.00  0.00     0.243 C 
BRANCH   7   8
ATOM      8  N   UNL A   1      31.945  23.596  25.656  1.00  0.00    -0.315 N 
ATOM      9  N   UNL A   1      33.965  20.706  24.882  1.00  0.00    -0.334 N 
ATOM     10  C   UNL A   1      33.220  21.821  25.138  1.00  0.00     0.114 A 
ATOM     11  C   UNL A   1      35.317  21.089  24.980  1.00  0.00     0.049 A 
ATOM     12  C   UNL A   1      34.034  22.927  25.117  1.00  0.00     0.018 A 
ATOM     13  C   UNL A   1      31.890  22.210  25.495  1.00  0.00     0.272 C 
ATOM     14  C   UNL A   1      35.367  22.491  25.097  1.00  0.00     0.006 A 
ATOM     15  C   UNL A   1      36.500  20.327  24.997  1.00  0.00     0.027 A 
ATOM     16  C   UNL A   1      33.263  24.182  25.320  1.00  0.00     0.150 C 
ATOM     17  O   UNL A   1      30.907  21.509  25.713  1.00  0.00    -0.267 OA
ATOM     18  C   UNL A   1      36.612  23.136  25.217  1.00  0.00     0.011 A 
ATOM     19  C   UNL A   1      37.725  20.989  25.125  1.00  0.00     0.002 A 
ATOM     20  C   UNL A   1      37.782  22.374  25.235  1.00  0.00     0.001 A 
BRANCH   9  21
ATOM     21  C   UNL A   1      33.532  19.326  24.625  1.00  0.00     0.082 C 
ATOM     22  C   UNL A   1      32.904  18.586  25.807  1.00  0.00     0.031 C 
ATOM     23  C   UNL A   1      32.538  19.236  23.452  1.00  0.00     0.031 C 
ENDBRANCH   9  21
BRANCH  16  24
ATOM     24  C   UNL A   1      33.301  25.040  24.052  1.00  0.00    -0.021 A 
ATOM     25  C   UNL A   1      32.827  24.477  22.848  1.00  0.00     0.006 A 
ATOM     26  C   UNL A   1      33.711  26.389  23.990  1.00  0.00     0.006 A 
ATOM     27  C   UNL A   1      32.784  25.203  21.652  1.00  0.00     0.000 A 
ATOM     28  C   UNL A   1      33.639  27.128  22.800  1.00  0.00     0.000 A 
ATOM     29  C   UNL A   1      33.182  26.533  21.629  1.00  0.00     0.000 A 
ENDBRANCH  16  24
ENDBRANCH   7   8
ENDBRANCH   5   7
ENDBRANCH   4   5
ENDBRANCH   3   4
ENDBRANCH   2   3
ENDBRANCH   1   2
BRANCH   1  30
ATOM     30  C   UNL A   1      32.871  30.663  26.976  1.00  0.00     0.202 C 
BRANCH  30  31
ATOM     31  C   UNL A   1      33.577  31.874  27.622  1.00  0.00     0.261 C 
BRANCH  31  32
ATOM     32  O   UNL A   1      35.009  31.795  27.512  1.00  0.00    -0.460 OA
BRANCH  32  33
ATOM     33  C   UNL A   1      35.664  31.768  28.709  1.00  0.00     0.338 C 
ATOM     34  O   UNL A   1      35.189  32.000  29.806  1.00  0.00    -0.246 OA
BRANCH  33  35
ATOM     35  C   UNL A   1      36.866  30.936  28.479  1.00  0.00     0.060 A 
ATOM     36  C   UNL A   1      36.766  29.591  28.108  1.00  0.00     0.016 A 
ATOM     37  C   UNL A   1      38.056  31.449  29.023  1.00  0.00     0.016 A 
ATOM     38  C   UNL A   1      37.831  28.737  28.394  1.00  0.00     0.010 A 
ATOM     39  C   UNL A   1      39.086  30.580  29.360  1.00  0.00     0.010 A 
ATOM     40  C   UNL A   1      38.954  29.215  29.094  1.00  0.00    -0.014 A 
BRANCH  40  41
ATOM     41  C   UNL A   1      40.093  28.317  29.322  1.00  0.00     0.031 A 
ATOM     42  C   UNL A   1      40.424  28.215  30.771  1.00  0.00     0.074 A 
ATOM     43  C   UNL A   1      40.686  27.520  28.404  1.00  0.00     0.049 A 
ATOM     44  N   UNL A   1      41.517  28.566  31.363  1.00  0.00    -0.248 NA
ATOM     45  C   UNL A   1      39.339  27.832  31.693  1.00  0.00     0.031 C 
ATOM     46  C   UNL A   1      40.328  27.320  27.002  1.00  0.00     0.029 A 
ATOM     47  N   UNL A   1      41.723  26.638  28.561  1.00  0.00    -0.354 N 
ATOM     48  C   UNL A   1      41.325  28.268  32.711  1.00  0.00     0.074 A 
ATOM     49  C   UNL A   1      39.922  28.005  32.876  1.00  0.00     0.031 C 
ATOM     50  C   UNL A   1      40.974  26.241  26.502  1.00  0.00     0.029 A 
ATOM     51  C   UNL A   1      41.887  25.736  27.509  1.00  0.00     0.049 A 
ATOM     52  H   UNL A   1      42.306  26.640  29.355  1.00  0.00     0.167 HD
ATOM     53  C   UNL A   1      42.374  28.003  33.533  1.00  0.00     0.037 A 
ATOM     54  C   UNL A   1      42.689  24.638  27.471  1.00  0.00     0.037 A 
ATOM     55  C   UNL A   1      43.605  28.518  32.989  1.00  0.00     0.049 A 
ATOM     56  C   UNL A   1      43.710  24.801  28.530  1.00  0.00     0.074 A 
ATOM     57  C   UNL A   1      44.086  29.770  32.665  1.00  0.00     0.029 A 
ATOM     58  N   UNL A   1      44.447  27.627  32.374  1.00  0.00    -0.354 N 
ATOM     59  N   UNL A   1      44.659  25.690  28.481  1.00  0.00    -0.248 NA
ATOM     60  C   UNL A   1      43.386  24.296  29.855  1.00  0.00     0.031 C 
ATOM     61  C   UNL A   1      44.882  29.572  31.497  1.00  0.00     0.029 A 
ATOM     62  C   UNL A   1      44.884  28.207  31.213  1.00  0.00     0.049 A 
ATOM     63  H   UNL A   1      44.694  26.734  32.707  1.00  0.00     0.167 HD
ATOM     64  C   UNL A   1      44.737  26.185  29.773  1.00  0.00     0.074 A 
ATOM     65  C   UNL A   1      43.980  25.238  30.591  1.00  0.00     0.031 C 
ATOM     66  C   UNL A   1      45.160  27.461  30.009  1.00  0.00     0.037 A 
BRANCH  53  67
ATOM     67  C   UNL A   1      42.353  26.916  34.586  1.00  0.00     0.057 A 
ATOM     68  C   UNL A   1      43.010  25.672  34.468  1.00  0.00     0.134 A 
ATOM     69  C   UNL A   1      41.943  27.249  35.889  1.00  0.00     0.134 A 
ATOM     70  F   UNL A   1      43.505  25.216  33.312  1.00  0.00    -0.206 F 
ATOM     71  C   UNL A   1      43.291  24.856  35.565  1.00  0.00     0.040 A 
ATOM     72  C   UNL A   1      42.266  26.462  37.001  1.00  0.00     0.040 A 
ATOM     73  F   UNL A   1      41.299  28.399  36.136  1.00  0.00    -0.206 F 
ATOM     74  C   UNL A   1      42.958  25.268  36.843  1.00  0.00     0.006 A 
ENDBRANCH  53  67
BRANCH  54  75
ATOM     75  C   UNL A   1      42.474  23.335  26.791  1.00  0.00     0.057 A 
ATOM     76  C   UNL A   1      41.413  22.491  27.162  1.00  0.00     0.134 A 
ATOM     77  C   UNL A   1      43.453  22.755  25.967  1.00  0.00     0.134 A 
ATOM     78  F   UNL A   1      40.466  22.910  28.014  1.00  0.00    -0.206 F 
ATOM     79  C   UNL A   1      41.332  21.155  26.751  1.00  0.00     0.040 A 
ATOM     80  C   UNL A   1      43.386  21.416  25.549  1.00  0.00     0.040 A 
ATOM     81  F   UNL A   1      44.535  23.457  25.598  1.00  0.00    -0.206 F 
ATOM     82  C   UNL A   1      42.327  20.608  25.949  1.00  0.00     0.006 A 
ENDBRANCH  54  75
BRANCH  66  83
ATOM     83  C   UNL A   1      45.745  28.222  28.852  1.00  0.00     0.057 A 
ATOM     84  C   UNL A   1      47.134  28.287  28.720  1.00  0.00     0.134 A 
ATOM     85  C   UNL A   1      44.986  28.993  27.956  1.00  0.00     0.134 A 
ATOM     86  F   UNL A   1      47.925  27.623  29.578  1.00  0.00    -0.206 F 
ATOM     87  C   UNL A   1      47.746  29.068  27.737  1.00  0.00     0.040 A 
ATOM     88  C   UNL A   1      45.584  29.755  26.946  1.00  0.00     0.040 A 
ATOM     89  F   UNL A   1      43.654  29.072  28.066  1.00  0.00    -0.206 F 
ATOM     90  C   UNL A   1      46.971  29.797  26.839  1.00  0.00     0.006 A 
ENDBRANCH  66  83
ENDBRANCH  40  41
ENDBRANCH  33  35
ENDBRANCH  32  33
ENDBRANCH  31  32
ENDBRANCH  30  31
ENDBRANCH   1  30
TORSDOF 17
ENDMDL
MODEL 2
REMARK VINA RESULT:     -12.0      2.940      8.076
REMARK SMILES CC(C)n1c2c(c3ccccc31)[C@@H](c1ccccc1)N(CC(=O)OCCOCCOC(=O)c1ccc(-c3c4nc(c(-c5c(F)cccc5F)c5ccc([nH]5)c(-c5c(F)cccc5F)c5nc(c(-c6c(F)cccc6F)c6ccc3[nH]6)C=C5)C=C4)cc1)C2=O
REMARK SMILES IDX 27 1 26 2 25 3 24 4 22 5 23 6 21 7 20 8 4 9 5 10 12 11 6 12
REMARK SMILES IDX 87 13 7 14 11 15 13 16 88 17 8 18 10 19 9 20 2 21 1 22 3 23
REMARK SMILES IDX 14 24 15 25 19 26 16 27 18 28 17 29 28 30 29 31 30 32 31 33
REMARK SMILES IDX 32 34 33 35 34 36 86 37 35 38 85 39 36 40 37 41 38 42 79 43
REMARK SMILES IDX 39 44 84 45 78 46 80 47 40 48 83 49 77 50 76 51 41 53 67 54
REMARK SMILES IDX 50 55 66 56 51 57 54 58 65 59 81 60 52 61 53 62 64 64 82 65
REMARK SMILES IDX 55 66 42 67 43 68 48 69 44 70 45 71 47 72 49 73 46 74 68 75
REMARK SMILES IDX 69 76 74 77 70 78 71 79 73 80 75 81 72 82 56 83 57 84 62 85
REMARK SMILES IDX 58 86 59 87 61 88 63 89 60 90
REMARK H PARENT 80 52 54 63
REMARK Flexibility Score: inf
ROOT
ATOM      1  O   UNL A   1      36.830  22.647  25.488  1.00  0.00    -0.374 OA
ENDROOT
BRANCH   1   2
ATOM      2  C   UNL A   1      36.409  23.530  24.460  1.00  0.00     0.202 C 
BRANCH   2   3
ATOM      3  C   UNL A   1      35.677  22.953  23.242  1.00  0.00     0.261 C 
BRANCH   3   4
ATOM      4  O   UNL A   1      34.357  22.429  23.527  1.00  0.00    -0.462 OA
BRANCH   4   5
ATOM      5  C   UNL A   1      33.381  22.876  22.692  1.00  0.00     0.325 C 
ATOM      6  O   UNL A   1      32.485  22.163  22.243  1.00  0.00    -0.250 OA
BRANCH   5   7
ATOM      7  C   UNL A   1      33.410  24.373  22.355  1.00  0.00     0.243 C 
BRANCH   7   8
ATOM      8  N   UNL A   1      32.858  25.415  23.211  1.00  0.00    -0.315 N 
ATOM      9  N   UNL A   1      31.146  28.476  24.068  1.00  0.00    -0.334 N 
ATOM     10  C   UNL A   1      31.783  27.300  23.786  1.00  0.00     0.114 A 
ATOM     11  C   UNL A   1      31.798  29.033  25.185  1.00  0.00     0.049 A 
ATOM     12  C   UNL A   1      32.610  26.970  24.831  1.00  0.00     0.018 A 
ATOM     13  C   UNL A   1      31.931  26.343  22.733  1.00  0.00     0.272 C 
ATOM     14  C   UNL A   1      32.699  28.075  25.688  1.00  0.00     0.006 A 
ATOM     15  C   UNL A   1      31.690  30.300  25.787  1.00  0.00     0.027 A 
ATOM     16  C   UNL A   1      33.278  25.659  24.611  1.00  0.00     0.150 C 
ATOM     17  O   UNL A   1      31.442  26.342  21.608  1.00  0.00    -0.267 OA
ATOM     18  C   UNL A   1      33.488  28.385  26.812  1.00  0.00     0.011 A 
ATOM     19  C   UNL A   1      32.491  30.588  26.897  1.00  0.00     0.002 A 
ATOM     20  C   UNL A   1      33.378  29.646  27.404  1.00  0.00     0.001 A 
BRANCH   9  21
ATOM     21  C   UNL A   1      30.047  29.142  23.357  1.00  0.00     0.082 C 
ATOM     22  C   UNL A   1      30.384  29.710  21.977  1.00  0.00     0.031 C 
ATOM     23  C   UNL A   1      28.824  28.224  23.183  1.00  0.00     0.031 C 
ENDBRANCH   9  21
BRANCH  16  24
ATOM     24  C   UNL A   1      32.788  24.634  25.637  1.00  0.00    -0.021 A 
ATOM     25  C   UNL A   1      31.409  24.336  25.680  1.00  0.00     0.006 A 
ATOM     26  C   UNL A   1      33.612  23.896  26.512  1.00  0.00     0.006 A 
ATOM     27  C   UNL A   1      30.880  23.380  26.555  1.00  0.00     0.000 A 
ATOM     28  C   UNL A   1      33.088  22.915  27.368  1.00  0.00     0.000 A 
ATOM     29  C   UNL A   1      31.721  22.662  27.394  1.00  0.00     0.000 A 
ENDBRANCH  16  24
ENDBRANCH   7   8
ENDBRANCH   5   7
ENDBRANCH   4   5
ENDBRANCH   3   4
ENDBRANCH   2   3
ENDBRANCH   1   2
BRANCH   1  30
ATOM     30  C   UNL A   1      37.220  21.336  25.094  1.00  0.00     0.202 C 
BRANCH  30  31
ATOM     31  C   UNL A   1      38.613  20.832  25.528  1.00  0.00     0.261 C 
BRANCH  31  32
ATOM     32  O   UNL A   1      39.540  21.909  25.749  1.00  0.00    -0.460 OA
BRANCH  32  33
ATOM     33  C   UNL A   1      40.128  21.902  26.980  1.00  0.00     0.338 C 
ATOM     34  O   UNL A   1      40.549  20.931  27.582  1.00  0.00    -0.246 OA
BRANCH  33  35
ATOM     35  C   UNL A   1      40.601  23.287  27.196  1.00  0.00     0.060 A 
ATOM     36  C   UNL A   1      41.731  23.563  27.972  1.00  0.00     0.016 A 
ATOM     37  C   UNL A   1      39.654  24.287  26.917  1.00  0.00     0.016 A 
ATOM     38  C   UNL A   1      41.846  24.821  28.564  1.00  0.00     0.010 A 
ATOM     39  C   UNL A   1      39.745  25.516  27.559  1.00  0.00     0.010 A 
ATOM     40  C   UNL A   1      40.814  25.766  28.425  1.00  0.00    -0.014 A 
BRANCH  40  41
ATOM     41  C   UNL A   1      40.986  27.108  28.996  1.00  0.00     0.031 A 
ATOM     42  C   UNL A   1      42.210  27.771  28.467  1.00  0.00     0.074 A 
ATOM     43  C   UNL A   1      40.093  27.777  29.760  1.00  0.00     0.049 A 
ATOM     44  N   UNL A   1      43.255  28.152  29.124  1.00  0.00    -0.248 NA
ATOM     45  C   UNL A   1      42.355  27.868  27.003  1.00  0.00     0.031 C 
ATOM     46  C   UNL A   1      38.751  27.369  30.165  1.00  0.00     0.029 A 
ATOM     47  N   UNL A   1      40.179  29.038  30.290  1.00  0.00    -0.354 N 
ATOM     48  C   UNL A   1      44.110  28.711  28.176  1.00  0.00     0.074 A 
ATOM     49  C   UNL A   1      43.594  28.337  26.889  1.00  0.00     0.031 C 
ATOM     50  C   UNL A   1      38.074  28.422  30.679  1.00  0.00     0.029 A 
ATOM     51  C   UNL A   1      38.970  29.560  30.753  1.00  0.00     0.049 A 
ATOM     52  H   UNL A   1      41.026  29.537  30.340  1.00  0.00     0.167 HD
ATOM     53  C   UNL A   1      45.025  29.655  28.520  1.00  0.00     0.037 A 
ATOM     54  C   UNL A   1      38.709  30.837  31.142  1.00  0.00     0.037 A 
ATOM     55  C   UNL A   1      45.298  29.626  29.934  1.00  0.00     0.049 A 
ATOM     56  C   UNL A   1      40.007  31.480  31.445  1.00  0.00     0.074 A 
ATOM     57  C   UNL A   1      45.822  28.701  30.814  1.00  0.00     0.029 A 
ATOM     58  N   UNL A   1      44.694  30.578  30.716  1.00  0.00    -0.354 N 
ATOM     59  N   UNL A   1      40.749  31.153  32.464  1.00  0.00    -0.248 NA
ATOM     60  C   UNL A   1      40.696  32.145  30.351  1.00  0.00     0.031 C 
ATOM     61  C   UNL A   1      45.094  28.887  32.027  1.00  0.00     0.029 A 
ATOM     62  C   UNL A   1      44.212  29.949  31.833  1.00  0.00     0.049 A 
ATOM     63  H   UNL A   1      44.620  31.538  30.511  1.00  0.00     0.167 HD
ATOM     64  C   UNL A   1      42.041  31.154  31.966  1.00  0.00     0.074 A 
ATOM     65  C   UNL A   1      41.955  31.843  30.679  1.00  0.00     0.031 C 
ATOM     66  C   UNL A   1      43.000  30.347  32.507  1.00  0.00     0.037 A 
BRANCH  53  67
ATOM     67  C   UNL A   1      45.331  30.868  27.667  1.00  0.00     0.057 A 
ATOM     68  C   UNL A   1      44.461  31.966  27.493  1.00  0.00     0.134 A 
ATOM     69  C   UNL A   1      46.661  31.097  27.275  1.00  0.00     0.134 A 
ATOM     70  F   UNL A   1      43.173  31.939  27.853  1.00  0.00    -0.206 F 
ATOM     71  C   UNL A   1      44.892  33.209  27.027  1.00  0.00     0.040 A 
ATOM     72  C   UNL A   1      47.114  32.353  26.855  1.00  0.00     0.040 A 
ATOM     73  F   UNL A   1      47.586  30.132  27.379  1.00  0.00    -0.206 F 
ATOM     74  C   UNL A   1      46.231  33.420  26.747  1.00  0.00     0.006 A 
ENDBRANCH  53  67
BRANCH  54  75
ATOM     75  C   UNL A   1      37.462  31.632  30.999  1.00  0.00     0.057 A 
ATOM     76  C   UNL A   1      36.548  31.742  32.061  1.00  0.00     0.134 A 
ATOM     77  C   UNL A   1      36.993  32.062  29.746  1.00  0.00     0.134 A 
ATOM     78  F   UNL A   1      36.855  31.285  33.283  1.00  0.00    -0.206 F 
ATOM     79  C   UNL A   1      35.251  32.241  31.892  1.00  0.00     0.040 A 
ATOM     80  C   UNL A   1      35.694  32.561  29.561  1.00  0.00     0.040 A 
ATOM     81  F   UNL A   1      37.766  31.950  28.655  1.00  0.00    -0.206 F 
ATOM     82  C   UNL A   1      34.814  32.642  30.636  1.00  0.00     0.006 A 
ENDBRANCH  54  75
BRANCH  66  83
ATOM     83  C   UNL A   1      42.665  29.635  33.788  1.00  0.00     0.057 A 
ATOM     84  C   UNL A   1      43.111  30.175  34.997  1.00  0.00     0.134 A 
ATOM     85  C   UNL A   1      42.038  28.380  33.847  1.00  0.00     0.134 A 
ATOM     86  F   UNL A   1      43.770  31.345  35.010  1.00  0.00    -0.206 F 
ATOM     87  C   UNL A   1      42.934  29.510  36.211  1.00  0.00     0.040 A 
ATOM     88  C   UNL A   1      41.825  27.717  35.060  1.00  0.00     0.040 A 
ATOM     89  F   UNL A   1      41.665  27.738  32.733  1.00  0.00    -0.206 F 
ATOM     90  C   UNL A   1      42.279  28.282  36.248  1.00  0.00     0.006 A 
ENDBRANCH  66  83
ENDBRANCH  40  41
ENDBRANCH  33  35
ENDBRANCH  32  33
ENDBRANCH  31  32
ENDBRANCH  30  31
ENDBRANCH   1  30
TORSDOF 17
ENDMDL
MODEL 3
REMARK VINA RESULT:     -11.6      1.697      2.175
REMARK SMILES CC(C)n1c2c(c3ccccc31)[C@@H](c1ccccc1)N(CC(=O)OCCOCCOC(=O)c1ccc(-c3c4nc(c(-c5c(F)cccc5F)c5ccc([nH]5)c(-c5c(F)cccc5F)c5nc(c(-c6c(F)cccc6F)c6ccc3[nH]6)C=C5)C=C4)cc1)C2=O
REMARK SMILES IDX 27 1 26 2 25 3 24 4 22 5 23 6 21 7 20 8 4 9 5 10 12 11 6 12
REMARK SMILES IDX 87 13 7 14 11 15 13 16 88 17 8 18 10 19 9 20 2 21 1 22 3 23
REMARK SMILES IDX 14 24 15 25 19 26 16 27 18 28 17 29 28 30 29 31 30 32 31 33
REMARK SMILES IDX 32 34 33 35 34 36 86 37 35 38 85 39 36 40 37 41 38 42 79 43
REMARK SMILES IDX 39 44 84 45 78 46 80 47 40 48 83 49 77 50 76 51 41 53 67 54
REMARK SMILES IDX 50 55 66 56 51 57 54 58 65 59 81 60 52 61 53 62 64 64 82 65
REMARK SMILES IDX 55 66 42 67 43 68 48 69 44 70 45 71 47 72 49 73 46 74 68 75
REMARK SMILES IDX 69 76 74 77 70 78 71 79 73 80 75 81 72 82 56 83 57 84 62 85
REMARK SMILES IDX 58 86 59 87 61 88 63 89 60 90
REMARK H PARENT 80 52 54 63
REMARK Flexibility Score: inf
ROOT
ATOM      1  O   UNL A   1      32.741  30.464  26.714  1.00  0.00    -0.374 OA
ENDROOT
BRANCH   1   2
ATOM      2  C   UNL A   1      31.753  29.447  26.672  1.00  0.00     0.202 C 
BRANCH   2   3
ATOM      3  C   UNL A   1      32.158  28.006  27.014  1.00  0.00     0.261 C 
BRANCH   3   4
ATOM      4  O   UNL A   1      31.045  27.110  27.252  1.00  0.00    -0.462 OA
BRANCH   4   5
ATOM      5  C   UNL A   1      30.758  26.281  26.213  1.00  0.00     0.325 C 
ATOM      6  O   UNL A   1      30.396  26.673  25.105  1.00  0.00    -0.250 OA
BRANCH   5   7
ATOM      7  C   UNL A   1      30.957  24.781  26.468  1.00  0.00     0.243 C 
BRANCH   7   8
ATOM      8  N   UNL A   1      32.024  23.986  25.878  1.00  0.00    -0.315 N 
ATOM      9  N   UNL A   1      33.869  21.018  24.969  1.00  0.00    -0.334 N 
ATOM     10  C   UNL A   1      33.190  22.163  25.276  1.00  0.00     0.114 A 
ATOM     11  C   UNL A   1      35.241  21.327  25.041  1.00  0.00     0.049 A 
ATOM     12  C   UNL A   1      34.061  23.224  25.264  1.00  0.00     0.018 A 
ATOM     13  C   UNL A   1      31.892  22.610  25.680  1.00  0.00     0.272 C 
ATOM     14  C   UNL A   1      35.367  22.721  25.196  1.00  0.00     0.006 A 
ATOM     15  C   UNL A   1      36.382  20.504  25.005  1.00  0.00     0.027 A 
ATOM     16  C   UNL A   1      33.363  24.512  25.522  1.00  0.00     0.150 C 
ATOM     17  O   UNL A   1      30.879  21.955  25.904  1.00  0.00    -0.267 OA
ATOM     18  C   UNL A   1      36.648  23.295  25.300  1.00  0.00     0.011 A 
ATOM     19  C   UNL A   1      37.643  21.097  25.119  1.00  0.00     0.002 A 
ATOM     20  C   UNL A   1      37.776  22.473  25.265  1.00  0.00     0.001 A 
BRANCH   9  21
ATOM     21  C   UNL A   1      33.357  19.670  24.685  1.00  0.00     0.082 C 
ATOM     22  C   UNL A   1      32.530  19.519  23.408  1.00  0.00     0.031 C 
ATOM     23  C   UNL A   1      34.481  18.621  24.625  1.00  0.00     0.031 C 
ENDBRANCH   9  21
BRANCH  16  24
ATOM     24  C   UNL A   1      33.414  25.403  24.278  1.00  0.00    -0.021 A 
ATOM     25  C   UNL A   1      32.917  24.886  23.063  1.00  0.00     0.006 A 
ATOM     26  C   UNL A   1      33.858  26.742  24.250  1.00  0.00     0.006 A 
ATOM     27  C   UNL A   1      32.884  25.646  21.887  1.00  0.00     0.000 A 
ATOM     28  C   UNL A   1      33.797  27.515  23.080  1.00  0.00     0.000 A 
ATOM     29  C   UNL A   1      33.316  26.965  21.898  1.00  0.00     0.000 A 
ENDBRANCH  16  24
ENDBRANCH   7   8
ENDBRANCH   5   7
ENDBRANCH   4   5
ENDBRANCH   3   4
ENDBRANCH   2   3
ENDBRANCH   1   2
BRANCH   1  30
ATOM     30  C   UNL A   1      34.088  30.049  26.911  1.00  0.00     0.202 C 
BRANCH  30  31
ATOM     31  C   UNL A   1      35.023  30.977  27.716  1.00  0.00     0.261 C 
BRANCH  31  32
ATOM     32  O   UNL A   1      36.303  30.374  27.973  1.00  0.00    -0.460 OA
BRANCH  32  33
ATOM     33  C   UNL A   1      37.196  31.195  28.598  1.00  0.00     0.338 C 
ATOM     34  O   UNL A   1      36.972  32.299  29.059  1.00  0.00    -0.246 OA
BRANCH  33  35
ATOM     35  C   UNL A   1      38.294  30.310  29.047  1.00  0.00     0.060 A 
ATOM     36  C   UNL A   1      39.625  30.739  29.053  1.00  0.00     0.016 A 
ATOM     37  C   UNL A   1      37.976  28.942  29.083  1.00  0.00     0.016 A 
ATOM     38  C   UNL A   1      40.637  29.782  28.978  1.00  0.00     0.010 A 
ATOM     39  C   UNL A   1      38.987  27.999  28.947  1.00  0.00     0.010 A 
ATOM     40  C   UNL A   1      40.316  28.420  28.842  1.00  0.00    -0.014 A 
BRANCH  40  41
ATOM     41  C   UNL A   1      41.394  27.424  28.837  1.00  0.00     0.031 A 
ATOM     42  C   UNL A   1      42.184  27.470  30.099  1.00  0.00     0.074 A 
ATOM     43  C   UNL A   1      41.582  26.446  27.920  1.00  0.00     0.049 A 
ATOM     44  N   UNL A   1      43.435  27.754  30.244  1.00  0.00    -0.248 NA
ATOM     45  C   UNL A   1      41.445  27.348  31.369  1.00  0.00     0.031 C 
ATOM     46  C   UNL A   1      40.760  26.112  26.760  1.00  0.00     0.029 A 
ATOM     47  N   UNL A   1      42.542  25.469  27.880  1.00  0.00    -0.354 N 
ATOM     48  C   UNL A   1      43.685  27.660  31.611  1.00  0.00     0.074 A 
ATOM     49  C   UNL A   1      42.403  27.599  32.258  1.00  0.00     0.031 C 
ATOM     50  C   UNL A   1      41.117  24.905  26.264  1.00  0.00     0.029 A 
ATOM     51  C   UNL A   1      42.274  24.424  26.993  1.00  0.00     0.049 A 
ATOM     52  H   UNL A   1      43.356  25.501  28.433  1.00  0.00     0.167 HD
ATOM     53  C   UNL A   1      44.926  27.374  32.085  1.00  0.00     0.037 A 
ATOM     54  C   UNL A   1      42.931  23.239  26.881  1.00  0.00     0.037 A 
ATOM     55  C   UNL A   1      45.938  27.656  31.099  1.00  0.00     0.049 A 
ATOM     56  C   UNL A   1      44.258  23.408  27.515  1.00  0.00     0.074 A 
ATOM     57  C   UNL A   1      46.375  28.785  30.437  1.00  0.00     0.029 A 
ATOM     58  N   UNL A   1      46.455  26.594  30.400  1.00  0.00    -0.354 N 
ATOM     59  N   UNL A   1      45.199  24.158  27.019  1.00  0.00    -0.248 NA
ATOM     60  C   UNL A   1      44.360  23.125  28.937  1.00  0.00     0.031 C 
ATOM     61  C   UNL A   1      46.715  28.339  29.125  1.00  0.00     0.029 A 
ATOM     62  C   UNL A   1      46.518  26.959  29.082  1.00  0.00     0.049 A 
ATOM     63  H   UNL A   1      46.731  25.728  30.779  1.00  0.00     0.167 HD
ATOM     64  C   UNL A   1      45.744  24.802  28.118  1.00  0.00     0.074 A 
ATOM     65  C   UNL A   1      45.237  24.072  29.279  1.00  0.00     0.031 C 
ATOM     66  C   UNL A   1      46.317  26.035  27.993  1.00  0.00     0.037 A 
BRANCH  53  67
ATOM     67  C   UNL A   1      45.178  26.444  33.253  1.00  0.00     0.057 A 
ATOM     68  C   UNL A   1      44.900  25.060  33.250  1.00  0.00     0.134 A 
ATOM     69  C   UNL A   1      46.026  26.877  34.287  1.00  0.00     0.134 A 
ATOM     70  F   UNL A   1      44.148  24.470  32.315  1.00  0.00    -0.206 F 
ATOM     71  C   UNL A   1      45.469  24.171  34.163  1.00  0.00     0.040 A 
ATOM     72  C   UNL A   1      46.641  25.986  35.175  1.00  0.00     0.040 A 
ATOM     73  F   UNL A   1      46.361  28.170  34.408  1.00  0.00    -0.206 F 
ATOM     74  C   UNL A   1      46.377  24.625  35.104  1.00  0.00     0.006 A 
ENDBRANCH  53  67
BRANCH  54  75
ATOM     75  C   UNL A   1      42.402  21.896  26.528  1.00  0.00     0.057 A 
ATOM     76  C   UNL A   1      41.271  21.371  27.176  1.00  0.00     0.134 A 
ATOM     77  C   UNL A   1      43.145  20.981  25.764  1.00  0.00     0.134 A 
ATOM     78  F   UNL A   1      40.535  22.131  28.000  1.00  0.00    -0.206 F 
ATOM     79  C   UNL A   1      40.903  20.023  27.079  1.00  0.00     0.040 A 
ATOM     80  C   UNL A   1      42.790  19.627  25.660  1.00  0.00     0.040 A 
ATOM     81  F   UNL A   1      44.273  21.366  25.148  1.00  0.00    -0.206 F 
ATOM     82  C   UNL A   1      41.670  19.142  26.328  1.00  0.00     0.006 A 
ENDBRANCH  54  75
BRANCH  66  83
ATOM     83  C   UNL A   1      46.534  26.560  26.602  1.00  0.00     0.057 A 
ATOM     84  C   UNL A   1      47.794  26.415  26.014  1.00  0.00     0.134 A 
ATOM     85  C   UNL A   1      45.586  27.313  25.890  1.00  0.00     0.134 A 
ATOM     86  F   UNL A   1      48.768  25.758  26.663  1.00  0.00    -0.206 F 
ATOM     87  C   UNL A   1      48.099  26.978  24.773  1.00  0.00     0.040 A 
ATOM     88  C   UNL A   1      45.867  27.855  24.631  1.00  0.00     0.040 A 
ATOM     89  F   UNL A   1      44.386  27.589  26.413  1.00  0.00    -0.206 F 
ATOM     90  C   UNL A   1      47.131  27.691  24.072  1.00  0.00     0.006 A 
ENDBRANCH  66  83
ENDBRANCH  40  41
ENDBRANCH  33  35
ENDBRANCH  32  33
ENDBRANCH  31  32
ENDBRANCH  30  31
ENDBRANCH   1  30
TORSDOF 17
ENDMDL
