MODEL 1
REMARK VINA RESULT:     -10.1      0.000      0.000
REMARK SMILES O=C(CS[C@@H]1CCS(=O)(=O)C1)Nc1nc(CC(=O)OCCOCCOC(=O)c2ccc(-c3c4nc(c(-c5c(F)cccc5F)c5ccc([nH]5)c(-c5c(F)cccc5F)c5nc(c(-c6c(F)cccc6F)c6ccc3[nH]6)C=C5)C=C4)cc2)cs1
REMARK SMILES IDX 20 1 19 2 17 3 18 4 16 5 15 6 13 7 14 8 83 9 82 10 12 11
REMARK SMILES IDX 1 12 2 13 3 15 4 16 5 17 6 18 11 19 7 20 8 21 9 22 10 23
REMARK SMILES IDX 21 24 22 25 23 26 24 27 25 28 26 29 27 30 28 31 29 32 81 33
REMARK SMILES IDX 30 34 80 35 31 36 32 37 33 38 74 39 34 40 79 41 73 42 75 43
REMARK SMILES IDX 35 44 78 45 72 46 71 47 36 49 62 50 45 51 61 52 46 53 49 54
REMARK SMILES IDX 60 55 76 56 47 57 48 58 59 60 77 61 50 62 37 63 38 64 43 65
REMARK SMILES IDX 39 66 40 67 42 68 44 69 41 70 63 71 64 72 69 73 65 74 66 75
REMARK SMILES IDX 68 76 70 77 67 78 51 79 52 80 57 81 53 82 54 83 56 84 58 85
REMARK SMILES IDX 55 86
REMARK H PARENT 12 14 75 48 49 59
REMARK Flexibility Score: inf
ROOT
ATOM      1  C   UNL A   1      32.969  35.865  30.007  1.00  0.00     0.261 C 
ENDROOT
BRANCH   1   2
ATOM      2  O   UNL A   1      32.762  34.625  29.298  1.00  0.00    -0.463 OA
BRANCH   2   3
ATOM      3  C   UNL A   1      33.857  34.120  28.668  1.00  0.00     0.311 C 
ATOM      4  O   UNL A   1      34.348  34.604  27.650  1.00  0.00    -0.252 OA
BRANCH   3   5
ATOM      5  C   UNL A   1      34.438  32.872  29.285  1.00  0.00     0.179 C 
BRANCH   5   6
ATOM      6  C   UNL A   1      34.462  31.621  28.468  1.00  0.00     0.065 A 
ATOM      7  C   UNL A   1      33.570  30.288  26.948  1.00  0.00     0.189 A 
ATOM      8  N   UNL A   1      33.350  31.342  27.687  1.00  0.00    -0.224 NA
ATOM      9  S   UNL A   1      35.048  29.481  27.203  1.00  0.00    -0.105 S 
ATOM     10  C   UNL A   1      35.529  30.771  28.232  1.00  0.00     0.093 A 
BRANCH   7  11
ATOM     11  N   UNL A   1      32.804  29.765  25.950  1.00  0.00    -0.301 N 
ATOM     12  O   UNL A   1      31.430  28.485  27.325  1.00  0.00    -0.274 OA
ATOM     13  C   UNL A   1      31.785  28.875  26.217  1.00  0.00     0.236 C 
ATOM     14  H   UNL A   1      32.981  30.027  25.018  1.00  0.00     0.172 HD
BRANCH  13  15
ATOM     15  C   UNL A   1      31.073  28.366  24.975  1.00  0.00     0.170 C 
BRANCH  15  16
ATOM     16  S   UNL A   1      30.593  26.606  25.086  1.00  0.00    -0.148 SA
BRANCH  16  17
ATOM     17  C   UNL A   1      30.608  26.121  23.311  1.00  0.00     0.063 C 
ATOM     18  C   UNL A   1      31.134  24.700  23.078  1.00  0.00     0.031 C 
ATOM     19  C   UNL A   1      31.540  27.049  22.527  1.00  0.00     0.151 C 
ATOM     20  C   UNL A   1      32.649  24.730  23.258  1.00  0.00     0.138 C 
ATOM     21  S   UNL A   1      33.163  26.313  22.614  1.00  0.00     0.151 S 
ATOM     22  O   UNL A   1      33.941  27.001  23.626  1.00  0.00    -0.229 OA
ATOM     23  O   UNL A   1      33.651  26.131  21.266  1.00  0.00    -0.229 OA
ENDBRANCH  16  17
ENDBRANCH  15  16
ENDBRANCH  13  15
ENDBRANCH   7  11
ENDBRANCH   5   6
ENDBRANCH   3   5
ENDBRANCH   2   3
ENDBRANCH   1   2
BRANCH   1  24
ATOM     24  C   UNL A   1      32.733  35.744  31.517  1.00  0.00     0.202 C 
BRANCH  24  25
ATOM     25  O   UNL A   1      33.294  34.604  32.167  1.00  0.00    -0.374 OA
BRANCH  25  26
ATOM     26  C   UNL A   1      34.387  34.837  33.051  1.00  0.00     0.202 C 
BRANCH  26  27
ATOM     27  C   UNL A   1      35.787  34.535  32.498  1.00  0.00     0.261 C 
BRANCH  27  28
ATOM     28  O   UNL A   1      36.416  33.429  33.172  1.00  0.00    -0.460 OA
BRANCH  28  29
ATOM     29  C   UNL A   1      36.375  32.259  32.488  1.00  0.00     0.338 C 
ATOM     30  O   UNL A   1      35.393  31.578  32.249  1.00  0.00    -0.246 OA
BRANCH  29  31
ATOM     31  C   UNL A   1      37.690  31.965  31.889  1.00  0.00     0.060 A 
ATOM     32  C   UNL A   1      37.838  32.207  30.517  1.00  0.00     0.016 A 
ATOM     33  C   UNL A   1      38.722  31.375  32.621  1.00  0.00     0.016 A 
ATOM     34  C   UNL A   1      39.002  31.816  29.861  1.00  0.00     0.010 A 
ATOM     35  C   UNL A   1      39.889  30.974  31.957  1.00  0.00     0.010 A 
ATOM     36  C   UNL A   1      40.020  31.163  30.569  1.00  0.00    -0.014 A 
BRANCH  36  37
ATOM     37  C   UNL A   1      41.163  30.579  29.825  1.00  0.00     0.031 A 
ATOM     38  C   UNL A   1      42.352  31.442  29.500  1.00  0.00     0.074 A 
ATOM     39  C   UNL A   1      41.157  29.282  29.470  1.00  0.00     0.049 A 
ATOM     40  N   UNL A   1      43.449  31.133  28.857  1.00  0.00    -0.248 NA
ATOM     41  C   UNL A   1      42.295  32.837  29.961  1.00  0.00     0.031 C 
ATOM     42  C   UNL A   1      40.079  28.337  29.753  1.00  0.00     0.029 A 
ATOM     43  N   UNL A   1      42.089  28.539  28.791  1.00  0.00    -0.354 N 
ATOM     44  C   UNL A   1      44.212  32.294  28.833  1.00  0.00     0.074 A 
ATOM     45  C   UNL A   1      43.439  33.321  29.500  1.00  0.00     0.031 C 
ATOM     46  C   UNL A   1      40.406  27.139  29.240  1.00  0.00     0.029 A 
ATOM     47  C   UNL A   1      41.702  27.241  28.571  1.00  0.00     0.049 A 
ATOM     48  H   UNL A   1      42.953  28.903  28.489  1.00  0.00     0.167 HD
ATOM     49  C   UNL A   1      45.447  32.485  28.309  1.00  0.00     0.037 A 
ATOM     50  C   UNL A   1      42.314  26.253  27.891  1.00  0.00     0.037 A 
ATOM     51  C   UNL A   1      46.216  31.464  27.648  1.00  0.00     0.049 A 
ATOM     52  C   UNL A   1      43.657  26.506  27.261  1.00  0.00     0.074 A 
ATOM     53  C   UNL A   1      47.493  31.551  27.123  1.00  0.00     0.029 A 
ATOM     54  N   UNL A   1      45.773  30.172  27.411  1.00  0.00    -0.354 N 
ATOM     55  N   UNL A   1      44.386  27.596  27.280  1.00  0.00    -0.248 NA
ATOM     56  C   UNL A   1      44.261  25.393  26.515  1.00  0.00     0.031 C 
ATOM     57  C   UNL A   1      47.803  30.326  26.522  1.00  0.00     0.029 A 
ATOM     58  C   UNL A   1      46.737  29.462  26.714  1.00  0.00     0.049 A 
ATOM     59  H   UNL A   1      44.901  29.813  27.695  1.00  0.00     0.167 HD
ATOM     60  C   UNL A   1      45.539  27.296  26.565  1.00  0.00     0.074 A 
ATOM     61  C   UNL A   1      45.420  25.917  26.139  1.00  0.00     0.031 C 
ATOM     62  C   UNL A   1      46.601  28.092  26.287  1.00  0.00     0.037 A 
BRANCH  49  63
ATOM     63  C   UNL A   1      46.032  33.864  28.408  1.00  0.00     0.057 A 
ATOM     64  C   UNL A   1      46.847  34.249  29.479  1.00  0.00     0.134 A 
ATOM     65  C   UNL A   1      45.796  34.810  27.401  1.00  0.00     0.134 A 
ATOM     66  F   UNL A   1      47.101  33.395  30.482  1.00  0.00    -0.206 F 
ATOM     67  C   UNL A   1      47.388  35.534  29.559  1.00  0.00     0.040 A 
ATOM     68  C   UNL A   1      46.351  36.089  27.458  1.00  0.00     0.040 A 
ATOM     69  F   UNL A   1      45.028  34.504  26.345  1.00  0.00    -0.206 F 
ATOM     70  C   UNL A   1      47.145  36.456  28.543  1.00  0.00     0.006 A 
ENDBRANCH  49  63
BRANCH  50  71
ATOM     71  C   UNL A   1      41.650  24.933  27.755  1.00  0.00     0.057 A 
ATOM     72  C   UNL A   1      42.067  23.827  28.502  1.00  0.00     0.134 A 
ATOM     73  C   UNL A   1      40.580  24.749  26.870  1.00  0.00     0.134 A 
ATOM     74  F   UNL A   1      43.102  23.936  29.348  1.00  0.00    -0.206 F 
ATOM     75  C   UNL A   1      41.450  22.582  28.371  1.00  0.00     0.040 A 
ATOM     76  C   UNL A   1      39.938  23.516  26.745  1.00  0.00     0.040 A 
ATOM     77  F   UNL A   1      40.134  25.771  26.125  1.00  0.00    -0.206 F 
ATOM     78  C   UNL A   1      40.376  22.426  27.495  1.00  0.00     0.006 A 
ENDBRANCH  50  71
BRANCH  62  79
ATOM     79  C   UNL A   1      47.723  27.489  25.493  1.00  0.00     0.057 A 
ATOM     80  C   UNL A   1      47.767  27.580  24.096  1.00  0.00     0.134 A 
ATOM     81  C   UNL A   1      48.791  26.849  26.134  1.00  0.00     0.134 A 
ATOM     82  F   UNL A   1      46.768  28.169  23.422  1.00  0.00    -0.206 F 
ATOM     83  C   UNL A   1      48.826  27.040  23.364  1.00  0.00     0.040 A 
ATOM     84  C   UNL A   1      49.867  26.326  25.415  1.00  0.00     0.040 A 
ATOM     85  F   UNL A   1      48.814  26.736  27.471  1.00  0.00    -0.206 F 
ATOM     86  C   UNL A   1      49.883  26.417  24.024  1.00  0.00     0.006 A 
ENDBRANCH  62  79
ENDBRANCH  36  37
ENDBRANCH  29  31
ENDBRANCH  28  29
ENDBRANCH  27  28
ENDBRANCH  26  27
ENDBRANCH  25  26
ENDBRANCH  24  25
ENDBRANCH   1  24
TORSDOF 19
ENDMDL
MODEL 2
REMARK VINA RESULT:      -9.9      1.861      6.676
REMARK SMILES O=C(CS[C@@H]1CCS(=O)(=O)C1)Nc1nc(CC(=O)OCCOCCOC(=O)c2ccc(-c3c4nc(c(-c5c(F)cccc5F)c5ccc([nH]5)c(-c5c(F)cccc5F)c5nc(c(-c6c(F)cccc6F)c6ccc3[nH]6)C=C5)C=C4)cc2)cs1
REMARK SMILES IDX 20 1 19 2 17 3 18 4 16 5 15 6 13 7 14 8 83 9 82 10 12 11
REMARK SMILES IDX 1 12 2 13 3 15 4 16 5 17 6 18 11 19 7 20 8 21 9 22 10 23
REMARK SMILES IDX 21 24 22 25 23 26 24 27 25 28 26 29 27 30 28 31 29 32 81 33
REMARK SMILES IDX 30 34 80 35 31 36 32 37 33 38 74 39 34 40 79 41 73 42 75 43
REMARK SMILES IDX 35 44 78 45 72 46 71 47 36 49 62 50 45 51 61 52 46 53 49 54
REMARK SMILES IDX 60 55 76 56 47 57 48 58 59 60 77 61 50 62 37 63 38 64 43 65
REMARK SMILES IDX 39 66 40 67 42 68 44 69 41 70 63 71 64 72 69 73 65 74 66 75
REMARK SMILES IDX 68 76 70 77 67 78 51 79 52 80 57 81 53 82 54 83 56 84 58 85
REMARK SMILES IDX 55 86
REMARK H PARENT 12 14 75 48 49 59
REMARK Flexibility Score: inf
ROOT
ATOM      1  C   UNL A   1      35.129  32.603  28.032  1.00  0.00     0.261 C 
ENDROOT
BRANCH   1   2
ATOM      2  O   UNL A   1      34.296  31.493  28.430  1.00  0.00    -0.463 OA
BRANCH   2   3
ATOM      3  C   UNL A   1      34.015  30.591  27.452  1.00  0.00     0.311 C 
ATOM      4  O   UNL A   1      34.839  29.810  26.981  1.00  0.00    -0.252 OA
BRANCH   3   5
ATOM      5  C   UNL A   1      32.600  30.622  26.932  1.00  0.00     0.179 C 
BRANCH   5   6
ATOM      6  C   UNL A   1      32.128  29.485  26.085  1.00  0.00     0.065 A 
ATOM      7  C   UNL A   1      31.727  27.331  25.790  1.00  0.00     0.189 A 
ATOM      8  N   UNL A   1      32.292  28.201  26.585  1.00  0.00    -0.224 NA
ATOM      9  S   UNL A   1      31.070  27.944  24.344  1.00  0.00    -0.105 S 
ATOM     10  C   UNL A   1      31.371  29.533  24.927  1.00  0.00     0.093 A 
BRANCH   7  11
ATOM     11  N   UNL A   1      31.536  25.995  25.978  1.00  0.00    -0.301 N 
ATOM     12  O   UNL A   1      33.790  25.429  26.114  1.00  0.00    -0.274 OA
ATOM     13  C   UNL A   1      32.600  25.128  26.111  1.00  0.00     0.236 C 
ATOM     14  H   UNL A   1      30.618  25.641  26.019  1.00  0.00     0.172 HD
BRANCH  13  15
ATOM     15  C   UNL A   1      32.190  23.673  26.267  1.00  0.00     0.170 C 
BRANCH  15  16
ATOM     16  S   UNL A   1      33.602  22.554  26.579  1.00  0.00    -0.148 SA
BRANCH  16  17
ATOM     17  C   UNL A   1      33.843  21.814  24.911  1.00  0.00     0.063 C 
ATOM     18  C   UNL A   1      34.912  20.716  24.887  1.00  0.00     0.031 C 
ATOM     19  C   UNL A   1      34.321  22.889  23.931  1.00  0.00     0.151 C 
ATOM     20  C   UNL A   1      36.277  21.393  24.971  1.00  0.00     0.138 C 
ATOM     21  S   UNL A   1      36.102  22.908  24.043  1.00  0.00     0.151 S 
ATOM     22  O   UNL A   1      36.512  24.020  24.880  1.00  0.00    -0.229 OA
ATOM     23  O   UNL A   1      36.642  22.707  22.718  1.00  0.00    -0.229 OA
ENDBRANCH  16  17
ENDBRANCH  15  16
ENDBRANCH  13  15
ENDBRANCH   7  11
ENDBRANCH   5   6
ENDBRANCH   3   5
ENDBRANCH   2   3
ENDBRANCH   1   2
BRANCH   1  24
ATOM     24  C   UNL A   1      34.825  33.893  28.803  1.00  0.00     0.202 C 
BRANCH  24  25
ATOM     25  O   UNL A   1      35.345  33.989  30.129  1.00  0.00    -0.374 OA
BRANCH  25  26
ATOM     26  C   UNL A   1      34.409  34.240  31.173  1.00  0.00     0.202 C 
BRANCH  26  27
ATOM     27  C   UNL A   1      34.429  33.264  32.358  1.00  0.00     0.261 C 
BRANCH  27  28
ATOM     28  O   UNL A   1      35.124  32.041  32.049  1.00  0.00    -0.460 OA
BRANCH  28  29
ATOM     29  C   UNL A   1      36.249  31.836  32.777  1.00  0.00     0.338 C 
ATOM     30  O   UNL A   1      36.404  32.036  33.969  1.00  0.00    -0.246 OA
BRANCH  29  31
ATOM     31  C   UNL A   1      37.273  31.153  31.964  1.00  0.00     0.060 A 
ATOM     32  C   UNL A   1      38.386  30.635  32.639  1.00  0.00     0.016 A 
ATOM     33  C   UNL A   1      37.201  31.104  30.571  1.00  0.00     0.016 A 
ATOM     34  C   UNL A   1      39.456  30.109  31.919  1.00  0.00     0.010 A 
ATOM     35  C   UNL A   1      38.283  30.583  29.848  1.00  0.00     0.010 A 
ATOM     36  C   UNL A   1      39.428  30.113  30.518  1.00  0.00    -0.014 A 
BRANCH  36  37
ATOM     37  C   UNL A   1      40.648  29.733  29.765  1.00  0.00     0.031 A 
ATOM     38  C   UNL A   1      40.768  28.342  29.205  1.00  0.00     0.074 A 
ATOM     39  C   UNL A   1      41.628  30.630  29.555  1.00  0.00     0.049 A 
ATOM     40  N   UNL A   1      41.747  27.804  28.523  1.00  0.00    -0.248 NA
ATOM     41  C   UNL A   1      39.632  27.438  29.445  1.00  0.00     0.031 C 
ATOM     42  C   UNL A   1      41.617  32.014  30.020  1.00  0.00     0.029 A 
ATOM     43  N   UNL A   1      42.825  30.503  28.896  1.00  0.00    -0.354 N 
ATOM     44  C   UNL A   1      41.349  26.501  28.255  1.00  0.00     0.074 A 
ATOM     45  C   UNL A   1      40.052  26.320  28.873  1.00  0.00     0.031 C 
ATOM     46  C   UNL A   1      42.761  32.609  29.642  1.00  0.00     0.029 A 
ATOM     47  C   UNL A   1      43.594  31.639  28.933  1.00  0.00     0.049 A 
ATOM     48  H   UNL A   1      43.106  29.675  28.443  1.00  0.00     0.167 HD
ATOM     49  C   UNL A   1      42.002  25.544  27.552  1.00  0.00     0.037 A 
ATOM     50  C   UNL A   1      44.837  31.865  28.465  1.00  0.00     0.037 A 
ATOM     51  C   UNL A   1      43.290  25.725  26.936  1.00  0.00     0.049 A 
ATOM     52  C   UNL A   1      45.570  30.767  27.744  1.00  0.00     0.074 A 
ATOM     53  C   UNL A   1      44.011  24.829  26.167  1.00  0.00     0.029 A 
ATOM     54  N   UNL A   1      44.054  26.878  27.028  1.00  0.00    -0.354 N 
ATOM     55  N   UNL A   1      45.167  29.552  27.461  1.00  0.00    -0.248 NA
ATOM     56  C   UNL A   1      46.929  31.072  27.276  1.00  0.00     0.031 C 
ATOM     57  C   UNL A   1      45.236  25.421  25.838  1.00  0.00     0.029 A 
ATOM     58  C   UNL A   1      45.256  26.703  26.363  1.00  0.00     0.049 A 
ATOM     59  H   UNL A   1      43.782  27.699  27.499  1.00  0.00     0.167 HD
ATOM     60  C   UNL A   1      46.214  28.953  26.771  1.00  0.00     0.074 A 
ATOM     61  C   UNL A   1      47.264  29.945  26.663  1.00  0.00     0.031 C 
ATOM     62  C   UNL A   1      46.297  27.695  26.272  1.00  0.00     0.037 A 
BRANCH  49  63
ATOM     63  C   UNL A   1      41.340  24.202  27.436  1.00  0.00     0.057 A 
ATOM     64  C   UNL A   1      41.758  23.101  28.195  1.00  0.00     0.134 A 
ATOM     65  C   UNL A   1      40.253  24.017  26.572  1.00  0.00     0.134 A 
ATOM     66  F   UNL A   1      42.801  23.208  29.032  1.00  0.00    -0.206 F 
ATOM     67  C   UNL A   1      41.134  21.857  28.080  1.00  0.00     0.040 A 
ATOM     68  C   UNL A   1      39.606  22.785  26.467  1.00  0.00     0.040 A 
ATOM     69  F   UNL A   1      39.800  25.032  25.820  1.00  0.00    -0.206 F 
ATOM     70  C   UNL A   1      40.050  21.698  27.218  1.00  0.00     0.006 A 
ENDBRANCH  49  63
BRANCH  50  71
ATOM     71  C   UNL A   1      45.475  33.187  28.682  1.00  0.00     0.057 A 
ATOM     72  C   UNL A   1      45.253  34.255  27.807  1.00  0.00     0.134 A 
ATOM     73  C   UNL A   1      46.324  33.411  29.774  1.00  0.00     0.134 A 
ATOM     74  F   UNL A   1      44.470  34.095  26.731  1.00  0.00    -0.206 F 
ATOM     75  C   UNL A   1      45.858  35.498  28.004  1.00  0.00     0.040 A 
ATOM     76  C   UNL A   1      46.917  34.654  29.996  1.00  0.00     0.040 A 
ATOM     77  F   UNL A   1      46.576  32.426  30.648  1.00  0.00    -0.206 F 
ATOM     78  C   UNL A   1      46.687  35.701  29.106  1.00  0.00     0.006 A 
ENDBRANCH  50  71
BRANCH  62  79
ATOM     79  C   UNL A   1      47.563  27.323  25.555  1.00  0.00     0.057 A 
ATOM     80  C   UNL A   1      48.625  26.693  26.217  1.00  0.00     0.134 A 
ATOM     81  C   UNL A   1      47.703  27.557  24.182  1.00  0.00     0.134 A 
ATOM     82  F   UNL A   1      48.557  26.454  27.535  1.00  0.00    -0.206 F 
ATOM     83  C   UNL A   1      49.789  26.326  25.540  1.00  0.00     0.040 A 
ATOM     84  C   UNL A   1      48.852  27.172  23.489  1.00  0.00     0.040 A 
ATOM     85  F   UNL A   1      46.719  28.148  23.486  1.00  0.00    -0.206 F 
ATOM     86  C   UNL A   1      49.902  26.558  24.171  1.00  0.00     0.006 A 
ENDBRANCH  62  79
ENDBRANCH  36  37
ENDBRANCH  29  31
ENDBRANCH  28  29
ENDBRANCH  27  28
ENDBRANCH  26  27
ENDBRANCH  25  26
ENDBRANCH  24  25
ENDBRANCH   1  24
TORSDOF 19
ENDMDL
MODEL 3
REMARK VINA RESULT:      -9.8      2.005      2.864
REMARK SMILES O=C(CS[C@@H]1CCS(=O)(=O)C1)Nc1nc(CC(=O)OCCOCCOC(=O)c2ccc(-c3c4nc(c(-c5c(F)cccc5F)c5ccc([nH]5)c(-c5c(F)cccc5F)c5nc(c(-c6c(F)cccc6F)c6ccc3[nH]6)C=C5)C=C4)cc2)cs1
REMARK SMILES IDX 20 1 19 2 17 3 18 4 16 5 15 6 13 7 14 8 83 9 82 10 12 11
REMARK SMILES IDX 1 12 2 13 3 15 4 16 5 17 6 18 11 19 7 20 8 21 9 22 10 23
REMARK SMILES IDX 21 24 22 25 23 26 24 27 25 28 26 29 27 30 28 31 29 32 81 33
REMARK SMILES IDX 30 34 80 35 31 36 32 37 33 38 74 39 34 40 79 41 73 42 75 43
REMARK SMILES IDX 35 44 78 45 72 46 71 47 36 49 62 50 45 51 61 52 46 53 49 54
REMARK SMILES IDX 60 55 76 56 47 57 48 58 59 60 77 61 50 62 37 63 38 64 43 65
REMARK SMILES IDX 39 66 40 67 42 68 44 69 41 70 63 71 64 72 69 73 65 74 66 75
REMARK SMILES IDX 68 76 70 77 67 78 51 79 52 80 57 81 53 82 54 83 56 84 58 85
REMARK SMILES IDX 55 86
REMARK H PARENT 12 14 75 48 49 59
REMARK Flexibility Score: inf
ROOT
ATOM      1  C   UNL A   1      34.134  32.288  28.222  1.00  0.00     0.261 C 
ENDROOT
BRANCH   1   2
ATOM      2  O   UNL A   1      32.898  31.855  27.616  1.00  0.00    -0.463 OA
BRANCH   2   3
ATOM      3  C   UNL A   1      32.963  30.689  26.918  1.00  0.00     0.311 C 
ATOM      4  O   UNL A   1      34.014  30.149  26.579  1.00  0.00    -0.252 OA
BRANCH   3   5
ATOM      5  C   UNL A   1      31.633  30.089  26.537  1.00  0.00     0.179 C 
BRANCH   5   6
ATOM      6  C   UNL A   1      31.552  29.275  25.287  1.00  0.00     0.065 A 
ATOM      7  C   UNL A   1      31.671  27.336  24.231  1.00  0.00     0.189 A 
ATOM      8  N   UNL A   1      31.908  27.936  25.367  1.00  0.00    -0.224 NA
ATOM      9  S   UNL A   1      31.128  28.324  22.954  1.00  0.00    -0.105 S 
ATOM     10  C   UNL A   1      30.989  29.623  24.071  1.00  0.00     0.093 A 
BRANCH   7  11
ATOM     11  N   UNL A   1      31.743  26.009  23.930  1.00  0.00    -0.301 N 
ATOM     12  O   UNL A   1      29.678  25.429  24.834  1.00  0.00    -0.274 OA
ATOM     13  C   UNL A   1      30.732  25.139  24.274  1.00  0.00     0.236 C 
ATOM     14  H   UNL A   1      32.535  25.665  23.456  1.00  0.00     0.172 HD
BRANCH  13  15
ATOM     15  C   UNL A   1      31.011  23.693  23.896  1.00  0.00     0.170 C 
BRANCH  15  16
ATOM     16  S   UNL A   1      32.656  23.449  23.138  1.00  0.00    -0.148 SA
BRANCH  16  17
ATOM     17  C   UNL A   1      33.736  23.441  24.628  1.00  0.00     0.063 C 
ATOM     18  C   UNL A   1      34.942  22.504  24.495  1.00  0.00     0.031 C 
ATOM     19  C   UNL A   1      32.945  22.940  25.840  1.00  0.00     0.151 C 
ATOM     20  C   UNL A   1      34.437  21.072  24.644  1.00  0.00     0.138 C 
ATOM     21  S   UNL A   1      33.126  21.164  25.852  1.00  0.00     0.151 S 
ATOM     22  O   UNL A   1      31.930  20.563  25.293  1.00  0.00    -0.229 OA
ATOM     23  O   UNL A   1      33.651  20.771  27.140  1.00  0.00    -0.229 OA
ENDBRANCH  16  17
ENDBRANCH  15  16
ENDBRANCH  13  15
ENDBRANCH   7  11
ENDBRANCH   5   6
ENDBRANCH   3   5
ENDBRANCH   2   3
ENDBRANCH   1   2
BRANCH   1  24
ATOM     24  C   UNL A   1      34.161  33.788  28.535  1.00  0.00     0.202 C 
BRANCH  24  25
ATOM     25  O   UNL A   1      34.922  34.195  29.671  1.00  0.00    -0.374 OA
BRANCH  25  26
ATOM     26  C   UNL A   1      34.195  34.693  30.791  1.00  0.00     0.202 C 
BRANCH  26  27
ATOM     27  C   UNL A   1      34.370  33.931  32.112  1.00  0.00     0.261 C 
BRANCH  27  28
ATOM     28  O   UNL A   1      34.835  32.583  31.911  1.00  0.00    -0.460 OA
BRANCH  28  29
ATOM     29  C   UNL A   1      35.862  32.218  32.717  1.00  0.00     0.338 C 
ATOM     30  O   UNL A   1      35.934  32.350  33.927  1.00  0.00    -0.246 OA
BRANCH  29  31
ATOM     31  C   UNL A   1      36.869  31.453  31.957  1.00  0.00     0.060 A 
ATOM     32  C   UNL A   1      37.926  30.889  32.682  1.00  0.00     0.016 A 
ATOM     33  C   UNL A   1      36.840  31.371  30.564  1.00  0.00     0.016 A 
ATOM     34  C   UNL A   1      38.985  30.281  32.013  1.00  0.00     0.010 A 
ATOM     35  C   UNL A   1      37.910  30.766  29.892  1.00  0.00     0.010 A 
ATOM     36  C   UNL A   1      39.003  30.248  30.612  1.00  0.00    -0.014 A 
BRANCH  36  37
ATOM     37  C   UNL A   1      40.222  29.776  29.911  1.00  0.00     0.031 A 
ATOM     38  C   UNL A   1      41.370  30.725  29.703  1.00  0.00     0.074 A 
ATOM     39  C   UNL A   1      40.318  28.501  29.493  1.00  0.00     0.049 A 
ATOM     40  N   UNL A   1      42.520  30.518  29.114  1.00  0.00    -0.248 NA
ATOM     41  C   UNL A   1      41.198  32.088  30.229  1.00  0.00     0.031 C 
ATOM     42  C   UNL A   1      39.288  27.479  29.662  1.00  0.00     0.029 A 
ATOM     43  N   UNL A   1      41.334  27.853  28.836  1.00  0.00    -0.354 N 
ATOM     44  C   UNL A   1      43.207  31.722  29.195  1.00  0.00     0.074 A 
ATOM     45  C   UNL A   1      42.334  32.663  29.864  1.00  0.00     0.031 C 
ATOM     46  C   UNL A   1      39.720  26.332  29.111  1.00  0.00     0.029 A 
ATOM     47  C   UNL A   1      41.043  26.548  28.529  1.00  0.00     0.049 A 
ATOM     48  H   UNL A   1      42.189  28.285  28.606  1.00  0.00     0.167 HD
ATOM     49  C   UNL A   1      44.456  32.015  28.758  1.00  0.00     0.037 A 
ATOM     50  C   UNL A   1      41.756  25.636  27.839  1.00  0.00     0.037 A 
ATOM     51  C   UNL A   1      45.326  31.079  28.096  1.00  0.00     0.049 A 
ATOM     52  C   UNL A   1      43.114  26.003  27.306  1.00  0.00     0.074 A 
ATOM     53  C   UNL A   1      46.623  31.271  27.655  1.00  0.00     0.029 A 
ATOM     54  N   UNL A   1      44.980  29.777  27.767  1.00  0.00    -0.354 N 
ATOM     55  N   UNL A   1      43.770  27.132  27.424  1.00  0.00    -0.248 NA
ATOM     56  C   UNL A   1      43.830  24.971  26.544  1.00  0.00     0.031 C 
ATOM     57  C   UNL A   1      47.045  30.101  27.013  1.00  0.00     0.029 A 
ATOM     58  C   UNL A   1      46.026  29.165  27.097  1.00  0.00     0.049 A 
ATOM     59  H   UNL A   1      44.118  29.351  27.980  1.00  0.00     0.167 HD
ATOM     60  C   UNL A   1      44.979  26.942  26.767  1.00  0.00     0.074 A 
ATOM     61  C   UNL A   1      44.973  25.583  26.267  1.00  0.00     0.031 C 
ATOM     62  C   UNL A   1      46.003  27.815  26.595  1.00  0.00     0.037 A 
BRANCH  49  63
ATOM     63  C   UNL A   1      44.946  33.420  28.961  1.00  0.00     0.057 A 
ATOM     64  C   UNL A   1      45.671  33.795  30.098  1.00  0.00     0.134 A 
ATOM     65  C   UNL A   1      44.709  34.402  27.990  1.00  0.00     0.134 A 
ATOM     66  F   UNL A   1      45.921  32.905  31.070  1.00  0.00    -0.206 F 
ATOM     67  C   UNL A   1      46.124  35.104  30.275  1.00  0.00     0.040 A 
ATOM     68  C   UNL A   1      45.177  35.707  28.145  1.00  0.00     0.040 A 
ATOM     69  F   UNL A   1      44.024  34.107  26.875  1.00  0.00    -0.206 F 
ATOM     70  C   UNL A   1      45.882  36.063  29.293  1.00  0.00     0.006 A 
ENDBRANCH  49  63
BRANCH  50  71
ATOM     71  C   UNL A   1      41.186  24.288  27.597  1.00  0.00     0.057 A 
ATOM     72  C   UNL A   1      41.639  23.168  28.301  1.00  0.00     0.134 A 
ATOM     73  C   UNL A   1      40.171  24.090  26.651  1.00  0.00     0.134 A 
ATOM     74  F   UNL A   1      42.626  23.291  29.201  1.00  0.00    -0.206 F 
ATOM     75  C   UNL A   1      41.111  21.896  28.070  1.00  0.00     0.040 A 
ATOM     76  C   UNL A   1      39.617  22.829  26.427  1.00  0.00     0.040 A 
ATOM     77  F   UNL A   1      39.694  25.124  25.944  1.00  0.00    -0.206 F 
ATOM     78  C   UNL A   1      40.091  21.726  27.135  1.00  0.00     0.006 A 
ENDBRANCH  50  71
BRANCH  62  79
ATOM     79  C   UNL A   1      47.205  27.324  25.842  1.00  0.00     0.057 A 
ATOM     80  C   UNL A   1      47.347  27.533  24.464  1.00  0.00     0.134 A 
ATOM     81  C   UNL A   1      48.251  26.673  26.508  1.00  0.00     0.134 A 
ATOM     82  F   UNL A   1      46.374  28.138  23.766  1.00  0.00    -0.206 F 
ATOM     83  C   UNL A   1      48.478  27.097  23.773  1.00  0.00     0.040 A 
ATOM     84  C   UNL A   1      49.398  26.254  25.833  1.00  0.00     0.040 A 
ATOM     85  F   UNL A   1      48.182  26.449  27.829  1.00  0.00    -0.206 F 
ATOM     86  C   UNL A   1      49.512  26.462  24.459  1.00  0.00     0.006 A 
ENDBRANCH  62  79
ENDBRANCH  36  37
ENDBRANCH  29  31
ENDBRANCH  28  29
ENDBRANCH  27  28
ENDBRANCH  26  27
ENDBRANCH  25  26
ENDBRANCH  24  25
ENDBRANCH   1  24
TORSDOF 19
ENDMDL
