MODEL 1
REMARK VINA RESULT:      -9.0      0.000      0.000
REMARK SMILES C[C@]1(C(=O)OCCOCCOC(=O)c2ccc(-c3c4nc(c(-c5c(F)cccc5F)c5ccc([nH]5)c(-c5c(F)cccc5F)c5nc(c(-c6c(F)cccc6F)c6ccc3[nH]6)C=C5)C=C4)cc2)CCN(c2ccc([N+](=O)[O-])c(N)n2)C1
REMARK SMILES IDX 8 1 7 2 6 3 5 4 3 5 4 6 2 7 1 8 68 9 81 10 69 11 70 12 71 13
REMARK SMILES IDX 72 14 80 15 73 16 78 17 74 18 79 19 75 22 76 23 77 24 9 25
REMARK SMILES IDX 10 26 11 27 12 28 13 29 14 30 15 31 67 32 16 33 66 34 17 35
REMARK SMILES IDX 18 36 19 37 60 38 20 39 65 40 59 41 61 42 21 43 64 44 58 45
REMARK SMILES IDX 57 46 22 48 48 49 31 50 47 51 32 52 35 53 46 54 62 55 33 56
REMARK SMILES IDX 34 57 45 59 63 60 36 61 23 62 24 63 29 64 25 65 26 66 28 67
REMARK SMILES IDX 30 68 27 69 49 70 50 71 55 72 51 73 52 74 54 75 56 76 53 77
REMARK SMILES IDX 37 78 38 79 43 80 39 81 40 82 42 83 44 84 41 85
REMARK H PARENT 79 20 79 21 61 47 35 58
REMARK Flexibility Score: inf
ROOT
ATOM      1  O   UNL A   1      45.129  20.135  24.379  1.00  0.00    -0.374 OA
ENDROOT
BRANCH   1   2
ATOM      2  C   UNL A   1      45.902  21.086  25.108  1.00  0.00     0.202 C 
BRANCH   2   3
ATOM      3  C   UNL A   1      46.093  22.458  24.453  1.00  0.00     0.261 C 
BRANCH   3   4
ATOM      4  O   UNL A   1      46.423  23.490  25.407  1.00  0.00    -0.463 OA
BRANCH   4   5
ATOM      5  C   UNL A   1      45.959  24.735  25.120  1.00  0.00     0.313 C 
ATOM      6  O   UNL A   1      44.876  24.955  24.591  1.00  0.00    -0.252 OA
BRANCH   5   7
ATOM      7  C   UNL A   1      46.885  25.853  25.582  1.00  0.00     0.084 C 
ATOM      8  C   UNL A   1      47.969  25.221  26.475  1.00  0.00     0.026 C 
ATOM      9  C   UNL A   1      47.504  26.590  24.383  1.00  0.00     0.042 C 
ATOM     10  C   UNL A   1      46.202  27.009  26.327  1.00  0.00     0.136 C 
ATOM     11  C   UNL A   1      47.975  27.926  24.949  1.00  0.00     0.119 C 
ATOM     12  N   UNL A   1      47.114  28.131  26.105  1.00  0.00    -0.355 N 
BRANCH  12  13
ATOM     13  C   UNL A   1      46.862  29.390  26.584  1.00  0.00     0.131 A 
ATOM     14  C   UNL A   1      47.319  29.769  27.841  1.00  0.00     0.054 A 
ATOM     15  N   UNL A   1      46.177  30.259  25.805  1.00  0.00    -0.207 NA
ATOM     16  C   UNL A   1      47.068  31.054  28.310  1.00  0.00     0.093 A 
ATOM     17  C   UNL A   1      45.884  31.498  26.263  1.00  0.00     0.204 A 
ATOM     18  C   UNL A   1      46.330  31.928  27.508  1.00  0.00     0.311 A 
BRANCH  17  19
ATOM     19  N   UNL A   1      45.197  32.280  25.358  1.00  0.00    -0.378 N 
ATOM     20  H   UNL A   1      44.400  31.921  24.902  1.00  0.00     0.158 HD
ATOM     21  H   UNL A   1      45.502  33.196  25.166  1.00  0.00     0.158 HD
ENDBRANCH  17  19
BRANCH  18  22
ATOM     22  N   UNL A   1      46.026  33.260  28.011  1.00  0.00     0.066 N 
ATOM     23  O   UNL A   1      44.920  33.740  27.722  1.00  0.00    -0.258 OA
ATOM     24  O   UNL A   1      46.897  33.860  28.661  1.00  0.00    -0.258 OA
ENDBRANCH  18  22
ENDBRANCH  12  13
ENDBRANCH   5   7
ENDBRANCH   4   5
ENDBRANCH   3   4
ENDBRANCH   2   3
ENDBRANCH   1   2
BRANCH   1  25
ATOM     25  C   UNL A   1      44.915  18.872  25.004  1.00  0.00     0.202 C 
BRANCH  25  26
ATOM     26  C   UNL A   1      43.579  18.699  25.736  1.00  0.00     0.261 C 
BRANCH  26  27
ATOM     27  O   UNL A   1      42.483  19.275  24.999  1.00  0.00    -0.460 OA
BRANCH  27  28
ATOM     28  C   UNL A   1      41.473  19.759  25.756  1.00  0.00     0.338 C 
ATOM     29  O   UNL A   1      40.423  19.199  26.044  1.00  0.00    -0.246 OA
BRANCH  28  30
ATOM     30  C   UNL A   1      41.880  21.034  26.375  1.00  0.00     0.060 A 
ATOM     31  C   UNL A   1      41.713  21.166  27.759  1.00  0.00     0.016 A 
ATOM     32  C   UNL A   1      42.374  22.095  25.616  1.00  0.00     0.016 A 
ATOM     33  C   UNL A   1      42.024  22.370  28.389  1.00  0.00     0.010 A 
ATOM     34  C   UNL A   1      42.671  23.308  26.247  1.00  0.00     0.010 A 
ATOM     35  C   UNL A   1      42.482  23.457  27.633  1.00  0.00    -0.014 A 
BRANCH  35  36
ATOM     36  C   UNL A   1      42.690  24.774  28.281  1.00  0.00     0.031 A 
ATOM     37  C   UNL A   1      44.023  25.099  28.890  1.00  0.00     0.074 A 
ATOM     38  C   UNL A   1      41.691  25.674  28.321  1.00  0.00     0.049 A 
ATOM     39  N   UNL A   1      44.391  26.160  29.560  1.00  0.00    -0.248 NA
ATOM     40  C   UNL A   1      45.084  24.093  28.721  1.00  0.00     0.031 C 
ATOM     41  C   UNL A   1      40.367  25.492  27.731  1.00  0.00     0.029 A 
ATOM     42  N   UNL A   1      41.636  26.918  28.898  1.00  0.00    -0.354 N 
ATOM     43  C   UNL A   1      45.722  25.952  29.897  1.00  0.00     0.074 A 
ATOM     44  C   UNL A   1      46.092  24.653  29.376  1.00  0.00     0.031 C 
ATOM     45  C   UNL A   1      39.620  26.577  27.995  1.00  0.00     0.029 A 
ATOM     46  C   UNL A   1      40.402  27.513  28.801  1.00  0.00     0.049 A 
ATOM     47  H   UNL A   1      42.406  27.343  29.340  1.00  0.00     0.167 HD
ATOM     48  C   UNL A   1      46.560  26.773  30.574  1.00  0.00     0.037 A 
ATOM     49  C   UNL A   1      39.946  28.664  29.330  1.00  0.00     0.037 A 
ATOM     50  C   UNL A   1      46.190  28.063  31.094  1.00  0.00     0.049 A 
ATOM     51  C   UNL A   1      40.871  29.515  30.158  1.00  0.00     0.074 A 
ATOM     52  C   UNL A   1      46.979  28.983  31.763  1.00  0.00     0.029 A 
ATOM     53  N   UNL A   1      44.918  28.610  31.016  1.00  0.00    -0.354 N 
ATOM     54  N   UNL A   1      42.137  29.326  30.442  1.00  0.00    -0.248 NA
ATOM     55  C   UNL A   1      40.302  30.737  30.744  1.00  0.00     0.031 C 
ATOM     56  C   UNL A   1      46.172  30.063  32.136  1.00  0.00     0.029 A 
ATOM     57  C   UNL A   1      44.891  29.838  31.657  1.00  0.00     0.049 A 
ATOM     58  H   UNL A   1      44.148  28.189  30.570  1.00  0.00     0.167 HD
ATOM     59  C   UNL A   1      42.519  30.408  31.224  1.00  0.00     0.074 A 
ATOM     60  C   UNL A   1      41.356  31.261  31.354  1.00  0.00     0.031 C 
ATOM     61  C   UNL A   1      43.724  30.672  31.786  1.00  0.00     0.037 A 
BRANCH  48  62
ATOM     62  C   UNL A   1      47.959  26.289  30.816  1.00  0.00     0.057 A 
ATOM     63  C   UNL A   1      48.304  25.568  31.964  1.00  0.00     0.134 A 
ATOM     64  C   UNL A   1      48.962  26.509  29.864  1.00  0.00     0.134 A 
ATOM     65  F   UNL A   1      47.393  25.333  32.921  1.00  0.00    -0.206 F 
ATOM     66  C   UNL A   1      49.603  25.095  32.166  1.00  0.00     0.040 A 
ATOM     67  C   UNL A   1      50.258  26.024  30.043  1.00  0.00     0.040 A 
ATOM     68  F   UNL A   1      48.696  27.191  28.738  1.00  0.00    -0.206 F 
ATOM     69  C   UNL A   1      50.582  25.317  31.199  1.00  0.00     0.006 A 
ENDBRANCH  48  62
BRANCH  49  70
ATOM     70  C   UNL A   1      38.532  29.065  29.129  1.00  0.00     0.057 A 
ATOM     71  C   UNL A   1      38.086  29.569  27.901  1.00  0.00     0.134 A 
ATOM     72  C   UNL A   1      37.596  28.975  30.167  1.00  0.00     0.134 A 
ATOM     73  F   UNL A   1      38.942  29.702  26.877  1.00  0.00    -0.206 F 
ATOM     74  C   UNL A   1      36.766  29.983  27.718  1.00  0.00     0.040 A 
ATOM     75  C   UNL A   1      36.267  29.364  29.991  1.00  0.00     0.040 A 
ATOM     76  F   UNL A   1      37.960  28.500  31.368  1.00  0.00    -0.206 F 
ATOM     77  C   UNL A   1      35.851  29.875  28.763  1.00  0.00     0.006 A 
ENDBRANCH  49  70
BRANCH  61  78
ATOM     78  C   UNL A   1      43.849  31.937  32.584  1.00  0.00     0.057 A 
ATOM     79  C   UNL A   1      43.632  31.957  33.968  1.00  0.00     0.134 A 
ATOM     80  C   UNL A   1      44.227  33.138  31.970  1.00  0.00     0.134 A 
ATOM     81  F   UNL A   1      43.253  30.844  34.614  1.00  0.00    -0.206 F 
ATOM     82  C   UNL A   1      43.771  33.132  34.711  1.00  0.00     0.040 A 
ATOM     83  C   UNL A   1      44.392  34.312  32.706  1.00  0.00     0.040 A 
ATOM     84  F   UNL A   1      44.457  33.184  30.650  1.00  0.00    -0.206 F 
ATOM     85  C   UNL A   1      44.159  34.312  34.079  1.00  0.00     0.006 A 
ENDBRANCH  61  78
ENDBRANCH  35  36
ENDBRANCH  28  30
ENDBRANCH  27  28
ENDBRANCH  26  27
ENDBRANCH  25  26
ENDBRANCH   1  25
TORSDOF 17
ENDMDL
MODEL 2
REMARK VINA RESULT:      -9.0      6.242     11.376
REMARK SMILES C[C@]1(C(=O)OCCOCCOC(=O)c2ccc(-c3c4nc(c(-c5c(F)cccc5F)c5ccc([nH]5)c(-c5c(F)cccc5F)c5nc(c(-c6c(F)cccc6F)c6ccc3[nH]6)C=C5)C=C4)cc2)CCN(c2ccc([N+](=O)[O-])c(N)n2)C1
REMARK SMILES IDX 8 1 7 2 6 3 5 4 3 5 4 6 2 7 1 8 68 9 81 10 69 11 70 12 71 13
REMARK SMILES IDX 72 14 80 15 73 16 78 17 74 18 79 19 75 22 76 23 77 24 9 25
REMARK SMILES IDX 10 26 11 27 12 28 13 29 14 30 15 31 67 32 16 33 66 34 17 35
REMARK SMILES IDX 18 36 19 37 60 38 20 39 65 40 59 41 61 42 21 43 64 44 58 45
REMARK SMILES IDX 57 46 22 48 48 49 31 50 47 51 32 52 35 53 46 54 62 55 33 56
REMARK SMILES IDX 34 57 45 59 63 60 36 61 23 62 24 63 29 64 25 65 26 66 28 67
REMARK SMILES IDX 30 68 27 69 49 70 50 71 55 72 51 73 52 74 54 75 56 76 53 77
REMARK SMILES IDX 37 78 38 79 43 80 39 81 40 82 42 83 44 84 41 85
REMARK H PARENT 79 20 79 21 61 47 35 58
REMARK Flexibility Score: inf
ROOT
ATOM      1  O   UNL A   1      31.235  28.199  24.425  1.00  0.00    -0.374 OA
ENDROOT
BRANCH   1   2
ATOM      2  C   UNL A   1      30.427  27.732  23.347  1.00  0.00     0.202 C 
BRANCH   2   3
ATOM      3  C   UNL A   1      31.164  27.312  22.072  1.00  0.00     0.261 C 
BRANCH   3   4
ATOM      4  O   UNL A   1      31.381  25.886  21.998  1.00  0.00    -0.463 OA
BRANCH   4   5
ATOM      5  C   UNL A   1      32.633  25.459  22.309  1.00  0.00     0.313 C 
ATOM      6  O   UNL A   1      33.654  25.903  21.795  1.00  0.00    -0.252 OA
BRANCH   5   7
ATOM      7  C   UNL A   1      32.665  24.412  23.415  1.00  0.00     0.084 C 
ATOM      8  C   UNL A   1      33.347  25.049  24.640  1.00  0.00     0.026 C 
ATOM      9  C   UNL A   1      31.248  23.921  23.753  1.00  0.00     0.042 C 
ATOM     10  C   UNL A   1      33.364  23.093  23.054  1.00  0.00     0.136 C 
ATOM     11  C   UNL A   1      31.459  22.590  24.469  1.00  0.00     0.119 C 
ATOM     12  N   UNL A   1      32.746  22.130  23.966  1.00  0.00    -0.355 N 
BRANCH  12  13
ATOM     13  C   UNL A   1      33.066  20.798  23.957  1.00  0.00     0.131 A 
ATOM     14  C   UNL A   1      34.127  20.325  24.721  1.00  0.00     0.054 A 
ATOM     15  N   UNL A   1      32.322  19.953  23.208  1.00  0.00    -0.207 NA
ATOM     16  C   UNL A   1      34.434  18.969  24.713  1.00  0.00     0.093 A 
ATOM     17  C   UNL A   1      32.634  18.637  23.153  1.00  0.00     0.204 A 
ATOM     18  C   UNL A   1      33.678  18.114  23.907  1.00  0.00     0.311 A 
BRANCH  17  19
ATOM     19  N   UNL A   1      31.781  17.893  22.364  1.00  0.00    -0.378 N 
ATOM     20  H   UNL A   1      31.838  16.910  22.368  1.00  0.00     0.158 HD
ATOM     21  H   UNL A   1      31.115  18.345  21.796  1.00  0.00     0.158 HD
ENDBRANCH  17  19
BRANCH  18  22
ATOM     22  N   UNL A   1      34.021  16.700  23.862  1.00  0.00     0.066 N 
ATOM     23  O   UNL A   1      34.042  16.084  24.939  1.00  0.00    -0.258 OA
ATOM     24  O   UNL A   1      34.312  16.197  22.765  1.00  0.00    -0.258 OA
ENDBRANCH  18  22
ENDBRANCH  12  13
ENDBRANCH   5   7
ENDBRANCH   4   5
ENDBRANCH   3   4
ENDBRANCH   2   3
ENDBRANCH   1   2
BRANCH   1  25
ATOM     25  C   UNL A   1      31.609  29.574  24.395  1.00  0.00     0.202 C 
BRANCH  25  26
ATOM     26  C   UNL A   1      31.498  30.333  25.722  1.00  0.00     0.261 C 
BRANCH  26  27
ATOM     27  O   UNL A   1      32.671  30.160  26.540  1.00  0.00    -0.460 OA
BRANCH  27  28
ATOM     28  C   UNL A   1      33.169  31.296  27.080  1.00  0.00     0.338 C 
ATOM     29  O   UNL A   1      32.606  32.378  27.187  1.00  0.00    -0.246 OA
BRANCH  28  30
ATOM     30  C   UNL A   1      34.467  31.017  27.718  1.00  0.00     0.060 A 
ATOM     31  C   UNL A   1      34.740  29.693  28.085  1.00  0.00     0.016 A 
ATOM     32  C   UNL A   1      35.385  32.032  27.994  1.00  0.00     0.016 A 
ATOM     33  C   UNL A   1      35.926  29.381  28.747  1.00  0.00     0.010 A 
ATOM     34  C   UNL A   1      36.568  31.720  28.673  1.00  0.00     0.010 A 
ATOM     35  C   UNL A   1      36.836  30.396  29.067  1.00  0.00    -0.014 A 
BRANCH  35  36
ATOM     36  C   UNL A   1      38.035  30.086  29.882  1.00  0.00     0.031 A 
ATOM     37  C   UNL A   1      39.076  29.147  29.344  1.00  0.00     0.074 A 
ATOM     38  C   UNL A   1      38.190  30.642  31.098  1.00  0.00     0.049 A 
ATOM     39  N   UNL A   1      40.159  28.693  29.920  1.00  0.00    -0.248 NA
ATOM     40  C   UNL A   1      38.870  28.656  27.972  1.00  0.00     0.031 C 
ATOM     41  C   UNL A   1      37.270  31.598  31.711  1.00  0.00     0.029 A 
ATOM     42  N   UNL A   1      39.176  30.471  32.037  1.00  0.00    -0.354 N 
ATOM     43  C   UNL A   1      40.763  27.861  28.987  1.00  0.00     0.074 A 
ATOM     44  C   UNL A   1      39.915  27.856  27.814  1.00  0.00     0.031 C 
ATOM     45  C   UNL A   1      37.724  31.913  32.937  1.00  0.00     0.029 A 
ATOM     46  C   UNL A   1      38.945  31.155  33.205  1.00  0.00     0.049 A 
ATOM     47  H   UNL A   1      39.971  29.911  31.888  1.00  0.00     0.167 HD
ATOM     48  C   UNL A   1      41.922  27.168  29.098  1.00  0.00     0.037 A 
ATOM     49  C   UNL A   1      39.623  31.145  34.368  1.00  0.00     0.037 A 
ATOM     50  C   UNL A   1      42.762  27.173  30.267  1.00  0.00     0.049 A 
ATOM     51  C   UNL A   1      40.858  30.295  34.497  1.00  0.00     0.074 A 
ATOM     52  C   UNL A   1      43.974  26.532  30.461  1.00  0.00     0.029 A 
ATOM     53  N   UNL A   1      42.471  27.841  31.446  1.00  0.00    -0.354 N 
ATOM     54  N   UNL A   1      41.439  29.537  33.598  1.00  0.00    -0.248 NA
ATOM     55  C   UNL A   1      41.529  30.293  35.806  1.00  0.00     0.031 C 
ATOM     56  C   UNL A   1      44.389  26.769  31.775  1.00  0.00     0.029 A 
ATOM     57  C   UNL A   1      43.461  27.597  32.385  1.00  0.00     0.049 A 
ATOM     58  H   UNL A   1      41.679  28.406  31.594  1.00  0.00     0.167 HD
ATOM     59  C   UNL A   1      42.548  28.984  34.224  1.00  0.00     0.074 A 
ATOM     60  C   UNL A   1      42.570  29.506  35.575  1.00  0.00     0.031 C 
ATOM     61  C   UNL A   1      43.465  28.117  33.727  1.00  0.00     0.037 A 
BRANCH  48  62
ATOM     62  C   UNL A   1      42.340  26.325  27.931  1.00  0.00     0.057 A 
ATOM     63  C   UNL A   1      41.924  24.996  27.792  1.00  0.00     0.134 A 
ATOM     64  C   UNL A   1      43.131  26.866  26.909  1.00  0.00     0.134 A 
ATOM     65  F   UNL A   1      41.174  24.414  28.741  1.00  0.00    -0.206 F 
ATOM     66  C   UNL A   1      42.293  24.227  26.685  1.00  0.00     0.040 A 
ATOM     67  C   UNL A   1      43.488  26.116  25.788  1.00  0.00     0.040 A 
ATOM     68  F   UNL A   1      43.560  28.136  26.980  1.00  0.00    -0.206 F 
ATOM     69  C   UNL A   1      43.072  24.790  25.676  1.00  0.00     0.006 A 
ENDBRANCH  48  62
BRANCH  49  70
ATOM     70  C   UNL A   1      39.129  31.936  35.522  1.00  0.00     0.057 A 
ATOM     71  C   UNL A   1      39.557  33.252  35.738  1.00  0.00     0.134 A 
ATOM     72  C   UNL A   1      38.235  31.388  36.450  1.00  0.00     0.134 A 
ATOM     73  F   UNL A   1      40.432  33.823  34.897  1.00  0.00    -0.206 F 
ATOM     74  C   UNL A   1      39.124  33.988  36.842  1.00  0.00     0.040 A 
ATOM     75  C   UNL A   1      37.776  32.121  37.546  1.00  0.00     0.040 A 
ATOM     76  F   UNL A   1      37.787  30.132  36.300  1.00  0.00    -0.206 F 
ATOM     77  C   UNL A   1      38.227  33.424  37.747  1.00  0.00     0.006 A 
ENDBRANCH  49  70
BRANCH  61  78
ATOM     78  C   UNL A   1      44.574  27.689  34.644  1.00  0.00     0.057 A 
ATOM     79  C   UNL A   1      45.756  28.430  34.764  1.00  0.00     0.134 A 
ATOM     80  C   UNL A   1      44.442  26.545  35.442  1.00  0.00     0.134 A 
ATOM     81  F   UNL A   1      45.950  29.528  34.017  1.00  0.00    -0.206 F 
ATOM     82  C   UNL A   1      46.776  28.041  35.635  1.00  0.00     0.040 A 
ATOM     83  C   UNL A   1      45.444  26.159  36.333  1.00  0.00     0.040 A 
ATOM     84  F   UNL A   1      43.333  25.795  35.379  1.00  0.00    -0.206 F 
ATOM     85  C   UNL A   1      46.617  26.905  36.427  1.00  0.00     0.006 A 
ENDBRANCH  61  78
ENDBRANCH  35  36
ENDBRANCH  28  30
ENDBRANCH  27  28
ENDBRANCH  26  27
ENDBRANCH  25  26
ENDBRANCH   1  25
TORSDOF 17
ENDMDL
MODEL 3
REMARK VINA RESULT:      -9.0      5.438     10.277
REMARK SMILES C[C@]1(C(=O)OCCOCCOC(=O)c2ccc(-c3c4nc(c(-c5c(F)cccc5F)c5ccc([nH]5)c(-c5c(F)cccc5F)c5nc(c(-c6c(F)cccc6F)c6ccc3[nH]6)C=C5)C=C4)cc2)CCN(c2ccc([N+](=O)[O-])c(N)n2)C1
REMARK SMILES IDX 8 1 7 2 6 3 5 4 3 5 4 6 2 7 1 8 68 9 81 10 69 11 70 12 71 13
REMARK SMILES IDX 72 14 80 15 73 16 78 17 74 18 79 19 75 22 76 23 77 24 9 25
REMARK SMILES IDX 10 26 11 27 12 28 13 29 14 30 15 31 67 32 16 33 66 34 17 35
REMARK SMILES IDX 18 36 19 37 60 38 20 39 65 40 59 41 61 42 21 43 64 44 58 45
REMARK SMILES IDX 57 46 22 48 48 49 31 50 47 51 32 52 35 53 46 54 62 55 33 56
REMARK SMILES IDX 34 57 45 59 63 60 36 61 23 62 24 63 29 64 25 65 26 66 28 67
REMARK SMILES IDX 30 68 27 69 49 70 50 71 55 72 51 73 52 74 54 75 56 76 53 77
REMARK SMILES IDX 37 78 38 79 43 80 39 81 40 82 42 83 44 84 41 85
REMARK H PARENT 79 20 79 21 61 47 35 58
REMARK Flexibility Score: inf
ROOT
ATOM      1  O   UNL A   1      37.685  21.371  25.376  1.00  0.00    -0.374 OA
ENDROOT
BRANCH   1   2
ATOM      2  C   UNL A   1      37.168  22.637  24.969  1.00  0.00     0.202 C 
BRANCH   2   3
ATOM      3  C   UNL A   1      36.362  22.659  23.666  1.00  0.00     0.261 C 
BRANCH   3   4
ATOM      4  O   UNL A   1      34.940  22.557  23.891  1.00  0.00    -0.463 OA
BRANCH   4   5
ATOM      5  C   UNL A   1      34.156  23.345  23.107  1.00  0.00     0.313 C 
ATOM      6  O   UNL A   1      34.167  23.315  21.881  1.00  0.00    -0.252 OA
BRANCH   5   7
ATOM      7  C   UNL A   1      33.201  24.233  23.893  1.00  0.00     0.084 C 
ATOM      8  C   UNL A   1      32.572  23.371  25.005  1.00  0.00     0.026 C 
ATOM      9  C   UNL A   1      33.933  25.453  24.476  1.00  0.00     0.042 C 
ATOM     10  C   UNL A   1      32.097  24.909  23.067  1.00  0.00     0.136 C 
ATOM     11  C   UNL A   1      32.827  26.458  24.784  1.00  0.00     0.119 C 
ATOM     12  N   UNL A   1      31.760  26.088  23.865  1.00  0.00    -0.355 N 
BRANCH  12  13
ATOM     13  C   UNL A   1      30.822  27.003  23.466  1.00  0.00     0.131 A 
ATOM     14  C   UNL A   1      29.476  26.800  23.752  1.00  0.00     0.054 A 
ATOM     15  N   UNL A   1      31.230  28.111  22.806  1.00  0.00    -0.207 NA
ATOM     16  C   UNL A   1      28.535  27.743  23.353  1.00  0.00     0.093 A 
ATOM     17  C   UNL A   1      30.324  29.016  22.370  1.00  0.00     0.204 A 
ATOM     18  C   UNL A   1      28.969  28.864  22.642  1.00  0.00     0.311 A 
BRANCH  17  19
ATOM     19  N   UNL A   1      30.883  30.102  21.729  1.00  0.00    -0.378 N 
ATOM     20  H   UNL A   1      31.861  30.156  21.613  1.00  0.00     0.158 HD
ATOM     21  H   UNL A   1      30.307  30.823  21.387  1.00  0.00     0.158 HD
ENDBRANCH  17  19
BRANCH  18  22
ATOM     22  N   UNL A   1      27.984  29.834  22.184  1.00  0.00     0.066 N 
ATOM     23  O   UNL A   1      27.910  30.037  20.963  1.00  0.00    -0.258 OA
ATOM     24  O   UNL A   1      27.303  30.432  23.033  1.00  0.00    -0.258 OA
ENDBRANCH  18  22
ENDBRANCH  12  13
ENDBRANCH   5   7
ENDBRANCH   4   5
ENDBRANCH   3   4
ENDBRANCH   2   3
ENDBRANCH   1   2
BRANCH   1  25
ATOM     25  C   UNL A   1      39.069  21.324  25.710  1.00  0.00     0.202 C 
BRANCH  25  26
ATOM     26  C   UNL A   1      39.652  19.931  25.977  1.00  0.00     0.261 C 
BRANCH  26  27
ATOM     27  O   UNL A   1      40.922  19.745  25.324  1.00  0.00    -0.460 OA
BRANCH  27  28
ATOM     28  C   UNL A   1      41.973  19.558  26.155  1.00  0.00     0.338 C 
ATOM     29  O   UNL A   1      42.526  18.501  26.430  1.00  0.00    -0.246 OA
BRANCH  28  30
ATOM     30  C   UNL A   1      42.518  20.862  26.571  1.00  0.00     0.060 A 
ATOM     31  C   UNL A   1      42.436  21.197  27.929  1.00  0.00     0.016 A 
ATOM     32  C   UNL A   1      43.059  21.761  25.651  1.00  0.00     0.016 A 
ATOM     33  C   UNL A   1      42.879  22.443  28.369  1.00  0.00     0.010 A 
ATOM     34  C   UNL A   1      43.489  23.018  26.093  1.00  0.00     0.010 A 
ATOM     35  C   UNL A   1      43.386  23.370  27.450  1.00  0.00    -0.014 A 
BRANCH  35  36
ATOM     36  C   UNL A   1      43.737  24.739  27.898  1.00  0.00     0.031 A 
ATOM     37  C   UNL A   1      42.645  25.732  28.177  1.00  0.00     0.074 A 
ATOM     38  C   UNL A   1      45.027  25.091  28.055  1.00  0.00     0.049 A 
ATOM     39  N   UNL A   1      42.738  26.993  28.511  1.00  0.00    -0.248 NA
ATOM     40  C   UNL A   1      41.264  25.236  28.068  1.00  0.00     0.031 C 
ATOM     41  C   UNL A   1      46.172  24.206  27.853  1.00  0.00     0.029 A 
ATOM     42  N   UNL A   1      45.586  26.293  28.407  1.00  0.00    -0.354 N 
ATOM     43  C   UNL A   1      41.433  27.445  28.648  1.00  0.00     0.074 A 
ATOM     44  C   UNL A   1      40.564  26.328  28.340  1.00  0.00     0.031 C 
ATOM     45  C   UNL A   1      47.302  24.903  28.065  1.00  0.00     0.029 A 
ATOM     46  C   UNL A   1      46.958  26.288  28.381  1.00  0.00     0.049 A 
ATOM     47  H   UNL A   1      45.054  27.084  28.654  1.00  0.00     0.167 HD
ATOM     48  C   UNL A   1      40.999  28.678  29.003  1.00  0.00     0.037 A 
ATOM     49  C   UNL A   1      47.837  27.293  28.559  1.00  0.00     0.037 A 
ATOM     50  C   UNL A   1      41.864  29.788  29.306  1.00  0.00     0.049 A 
ATOM     51  C   UNL A   1      47.326  28.676  28.863  1.00  0.00     0.074 A 
ATOM     52  C   UNL A   1      41.518  31.066  29.710  1.00  0.00     0.029 A 
ATOM     53  N   UNL A   1      43.247  29.756  29.224  1.00  0.00    -0.354 N 
ATOM     54  N   UNL A   1      46.091  29.086  29.022  1.00  0.00    -0.248 NA
ATOM     55  C   UNL A   1      48.332  29.739  29.003  1.00  0.00     0.031 C 
ATOM     56  C   UNL A   1      42.690  31.822  29.821  1.00  0.00     0.029 A 
ATOM     57  C   UNL A   1      43.769  31.002  29.532  1.00  0.00     0.049 A 
ATOM     58  H   UNL A   1      43.781  28.965  28.982  1.00  0.00     0.167 HD
ATOM     59  C   UNL A   1      46.172  30.444  29.297  1.00  0.00     0.074 A 
ATOM     60  C   UNL A   1      47.578  30.788  29.301  1.00  0.00     0.031 C 
ATOM     61  C   UNL A   1      45.171  31.331  29.524  1.00  0.00     0.037 A 
BRANCH  48  62
ATOM     62  C   UNL A   1      39.517  28.902  29.060  1.00  0.00     0.057 A 
ATOM     63  C   UNL A   1      38.790  28.747  30.246  1.00  0.00     0.134 A 
ATOM     64  C   UNL A   1      38.817  29.323  27.922  1.00  0.00     0.134 A 
ATOM     65  F   UNL A   1      39.399  28.336  31.368  1.00  0.00    -0.206 F 
ATOM     66  C   UNL A   1      37.415  28.988  30.296  1.00  0.00     0.040 A 
ATOM     67  C   UNL A   1      37.448  29.588  27.963  1.00  0.00     0.040 A 
ATOM     68  F   UNL A   1      39.456  29.494  26.753  1.00  0.00    -0.206 F 
ATOM     69  C   UNL A   1      36.742  29.417  29.153  1.00  0.00     0.006 A 
ENDBRANCH  48  62
BRANCH  49  70
ATOM     70  C   UNL A   1      49.292  27.042  28.418  1.00  0.00     0.057 A 
ATOM     71  C   UNL A   1      50.086  26.726  29.526  1.00  0.00     0.134 A 
ATOM     72  C   UNL A   1      49.928  27.133  27.173  1.00  0.00     0.134 A 
ATOM     73  F   UNL A   1      49.539  26.649  30.748  1.00  0.00    -0.206 F 
ATOM     74  C   UNL A   1      51.462  26.525  29.405  1.00  0.00     0.040 A 
ATOM     75  C   UNL A   1      51.299  26.911  27.034  1.00  0.00     0.040 A 
ATOM     76  F   UNL A   1      49.222  27.431  26.072  1.00  0.00    -0.206 F 
ATOM     77  C   UNL A   1      52.071  26.612  28.154  1.00  0.00     0.006 A 
ENDBRANCH  49  70
BRANCH  61  78
ATOM     78  C   UNL A   1      45.561  32.752  29.804  1.00  0.00     0.057 A 
ATOM     79  C   UNL A   1      45.648  33.706  28.782  1.00  0.00     0.134 A 
ATOM     80  C   UNL A   1      45.814  33.182  31.113  1.00  0.00     0.134 A 
ATOM     81  F   UNL A   1      45.432  33.356  27.505  1.00  0.00    -0.206 F 
ATOM     82  C   UNL A   1      45.990  35.033  29.050  1.00  0.00     0.040 A 
ATOM     83  C   UNL A   1      46.133  34.510  31.396  1.00  0.00     0.040 A 
ATOM     84  F   UNL A   1      45.740  32.320  32.138  1.00  0.00    -0.206 F 
ATOM     85  C   UNL A   1      46.226  35.439  30.362  1.00  0.00     0.006 A 
ENDBRANCH  61  78
ENDBRANCH  35  36
ENDBRANCH  28  30
ENDBRANCH  27  28
ENDBRANCH  26  27
ENDBRANCH  25  26
ENDBRANCH   1  25
TORSDOF 17
ENDMDL
