MODEL 1
REMARK VINA RESULT:     -10.9      0.000      0.000
REMARK SMILES CC(C)(CNC(=O)[C@H]1CCC[C@H](C(=O)OCCOCCOC(=O)c2ccc(-c3c4nc(c(-c5c(F)cccc5F)c5ccc([nH]5)c(-c5c(F)cccc5F)c5nc(c(-c6c(F)cccc6F)c6ccc3[nH]6)C=C5)C=C4)cc2)C1)S(C)(=O)=O
REMARK SMILES IDX 17 1 16 2 15 3 13 4 14 5 12 6 8 7 9 8 78 9 10 10 11 11 6 12
REMARK SMILES IDX 5 13 7 15 4 16 2 17 1 18 3 19 79 20 80 21 81 22 82 23 18 24
REMARK SMILES IDX 19 25 20 26 21 27 22 28 23 29 24 30 25 31 77 32 26 33 76 34
REMARK SMILES IDX 27 35 28 36 29 37 70 38 30 39 75 40 69 41 71 42 31 43 74 44
REMARK SMILES IDX 68 45 67 46 32 48 58 49 41 50 57 51 42 52 45 53 56 54 72 55
REMARK SMILES IDX 43 56 44 57 55 59 73 60 46 61 33 62 34 63 39 64 35 65 36 66
REMARK SMILES IDX 38 67 40 68 37 69 59 70 60 71 65 72 61 73 62 74 64 75 66 76
REMARK SMILES IDX 63 77 47 78 48 79 53 80 49 81 50 82 52 83 54 84 51 85
REMARK H PARENT 5 14 71 47 45 58
REMARK Flexibility Score: inf
ROOT
ATOM      1  C   UNL A   1      40.986  21.487  26.226  1.00  0.00     0.202 C 
ENDROOT
BRANCH   1   2
ATOM      2  C   UNL A   1      39.612  20.828  26.087  1.00  0.00     0.261 C 
BRANCH   2   3
ATOM      3  O   UNL A   1      38.608  21.718  25.562  1.00  0.00    -0.463 OA
BRANCH   3   4
ATOM      4  C   UNL A   1      37.513  21.084  25.076  1.00  0.00     0.309 C 
ATOM      5  O   UNL A   1      37.514  19.925  24.667  1.00  0.00    -0.252 OA
BRANCH   4   6
ATOM      6  C   UNL A   1      36.216  21.864  25.214  1.00  0.00     0.100 C 
ATOM      7  C   UNL A   1      35.281  24.204  24.882  1.00  0.00     0.079 C 
ATOM      8  C   UNL A   1      34.286  23.921  26.026  1.00  0.00     0.013 C 
ATOM      9  C   UNL A   1      36.528  23.360  25.078  1.00  0.00     0.028 C 
ATOM     10  C   UNL A   1      33.993  22.431  26.218  1.00  0.00     0.002 C 
ATOM     11  C   UNL A   1      35.272  21.591  26.379  1.00  0.00     0.015 C 
BRANCH   7  12
ATOM     12  C   UNL A   1      34.564  24.291  23.518  1.00  0.00     0.223 C 
ATOM     13  N   UNL A   1      33.432  24.964  23.198  1.00  0.00    -0.354 N 
ATOM     14  H   UNL A   1      33.196  24.863  22.247  1.00  0.00     0.163 HD
ATOM     15  O   UNL A   1      35.047  23.663  22.563  1.00  0.00    -0.275 OA
BRANCH  13  16
ATOM     16  C   UNL A   1      32.477  25.798  23.909  1.00  0.00     0.138 C 
BRANCH  16  17
ATOM     17  C   UNL A   1      32.796  27.315  24.010  1.00  0.00     0.084 C 
ATOM     18  C   UNL A   1      33.681  27.593  25.237  1.00  0.00     0.030 C 
ATOM     19  C   UNL A   1      33.589  27.722  22.732  1.00  0.00     0.030 C 
BRANCH  17  20
ATOM     20  S   UNL A   1      31.314  28.411  24.100  1.00  0.00     0.154 S 
ATOM     21  C   UNL A   1      30.969  29.045  22.478  1.00  0.00     0.158 C 
ATOM     22  O   UNL A   1      30.178  27.575  24.449  1.00  0.00    -0.229 OA
ATOM     23  O   UNL A   1      31.610  29.561  24.928  1.00  0.00    -0.229 OA
ENDBRANCH  17  20
ENDBRANCH  16  17
ENDBRANCH  13  16
ENDBRANCH   7  12
ENDBRANCH   4   6
ENDBRANCH   3   4
ENDBRANCH   2   3
ENDBRANCH   1   2
BRANCH   1  24
ATOM     24  O   UNL A   1      42.107  20.805  25.676  1.00  0.00    -0.374 OA
BRANCH  24  25
ATOM     25  C   UNL A   1      43.403  21.342  25.945  1.00  0.00     0.202 C 
BRANCH  25  26
ATOM     26  C   UNL A   1      44.117  22.100  24.816  1.00  0.00     0.261 C 
BRANCH  26  27
ATOM     27  O   UNL A   1      43.526  23.390  24.566  1.00  0.00    -0.460 OA
BRANCH  27  28
ATOM     28  C   UNL A   1      44.264  24.447  24.984  1.00  0.00     0.338 C 
ATOM     29  O   UNL A   1      45.350  24.810  24.570  1.00  0.00    -0.246 OA
BRANCH  28  30
ATOM     30  C   UNL A   1      43.447  25.277  25.890  1.00  0.00     0.060 A 
ATOM     31  C   UNL A   1      43.913  26.570  26.166  1.00  0.00     0.016 A 
ATOM     32  C   UNL A   1      42.286  24.794  26.492  1.00  0.00     0.016 A 
ATOM     33  C   UNL A   1      43.234  27.376  27.072  1.00  0.00     0.010 A 
ATOM     34  C   UNL A   1      41.618  25.594  27.424  1.00  0.00     0.010 A 
ATOM     35  C   UNL A   1      42.110  26.874  27.740  1.00  0.00    -0.014 A 
BRANCH  35  36
ATOM     36  C   UNL A   1      41.593  27.630  28.903  1.00  0.00     0.031 A 
ATOM     37  C   UNL A   1      42.325  27.515  30.211  1.00  0.00     0.074 A 
ATOM     38  C   UNL A   1      40.555  28.474  28.769  1.00  0.00     0.049 A 
ATOM     39  N   UNL A   1      42.085  28.107  31.352  1.00  0.00    -0.248 NA
ATOM     40  C   UNL A   1      43.495  26.620  30.232  1.00  0.00     0.031 C 
ATOM     41  C   UNL A   1      39.809  28.710  27.534  1.00  0.00     0.029 A 
ATOM     42  N   UNL A   1      39.958  29.301  29.686  1.00  0.00    -0.354 N 
ATOM     43  C   UNL A   1      43.080  27.670  32.219  1.00  0.00     0.074 A 
ATOM     44  C   UNL A   1      43.902  26.732  31.488  1.00  0.00     0.031 C 
ATOM     45  C   UNL A   1      38.847  29.619  27.773  1.00  0.00     0.029 A 
ATOM     46  C   UNL A   1      38.895  30.009  29.180  1.00  0.00     0.049 A 
ATOM     47  H   UNL A   1      40.262  29.380  30.619  1.00  0.00     0.167 HD
ATOM     48  C   UNL A   1      43.299  28.033  33.503  1.00  0.00     0.037 A 
ATOM     49  C   UNL A   1      38.052  30.861  29.794  1.00  0.00     0.037 A 
ATOM     50  C   UNL A   1      42.471  28.958  34.231  1.00  0.00     0.049 A 
ATOM     51  C   UNL A   1      38.264  31.173  31.254  1.00  0.00     0.074 A 
ATOM     52  C   UNL A   1      42.584  29.366  35.548  1.00  0.00     0.029 A 
ATOM     53  N   UNL A   1      41.374  29.617  33.698  1.00  0.00    -0.354 N 
ATOM     54  N   UNL A   1      39.207  30.755  32.063  1.00  0.00    -0.248 NA
ATOM     55  C   UNL A   1      37.295  32.083  31.883  1.00  0.00     0.031 C 
ATOM     56  C   UNL A   1      41.533  30.247  35.823  1.00  0.00     0.029 A 
ATOM     57  C   UNL A   1      40.794  30.422  34.663  1.00  0.00     0.049 A 
ATOM     58  H   UNL A   1      41.055  29.526  32.771  1.00  0.00     0.167 HD
ATOM     59  C   UNL A   1      38.964  31.373  33.284  1.00  0.00     0.074 A 
ATOM     60  C   UNL A   1      37.798  32.210  33.103  1.00  0.00     0.031 C 
ATOM     61  C   UNL A   1      39.643  31.260  34.452  1.00  0.00     0.037 A 
BRANCH  48  62
ATOM     62  C   UNL A   1      44.475  27.423  34.206  1.00  0.00     0.057 A 
ATOM     63  C   UNL A   1      44.374  26.195  34.872  1.00  0.00     0.134 A 
ATOM     64  C   UNL A   1      45.728  28.045  34.182  1.00  0.00     0.134 A 
ATOM     65  F   UNL A   1      43.196  25.557  34.948  1.00  0.00    -0.206 F 
ATOM     66  C   UNL A   1      45.478  25.612  35.498  1.00  0.00     0.040 A 
ATOM     67  C   UNL A   1      46.844  27.461  34.784  1.00  0.00     0.040 A 
ATOM     68  F   UNL A   1      45.892  29.223  33.561  1.00  0.00    -0.206 F 
ATOM     69  C   UNL A   1      46.719  26.242  35.447  1.00  0.00     0.006 A 
ENDBRANCH  48  62
BRANCH  49  70
ATOM     70  C   UNL A   1      36.915  31.465  29.053  1.00  0.00     0.057 A 
ATOM     71  C   UNL A   1      36.941  32.801  28.635  1.00  0.00     0.134 A 
ATOM     72  C   UNL A   1      35.745  30.737  28.802  1.00  0.00     0.134 A 
ATOM     73  F   UNL A   1      38.023  33.560  28.866  1.00  0.00    -0.206 F 
ATOM     74  C   UNL A   1      35.836  33.400  28.026  1.00  0.00     0.040 A 
ATOM     75  C   UNL A   1      34.644  31.314  28.169  1.00  0.00     0.040 A 
ATOM     76  F   UNL A   1      35.654  29.452  29.177  1.00  0.00    -0.206 F 
ATOM     77  C   UNL A   1      34.683  32.654  27.790  1.00  0.00     0.006 A 
ENDBRANCH  49  70
BRANCH  61  78
ATOM     78  C   UNL A   1      39.164  32.094  35.605  1.00  0.00     0.057 A 
ATOM     79  C   UNL A   1      39.544  33.434  35.758  1.00  0.00     0.134 A 
ATOM     80  C   UNL A   1      38.289  31.556  36.557  1.00  0.00     0.134 A 
ATOM     81  F   UNL A   1      40.389  34.004  34.886  1.00  0.00    -0.206 F 
ATOM     82  C   UNL A   1      39.095  34.199  36.835  1.00  0.00     0.040 A 
ATOM     83  C   UNL A   1      37.811  32.319  37.621  1.00  0.00     0.040 A 
ATOM     84  F   UNL A   1      37.877  30.282  36.462  1.00  0.00    -0.206 F 
ATOM     85  C   UNL A   1      38.220  33.643  37.767  1.00  0.00     0.006 A 
ENDBRANCH  61  78
ENDBRANCH  35  36
ENDBRANCH  28  30
ENDBRANCH  27  28
ENDBRANCH  26  27
ENDBRANCH  25  26
ENDBRANCH  24  25
ENDBRANCH   1  24
TORSDOF 18
ENDMDL
MODEL 2
REMARK VINA RESULT:     -10.8      3.073      8.406
REMARK SMILES CC(C)(CNC(=O)[C@H]1CCC[C@H](C(=O)OCCOCCOC(=O)c2ccc(-c3c4nc(c(-c5c(F)cccc5F)c5ccc([nH]5)c(-c5c(F)cccc5F)c5nc(c(-c6c(F)cccc6F)c6ccc3[nH]6)C=C5)C=C4)cc2)C1)S(C)(=O)=O
REMARK SMILES IDX 17 1 16 2 15 3 13 4 14 5 12 6 8 7 9 8 78 9 10 10 11 11 6 12
REMARK SMILES IDX 5 13 7 15 4 16 2 17 1 18 3 19 79 20 80 21 81 22 82 23 18 24
REMARK SMILES IDX 19 25 20 26 21 27 22 28 23 29 24 30 25 31 77 32 26 33 76 34
REMARK SMILES IDX 27 35 28 36 29 37 70 38 30 39 75 40 69 41 71 42 31 43 74 44
REMARK SMILES IDX 68 45 67 46 32 48 58 49 41 50 57 51 42 52 45 53 56 54 72 55
REMARK SMILES IDX 43 56 44 57 55 59 73 60 46 61 33 62 34 63 39 64 35 65 36 66
REMARK SMILES IDX 38 67 40 68 37 69 59 70 60 71 65 72 61 73 62 74 64 75 66 76
REMARK SMILES IDX 63 77 47 78 48 79 53 80 49 81 50 82 52 83 54 84 51 85
REMARK H PARENT 5 14 71 47 45 58
REMARK Flexibility Score: inf
ROOT
ATOM      1  C   UNL A   1      32.491  29.469  26.514  1.00  0.00     0.202 C 
ENDROOT
BRANCH   1   2
ATOM      2  C   UNL A   1      31.613  28.298  26.963  1.00  0.00     0.261 C 
BRANCH   2   3
ATOM      3  O   UNL A   1      32.198  27.012  26.685  1.00  0.00    -0.463 OA
BRANCH   3   4
ATOM      4  C   UNL A   1      31.372  26.163  26.026  1.00  0.00     0.309 C 
ATOM      5  O   UNL A   1      30.357  25.673  26.518  1.00  0.00    -0.252 OA
BRANCH   4   6
ATOM      6  C   UNL A   1      31.701  25.970  24.556  1.00  0.00     0.100 C 
ATOM      7  C   UNL A   1      33.665  25.441  23.032  1.00  0.00     0.079 C 
ATOM      8  C   UNL A   1      32.982  26.281  21.934  1.00  0.00     0.013 C 
ATOM      9  C   UNL A   1      33.227  25.943  24.396  1.00  0.00     0.028 C 
ATOM     10  C   UNL A   1      31.463  26.368  22.095  1.00  0.00     0.002 C 
ATOM     11  C   UNL A   1      31.042  26.844  23.496  1.00  0.00     0.015 C 
BRANCH   7  12
ATOM     12  C   UNL A   1      33.662  23.939  22.677  1.00  0.00     0.223 C 
ATOM     13  N   UNL A   1      33.776  22.873  23.507  1.00  0.00    -0.354 N 
ATOM     14  H   UNL A   1      33.730  22.018  23.020  1.00  0.00     0.163 HD
ATOM     15  O   UNL A   1      33.557  23.621  21.482  1.00  0.00    -0.275 OA
BRANCH  13  16
ATOM     16  C   UNL A   1      33.952  22.677  24.936  1.00  0.00     0.138 C 
BRANCH  16  17
ATOM     17  C   UNL A   1      33.033  21.632  25.628  1.00  0.00     0.084 C 
ATOM     18  C   UNL A   1      33.550  21.321  27.043  1.00  0.00     0.030 C 
ATOM     19  C   UNL A   1      31.611  22.255  25.752  1.00  0.00     0.030 C 
BRANCH  17  20
ATOM     20  S   UNL A   1      32.849  20.041  24.712  1.00  0.00     0.154 S 
ATOM     21  C   UNL A   1      34.442  19.269  24.574  1.00  0.00     0.158 C 
ATOM     22  O   UNL A   1      32.048  19.155  25.540  1.00  0.00    -0.229 OA
ATOM     23  O   UNL A   1      32.411  20.309  23.358  1.00  0.00    -0.229 OA
ENDBRANCH  17  20
ENDBRANCH  16  17
ENDBRANCH  13  16
ENDBRANCH   7  12
ENDBRANCH   4   6
ENDBRANCH   3   4
ENDBRANCH   2   3
ENDBRANCH   1   2
BRANCH   1  24
ATOM     24  O   UNL A   1      32.397  30.686  27.245  1.00  0.00    -0.374 OA
BRANCH  24  25
ATOM     25  C   UNL A   1      31.596  31.729  26.690  1.00  0.00     0.202 C 
BRANCH  25  26
ATOM     26  C   UNL A   1      32.067  33.178  26.879  1.00  0.00     0.261 C 
BRANCH  26  27
ATOM     27  O   UNL A   1      32.287  33.504  28.265  1.00  0.00    -0.460 OA
BRANCH  27  28
ATOM     28  C   UNL A   1      33.315  34.357  28.495  1.00  0.00     0.338 C 
ATOM     29  O   UNL A   1      33.262  35.561  28.669  1.00  0.00    -0.246 OA
BRANCH  28  30
ATOM     30  C   UNL A   1      34.541  33.576  28.748  1.00  0.00     0.060 A 
ATOM     31  C   UNL A   1      34.386  32.319  29.349  1.00  0.00     0.016 A 
ATOM     32  C   UNL A   1      35.810  34.075  28.453  1.00  0.00     0.016 A 
ATOM     33  C   UNL A   1      35.505  31.567  29.686  1.00  0.00     0.010 A 
ATOM     34  C   UNL A   1      36.936  33.330  28.819  1.00  0.00     0.010 A 
ATOM     35  C   UNL A   1      36.785  32.089  29.466  1.00  0.00    -0.014 A 
BRANCH  35  36
ATOM     36  C   UNL A   1      37.937  31.410  30.100  1.00  0.00     0.031 A 
ATOM     37  C   UNL A   1      38.234  31.707  31.544  1.00  0.00     0.074 A 
ATOM     38  C   UNL A   1      38.639  30.477  29.433  1.00  0.00     0.049 A 
ATOM     39  N   UNL A   1      39.160  31.210  32.321  1.00  0.00    -0.248 NA
ATOM     40  C   UNL A   1      37.358  32.690  32.205  1.00  0.00     0.031 C 
ATOM     41  C   UNL A   1      38.401  30.066  28.051  1.00  0.00     0.029 A 
ATOM     42  N   UNL A   1      39.691  29.697  29.840  1.00  0.00    -0.354 N 
ATOM     43  C   UNL A   1      38.969  31.805  33.562  1.00  0.00     0.074 A 
ATOM     44  C   UNL A   1      37.867  32.731  33.427  1.00  0.00     0.031 C 
ATOM     45  C   UNL A   1      39.289  29.111  27.721  1.00  0.00     0.029 A 
ATOM     46  C   UNL A   1      40.169  28.862  28.860  1.00  0.00     0.049 A 
ATOM     47  H   UNL A   1      40.068  29.732  30.749  1.00  0.00     0.167 HD
ATOM     48  C   UNL A   1      39.640  31.585  34.715  1.00  0.00     0.037 A 
ATOM     49  C   UNL A   1      41.211  28.009  28.883  1.00  0.00     0.037 A 
ATOM     50  C   UNL A   1      40.744  30.672  34.843  1.00  0.00     0.049 A 
ATOM     51  C   UNL A   1      42.002  27.855  30.157  1.00  0.00     0.074 A 
ATOM     52  C   UNL A   1      41.518  30.402  35.958  1.00  0.00     0.029 A 
ATOM     53  N   UNL A   1      41.231  29.880  33.814  1.00  0.00    -0.354 N 
ATOM     54  N   UNL A   1      41.813  28.423  31.325  1.00  0.00    -0.248 NA
ATOM     55  C   UNL A   1      43.149  26.936  30.118  1.00  0.00     0.031 C 
ATOM     56  C   UNL A   1      42.496  29.471  35.595  1.00  0.00     0.029 A 
ATOM     57  C   UNL A   1      42.302  29.128  34.266  1.00  0.00     0.049 A 
ATOM     58  H   UNL A   1      40.869  29.856  32.900  1.00  0.00     0.167 HD
ATOM     59  C   UNL A   1      42.793  27.906  32.163  1.00  0.00     0.074 A 
ATOM     60  C   UNL A   1      43.562  26.966  31.377  1.00  0.00     0.031 C 
ATOM     61  C   UNL A   1      43.039  28.185  33.467  1.00  0.00     0.037 A 
BRANCH  48  62
ATOM     62  C   UNL A   1      39.204  32.351  35.929  1.00  0.00     0.057 A 
ATOM     63  C   UNL A   1      39.654  33.656  36.173  1.00  0.00     0.134 A 
ATOM     64  C   UNL A   1      38.296  31.799  36.839  1.00  0.00     0.134 A 
ATOM     65  F   UNL A   1      40.541  34.235  35.349  1.00  0.00    -0.206 F 
ATOM     66  C   UNL A   1      39.222  34.380  37.286  1.00  0.00     0.040 A 
ATOM     67  C   UNL A   1      37.839  32.522  37.943  1.00  0.00     0.040 A 
ATOM     68  F   UNL A   1      37.827  30.554  36.664  1.00  0.00    -0.206 F 
ATOM     69  C   UNL A   1      38.304  33.815  38.169  1.00  0.00     0.006 A 
ENDBRANCH  48  62
BRANCH  49  70
ATOM     70  C   UNL A   1      41.593  27.247  27.665  1.00  0.00     0.057 A 
ATOM     71  C   UNL A   1      42.397  27.815  26.670  1.00  0.00     0.134 A 
ATOM     72  C   UNL A   1      41.109  25.953  27.438  1.00  0.00     0.134 A 
ATOM     73  F   UNL A   1      42.874  29.061  26.815  1.00  0.00    -0.206 F 
ATOM     74  C   UNL A   1      42.677  27.140  25.480  1.00  0.00     0.040 A 
ATOM     75  C   UNL A   1      41.404  25.255  26.267  1.00  0.00     0.040 A 
ATOM     76  F   UNL A   1      40.333  25.350  28.352  1.00  0.00    -0.206 F 
ATOM     77  C   UNL A   1      42.180  25.853  25.278  1.00  0.00     0.006 A 
ENDBRANCH  49  70
BRANCH  61  78
ATOM     78  C   UNL A   1      44.155  27.430  34.129  1.00  0.00     0.057 A 
ATOM     79  C   UNL A   1      43.954  26.173  34.715  1.00  0.00     0.134 A 
ATOM     80  C   UNL A   1      45.453  27.956  34.154  1.00  0.00     0.134 A 
ATOM     81  F   UNL A   1      42.732  25.620  34.734  1.00  0.00    -0.206 F 
ATOM     82  C   UNL A   1      44.998  25.481  35.330  1.00  0.00     0.040 A 
ATOM     83  C   UNL A   1      46.511  27.261  34.740  1.00  0.00     0.040 A 
ATOM     84  F   UNL A   1      45.716  29.149  33.600  1.00  0.00    -0.206 F 
ATOM     85  C   UNL A   1      46.283  26.023  35.338  1.00  0.00     0.006 A 
ENDBRANCH  61  78
ENDBRANCH  35  36
ENDBRANCH  28  30
ENDBRANCH  27  28
ENDBRANCH  26  27
ENDBRANCH  25  26
ENDBRANCH  24  25
ENDBRANCH   1  24
TORSDOF 18
ENDMDL
MODEL 3
REMARK VINA RESULT:     -10.7      4.236      6.349
REMARK SMILES CC(C)(CNC(=O)[C@H]1CCC[C@H](C(=O)OCCOCCOC(=O)c2ccc(-c3c4nc(c(-c5c(F)cccc5F)c5ccc([nH]5)c(-c5c(F)cccc5F)c5nc(c(-c6c(F)cccc6F)c6ccc3[nH]6)C=C5)C=C4)cc2)C1)S(C)(=O)=O
REMARK SMILES IDX 17 1 16 2 15 3 13 4 14 5 12 6 8 7 9 8 78 9 10 10 11 11 6 12
REMARK SMILES IDX 5 13 7 15 4 16 2 17 1 18 3 19 79 20 80 21 81 22 82 23 18 24
REMARK SMILES IDX 19 25 20 26 21 27 22 28 23 29 24 30 25 31 77 32 26 33 76 34
REMARK SMILES IDX 27 35 28 36 29 37 70 38 30 39 75 40 69 41 71 42 31 43 74 44
REMARK SMILES IDX 68 45 67 46 32 48 58 49 41 50 57 51 42 52 45 53 56 54 72 55
REMARK SMILES IDX 43 56 44 57 55 59 73 60 46 61 33 62 34 63 39 64 35 65 36 66
REMARK SMILES IDX 38 67 40 68 37 69 59 70 60 71 65 72 61 73 62 74 64 75 66 76
REMARK SMILES IDX 63 77 47 78 48 79 53 80 49 81 50 82 52 83 54 84 51 85
REMARK H PARENT 5 14 71 47 45 58
REMARK Flexibility Score: inf
ROOT
ATOM      1  C   UNL A   1      36.825  22.201  24.571  1.00  0.00     0.202 C 
ENDROOT
BRANCH   1   2
ATOM      2  C   UNL A   1      35.939  23.405  24.244  1.00  0.00     0.261 C 
BRANCH   2   3
ATOM      3  O   UNL A   1      35.494  23.426  22.875  1.00  0.00    -0.463 OA
BRANCH   3   4
ATOM      4  C   UNL A   1      34.146  23.470  22.736  1.00  0.00     0.309 C 
ATOM      5  O   UNL A   1      33.567  23.486  21.651  1.00  0.00    -0.252 OA
BRANCH   4   6
ATOM      6  C   UNL A   1      33.370  23.341  24.036  1.00  0.00     0.100 C 
ATOM      7  C   UNL A   1      31.951  21.670  25.323  1.00  0.00     0.079 C 
ATOM      8  C   UNL A   1      31.172  22.859  25.921  1.00  0.00     0.013 C 
ATOM      9  C   UNL A   1      32.518  22.067  23.971  1.00  0.00     0.028 C 
ATOM     10  C   UNL A   1      31.981  24.158  25.952  1.00  0.00     0.002 C 
ATOM     11  C   UNL A   1      32.574  24.521  24.580  1.00  0.00     0.015 C 
BRANCH   7  12
ATOM     12  C   UNL A   1      32.814  20.967  26.392  1.00  0.00     0.223 C 
ATOM     13  N   UNL A   1      33.070  19.643  26.538  1.00  0.00    -0.354 N 
ATOM     14  H   UNL A   1      33.666  19.463  27.300  1.00  0.00     0.163 HD
ATOM     15  O   UNL A   1      33.354  21.668  27.262  1.00  0.00    -0.275 OA
BRANCH  13  16
ATOM     16  C   UNL A   1      32.681  18.423  25.850  1.00  0.00     0.138 C 
BRANCH  16  17
ATOM     17  C   UNL A   1      33.437  18.076  24.538  1.00  0.00     0.084 C 
ATOM     18  C   UNL A   1      32.619  18.524  23.316  1.00  0.00     0.030 C 
ATOM     19  C   UNL A   1      34.783  18.860  24.541  1.00  0.00     0.030 C 
BRANCH  17  20
ATOM     20  S   UNL A   1      33.852  16.289  24.338  1.00  0.00     0.154 S 
ATOM     21  C   UNL A   1      35.343  15.941  25.237  1.00  0.00     0.158 C 
ATOM     22  O   UNL A   1      32.804  15.525  24.993  1.00  0.00    -0.229 OA
ATOM     23  O   UNL A   1      34.146  16.012  22.947  1.00  0.00    -0.229 OA
ENDBRANCH  17  20
ENDBRANCH  16  17
ENDBRANCH  13  16
ENDBRANCH   7  12
ENDBRANCH   4   6
ENDBRANCH   3   4
ENDBRANCH   2   3
ENDBRANCH   1   2
BRANCH   1  24
ATOM     24  O   UNL A   1      38.120  22.455  25.101  1.00  0.00    -0.374 OA
BRANCH  24  25
ATOM     25  C   UNL A   1      38.663  21.493  26.005  1.00  0.00     0.202 C 
BRANCH  25  26
ATOM     26  C   UNL A   1      39.403  20.284  25.412  1.00  0.00     0.261 C 
BRANCH  26  27
ATOM     27  O   UNL A   1      40.241  19.628  26.382  1.00  0.00    -0.460 OA
BRANCH  27  28
ATOM     28  C   UNL A   1      41.567  19.653  26.102  1.00  0.00     0.338 C 
ATOM     29  O   UNL A   1      42.199  18.876  25.410  1.00  0.00    -0.246 OA
BRANCH  28  30
ATOM     30  C   UNL A   1      42.135  20.930  26.575  1.00  0.00     0.060 A 
ATOM     31  C   UNL A   1      42.085  21.181  27.953  1.00  0.00     0.016 A 
ATOM     32  C   UNL A   1      42.657  21.879  25.695  1.00  0.00     0.016 A 
ATOM     33  C   UNL A   1      42.530  22.397  28.456  1.00  0.00     0.010 A 
ATOM     34  C   UNL A   1      43.079  23.114  26.199  1.00  0.00     0.010 A 
ATOM     35  C   UNL A   1      42.986  23.387  27.576  1.00  0.00    -0.014 A 
BRANCH  35  36
ATOM     36  C   UNL A   1      43.167  24.759  28.100  1.00  0.00     0.031 A 
ATOM     37  C   UNL A   1      44.564  25.235  28.386  1.00  0.00     0.074 A 
ATOM     38  C   UNL A   1      42.119  25.593  28.224  1.00  0.00     0.049 A 
ATOM     39  N   UNL A   1      44.974  26.401  28.812  1.00  0.00    -0.248 NA
ATOM     40  C   UNL A   1      45.649  24.268  28.146  1.00  0.00     0.031 C 
ATOM     41  C   UNL A   1      40.730  25.257  27.919  1.00  0.00     0.029 A 
ATOM     42  N   UNL A   1      42.068  26.902  28.630  1.00  0.00    -0.354 N 
ATOM     43  C   UNL A   1      46.359  26.313  28.875  1.00  0.00     0.074 A 
ATOM     44  C   UNL A   1      46.720  24.969  28.485  1.00  0.00     0.031 C 
ATOM     45  C   UNL A   1      39.959  26.334  28.155  1.00  0.00     0.029 A 
ATOM     46  C   UNL A   1      40.798  27.424  28.649  1.00  0.00     0.049 A 
ATOM     47  H   UNL A   1      42.867  27.419  28.883  1.00  0.00     0.167 HD
ATOM     48  C   UNL A   1      47.251  27.273  29.211  1.00  0.00     0.037 A 
ATOM     49  C   UNL A   1      40.368  28.639  29.039  1.00  0.00     0.037 A 
ATOM     50  C   UNL A   1      46.887  28.606  29.610  1.00  0.00     0.049 A 
ATOM     51  C   UNL A   1      41.378  29.659  29.500  1.00  0.00     0.074 A 
ATOM     52  C   UNL A   1      47.712  29.645  30.006  1.00  0.00     0.029 A 
ATOM     53  N   UNL A   1      45.586  29.082  29.664  1.00  0.00    -0.354 N 
ATOM     54  N   UNL A   1      42.685  29.565  29.556  1.00  0.00    -0.248 NA
ATOM     55  C   UNL A   1      40.852  30.957  29.946  1.00  0.00     0.031 C 
ATOM     56  C   UNL A   1      46.906  30.740  30.333  1.00  0.00     0.029 A 
ATOM     57  C   UNL A   1      45.584  30.397  30.097  1.00  0.00     0.049 A 
ATOM     58  H   UNL A   1      44.784  28.562  29.430  1.00  0.00     0.167 HD
ATOM     59  C   UNL A   1      43.137  30.798  30.011  1.00  0.00     0.074 A 
ATOM     60  C   UNL A   1      41.966  31.628  30.197  1.00  0.00     0.031 C 
ATOM     61  C   UNL A   1      44.405  31.209  30.256  1.00  0.00     0.037 A 
BRANCH  48  62
ATOM     62  C   UNL A   1      48.706  26.913  29.168  1.00  0.00     0.057 A 
ATOM     63  C   UNL A   1      49.349  26.326  30.266  1.00  0.00     0.134 A 
ATOM     64  C   UNL A   1      49.463  27.117  28.009  1.00  0.00     0.134 A 
ATOM     65  F   UNL A   1      48.684  26.122  31.414  1.00  0.00    -0.206 F 
ATOM     66  C   UNL A   1      50.695  25.961  30.214  1.00  0.00     0.040 A 
ATOM     67  C   UNL A   1      50.804  26.735  27.936  1.00  0.00     0.040 A 
ATOM     68  F   UNL A   1      48.908  27.675  26.922  1.00  0.00    -0.206 F 
ATOM     69  C   UNL A   1      51.424  26.158  29.042  1.00  0.00     0.006 A 
ENDBRANCH  48  62
BRANCH  49  70
ATOM     70  C   UNL A   1      38.918  28.964  29.040  1.00  0.00     0.057 A 
ATOM     71  C   UNL A   1      38.283  29.482  27.904  1.00  0.00     0.134 A 
ATOM     72  C   UNL A   1      38.145  28.824  30.199  1.00  0.00     0.134 A 
ATOM     73  F   UNL A   1      38.973  29.663  26.768  1.00  0.00    -0.206 F 
ATOM     74  C   UNL A   1      36.945  29.880  27.931  1.00  0.00     0.040 A 
ATOM     75  C   UNL A   1      36.799  29.191  30.232  1.00  0.00     0.040 A 
ATOM     76  F   UNL A   1      38.691  28.334  31.322  1.00  0.00    -0.206 F 
ATOM     77  C   UNL A   1      36.198  29.733  29.099  1.00  0.00     0.006 A 
ENDBRANCH  49  70
BRANCH  61  78
ATOM     78  C   UNL A   1      44.590  32.628  30.707  1.00  0.00     0.057 A 
ATOM     79  C   UNL A   1      44.627  32.976  32.063  1.00  0.00     0.134 A 
ATOM     80  C   UNL A   1      44.762  33.655  29.770  1.00  0.00     0.134 A 
ATOM     81  F   UNL A   1      44.457  32.040  33.009  1.00  0.00    -0.206 F 
ATOM     82  C   UNL A   1      44.797  34.300  32.471  1.00  0.00     0.040 A 
ATOM     83  C   UNL A   1      44.962  34.977  30.165  1.00  0.00     0.040 A 
ATOM     84  F   UNL A   1      44.749  33.388  28.455  1.00  0.00    -0.206 F 
ATOM     85  C   UNL A   1      44.971  35.304  31.520  1.00  0.00     0.006 A 
ENDBRANCH  61  78
ENDBRANCH  35  36
ENDBRANCH  28  30
ENDBRANCH  27  28
ENDBRANCH  26  27
ENDBRANCH  25  26
ENDBRANCH  24  25
ENDBRANCH   1  24
TORSDOF 18
ENDMDL
