MODEL 1
REMARK VINA RESULT:     -12.2      0.000      0.000
REMARK SMILES O=C(OCCOCCOC(=O)[C@@H]1C=C[C@H](NC(=O)[C@@H]2Cc3ccccc3O2)C1)c1ccc(-c2c3nc(c(-c4c(F)cccc4F)c4ccc([nH]4)c(-c4c(F)cccc4F)c4nc(c(-c5c(F)cccc5F)c5ccc2[nH]5)C=C4)C=C3)cc1
REMARK SMILES IDX 6 1 5 2 4 3 3 4 2 5 1 6 29 7 30 8 82 9 31 10 81 11 32 12
REMARK SMILES IDX 33 13 34 14 75 15 35 16 80 17 74 18 76 19 36 20 79 21 73 22
REMARK SMILES IDX 72 23 37 25 63 26 46 27 62 28 47 29 50 30 61 31 77 32 48 33
REMARK SMILES IDX 49 34 60 36 78 37 51 38 38 39 39 40 44 41 40 42 41 43 43 44
REMARK SMILES IDX 45 45 42 46 64 47 65 48 70 49 66 50 67 51 69 52 71 53 68 54
REMARK SMILES IDX 52 55 53 56 58 57 54 58 55 59 57 60 59 61 56 62 7 63 8 64
REMARK SMILES IDX 9 65 10 66 11 67 12 68 13 69 28 70 14 71 15 72 16 73 17 74
REMARK SMILES IDX 18 76 19 77 20 78 27 79 21 80 26 81 22 82 25 83 23 84 24 85
REMARK H PARENT 76 24 50 35 16 75
REMARK Flexibility Score: inf
ROOT
ATOM      1  O   UNL A   1      39.619  21.494  26.989  1.00  0.00    -0.374 OA
ENDROOT
BRANCH   1   2
ATOM      2  C   UNL A   1      41.021  21.594  27.303  1.00  0.00     0.202 C 
BRANCH   2   3
ATOM      3  C   UNL A   1      42.308  21.080  26.493  1.00  0.00     0.261 C 
BRANCH   3   4
ATOM      4  O   UNL A   1      42.787  21.825  25.258  1.00  0.00    -0.460 OA
BRANCH   4   5
ATOM      5  C   UNL A   1      43.036  23.398  24.956  1.00  0.00     0.338 C 
ATOM      6  O   UNL A   1      44.206  23.263  24.490  1.00  0.00    -0.246 OA
BRANCH   5   7
ATOM      7  C   UNL A   1      41.759  25.065  25.445  1.00  0.00     0.060 A 
ATOM      8  C   UNL A   1      42.119  26.500  25.622  1.00  0.00     0.016 A 
ATOM      9  C   UNL A   1      40.449  25.156  26.191  1.00  0.00     0.016 A 
ATOM     10  C   UNL A   1      42.078  27.147  26.892  1.00  0.00     0.010 A 
ATOM     11  C   UNL A   1      40.154  26.003  27.352  1.00  0.00     0.010 A 
ATOM     12  C   UNL A   1      41.077  26.929  27.821  1.00  0.00    -0.014 A 
BRANCH  12  13
ATOM     13  C   UNL A   1      40.967  27.846  29.031  1.00  0.00     0.031 A 
ATOM     14  C   UNL A   1      41.850  27.783  30.279  1.00  0.00     0.074 A 
ATOM     15  C   UNL A   1      40.081  28.874  28.999  1.00  0.00     0.049 A 
ATOM     16  N   UNL A   1      41.716  28.434  31.420  1.00  0.00    -0.248 NA
ATOM     17  C   UNL A   1      43.042  26.928  30.237  1.00  0.00     0.031 C 
ATOM     18  C   UNL A   1      39.214  29.220  27.868  1.00  0.00     0.029 A 
ATOM     19  N   UNL A   1      39.762  29.834  29.940  1.00  0.00    -0.354 N 
ATOM     20  C   UNL A   1      42.773  28.042  32.243  1.00  0.00     0.074 A 
ATOM     21  C   UNL A   1      43.558  27.109  31.452  1.00  0.00     0.031 C 
ATOM     22  C   UNL A   1      38.520  30.323  28.149  1.00  0.00     0.029 A 
ATOM     23  C   UNL A   1      38.731  30.656  29.546  1.00  0.00     0.049 A 
ATOM     24  H   UNL A   1      40.225  29.921  30.805  1.00  0.00     0.167 HD
ATOM     25  C   UNL A   1      43.054  28.401  33.530  1.00  0.00     0.037 A 
ATOM     26  C   UNL A   1      37.935  31.511  30.213  1.00  0.00     0.037 A 
ATOM     27  C   UNL A   1      42.303  29.354  34.330  1.00  0.00     0.049 A 
ATOM     28  C   UNL A   1      38.139  31.763  31.669  1.00  0.00     0.074 A 
ATOM     29  C   UNL A   1      42.528  29.746  35.645  1.00  0.00     0.029 A 
ATOM     30  N   UNL A   1      41.189  30.059  33.906  1.00  0.00    -0.354 N 
ATOM     31  N   UNL A   1      39.077  31.305  32.455  1.00  0.00    -0.248 NA
ATOM     32  C   UNL A   1      37.167  32.641  32.334  1.00  0.00     0.031 C 
ATOM     33  C   UNL A   1      41.508  30.623  36.036  1.00  0.00     0.029 A 
ATOM     34  C   UNL A   1      40.688  30.838  34.944  1.00  0.00     0.049 A 
ATOM     35  H   UNL A   1      40.806  30.016  33.000  1.00  0.00     0.167 HD
ATOM     36  C   UNL A   1      38.823  31.857  33.703  1.00  0.00     0.074 A 
ATOM     37  C   UNL A   1      37.649  32.690  33.568  1.00  0.00     0.031 C 
ATOM     38  C   UNL A   1      39.522  31.681  34.848  1.00  0.00     0.037 A 
BRANCH  25  39
ATOM     39  C   UNL A   1      44.194  27.696  34.231  1.00  0.00     0.057 A 
ATOM     40  C   UNL A   1      45.489  28.223  34.304  1.00  0.00     0.134 A 
ATOM     41  C   UNL A   1      43.956  26.495  34.919  1.00  0.00     0.134 A 
ATOM     42  F   UNL A   1      45.788  29.380  33.695  1.00  0.00    -0.206 F 
ATOM     43  C   UNL A   1      46.513  27.559  34.991  1.00  0.00     0.040 A 
ATOM     44  C   UNL A   1      44.963  25.837  35.632  1.00  0.00     0.040 A 
ATOM     45  F   UNL A   1      42.730  25.952  34.936  1.00  0.00    -0.206 F 
ATOM     46  C   UNL A   1      46.251  26.363  35.657  1.00  0.00     0.006 A 
ENDBRANCH  25  39
BRANCH  26  47
ATOM     47  C   UNL A   1      36.769  32.098  29.500  1.00  0.00     0.057 A 
ATOM     48  C   UNL A   1      35.604  31.362  29.279  1.00  0.00     0.134 A 
ATOM     49  C   UNL A   1      36.790  33.431  29.060  1.00  0.00     0.134 A 
ATOM     50  F   UNL A   1      35.532  30.078  29.661  1.00  0.00    -0.206 F 
ATOM     51  C   UNL A   1      34.500  31.928  28.638  1.00  0.00     0.040 A 
ATOM     52  C   UNL A   1      35.684  34.020  28.454  1.00  0.00     0.040 A 
ATOM     53  F   UNL A   1      37.878  34.192  29.257  1.00  0.00    -0.206 F 
ATOM     54  C   UNL A   1      34.535  33.263  28.235  1.00  0.00     0.006 A 
ENDBRANCH  26  47
BRANCH  38  55
ATOM     55  C   UNL A   1      39.069  32.437  36.066  1.00  0.00     0.057 A 
ATOM     56  C   UNL A   1      39.477  33.755  36.318  1.00  0.00     0.134 A 
ATOM     57  C   UNL A   1      38.185  31.853  36.982  1.00  0.00     0.134 A 
ATOM     58  F   UNL A   1      40.343  34.367  35.497  1.00  0.00    -0.206 F 
ATOM     59  C   UNL A   1      39.023  34.460  37.436  1.00  0.00     0.040 A 
ATOM     60  C   UNL A   1      37.706  32.555  38.090  1.00  0.00     0.040 A 
ATOM     61  F   UNL A   1      37.760  30.593  36.809  1.00  0.00    -0.206 F 
ATOM     62  C   UNL A   1      38.126  33.863  38.320  1.00  0.00     0.006 A 
ENDBRANCH  38  55
ENDBRANCH  12  13
ENDBRANCH   5   7
ENDBRANCH   4   5
ENDBRANCH   3   4
ENDBRANCH   2   3
ENDBRANCH   1   2
BRANCH   1  63
ATOM     63  C   UNL A   1      38.934  21.795  25.767  1.00  0.00     0.202 C 
BRANCH  63  64
ATOM     64  C   UNL A   1      37.506  21.366  25.414  1.00  0.00     0.261 C 
BRANCH  64  65
ATOM     65  O   UNL A   1      36.544  22.335  25.768  1.00  0.00    -0.463 OA
BRANCH  65  66
ATOM     66  C   UNL A   1      35.338  21.830  26.090  1.00  0.00     0.312 C 
ATOM     67  O   UNL A   1      34.769  21.991  27.163  1.00  0.00    -0.252 OA
BRANCH  66  68
ATOM     68  C   UNL A   1      34.759  21.039  24.933  1.00  0.00     0.124 C 
ATOM     69  C   UNL A   1      34.304  22.068  23.963  1.00  0.00    -0.014 C 
ATOM     70  C   UNL A   1      33.475  20.236  25.195  1.00  0.00     0.048 C 
ATOM     71  C   UNL A   1      32.971  22.188  23.993  1.00  0.00    -0.006 C 
ATOM     72  C   UNL A   1      32.306  21.178  24.906  1.00  0.00     0.106 C 
BRANCH  72  73
ATOM     73  N   UNL A   1      31.674  21.886  26.014  1.00  0.00    -0.347 N 
ATOM     74  C   UNL A   1      31.739  23.184  26.462  1.00  0.00     0.261 C 
ATOM     75  H   UNL A   1      31.079  21.317  26.552  1.00  0.00     0.164 HD
ATOM     76  O   UNL A   1      31.547  23.348  27.674  1.00  0.00    -0.271 OA
BRANCH  74  77
ATOM     77  C   UNL A   1      31.982  24.396  25.526  1.00  0.00     0.266 C 
ATOM     78  C   UNL A   1      33.145  25.344  26.010  1.00  0.00     0.095 C 
ATOM     79  O   UNL A   1      30.712  25.156  25.409  1.00  0.00    -0.480 OA
ATOM     80  C   UNL A   1      32.780  26.601  25.277  1.00  0.00    -0.002 A 
ATOM     81  C   UNL A   1      31.057  26.406  24.959  1.00  0.00     0.123 A 
ATOM     82  C   UNL A   1      33.741  27.809  24.402  1.00  0.00     0.008 A 
ATOM     83  C   UNL A   1      30.196  27.556  23.776  1.00  0.00     0.047 A 
ATOM     84  C   UNL A   1      32.985  28.788  23.066  1.00  0.00     0.001 A 
ATOM     85  C   UNL A   1      31.198  28.692  22.758  1.00  0.00     0.004 A 
ENDBRANCH  74  77
ENDBRANCH  72  73
ENDBRANCH  66  68
ENDBRANCH  65  66
ENDBRANCH  64  65
ENDBRANCH  63  64
ENDBRANCH   1  63
TORSDOF 16
ENDMDL
MODEL 2
REMARK VINA RESULT:     -12.1      5.439     10.819
REMARK SMILES O=C(OCCOCCOC(=O)[C@@H]1C=C[C@H](NC(=O)[C@@H]2Cc3ccccc3O2)C1)c1ccc(-c2c3nc(c(-c4c(F)cccc4F)c4ccc([nH]4)c(-c4c(F)cccc4F)c4nc(c(-c5c(F)cccc5F)c5ccc2[nH]5)C=C4)C=C3)cc1
REMARK SMILES IDX 6 1 5 2 4 3 3 4 2 5 1 6 29 7 30 8 82 9 31 10 81 11 32 12
REMARK SMILES IDX 33 13 34 14 75 15 35 16 80 17 74 18 76 19 36 20 79 21 73 22
REMARK SMILES IDX 72 23 37 25 63 26 46 27 62 28 47 29 50 30 61 31 77 32 48 33
REMARK SMILES IDX 49 34 60 36 78 37 51 38 38 39 39 40 44 41 40 42 41 43 43 44
REMARK SMILES IDX 45 45 42 46 64 47 65 48 70 49 66 50 67 51 69 52 71 53 68 54
REMARK SMILES IDX 52 55 53 56 58 57 54 58 55 59 57 60 59 61 56 62 7 63 8 64
REMARK SMILES IDX 9 65 10 66 11 67 12 68 13 69 28 70 14 71 15 72 16 73 17 74
REMARK SMILES IDX 18 76 19 77 20 78 27 79 21 80 26 81 22 82 25 83 23 84 24 85
REMARK H PARENT 76 24 50 35 16 75
REMARK Flexibility Score: inf
ROOT
ATOM      1  O   UNL A   1      45.254  22.502  25.349  1.00  0.00    -0.374 OA
ENDROOT
BRANCH   1   2
ATOM      2  C   UNL A   1      45.043  21.411  24.431  1.00  0.00     0.202 C 
BRANCH   2   3
ATOM      3  C   UNL A   1      45.448  19.862  24.545  1.00  0.00     0.261 C 
BRANCH   3   4
ATOM      4  O   UNL A   1      44.600  18.904  25.364  1.00  0.00    -0.460 OA
BRANCH   4   5
ATOM      5  C   UNL A   1      43.033  18.911  25.781  1.00  0.00     0.338 C 
ATOM      6  O   UNL A   1      42.835  17.675  25.583  1.00  0.00    -0.246 OA
BRANCH   5   7
ATOM      7  C   UNL A   1      41.797  20.604  26.285  1.00  0.00     0.060 A 
ATOM      8  C   UNL A   1      41.835  21.987  25.735  1.00  0.00     0.016 A 
ATOM      9  C   UNL A   1      41.045  20.973  27.542  1.00  0.00     0.016 A 
ATOM     10  C   UNL A   1      42.265  23.106  26.507  1.00  0.00     0.010 A 
ATOM     11  C   UNL A   1      41.161  22.223  28.302  1.00  0.00     0.010 A 
ATOM     12  C   UNL A   1      41.937  23.278  27.839  1.00  0.00    -0.014 A 
BRANCH  12  13
ATOM     13  C   UNL A   1      42.215  24.614  28.511  1.00  0.00     0.031 A 
ATOM     14  C   UNL A   1      41.202  25.746  28.696  1.00  0.00     0.074 A 
ATOM     15  C   UNL A   1      43.427  24.823  29.086  1.00  0.00     0.049 A 
ATOM     16  N   UNL A   1      41.408  26.979  29.124  1.00  0.00    -0.248 NA
ATOM     17  C   UNL A   1      39.791  25.461  28.411  1.00  0.00     0.031 C 
ATOM     18  C   UNL A   1      44.519  23.846  29.154  1.00  0.00     0.029 A 
ATOM     19  N   UNL A   1      43.953  25.922  29.737  1.00  0.00    -0.354 N 
ATOM     20  C   UNL A   1      40.172  27.627  29.121  1.00  0.00     0.074 A 
ATOM     21  C   UNL A   1      39.212  26.633  28.671  1.00  0.00     0.031 C 
ATOM     22  C   UNL A   1      45.541  24.354  29.844  1.00  0.00     0.029 A 
ATOM     23  C   UNL A   1      45.270  25.757  30.100  1.00  0.00     0.049 A 
ATOM     24  H   UNL A   1      43.438  26.740  29.923  1.00  0.00     0.167 HD
ATOM     25  C   UNL A   1      39.865  28.918  29.439  1.00  0.00     0.037 A 
ATOM     26  C   UNL A   1      46.229  26.618  30.487  1.00  0.00     0.037 A 
ATOM     27  C   UNL A   1      40.800  29.920  29.921  1.00  0.00     0.049 A 
ATOM     28  C   UNL A   1      45.924  28.069  30.660  1.00  0.00     0.074 A 
ATOM     29  C   UNL A   1      40.554  31.250  30.244  1.00  0.00     0.029 A 
ATOM     30  N   UNL A   1      42.153  29.717  30.146  1.00  0.00    -0.354 N 
ATOM     31  N   UNL A   1      44.775  28.682  30.552  1.00  0.00    -0.248 NA
ATOM     32  C   UNL A   1      47.051  28.949  30.996  1.00  0.00     0.031 C 
ATOM     33  C   UNL A   1      41.765  31.865  30.586  1.00  0.00     0.029 A 
ATOM     34  C   UNL A   1      42.757  30.904  30.550  1.00  0.00     0.049 A 
ATOM     35  H   UNL A   1      42.618  28.857  30.037  1.00  0.00     0.167 HD
ATOM     36  C   UNL A   1      45.035  30.017  30.831  1.00  0.00     0.074 A 
ATOM     37  C   UNL A   1      46.448  30.123  31.120  1.00  0.00     0.031 C 
ATOM     38  C   UNL A   1      44.161  31.048  30.848  1.00  0.00     0.037 A 
BRANCH  25  39
ATOM     39  C   UNL A   1      38.449  29.392  29.199  1.00  0.00     0.057 A 
ATOM     40  C   UNL A   1      37.515  29.563  30.227  1.00  0.00     0.134 A 
ATOM     41  C   UNL A   1      38.045  29.762  27.905  1.00  0.00     0.134 A 
ATOM     42  F   UNL A   1      37.834  29.256  31.494  1.00  0.00    -0.206 F 
ATOM     43  C   UNL A   1      36.222  30.035  29.972  1.00  0.00     0.040 A 
ATOM     44  C   UNL A   1      36.767  30.261  27.642  1.00  0.00     0.040 A 
ATOM     45  F   UNL A   1      38.899  29.672  26.874  1.00  0.00    -0.206 F 
ATOM     46  C   UNL A   1      35.845  30.386  28.677  1.00  0.00     0.006 A 
ENDBRANCH  25  39
BRANCH  26  47
ATOM     47  C   UNL A   1      47.624  26.119  30.611  1.00  0.00     0.057 A 
ATOM     48  C   UNL A   1      48.457  25.998  29.497  1.00  0.00     0.134 A 
ATOM     49  C   UNL A   1      48.161  25.788  31.865  1.00  0.00     0.134 A 
ATOM     50  F   UNL A   1      47.993  26.281  28.271  1.00  0.00    -0.206 F 
ATOM     51  C   UNL A   1      49.776  25.559  29.624  1.00  0.00     0.040 A 
ATOM     52  C   UNL A   1      49.487  25.386  32.011  1.00  0.00     0.040 A 
ATOM     53  F   UNL A   1      47.413  25.898  32.973  1.00  0.00    -0.206 F 
ATOM     54  C   UNL A   1      50.297  25.264  30.884  1.00  0.00     0.006 A 
ENDBRANCH  26  47
BRANCH  38  55
ATOM     55  C   UNL A   1      44.686  32.403  31.233  1.00  0.00     0.057 A 
ATOM     56  C   UNL A   1      44.999  32.730  32.560  1.00  0.00     0.134 A 
ATOM     57  C   UNL A   1      44.915  33.384  30.260  1.00  0.00     0.134 A 
ATOM     58  F   UNL A   1      44.779  31.849  33.548  1.00  0.00    -0.206 F 
ATOM     59  C   UNL A   1      45.518  33.982  32.902  1.00  0.00     0.040 A 
ATOM     60  C   UNL A   1      45.457  34.630  30.586  1.00  0.00     0.040 A 
ATOM     61  F   UNL A   1      44.631  33.143  28.971  1.00  0.00    -0.206 F 
ATOM     62  C   UNL A   1      45.759  34.932  31.911  1.00  0.00     0.006 A 
ENDBRANCH  38  55
ENDBRANCH  12  13
ENDBRANCH   5   7
ENDBRANCH   4   5
ENDBRANCH   3   4
ENDBRANCH   2   3
ENDBRANCH   1   2
BRANCH   1  63
ATOM     63  C   UNL A   1      46.182  23.591  25.274  1.00  0.00     0.202 C 
BRANCH  63  64
ATOM     64  C   UNL A   1      45.921  25.021  25.755  1.00  0.00     0.261 C 
BRANCH  64  65
ATOM     65  O   UNL A   1      45.387  25.847  24.744  1.00  0.00    -0.463 OA
BRANCH  65  66
ATOM     66  C   UNL A   1      45.171  27.121  25.121  1.00  0.00     0.312 C 
ATOM     67  O   UNL A   1      45.617  28.110  24.554  1.00  0.00    -0.252 OA
BRANCH  66  68
ATOM     68  C   UNL A   1      44.279  27.175  26.346  1.00  0.00     0.124 C 
ATOM     69  C   UNL A   1      42.958  27.618  25.832  1.00  0.00    -0.014 C 
ATOM     70  C   UNL A   1      44.598  28.240  27.408  1.00  0.00     0.048 C 
ATOM     71  C   UNL A   1      42.738  28.903  26.138  1.00  0.00    -0.006 C 
ATOM     72  C   UNL A   1      43.827  29.498  27.008  1.00  0.00     0.106 C 
BRANCH  72  73
ATOM     73  N   UNL A   1      44.514  30.543  26.257  1.00  0.00    -0.347 N 
ATOM     74  C   UNL A   1      45.604  31.336  26.526  1.00  0.00     0.261 C 
ATOM     75  H   UNL A   1      44.114  30.716  25.374  1.00  0.00     0.164 HD
ATOM     76  O   UNL A   1      45.615  32.445  25.977  1.00  0.00    -0.271 OA
BRANCH  74  77
ATOM     77  C   UNL A   1      46.787  30.879  27.418  1.00  0.00     0.266 C 
ATOM     78  C   UNL A   1      47.558  32.071  28.103  1.00  0.00     0.095 C 
ATOM     79  O   UNL A   1      47.717  30.077  26.583  1.00  0.00    -0.480 OA
ATOM     80  C   UNL A   1      48.866  31.401  28.402  1.00  0.00    -0.002 A 
ATOM     81  C   UNL A   1      48.916  30.066  27.251  1.00  0.00     0.123 A 
ATOM     82  C   UNL A   1      49.947  31.436  29.809  1.00  0.00     0.008 A 
ATOM     83  C   UNL A   1      50.193  28.727  27.437  1.00  0.00     0.047 A 
ATOM     84  C   UNL A   1      51.044  30.026  30.156  1.00  0.00     0.001 A 
ATOM     85  C   UNL A   1      51.200  28.669  28.960  1.00  0.00     0.004 A 
ENDBRANCH  74  77
ENDBRANCH  72  73
ENDBRANCH  66  68
ENDBRANCH  65  66
ENDBRANCH  64  65
ENDBRANCH  63  64
ENDBRANCH   1  63
TORSDOF 16
ENDMDL
MODEL 3
REMARK VINA RESULT:     -11.9      4.569      9.847
REMARK SMILES O=C(OCCOCCOC(=O)[C@@H]1C=C[C@H](NC(=O)[C@@H]2Cc3ccccc3O2)C1)c1ccc(-c2c3nc(c(-c4c(F)cccc4F)c4ccc([nH]4)c(-c4c(F)cccc4F)c4nc(c(-c5c(F)cccc5F)c5ccc2[nH]5)C=C4)C=C3)cc1
REMARK SMILES IDX 6 1 5 2 4 3 3 4 2 5 1 6 29 7 30 8 82 9 31 10 81 11 32 12
REMARK SMILES IDX 33 13 34 14 75 15 35 16 80 17 74 18 76 19 36 20 79 21 73 22
REMARK SMILES IDX 72 23 37 25 63 26 46 27 62 28 47 29 50 30 61 31 77 32 48 33
REMARK SMILES IDX 49 34 60 36 78 37 51 38 38 39 39 40 44 41 40 42 41 43 43 44
REMARK SMILES IDX 45 45 42 46 64 47 65 48 70 49 66 50 67 51 69 52 71 53 68 54
REMARK SMILES IDX 52 55 53 56 58 57 54 58 55 59 57 60 59 61 56 62 7 63 8 64
REMARK SMILES IDX 9 65 10 66 11 67 12 68 13 69 28 70 14 71 15 72 16 73 17 74
REMARK SMILES IDX 18 76 19 77 20 78 27 79 21 80 26 81 22 82 25 83 23 84 24 85
REMARK H PARENT 76 24 50 35 16 75
REMARK Flexibility Score: inf
ROOT
ATOM      1  O   UNL A   1      35.643  33.064  28.433  1.00  0.00    -0.374 OA
ENDROOT
BRANCH   1   2
ATOM      2  C   UNL A   1      35.290  34.085  29.387  1.00  0.00     0.202 C 
BRANCH   2   3
ATOM      3  C   UNL A   1      34.065  34.164  30.421  1.00  0.00     0.261 C 
BRANCH   3   4
ATOM      4  O   UNL A   1      34.268  33.797  31.882  1.00  0.00    -0.460 OA
BRANCH   4   5
ATOM      5  C   UNL A   1      35.140  32.640  32.610  1.00  0.00     0.338 C 
ATOM      6  O   UNL A   1      35.220  33.219  33.734  1.00  0.00    -0.246 OA
BRANCH   5   7
ATOM      7  C   UNL A   1      35.978  30.857  31.735  1.00  0.00     0.060 A 
ATOM      8  C   UNL A   1      37.017  29.943  32.287  1.00  0.00     0.016 A 
ATOM      9  C   UNL A   1      36.145  30.411  30.302  1.00  0.00     0.016 A 
ATOM     10  C   UNL A   1      38.327  29.849  31.729  1.00  0.00     0.010 A 
ATOM     11  C   UNL A   1      37.392  29.996  29.649  1.00  0.00     0.010 A 
ATOM     12  C   UNL A   1      38.573  29.865  30.369  1.00  0.00    -0.014 A 
BRANCH  12  13
ATOM     13  C   UNL A   1      39.959  29.501  29.856  1.00  0.00     0.031 A 
ATOM     14  C   UNL A   1      41.158  30.448  29.783  1.00  0.00     0.074 A 
ATOM     15  C   UNL A   1      40.215  28.214  29.508  1.00  0.00     0.049 A 
ATOM     16  N   UNL A   1      42.333  30.251  29.213  1.00  0.00    -0.248 NA
ATOM     17  C   UNL A   1      41.053  31.747  30.457  1.00  0.00     0.031 C 
ATOM     18  C   UNL A   1      39.269  27.097  29.609  1.00  0.00     0.029 A 
ATOM     19  N   UNL A   1      41.353  27.613  29.005  1.00  0.00    -0.354 N 
ATOM     20  C   UNL A   1      43.089  31.406  29.420  1.00  0.00     0.074 A 
ATOM     21  C   UNL A   1      42.240  32.293  30.197  1.00  0.00     0.031 C 
ATOM     22  C   UNL A   1      39.866  25.962  29.247  1.00  0.00     0.029 A 
ATOM     23  C   UNL A   1      41.171  26.283  28.696  1.00  0.00     0.049 A 
ATOM     24  H   UNL A   1      42.206  28.086  28.880  1.00  0.00     0.167 HD
ATOM     25  C   UNL A   1      44.350  31.710  28.993  1.00  0.00     0.037 A 
ATOM     26  C   UNL A   1      41.879  25.409  27.959  1.00  0.00     0.037 A 
ATOM     27  C   UNL A   1      45.229  30.830  28.243  1.00  0.00     0.049 A 
ATOM     28  C   UNL A   1      43.178  25.809  27.344  1.00  0.00     0.074 A 
ATOM     29  C   UNL A   1      46.510  31.086  27.768  1.00  0.00     0.029 A 
ATOM     30  N   UNL A   1      44.929  29.534  27.853  1.00  0.00    -0.354 N 
ATOM     31  N   UNL A   1      43.827  26.936  27.463  1.00  0.00    -0.248 NA
ATOM     32  C   UNL A   1      43.837  24.819  26.482  1.00  0.00     0.031 C 
ATOM     33  C   UNL A   1      46.948  29.980  27.028  1.00  0.00     0.029 A 
ATOM     34  C   UNL A   1      45.973  29.003  27.102  1.00  0.00     0.049 A 
ATOM     35  H   UNL A   1      44.097  29.058  28.076  1.00  0.00     0.167 HD
ATOM     36  C   UNL A   1      44.984  26.784  26.711  1.00  0.00     0.074 A 
ATOM     37  C   UNL A   1      44.952  25.454  26.146  1.00  0.00     0.031 C 
ATOM     38  C   UNL A   1      45.978  27.682  26.524  1.00  0.00     0.037 A 
BRANCH  25  39
ATOM     39  C   UNL A   1      44.865  33.110  29.242  1.00  0.00     0.057 A 
ATOM     40  C   UNL A   1      45.715  33.434  30.306  1.00  0.00     0.134 A 
ATOM     41  C   UNL A   1      44.561  34.139  28.335  1.00  0.00     0.134 A 
ATOM     42  F   UNL A   1      46.073  32.500  31.200  1.00  0.00    -0.206 F 
ATOM     43  C   UNL A   1      46.200  34.735  30.487  1.00  0.00     0.040 A 
ATOM     44  C   UNL A   1      45.062  35.434  28.489  1.00  0.00     0.040 A 
ATOM     45  F   UNL A   1      43.792  33.895  27.264  1.00  0.00    -0.206 F 
ATOM     46  C   UNL A   1      45.874  35.739  29.577  1.00  0.00     0.006 A 
ENDBRANCH  25  39
BRANCH  26  47
ATOM     47  C   UNL A   1      41.279  24.081  27.663  1.00  0.00     0.057 A 
ATOM     48  C   UNL A   1      40.289  23.929  26.690  1.00  0.00     0.134 A 
ATOM     49  C   UNL A   1      41.719  22.927  28.329  1.00  0.00     0.134 A 
ATOM     50  F   UNL A   1      39.815  24.998  26.034  1.00  0.00    -0.206 F 
ATOM     51  C   UNL A   1      39.752  22.675  26.393  1.00  0.00     0.040 A 
ATOM     52  C   UNL A   1      41.220  21.665  28.016  1.00  0.00     0.040 A 
ATOM     53  F   UNL A   1      42.678  23.008  29.264  1.00  0.00    -0.206 F 
ATOM     54  C   UNL A   1      40.227  21.538  27.048  1.00  0.00     0.006 A 
ENDBRANCH  26  47
BRANCH  38  55
ATOM     55  C   UNL A   1      47.160  27.254  25.700  1.00  0.00     0.057 A 
ATOM     56  C   UNL A   1      47.267  27.563  24.336  1.00  0.00     0.134 A 
ATOM     57  C   UNL A   1      48.223  26.554  26.284  1.00  0.00     0.134 A 
ATOM     58  F   UNL A   1      46.274  28.208  23.705  1.00  0.00    -0.206 F 
ATOM     59  C   UNL A   1      48.386  27.189  23.587  1.00  0.00     0.040 A 
ATOM     60  C   UNL A   1      49.358  26.196  25.551  1.00  0.00     0.040 A 
ATOM     61  F   UNL A   1      48.185  26.218  27.582  1.00  0.00    -0.206 F 
ATOM     62  C   UNL A   1      49.440  26.513  24.198  1.00  0.00     0.006 A 
ENDBRANCH  38  55
ENDBRANCH  12  13
ENDBRANCH   5   7
ENDBRANCH   4   5
ENDBRANCH   3   4
ENDBRANCH   2   3
ENDBRANCH   1   2
BRANCH   1  63
ATOM     63  C   UNL A   1      34.801  32.307  27.554  1.00  0.00     0.202 C 
BRANCH  63  64
ATOM     64  C   UNL A   1      33.831  31.201  27.980  1.00  0.00     0.261 C 
BRANCH  64  65
ATOM     65  O   UNL A   1      32.714  31.097  27.125  1.00  0.00    -0.463 OA
BRANCH  65  66
ATOM     66  C   UNL A   1      32.348  29.833  26.838  1.00  0.00     0.312 C 
ATOM     67  O   UNL A   1      31.800  29.063  27.616  1.00  0.00    -0.252 OA
BRANCH  66  68
ATOM     68  C   UNL A   1      32.692  29.487  25.402  1.00  0.00     0.124 C 
ATOM     69  C   UNL A   1      31.418  29.655  24.658  1.00  0.00    -0.014 C 
ATOM     70  C   UNL A   1      33.068  28.029  25.095  1.00  0.00     0.048 C 
ATOM     71  C   UNL A   1      30.879  28.464  24.369  1.00  0.00    -0.006 C 
ATOM     72  C   UNL A   1      31.762  27.302  24.772  1.00  0.00     0.106 C 
BRANCH  72  73
ATOM     73  N   UNL A   1      31.094  26.542  25.824  1.00  0.00    -0.347 N 
ATOM     74  C   UNL A   1      30.951  25.197  26.069  1.00  0.00     0.261 C 
ATOM     75  H   UNL A   1      30.655  27.111  26.496  1.00  0.00     0.164 HD
ATOM     76  O   UNL A   1      29.928  24.866  26.681  1.00  0.00    -0.271 OA
BRANCH  74  77
ATOM     77  C   UNL A   1      32.010  24.142  25.663  1.00  0.00     0.266 C 
ATOM     78  C   UNL A   1      31.626  22.669  26.075  1.00  0.00     0.095 C 
ATOM     79  O   UNL A   1      33.308  24.525  26.275  1.00  0.00    -0.480 OA
ATOM     80  C   UNL A   1      32.982  22.029  26.059  1.00  0.00    -0.002 A 
ATOM     81  C   UNL A   1      34.081  23.391  26.269  1.00  0.00     0.123 A 
ATOM     82  C   UNL A   1      33.570  20.461  25.471  1.00  0.00     0.008 A 
ATOM     83  C   UNL A   1      35.906  23.163  25.987  1.00  0.00     0.047 A 
ATOM     84  C   UNL A   1      35.305  20.269  24.955  1.00  0.00     0.001 A 
ATOM     85  C   UNL A   1      36.498  21.609  25.233  1.00  0.00     0.004 A 
ENDBRANCH  74  77
ENDBRANCH  72  73
ENDBRANCH  66  68
ENDBRANCH  65  66
ENDBRANCH  64  65
ENDBRANCH  63  64
ENDBRANCH   1  63
TORSDOF 16
ENDMDL
