MODEL 1
REMARK VINA RESULT:     -10.2      0.000      0.000
REMARK SMILES CC[C@@H](C)N(C)C(=O)N1[C@@H](C(=O)OCCOCCOC(=O)c2ccc(-c3c4nc(c(-c5c(F)cccc5F)c5ccc([nH]5)c(-c5c(F)cccc5F)c5nc(c(-c6c(F)cccc6F)c6ccc3[nH]6)C=C5)C=C4)cc2)CC[C@H]2CCCC[C@H]21
REMARK SMILES IDX 15 1 14 2 13 3 11 4 12 5 10 6 9 7 83 8 76 9 78 10 82 11
REMARK SMILES IDX 77 12 79 13 81 14 80 15 7 16 8 17 5 18 6 19 3 20 4 21 2 22
REMARK SMILES IDX 1 23 16 24 17 25 18 26 19 27 20 28 21 29 22 30 23 31 75 32
REMARK SMILES IDX 24 33 74 34 25 35 26 36 27 37 68 38 28 39 73 40 67 41 69 42
REMARK SMILES IDX 29 43 72 44 66 45 65 46 30 48 56 49 39 50 55 51 40 52 43 53
REMARK SMILES IDX 54 54 70 55 41 56 42 57 53 59 71 60 44 61 31 62 32 63 37 64
REMARK SMILES IDX 33 65 34 66 36 67 38 68 35 69 57 70 58 71 63 72 59 73 60 74
REMARK SMILES IDX 62 75 64 76 61 77 45 78 46 79 51 80 47 81 48 82 50 83 52 84
REMARK SMILES IDX 49 85
REMARK H PARENT 69 47 43 58
REMARK Flexibility Score: inf
ROOT
ATOM      1  C   UNL A   1      36.804  21.485  24.741  1.00  0.00     0.202 C 
ENDROOT
BRANCH   1   2
ATOM      2  C   UNL A   1      36.645  22.698  23.823  1.00  0.00     0.261 C 
BRANCH   2   3
ATOM      3  O   UNL A   1      35.749  23.669  24.392  1.00  0.00    -0.462 OA
BRANCH   3   4
ATOM      4  C   UNL A   1      34.732  24.087  23.592  1.00  0.00     0.329 C 
ATOM      5  O   UNL A   1      34.443  23.598  22.505  1.00  0.00    -0.250 OA
BRANCH   4   6
ATOM      6  C   UNL A   1      33.948  25.247  24.225  1.00  0.00     0.197 C 
ATOM      7  N   UNL A   1      32.622  24.940  24.786  1.00  0.00    -0.308 N 
ATOM      8  C   UNL A   1      31.919  26.073  25.413  1.00  0.00     0.091 C 
ATOM      9  C   UNL A   1      33.898  26.468  23.298  1.00  0.00     0.038 C 
ATOM     10  C   UNL A   1      31.954  27.396  24.620  1.00  0.00     0.012 C 
ATOM     11  C   UNL A   1      30.509  25.808  25.950  1.00  0.00     0.025 C 
ATOM     12  C   UNL A   1      33.347  27.678  24.046  1.00  0.00     0.008 C 
ATOM     13  C   UNL A   1      30.871  27.561  23.546  1.00  0.00     0.006 C 
ATOM     14  C   UNL A   1      29.356  26.015  24.967  1.00  0.00     0.002 C 
ATOM     15  C   UNL A   1      29.698  26.598  23.603  1.00  0.00     0.000 C 
BRANCH   7  16
ATOM     16  C   UNL A   1      31.943  23.810  24.381  1.00  0.00     0.320 C 
ATOM     17  O   UNL A   1      31.340  23.777  23.315  1.00  0.00    -0.248 OA
BRANCH  16  18
ATOM     18  N   UNL A   1      31.882  22.766  25.303  1.00  0.00    -0.325 N 
ATOM     19  C   UNL A   1      30.720  22.443  26.130  1.00  0.00     0.149 C 
BRANCH  18  20
ATOM     20  C   UNL A   1      32.923  21.716  25.276  1.00  0.00     0.083 C 
ATOM     21  C   UNL A   1      32.460  20.374  24.698  1.00  0.00     0.031 C 
BRANCH  20  22
ATOM     22  C   UNL A   1      33.553  21.588  26.678  1.00  0.00     0.021 C 
ATOM     23  C   UNL A   1      34.043  22.904  27.258  1.00  0.00     0.006 C 
ENDBRANCH  20  22
ENDBRANCH  18  20
ENDBRANCH  16  18
ENDBRANCH   7  16
ENDBRANCH   4   6
ENDBRANCH   3   4
ENDBRANCH   2   3
ENDBRANCH   1   2
BRANCH   1  24
ATOM     24  O   UNL A   1      38.149  21.053  24.964  1.00  0.00    -0.374 OA
BRANCH  24  25
ATOM     25  C   UNL A   1      38.352  19.644  25.058  1.00  0.00     0.202 C 
BRANCH  25  26
ATOM     26  C   UNL A   1      39.409  19.194  26.070  1.00  0.00     0.261 C 
BRANCH  26  27
ATOM     27  O   UNL A   1      40.727  19.249  25.496  1.00  0.00    -0.460 OA
BRANCH  27  28
ATOM     28  C   UNL A   1      41.707  19.492  26.395  1.00  0.00     0.338 C 
ATOM     29  O   UNL A   1      42.569  18.712  26.776  1.00  0.00    -0.246 OA
BRANCH  28  30
ATOM     30  C   UNL A   1      41.727  20.918  26.769  1.00  0.00     0.060 A 
ATOM     31  C   UNL A   1      41.434  21.834  25.753  1.00  0.00     0.016 A 
ATOM     32  C   UNL A   1      42.101  21.361  28.040  1.00  0.00     0.016 A 
ATOM     33  C   UNL A   1      41.606  23.195  25.974  1.00  0.00     0.010 A 
ATOM     34  C   UNL A   1      42.273  22.733  28.262  1.00  0.00     0.010 A 
ATOM     35  C   UNL A   1      42.081  23.648  27.211  1.00  0.00    -0.014 A 
BRANCH  35  36
ATOM     36  C   UNL A   1      42.542  25.053  27.308  1.00  0.00     0.031 A 
ATOM     37  C   UNL A   1      41.659  26.064  27.989  1.00  0.00     0.074 A 
ATOM     38  C   UNL A   1      43.770  25.402  26.890  1.00  0.00     0.049 A 
ATOM     39  N   UNL A   1      41.903  27.316  28.283  1.00  0.00    -0.248 NA
ATOM     40  C   UNL A   1      40.323  25.601  28.394  1.00  0.00     0.031 C 
ATOM     41  C   UNL A   1      44.723  24.508  26.234  1.00  0.00     0.029 A 
ATOM     42  N   UNL A   1      44.429  26.601  26.969  1.00  0.00    -0.354 N 
ATOM     43  C   UNL A   1      40.755  27.788  28.906  1.00  0.00     0.074 A 
ATOM     44  C   UNL A   1      39.800  26.701  28.914  1.00  0.00     0.031 C 
ATOM     45  C   UNL A   1      45.848  25.192  25.969  1.00  0.00     0.029 A 
ATOM     46  C   UNL A   1      45.688  26.572  26.425  1.00  0.00     0.049 A 
ATOM     47  H   UNL A   1      44.035  27.407  27.376  1.00  0.00     0.167 HD
ATOM     48  C   UNL A   1      40.521  29.011  29.438  1.00  0.00     0.037 A 
ATOM     49  C   UNL A   1      46.606  27.550  26.306  1.00  0.00     0.037 A 
ATOM     50  C   UNL A   1      41.473  30.090  29.434  1.00  0.00     0.049 A 
ATOM     51  C   UNL A   1      46.315  28.910  26.881  1.00  0.00     0.074 A 
ATOM     52  C   UNL A   1      41.344  31.358  29.976  1.00  0.00     0.029 A 
ATOM     53  N   UNL A   1      42.730  30.031  28.851  1.00  0.00    -0.354 N 
ATOM     54  N   UNL A   1      45.245  29.332  27.511  1.00  0.00    -0.248 NA
ATOM     55  C   UNL A   1      47.369  29.925  26.742  1.00  0.00     0.031 C 
ATOM     56  C   UNL A   1      42.505  32.081  29.676  1.00  0.00     0.029 A 
ATOM     57  C   UNL A   1      43.377  31.248  28.993  1.00  0.00     0.049 A 
ATOM     58  H   UNL A   1      43.106  29.240  28.400  1.00  0.00     0.167 HD
ATOM     59  C   UNL A   1      45.502  30.652  27.859  1.00  0.00     0.074 A 
ATOM     60  C   UNL A   1      46.838  30.953  27.388  1.00  0.00     0.031 C 
ATOM     61  C   UNL A   1      44.703  31.536  28.509  1.00  0.00     0.037 A 
BRANCH  48  62
ATOM     62  C   UNL A   1      39.167  29.250  30.041  1.00  0.00     0.057 A 
ATOM     63  C   UNL A   1      38.084  29.708  29.278  1.00  0.00     0.134 A 
ATOM     64  C   UNL A   1      38.942  29.011  31.402  1.00  0.00     0.134 A 
ATOM     65  F   UNL A   1      38.236  29.972  27.972  1.00  0.00    -0.206 F 
ATOM     66  C   UNL A   1      36.834  29.945  29.854  1.00  0.00     0.040 A 
ATOM     67  C   UNL A   1      37.691  29.219  31.984  1.00  0.00     0.040 A 
ATOM     68  F   UNL A   1      39.935  28.569  32.189  1.00  0.00    -0.206 F 
ATOM     69  C   UNL A   1      36.634  29.696  31.211  1.00  0.00     0.006 A 
ENDBRANCH  48  62
BRANCH  49  70
ATOM     70  C   UNL A   1      47.887  27.273  25.613  1.00  0.00     0.057 A 
ATOM     71  C   UNL A   1      48.019  27.430  24.228  1.00  0.00     0.134 A 
ATOM     72  C   UNL A   1      49.014  26.846  26.325  1.00  0.00     0.134 A 
ATOM     73  F   UNL A   1      46.969  27.815  23.488  1.00  0.00    -0.206 F 
ATOM     74  C   UNL A   1      49.223  27.160  23.576  1.00  0.00     0.040 A 
ATOM     75  C   UNL A   1      50.230  26.596  25.689  1.00  0.00     0.040 A 
ATOM     76  F   UNL A   1      48.950  26.678  27.654  1.00  0.00    -0.206 F 
ATOM     77  C   UNL A   1      50.336  26.749  24.308  1.00  0.00     0.006 A 
ENDBRANCH  49  70
BRANCH  61  78
ATOM     78  C   UNL A   1      45.266  32.905  28.760  1.00  0.00     0.057 A 
ATOM     79  C   UNL A   1      46.029  33.193  29.899  1.00  0.00     0.134 A 
ATOM     80  C   UNL A   1      45.057  33.943  27.844  1.00  0.00     0.134 A 
ATOM     81  F   UNL A   1      46.258  32.245  30.822  1.00  0.00    -0.206 F 
ATOM     82  C   UNL A   1      46.535  34.472  30.134  1.00  0.00     0.040 A 
ATOM     83  C   UNL A   1      45.581  35.220  28.054  1.00  0.00     0.040 A 
ATOM     84  F   UNL A   1      44.344  33.733  26.727  1.00  0.00    -0.206 F 
ATOM     85  C   UNL A   1      46.315  35.489  29.207  1.00  0.00     0.006 A 
ENDBRANCH  61  78
ENDBRANCH  35  36
ENDBRANCH  28  30
ENDBRANCH  27  28
ENDBRANCH  26  27
ENDBRANCH  25  26
ENDBRANCH  24  25
ENDBRANCH   1  24
TORSDOF 18
ENDMDL
MODEL 2
REMARK VINA RESULT:     -10.2      4.776      8.724
REMARK SMILES CC[C@@H](C)N(C)C(=O)N1[C@@H](C(=O)OCCOCCOC(=O)c2ccc(-c3c4nc(c(-c5c(F)cccc5F)c5ccc([nH]5)c(-c5c(F)cccc5F)c5nc(c(-c6c(F)cccc6F)c6ccc3[nH]6)C=C5)C=C4)cc2)CC[C@H]2CCCC[C@H]21
REMARK SMILES IDX 15 1 14 2 13 3 11 4 12 5 10 6 9 7 83 8 76 9 78 10 82 11
REMARK SMILES IDX 77 12 79 13 81 14 80 15 7 16 8 17 5 18 6 19 3 20 4 21 2 22
REMARK SMILES IDX 1 23 16 24 17 25 18 26 19 27 20 28 21 29 22 30 23 31 75 32
REMARK SMILES IDX 24 33 74 34 25 35 26 36 27 37 68 38 28 39 73 40 67 41 69 42
REMARK SMILES IDX 29 43 72 44 66 45 65 46 30 48 56 49 39 50 55 51 40 52 43 53
REMARK SMILES IDX 54 54 70 55 41 56 42 57 53 59 71 60 44 61 31 62 32 63 37 64
REMARK SMILES IDX 33 65 34 66 36 67 38 68 35 69 57 70 58 71 63 72 59 73 60 74
REMARK SMILES IDX 62 75 64 76 61 77 45 78 46 79 51 80 47 81 48 82 50 83 52 84
REMARK SMILES IDX 49 85
REMARK H PARENT 69 47 43 58
REMARK Flexibility Score: inf
ROOT
ATOM      1  C   UNL A   1      31.796  29.665  26.826  1.00  0.00     0.202 C 
ENDROOT
BRANCH   1   2
ATOM      2  C   UNL A   1      31.404  28.264  27.300  1.00  0.00     0.261 C 
BRANCH   2   3
ATOM      3  O   UNL A   1      32.297  27.267  26.772  1.00  0.00    -0.462 OA
BRANCH   3   4
ATOM      4  C   UNL A   1      31.763  26.031  26.572  1.00  0.00     0.329 C 
ATOM      5  O   UNL A   1      30.602  25.717  26.812  1.00  0.00    -0.250 OA
BRANCH   4   6
ATOM      6  C   UNL A   1      32.789  25.057  25.975  1.00  0.00     0.197 C 
ATOM      7  N   UNL A   1      32.777  24.874  24.514  1.00  0.00    -0.308 N 
ATOM      8  C   UNL A   1      33.799  23.957  23.979  1.00  0.00     0.091 C 
ATOM      9  C   UNL A   1      32.785  23.711  26.710  1.00  0.00     0.038 C 
ATOM     10  C   UNL A   1      33.977  22.637  24.757  1.00  0.00     0.012 C 
ATOM     11  C   UNL A   1      33.776  23.691  22.470  1.00  0.00     0.025 C 
ATOM     12  C   UNL A   1      33.978  22.866  26.273  1.00  0.00     0.008 C 
ATOM     13  C   UNL A   1      33.024  21.499  24.371  1.00  0.00     0.006 C 
ATOM     14  C   UNL A   1      32.903  22.527  21.998  1.00  0.00     0.002 C 
ATOM     15  C   UNL A   1      32.259  21.658  23.069  1.00  0.00     0.000 C 
BRANCH   7  16
ATOM     16  C   UNL A   1      31.652  25.199  23.784  1.00  0.00     0.320 C 
ATOM     17  O   UNL A   1      30.669  24.468  23.770  1.00  0.00    -0.248 OA
BRANCH  16  18
ATOM     18  N   UNL A   1      31.750  26.331  22.977  1.00  0.00    -0.325 N 
ATOM     19  C   UNL A   1      31.777  26.321  21.515  1.00  0.00     0.149 C 
BRANCH  18  20
ATOM     20  C   UNL A   1      31.524  27.666  23.574  1.00  0.00     0.083 C 
ATOM     21  C   UNL A   1      30.133  28.255  23.312  1.00  0.00     0.031 C 
BRANCH  20  22
ATOM     22  C   UNL A   1      32.671  28.609  23.159  1.00  0.00     0.021 C 
ATOM     23  C   UNL A   1      34.023  28.232  23.740  1.00  0.00     0.006 C 
ENDBRANCH  20  22
ENDBRANCH  18  20
ENDBRANCH  16  18
ENDBRANCH   7  16
ENDBRANCH   4   6
ENDBRANCH   3   4
ENDBRANCH   2   3
ENDBRANCH   1   2
BRANCH   1  24
ATOM     24  O   UNL A   1      33.198  29.888  26.654  1.00  0.00    -0.374 OA
BRANCH  24  25
ATOM     25  C   UNL A   1      33.728  31.070  27.251  1.00  0.00     0.202 C 
BRANCH  25  26
ATOM     26  C   UNL A   1      32.752  32.241  27.379  1.00  0.00     0.261 C 
BRANCH  26  27
ATOM     27  O   UNL A   1      33.448  33.499  27.329  1.00  0.00    -0.460 OA
BRANCH  27  28
ATOM     28  C   UNL A   1      33.436  34.180  28.497  1.00  0.00     0.338 C 
ATOM     29  O   UNL A   1      32.566  34.942  28.898  1.00  0.00    -0.246 OA
BRANCH  28  30
ATOM     30  C   UNL A   1      34.561  33.764  29.353  1.00  0.00     0.060 A 
ATOM     31  C   UNL A   1      35.834  34.194  28.964  1.00  0.00     0.016 A 
ATOM     32  C   UNL A   1      34.402  32.914  30.451  1.00  0.00     0.016 A 
ATOM     33  C   UNL A   1      36.962  33.701  29.610  1.00  0.00     0.010 A 
ATOM     34  C   UNL A   1      35.539  32.418  31.101  1.00  0.00     0.010 A 
ATOM     35  C   UNL A   1      36.822  32.767  30.644  1.00  0.00    -0.014 A 
BRANCH  35  36
ATOM     36  C   UNL A   1      38.033  32.038  31.092  1.00  0.00     0.031 A 
ATOM     37  C   UNL A   1      38.577  32.309  32.469  1.00  0.00     0.074 A 
ATOM     38  C   UNL A   1      38.577  31.078  30.327  1.00  0.00     0.049 A 
ATOM     39  N   UNL A   1      39.553  31.715  33.108  1.00  0.00    -0.248 NA
ATOM     40  C   UNL A   1      37.934  33.393  33.228  1.00  0.00     0.031 C 
ATOM     41  C   UNL A   1      38.127  30.712  28.985  1.00  0.00     0.029 A 
ATOM     42  N   UNL A   1      39.621  30.226  30.579  1.00  0.00    -0.354 N 
ATOM     43  C   UNL A   1      39.640  32.350  34.340  1.00  0.00     0.074 A 
ATOM     44  C   UNL A   1      38.645  33.402  34.345  1.00  0.00     0.031 C 
ATOM     45  C   UNL A   1      38.893  29.707  28.530  1.00  0.00     0.029 A 
ATOM     46  C   UNL A   1      39.892  29.369  29.542  1.00  0.00     0.049 A 
ATOM     47  H   UNL A   1      40.129  30.230  31.423  1.00  0.00     0.167 HD
ATOM     48  C   UNL A   1      40.463  32.076  35.379  1.00  0.00     0.037 A 
ATOM     49  C   UNL A   1      40.842  28.422  29.423  1.00  0.00     0.037 A 
ATOM     50  C   UNL A   1      41.449  31.028  35.375  1.00  0.00     0.049 A 
ATOM     51  C   UNL A   1      41.763  28.151  30.582  1.00  0.00     0.074 A 
ATOM     52  C   UNL A   1      42.310  30.648  36.390  1.00  0.00     0.029 A 
ATOM     53  N   UNL A   1      41.711  30.197  34.297  1.00  0.00    -0.354 N 
ATOM     54  N   UNL A   1      41.805  28.725  31.760  1.00  0.00    -0.248 NA
ATOM     55  C   UNL A   1      42.760  27.087  30.397  1.00  0.00     0.031 C 
ATOM     56  C   UNL A   1      43.127  29.619  35.907  1.00  0.00     0.029 A 
ATOM     57  C   UNL A   1      42.740  29.323  34.610  1.00  0.00     0.049 A 
ATOM     58  H   UNL A   1      41.237  30.225  33.434  1.00  0.00     0.167 HD
ATOM     59  C   UNL A   1      42.817  28.083  32.463  1.00  0.00     0.074 A 
ATOM     60  C   UNL A   1      43.347  27.060  31.585  1.00  0.00     0.031 C 
ATOM     61  C   UNL A   1      43.266  28.318  33.721  1.00  0.00     0.037 A 
BRANCH  48  62
ATOM     62  C   UNL A   1      40.346  32.948  36.596  1.00  0.00     0.057 A 
ATOM     63  C   UNL A   1      41.216  34.023  36.826  1.00  0.00     0.134 A 
ATOM     64  C   UNL A   1      39.345  32.713  37.546  1.00  0.00     0.134 A 
ATOM     65  F   UNL A   1      42.208  34.292  35.964  1.00  0.00    -0.206 F 
ATOM     66  C   UNL A   1      41.110  34.814  37.972  1.00  0.00     0.040 A 
ATOM     67  C   UNL A   1      39.212  33.514  38.682  1.00  0.00     0.040 A 
ATOM     68  F   UNL A   1      38.477  31.702  37.386  1.00  0.00    -0.206 F 
ATOM     69  C   UNL A   1      40.102  34.563  38.901  1.00  0.00     0.006 A 
ENDBRANCH  48  62
BRANCH  49  70
ATOM     70  C   UNL A   1      40.964  27.662  28.156  1.00  0.00     0.057 A 
ATOM     71  C   UNL A   1      41.765  28.118  27.103  1.00  0.00     0.134 A 
ATOM     72  C   UNL A   1      40.281  26.453  27.973  1.00  0.00     0.134 A 
ATOM     73  F   UNL A   1      42.426  29.279  27.211  1.00  0.00    -0.206 F 
ATOM     74  C   UNL A   1      41.873  27.405  25.907  1.00  0.00     0.040 A 
ATOM     75  C   UNL A   1      40.399  25.719  26.792  1.00  0.00     0.040 A 
ATOM     76  F   UNL A   1      39.500  25.964  28.946  1.00  0.00    -0.206 F 
ATOM     77  C   UNL A   1      41.193  26.198  25.753  1.00  0.00     0.006 A 
ENDBRANCH  49  70
BRANCH  61  78
ATOM     78  C   UNL A   1      44.375  27.440  34.223  1.00  0.00     0.057 A 
ATOM     79  C   UNL A   1      45.721  27.814  34.115  1.00  0.00     0.134 A 
ATOM     80  C   UNL A   1      44.093  26.214  34.838  1.00  0.00     0.134 A 
ATOM     81  F   UNL A   1      46.060  28.972  33.526  1.00  0.00    -0.206 F 
ATOM     82  C   UNL A   1      46.747  26.985  34.569  1.00  0.00     0.040 A 
ATOM     83  C   UNL A   1      45.111  25.388  35.321  1.00  0.00     0.040 A 
ATOM     84  F   UNL A   1      42.826  25.799  34.985  1.00  0.00    -0.206 F 
ATOM     85  C   UNL A   1      46.443  25.769  35.178  1.00  0.00     0.006 A 
ENDBRANCH  61  78
ENDBRANCH  35  36
ENDBRANCH  28  30
ENDBRANCH  27  28
ENDBRANCH  26  27
ENDBRANCH  25  26
ENDBRANCH  24  25
ENDBRANCH   1  24
TORSDOF 18
ENDMDL
MODEL 3
REMARK VINA RESULT:     -10.2      5.125     10.190
REMARK SMILES CC[C@@H](C)N(C)C(=O)N1[C@@H](C(=O)OCCOCCOC(=O)c2ccc(-c3c4nc(c(-c5c(F)cccc5F)c5ccc([nH]5)c(-c5c(F)cccc5F)c5nc(c(-c6c(F)cccc6F)c6ccc3[nH]6)C=C5)C=C4)cc2)CC[C@H]2CCCC[C@H]21
REMARK SMILES IDX 15 1 14 2 13 3 11 4 12 5 10 6 9 7 83 8 76 9 78 10 82 11
REMARK SMILES IDX 77 12 79 13 81 14 80 15 7 16 8 17 5 18 6 19 3 20 4 21 2 22
REMARK SMILES IDX 1 23 16 24 17 25 18 26 19 27 20 28 21 29 22 30 23 31 75 32
REMARK SMILES IDX 24 33 74 34 25 35 26 36 27 37 68 38 28 39 73 40 67 41 69 42
REMARK SMILES IDX 29 43 72 44 66 45 65 46 30 48 56 49 39 50 55 51 40 52 43 53
REMARK SMILES IDX 54 54 70 55 41 56 42 57 53 59 71 60 44 61 31 62 32 63 37 64
REMARK SMILES IDX 33 65 34 66 36 67 38 68 35 69 57 70 58 71 63 72 59 73 60 74
REMARK SMILES IDX 62 75 64 76 61 77 45 78 46 79 51 80 47 81 48 82 50 83 52 84
REMARK SMILES IDX 49 85
REMARK H PARENT 69 47 43 58
REMARK Flexibility Score: inf
ROOT
ATOM      1  C   UNL A   1      32.156  29.775  27.052  1.00  0.00     0.202 C 
ENDROOT
BRANCH   1   2
ATOM      2  C   UNL A   1      31.613  28.375  27.344  1.00  0.00     0.261 C 
BRANCH   2   3
ATOM      3  O   UNL A   1      32.420  27.362  26.717  1.00  0.00    -0.462 OA
BRANCH   3   4
ATOM      4  C   UNL A   1      31.818  26.160  26.511  1.00  0.00     0.329 C 
ATOM      5  O   UNL A   1      30.631  25.923  26.707  1.00  0.00    -0.250 OA
BRANCH   4   6
ATOM      6  C   UNL A   1      32.803  25.115  25.967  1.00  0.00     0.197 C 
ATOM      7  N   UNL A   1      32.762  24.834  24.522  1.00  0.00    -0.308 N 
ATOM      8  C   UNL A   1      33.746  23.850  24.037  1.00  0.00     0.091 C 
ATOM      9  C   UNL A   1      32.769  23.822  26.792  1.00  0.00     0.038 C 
ATOM     10  C   UNL A   1      33.895  22.581  24.900  1.00  0.00     0.012 C 
ATOM     11  C   UNL A   1      33.691  23.484  22.549  1.00  0.00     0.025 C 
ATOM     12  C   UNL A   1      33.928  22.911  26.396  1.00  0.00     0.008 C 
ATOM     13  C   UNL A   1      32.901  21.451  24.605  1.00  0.00     0.006 C 
ATOM     14  C   UNL A   1      32.774  22.319  22.169  1.00  0.00     0.002 C 
ATOM     15  C   UNL A   1      32.120  21.546  23.306  1.00  0.00     0.000 C 
BRANCH   7  16
ATOM     16  C   UNL A   1      31.636  25.146  23.788  1.00  0.00     0.320 C 
ATOM     17  O   UNL A   1      30.629  24.450  23.841  1.00  0.00    -0.248 OA
BRANCH  16  18
ATOM     18  N   UNL A   1      31.758  26.212  22.899  1.00  0.00    -0.325 N 
ATOM     19  C   UNL A   1      31.839  26.089  21.444  1.00  0.00     0.149 C 
BRANCH  18  20
ATOM     20  C   UNL A   1      31.505  27.587  23.382  1.00  0.00     0.083 C 
ATOM     21  C   UNL A   1      30.130  28.152  23.007  1.00  0.00     0.031 C 
BRANCH  20  22
ATOM     22  C   UNL A   1      32.673  28.500  22.955  1.00  0.00     0.021 C 
ATOM     23  C   UNL A   1      33.930  28.326  23.790  1.00  0.00     0.006 C 
ENDBRANCH  20  22
ENDBRANCH  18  20
ENDBRANCH  16  18
ENDBRANCH   7  16
ENDBRANCH   4   6
ENDBRANCH   3   4
ENDBRANCH   2   3
ENDBRANCH   1   2
BRANCH   1  24
ATOM     24  O   UNL A   1      33.575  29.922  27.161  1.00  0.00    -0.374 OA
BRANCH  24  25
ATOM     25  C   UNL A   1      34.050  31.216  27.526  1.00  0.00     0.202 C 
BRANCH  25  26
ATOM     26  C   UNL A   1      32.995  32.324  27.556  1.00  0.00     0.261 C 
BRANCH  26  27
ATOM     27  O   UNL A   1      33.602  33.617  27.384  1.00  0.00    -0.460 OA
BRANCH  27  28
ATOM     28  C   UNL A   1      33.448  34.440  28.445  1.00  0.00     0.338 C 
ATOM     29  O   UNL A   1      32.543  35.242  28.633  1.00  0.00    -0.246 OA
BRANCH  28  30
ATOM     30  C   UNL A   1      34.452  34.144  29.483  1.00  0.00     0.060 A 
ATOM     31  C   UNL A   1      35.794  34.278  29.111  1.00  0.00     0.016 A 
ATOM     32  C   UNL A   1      34.110  33.668  30.752  1.00  0.00     0.016 A 
ATOM     33  C   UNL A   1      36.799  33.848  29.968  1.00  0.00     0.010 A 
ATOM     34  C   UNL A   1      35.124  33.235  31.615  1.00  0.00     0.010 A 
ATOM     35  C   UNL A   1      36.468  33.272  31.201  1.00  0.00    -0.014 A 
BRANCH  35  36
ATOM     36  C   UNL A   1      37.530  32.551  31.941  1.00  0.00     0.031 A 
ATOM     37  C   UNL A   1      38.210  31.380  31.284  1.00  0.00     0.074 A 
ATOM     38  C   UNL A   1      37.955  32.996  33.136  1.00  0.00     0.049 A 
ATOM     39  N   UNL A   1      39.232  30.674  31.697  1.00  0.00    -0.248 NA
ATOM     40  C   UNL A   1      37.665  30.947  29.988  1.00  0.00     0.031 C 
ATOM     41  C   UNL A   1      37.389  34.131  33.863  1.00  0.00     0.029 A 
ATOM     42  N   UNL A   1      38.971  32.550  33.940  1.00  0.00    -0.354 N 
ATOM     43  C   UNL A   1      39.452  29.718  30.714  1.00  0.00     0.074 A 
ATOM     44  C   UNL A   1      38.434  29.908  29.703  1.00  0.00     0.031 C 
ATOM     45  C   UNL A   1      38.069  34.293  35.010  1.00  0.00     0.029 A 
ATOM     46  C   UNL A   1      39.107  33.267  35.102  1.00  0.00     0.049 A 
ATOM     47  H   UNL A   1      39.549  31.787  33.706  1.00  0.00     0.167 HD
ATOM     48  C   UNL A   1      40.423  28.776  30.650  1.00  0.00     0.037 A 
ATOM     49  C   UNL A   1      39.968  33.110  36.125  1.00  0.00     0.037 A 
ATOM     50  C   UNL A   1      41.437  28.590  31.653  1.00  0.00     0.049 A 
ATOM     51  C   UNL A   1      41.023  32.040  36.045  1.00  0.00     0.074 A 
ATOM     52  C   UNL A   1      42.484  27.685  31.666  1.00  0.00     0.029 A 
ATOM     53  N   UNL A   1      41.526  29.320  32.829  1.00  0.00    -0.354 N 
ATOM     54  N   UNL A   1      41.252  31.172  35.088  1.00  0.00    -0.248 NA
ATOM     55  C   UNL A   1      41.948  31.938  37.182  1.00  0.00     0.031 C 
ATOM     56  C   UNL A   1      43.176  27.834  32.873  1.00  0.00     0.029 A 
ATOM     57  C   UNL A   1      42.592  28.867  33.589  1.00  0.00     0.049 A 
ATOM     58  H   UNL A   1      40.918  30.051  33.087  1.00  0.00     0.167 HD
ATOM     59  C   UNL A   1      42.356  30.435  35.497  1.00  0.00     0.074 A 
ATOM     60  C   UNL A   1      42.762  30.973  36.779  1.00  0.00     0.031 C 
ATOM     61  C   UNL A   1      42.977  29.406  34.869  1.00  0.00     0.037 A 
BRANCH  48  62
ATOM     62  C   UNL A   1      40.408  27.855  29.464  1.00  0.00     0.057 A 
ATOM     63  C   UNL A   1      41.254  28.048  28.363  1.00  0.00     0.134 A 
ATOM     64  C   UNL A   1      39.543  26.755  29.428  1.00  0.00     0.134 A 
ATOM     65  F   UNL A   1      42.095  29.092  28.327  1.00  0.00    -0.206 F 
ATOM     66  C   UNL A   1      41.217  27.197  27.257  1.00  0.00     0.040 A 
ATOM     67  C   UNL A   1      39.515  25.882  28.339  1.00  0.00     0.040 A 
ATOM     68  F   UNL A   1      38.709  26.510  30.450  1.00  0.00    -0.206 F 
ATOM     69  C   UNL A   1      40.349  26.107  27.246  1.00  0.00     0.006 A 
ENDBRANCH  48  62
BRANCH  49  70
ATOM     70  C   UNL A   1      39.865  33.993  37.311  1.00  0.00     0.057 A 
ATOM     71  C   UNL A   1      39.036  33.674  38.392  1.00  0.00     0.134 A 
ATOM     72  C   UNL A   1      40.602  35.182  37.391  1.00  0.00     0.134 A 
ATOM     73  F   UNL A   1      38.289  32.561  38.365  1.00  0.00    -0.206 F 
ATOM     74  C   UNL A   1      38.934  34.510  39.505  1.00  0.00     0.040 A 
ATOM     75  C   UNL A   1      40.528  36.015  38.507  1.00  0.00     0.040 A 
ATOM     76  F   UNL A   1      41.415  35.541  36.387  1.00  0.00    -0.206 F 
ATOM     77  C   UNL A   1      39.688  35.682  39.568  1.00  0.00     0.006 A 
ENDBRANCH  49  70
BRANCH  61  78
ATOM     78  C   UNL A   1      44.171  28.809  35.557  1.00  0.00     0.057 A 
ATOM     79  C   UNL A   1      45.468  29.291  35.337  1.00  0.00     0.134 A 
ATOM     80  C   UNL A   1      44.019  27.752  36.463  1.00  0.00     0.134 A 
ATOM     81  F   UNL A   1      45.683  30.296  34.473  1.00  0.00    -0.206 F 
ATOM     82  C   UNL A   1      46.575  28.721  35.968  1.00  0.00     0.040 A 
ATOM     83  C   UNL A   1      45.116  27.191  37.121  1.00  0.00     0.040 A 
ATOM     84  F   UNL A   1      42.804  27.249  36.728  1.00  0.00    -0.206 F 
ATOM     85  C   UNL A   1      46.399  27.670  36.866  1.00  0.00     0.006 A 
ENDBRANCH  61  78
ENDBRANCH  35  36
ENDBRANCH  28  30
ENDBRANCH  27  28
ENDBRANCH  26  27
ENDBRANCH  25  26
ENDBRANCH  24  25
ENDBRANCH   1  24
TORSDOF 18
ENDMDL
