MODEL 1
REMARK VINA RESULT:      -9.5      0.000      0.000
REMARK SMILES CC[C@@H](C(=O)OCCOCCOC(=O)c1ccc(-c2c3nc(c(-c4c(F)cccc4F)c4ccc([nH]4)c(-c4c(F)cccc4F)c4nc(c(-c5c(F)cccc5F)c5ccc2[nH]5)C=C4)C=C3)cc1)N(C)C(=O)N(C)CC(C)(C)O
REMARK SMILES IDX 7 1 6 2 4 3 5 4 3 5 2 6 1 7 69 8 70 9 71 10 72 11 73 12
REMARK SMILES IDX 74 13 75 14 76 15 77 16 78 17 79 18 8 20 9 21 10 22 11 23
REMARK SMILES IDX 12 24 13 25 14 26 15 27 16 28 68 29 17 30 67 31 18 32 19 33
REMARK SMILES IDX 20 34 61 35 21 36 66 37 60 38 62 39 22 40 65 41 59 42 58 43
REMARK SMILES IDX 23 45 49 46 32 47 48 48 33 49 36 50 47 51 63 52 34 53 35 54
REMARK SMILES IDX 46 56 64 57 37 58 24 59 25 60 30 61 26 62 27 63 29 64 31 65
REMARK SMILES IDX 28 66 50 67 51 68 56 69 52 70 53 71 55 72 57 73 54 74 38 75
REMARK SMILES IDX 39 76 44 77 40 78 41 79 43 80 45 81 42 82
REMARK H PARENT 79 19 62 44 36 55
REMARK Flexibility Score: inf
ROOT
ATOM      1  C   UNL A   1      36.531  22.815  23.627  1.00  0.00     0.261 C 
ENDROOT
BRANCH   1   2
ATOM      2  O   UNL A   1      35.254  23.104  24.232  1.00  0.00    -0.462 OA
BRANCH   2   3
ATOM      3  C   UNL A   1      34.161  22.855  23.458  1.00  0.00     0.328 C 
ATOM      4  O   UNL A   1      34.088  23.178  22.275  1.00  0.00    -0.250 OA
BRANCH   3   5
ATOM      5  C   UNL A   1      32.977  22.257  24.263  1.00  0.00     0.196 C 
BRANCH   5   6
ATOM      6  C   UNL A   1      31.913  23.193  24.894  1.00  0.00     0.034 C 
ATOM      7  C   UNL A   1      32.243  24.683  24.902  1.00  0.00     0.007 C 
ENDBRANCH   5   6
BRANCH   5   8
ATOM      8  N   UNL A   1      33.561  21.251  25.229  1.00  0.00    -0.314 N 
ATOM      9  C   UNL A   1      33.432  21.651  26.618  1.00  0.00     0.149 C 
BRANCH   8  10
ATOM     10  C   UNL A   1      33.895  19.985  24.766  1.00  0.00     0.320 C 
ATOM     11  O   UNL A   1      35.088  19.654  24.746  1.00  0.00    -0.248 OA
BRANCH  10  12
ATOM     12  N   UNL A   1      32.969  19.063  24.306  1.00  0.00    -0.325 N 
ATOM     13  C   UNL A   1      32.154  19.033  23.098  1.00  0.00     0.148 C 
BRANCH  12  14
ATOM     14  C   UNL A   1      32.700  17.888  25.184  1.00  0.00     0.155 C 
BRANCH  14  15
ATOM     15  C   UNL A   1      33.600  16.626  24.974  1.00  0.00     0.077 C 
ATOM     16  C   UNL A   1      32.898  15.324  25.344  1.00  0.00     0.043 C 
ATOM     17  C   UNL A   1      34.029  16.549  23.502  1.00  0.00     0.043 C 
BRANCH  15  18
ATOM     18  O   UNL A   1      34.809  16.742  25.737  1.00  0.00    -0.389 OA
ATOM     19  H   UNL A   1      35.518  17.085  25.170  1.00  0.00     0.211 HD
ENDBRANCH  15  18
ENDBRANCH  14  15
ENDBRANCH  12  14
ENDBRANCH  10  12
ENDBRANCH   8  10
ENDBRANCH   5   8
ENDBRANCH   3   5
ENDBRANCH   2   3
ENDBRANCH   1   2
BRANCH   1  20
ATOM     20  C   UNL A   1      37.381  21.897  24.518  1.00  0.00     0.202 C 
BRANCH  20  21
ATOM     21  O   UNL A   1      37.886  22.481  25.721  1.00  0.00    -0.374 OA
BRANCH  21  22
ATOM     22  C   UNL A   1      39.121  21.923  26.167  1.00  0.00     0.202 C 
BRANCH  22  23
ATOM     23  C   UNL A   1      39.383  20.490  25.724  1.00  0.00     0.261 C 
BRANCH  23  24
ATOM     24  O   UNL A   1      40.209  19.877  26.730  1.00  0.00    -0.460 OA
BRANCH  24  25
ATOM     25  C   UNL A   1      41.469  19.629  26.315  1.00  0.00     0.338 C 
ATOM     26  O   UNL A   1      41.876  18.622  25.758  1.00  0.00    -0.246 OA
BRANCH  25  27
ATOM     27  C   UNL A   1      42.283  20.854  26.456  1.00  0.00     0.060 A 
ATOM     28  C   UNL A   1      42.433  21.360  27.753  1.00  0.00     0.016 A 
ATOM     29  C   UNL A   1      42.886  21.501  25.371  1.00  0.00     0.016 A 
ATOM     30  C   UNL A   1      43.102  22.559  27.962  1.00  0.00     0.010 A 
ATOM     31  C   UNL A   1      43.561  22.706  25.582  1.00  0.00     0.010 A 
ATOM     32  C   UNL A   1      43.623  23.263  26.871  1.00  0.00    -0.014 A 
BRANCH  32  33
ATOM     33  C   UNL A   1      44.057  24.664  27.072  1.00  0.00     0.031 A 
ATOM     34  C   UNL A   1      43.043  25.670  27.544  1.00  0.00     0.074 A 
ATOM     35  C   UNL A   1      45.343  25.015  26.910  1.00  0.00     0.049 A 
ATOM     36  N   UNL A   1      43.195  26.943  27.806  1.00  0.00    -0.248 NA
ATOM     37  C   UNL A   1      41.673  25.172  27.752  1.00  0.00     0.031 C 
ATOM     38  C   UNL A   1      46.419  24.115  26.503  1.00  0.00     0.029 A 
ATOM     39  N   UNL A   1      45.961  26.228  27.077  1.00  0.00    -0.354 N 
ATOM     40  C   UNL A   1      41.943  27.397  28.202  1.00  0.00     0.074 A 
ATOM     41  C   UNL A   1      41.034  26.276  28.109  1.00  0.00     0.031 C 
ATOM     42  C   UNL A   1      47.570  24.807  26.451  1.00  0.00     0.029 A 
ATOM     43  C   UNL A   1      47.303  26.204  26.789  1.00  0.00     0.049 A 
ATOM     44  H   UNL A   1      45.488  27.038  27.375  1.00  0.00     0.167 HD
ATOM     45  C   UNL A   1      41.586  28.635  28.618  1.00  0.00     0.037 A 
ATOM     46  C   UNL A   1      48.205  27.202  26.784  1.00  0.00     0.037 A 
ATOM     47  C   UNL A   1      42.496  29.745  28.709  1.00  0.00     0.049 A 
ATOM     48  C   UNL A   1      47.767  28.589  27.177  1.00  0.00     0.074 A 
ATOM     49  C   UNL A   1      42.241  31.039  29.129  1.00  0.00     0.029 A 
ATOM     50  N   UNL A   1      43.839  29.694  28.363  1.00  0.00    -0.354 N 
ATOM     51  N   UNL A   1      46.586  29.006  27.569  1.00  0.00    -0.248 NA
ATOM     52  C   UNL A   1      48.789  29.643  27.132  1.00  0.00     0.031 C 
ATOM     53  C   UNL A   1      43.415  31.785  28.982  1.00  0.00     0.029 A 
ATOM     54  C   UNL A   1      44.419  30.941  28.533  1.00  0.00     0.049 A 
ATOM     55  H   UNL A   1      44.311  28.891  28.044  1.00  0.00     0.167 HD
ATOM     56  C   UNL A   1      46.731  30.359  27.848  1.00  0.00     0.074 A 
ATOM     57  C   UNL A   1      48.119  30.689  27.593  1.00  0.00     0.031 C 
ATOM     58  C   UNL A   1      45.803  31.251  28.277  1.00  0.00     0.037 A 
BRANCH  45  59
ATOM     59  C   UNL A   1      40.144  28.856  28.975  1.00  0.00     0.057 A 
ATOM     60  C   UNL A   1      39.678  28.752  30.292  1.00  0.00     0.134 A 
ATOM     61  C   UNL A   1      39.213  29.201  27.987  1.00  0.00     0.134 A 
ATOM     62  F   UNL A   1      40.513  28.409  31.284  1.00  0.00    -0.206 F 
ATOM     63  C   UNL A   1      38.333  28.955  30.609  1.00  0.00     0.040 A 
ATOM     64  C   UNL A   1      37.872  29.436  28.296  1.00  0.00     0.040 A 
ATOM     65  F   UNL A   1      39.591  29.321  26.706  1.00  0.00    -0.206 F 
ATOM     66  C   UNL A   1      37.427  29.306  29.610  1.00  0.00     0.006 A 
ENDBRANCH  45  59
BRANCH  46  67
ATOM     67  C   UNL A   1      49.610  26.934  26.385  1.00  0.00     0.057 A 
ATOM     68  C   UNL A   1      50.012  27.000  25.046  1.00  0.00     0.134 A 
ATOM     69  C   UNL A   1      50.581  26.586  27.331  1.00  0.00     0.134 A 
ATOM     70  F   UNL A   1      49.123  27.307  24.088  1.00  0.00    -0.206 F 
ATOM     71  C   UNL A   1      51.321  26.711  24.660  1.00  0.00     0.040 A 
ATOM     72  C   UNL A   1      51.901  26.323  26.963  1.00  0.00     0.040 A 
ATOM     73  F   UNL A   1      50.263  26.509  28.632  1.00  0.00    -0.206 F 
ATOM     74  C   UNL A   1      52.272  26.377  25.622  1.00  0.00     0.006 A 
ENDBRANCH  46  67
BRANCH  58  75
ATOM     75  C   UNL A   1      46.267  32.655  28.539  1.00  0.00     0.057 A 
ATOM     76  C   UNL A   1      46.205  33.654  27.559  1.00  0.00     0.134 A 
ATOM     77  C   UNL A   1      46.755  33.018  29.802  1.00  0.00     0.134 A 
ATOM     78  F   UNL A   1      45.759  33.372  26.326  1.00  0.00    -0.206 F 
ATOM     79  C   UNL A   1      46.642  34.956  27.816  1.00  0.00     0.040 A 
ATOM     80  C   UNL A   1      47.163  34.324  30.080  1.00  0.00     0.040 A 
ATOM     81  F   UNL A   1      46.830  32.114  30.790  1.00  0.00    -0.206 F 
ATOM     82  C   UNL A   1      47.116  35.295  29.082  1.00  0.00     0.006 A 
ENDBRANCH  58  75
ENDBRANCH  32  33
ENDBRANCH  25  27
ENDBRANCH  24  25
ENDBRANCH  23  24
ENDBRANCH  22  23
ENDBRANCH  21  22
ENDBRANCH  20  21
ENDBRANCH   1  20
TORSDOF 21
ENDMDL
MODEL 2
REMARK VINA RESULT:      -9.3      2.357      7.531
REMARK SMILES CC[C@@H](C(=O)OCCOCCOC(=O)c1ccc(-c2c3nc(c(-c4c(F)cccc4F)c4ccc([nH]4)c(-c4c(F)cccc4F)c4nc(c(-c5c(F)cccc5F)c5ccc2[nH]5)C=C4)C=C3)cc1)N(C)C(=O)N(C)CC(C)(C)O
REMARK SMILES IDX 7 1 6 2 4 3 5 4 3 5 2 6 1 7 69 8 70 9 71 10 72 11 73 12
REMARK SMILES IDX 74 13 75 14 76 15 77 16 78 17 79 18 8 20 9 21 10 22 11 23
REMARK SMILES IDX 12 24 13 25 14 26 15 27 16 28 68 29 17 30 67 31 18 32 19 33
REMARK SMILES IDX 20 34 61 35 21 36 66 37 60 38 62 39 22 40 65 41 59 42 58 43
REMARK SMILES IDX 23 45 49 46 32 47 48 48 33 49 36 50 47 51 63 52 34 53 35 54
REMARK SMILES IDX 46 56 64 57 37 58 24 59 25 60 30 61 26 62 27 63 29 64 31 65
REMARK SMILES IDX 28 66 50 67 51 68 56 69 52 70 53 71 55 72 57 73 54 74 38 75
REMARK SMILES IDX 39 76 44 77 40 78 41 79 43 80 45 81 42 82
REMARK H PARENT 79 19 62 44 36 55
REMARK Flexibility Score: inf
ROOT
ATOM      1  C   UNL A   1      35.657  22.661  25.453  1.00  0.00     0.261 C 
ENDROOT
BRANCH   1   2
ATOM      2  O   UNL A   1      35.492  24.055  25.122  1.00  0.00    -0.462 OA
BRANCH   2   3
ATOM      3  C   UNL A   1      34.709  24.320  24.039  1.00  0.00     0.328 C 
ATOM      4  O   UNL A   1      34.979  23.936  22.905  1.00  0.00    -0.250 OA
BRANCH   3   5
ATOM      5  C   UNL A   1      33.528  25.272  24.370  1.00  0.00     0.196 C 
BRANCH   5   6
ATOM      6  C   UNL A   1      33.249  25.683  25.839  1.00  0.00     0.034 C 
ATOM      7  C   UNL A   1      33.341  27.173  26.153  1.00  0.00     0.007 C 
ENDBRANCH   5   6
BRANCH   5   8
ATOM      8  N   UNL A   1      32.314  24.744  23.638  1.00  0.00    -0.314 N 
ATOM      9  C   UNL A   1      31.870  23.452  24.125  1.00  0.00     0.149 C 
BRANCH   8  10
ATOM     10  C   UNL A   1      31.600  25.600  22.810  1.00  0.00     0.320 C 
ATOM     11  O   UNL A   1      31.816  25.568  21.591  1.00  0.00    -0.248 OA
BRANCH  10  12
ATOM     12  N   UNL A   1      30.659  26.509  23.267  1.00  0.00    -0.325 N 
ATOM     13  C   UNL A   1      29.809  26.505  24.452  1.00  0.00     0.148 C 
BRANCH  12  14
ATOM     14  C   UNL A   1      30.413  27.707  22.414  1.00  0.00     0.155 C 
BRANCH  14  15
ATOM     15  C   UNL A   1      31.187  29.013  22.788  1.00  0.00     0.077 C 
ATOM     16  C   UNL A   1      30.748  29.605  24.123  1.00  0.00     0.043 C 
ATOM     17  C   UNL A   1      32.691  28.709  22.860  1.00  0.00     0.043 C 
BRANCH  15  18
ATOM     18  O   UNL A   1      31.028  30.000  21.760  1.00  0.00    -0.389 OA
ATOM     19  H   UNL A   1      31.540  29.739  20.978  1.00  0.00     0.211 HD
ENDBRANCH  15  18
ENDBRANCH  14  15
ENDBRANCH  12  14
ENDBRANCH  10  12
ENDBRANCH   8  10
ENDBRANCH   5   8
ENDBRANCH   3   5
ENDBRANCH   2   3
ENDBRANCH   1   2
BRANCH   1  20
ATOM     20  C   UNL A   1      36.958  22.093  24.866  1.00  0.00     0.202 C 
BRANCH  20  21
ATOM     21  O   UNL A   1      37.601  21.074  25.634  1.00  0.00    -0.374 OA
BRANCH  21  22
ATOM     22  C   UNL A   1      37.879  19.880  24.904  1.00  0.00     0.202 C 
BRANCH  22  23
ATOM     23  C   UNL A   1      39.023  19.037  25.452  1.00  0.00     0.261 C 
BRANCH  23  24
ATOM     24  O   UNL A   1      39.604  19.767  26.548  1.00  0.00    -0.460 OA
BRANCH  24  25
ATOM     25  C   UNL A   1      40.855  20.207  26.299  1.00  0.00     0.338 C 
ATOM     26  O   UNL A   1      41.701  19.665  25.605  1.00  0.00    -0.246 OA
BRANCH  25  27
ATOM     27  C   UNL A   1      41.014  21.572  26.841  1.00  0.00     0.060 A 
ATOM     28  C   UNL A   1      40.573  22.623  26.026  1.00  0.00     0.016 A 
ATOM     29  C   UNL A   1      41.572  21.837  28.096  1.00  0.00     0.016 A 
ATOM     30  C   UNL A   1      40.772  23.940  26.418  1.00  0.00     0.010 A 
ATOM     31  C   UNL A   1      41.769  23.163  28.491  1.00  0.00     0.010 A 
ATOM     32  C   UNL A   1      41.418  24.215  27.628  1.00  0.00    -0.014 A 
BRANCH  32  33
ATOM     33  C   UNL A   1      41.889  25.595  27.885  1.00  0.00     0.031 A 
ATOM     34  C   UNL A   1      43.225  26.013  27.335  1.00  0.00     0.074 A 
ATOM     35  C   UNL A   1      41.108  26.479  28.527  1.00  0.00     0.049 A 
ATOM     36  N   UNL A   1      43.833  27.169  27.416  1.00  0.00    -0.248 NA
ATOM     37  C   UNL A   1      43.978  24.988  26.591  1.00  0.00     0.031 C 
ATOM     38  C   UNL A   1      39.777  26.199  29.061  1.00  0.00     0.029 A 
ATOM     39  N   UNL A   1      41.326  27.798  28.834  1.00  0.00    -0.354 N 
ATOM     40  C   UNL A   1      45.037  27.008  26.741  1.00  0.00     0.074 A 
ATOM     41  C   UNL A   1      45.093  25.635  26.290  1.00  0.00     0.031 C 
ATOM     42  C   UNL A   1      39.293  27.315  29.631  1.00  0.00     0.029 A 
ATOM     43  C   UNL A   1      40.294  28.376  29.532  1.00  0.00     0.049 A 
ATOM     44  H   UNL A   1      42.143  28.284  28.579  1.00  0.00     0.167 HD
ATOM     45  C   UNL A   1      46.002  27.928  26.506  1.00  0.00     0.037 A 
ATOM     46  C   UNL A   1      40.183  29.615  30.044  1.00  0.00     0.037 A 
ATOM     47  C   UNL A   1      45.939  29.293  26.957  1.00  0.00     0.049 A 
ATOM     48  C   UNL A   1      41.305  30.598  29.836  1.00  0.00     0.074 A 
ATOM     49  C   UNL A   1      46.857  30.309  26.764  1.00  0.00     0.029 A 
ATOM     50  N   UNL A   1      44.898  29.830  27.702  1.00  0.00    -0.354 N 
ATOM     51  N   UNL A   1      42.431  30.445  29.180  1.00  0.00    -0.248 NA
ATOM     52  C   UNL A   1      41.138  31.929  30.436  1.00  0.00     0.031 C 
ATOM     53  C   UNL A   1      46.400  31.445  27.441  1.00  0.00     0.029 A 
ATOM     54  C   UNL A   1      45.166  31.156  28.001  1.00  0.00     0.049 A 
ATOM     55  H   UNL A   1      44.089  29.341  27.977  1.00  0.00     0.167 HD
ATOM     56  C   UNL A   1      43.090  31.666  29.260  1.00  0.00     0.074 A 
ATOM     57  C   UNL A   1      42.230  32.553  30.017  1.00  0.00     0.031 C 
ATOM     58  C   UNL A   1      44.296  32.024  28.753  1.00  0.00     0.037 A 
BRANCH  45  59
ATOM     59  C   UNL A   1      47.222  27.475  25.756  1.00  0.00     0.057 A 
ATOM     60  C   UNL A   1      47.341  27.625  24.368  1.00  0.00     0.134 A 
ATOM     61  C   UNL A   1      48.302  26.899  26.437  1.00  0.00     0.134 A 
ATOM     62  F   UNL A   1      46.337  28.153  23.652  1.00  0.00    -0.206 F 
ATOM     63  C   UNL A   1      48.478  27.195  23.681  1.00  0.00     0.040 A 
ATOM     64  C   UNL A   1      49.456  26.492  25.766  1.00  0.00     0.040 A 
ATOM     65  F   UNL A   1      48.256  26.728  27.766  1.00  0.00    -0.206 F 
ATOM     66  C   UNL A   1      49.544  26.633  24.382  1.00  0.00     0.006 A 
ENDBRANCH  45  59
BRANCH  46  67
ATOM     67  C   UNL A   1      38.970  29.997  30.812  1.00  0.00     0.057 A 
ATOM     68  C   UNL A   1      38.862  29.731  32.181  1.00  0.00     0.134 A 
ATOM     69  C   UNL A   1      37.883  30.622  30.190  1.00  0.00     0.134 A 
ATOM     70  F   UNL A   1      39.861  29.115  32.831  1.00  0.00    -0.206 F 
ATOM     71  C   UNL A   1      37.709  30.052  32.900  1.00  0.00     0.040 A 
ATOM     72  C   UNL A   1      36.736  30.975  30.902  1.00  0.00     0.040 A 
ATOM     73  F   UNL A   1      37.924  30.908  28.880  1.00  0.00    -0.206 F 
ATOM     74  C   UNL A   1      36.644  30.682  32.260  1.00  0.00     0.006 A 
ENDBRANCH  46  67
BRANCH  58  75
ATOM     75  C   UNL A   1      44.736  33.445  28.964  1.00  0.00     0.057 A 
ATOM     76  C   UNL A   1      44.389  34.472  28.077  1.00  0.00     0.134 A 
ATOM     77  C   UNL A   1      45.493  33.794  30.092  1.00  0.00     0.134 A 
ATOM     78  F   UNL A   1      43.676  34.205  26.973  1.00  0.00    -0.206 F 
ATOM     79  C   UNL A   1      44.806  35.788  28.286  1.00  0.00     0.040 A 
ATOM     80  C   UNL A   1      45.887  35.112  30.328  1.00  0.00     0.040 A 
ATOM     81  F   UNL A   1      45.849  32.863  30.989  1.00  0.00    -0.206 F 
ATOM     82  C   UNL A   1      45.552  36.112  29.417  1.00  0.00     0.006 A 
ENDBRANCH  58  75
ENDBRANCH  32  33
ENDBRANCH  25  27
ENDBRANCH  24  25
ENDBRANCH  23  24
ENDBRANCH  22  23
ENDBRANCH  21  22
ENDBRANCH  20  21
ENDBRANCH   1  20
TORSDOF 21
ENDMDL
MODEL 3
REMARK VINA RESULT:      -9.2      1.723      3.778
REMARK SMILES CC[C@@H](C(=O)OCCOCCOC(=O)c1ccc(-c2c3nc(c(-c4c(F)cccc4F)c4ccc([nH]4)c(-c4c(F)cccc4F)c4nc(c(-c5c(F)cccc5F)c5ccc2[nH]5)C=C4)C=C3)cc1)N(C)C(=O)N(C)CC(C)(C)O
REMARK SMILES IDX 7 1 6 2 4 3 5 4 3 5 2 6 1 7 69 8 70 9 71 10 72 11 73 12
REMARK SMILES IDX 74 13 75 14 76 15 77 16 78 17 79 18 8 20 9 21 10 22 11 23
REMARK SMILES IDX 12 24 13 25 14 26 15 27 16 28 68 29 17 30 67 31 18 32 19 33
REMARK SMILES IDX 20 34 61 35 21 36 66 37 60 38 62 39 22 40 65 41 59 42 58 43
REMARK SMILES IDX 23 45 49 46 32 47 48 48 33 49 36 50 47 51 63 52 34 53 35 54
REMARK SMILES IDX 46 56 64 57 37 58 24 59 25 60 30 61 26 62 27 63 29 64 31 65
REMARK SMILES IDX 28 66 50 67 51 68 56 69 52 70 53 71 55 72 57 73 54 74 38 75
REMARK SMILES IDX 39 76 44 77 40 78 41 79 43 80 45 81 42 82
REMARK H PARENT 79 19 62 44 36 55
REMARK Flexibility Score: inf
ROOT
ATOM      1  C   UNL A   1      36.940  23.330  24.672  1.00  0.00     0.261 C 
ENDROOT
BRANCH   1   2
ATOM      2  O   UNL A   1      35.619  23.694  25.123  1.00  0.00    -0.462 OA
BRANCH   2   3
ATOM      3  C   UNL A   1      34.609  23.488  24.231  1.00  0.00     0.328 C 
ATOM      4  O   UNL A   1      34.603  23.969  23.102  1.00  0.00    -0.250 OA
BRANCH   3   5
ATOM      5  C   UNL A   1      33.416  22.708  24.844  1.00  0.00     0.196 C 
BRANCH   5   6
ATOM      6  C   UNL A   1      33.078  21.281  24.338  1.00  0.00     0.034 C 
ATOM      7  C   UNL A   1      33.814  20.130  25.018  1.00  0.00     0.007 C 
ENDBRANCH   5   6
BRANCH   5   8
ATOM      8  N   UNL A   1      32.233  23.650  24.865  1.00  0.00    -0.314 N 
ATOM      9  C   UNL A   1      31.218  23.313  23.886  1.00  0.00     0.149 C 
BRANCH   8  10
ATOM     10  C   UNL A   1      32.089  24.529  25.931  1.00  0.00     0.320 C 
ATOM     11  O   UNL A   1      31.712  24.084  27.023  1.00  0.00    -0.248 OA
BRANCH  10  12
ATOM     12  N   UNL A   1      32.330  25.890  25.845  1.00  0.00    -0.325 N 
ATOM     13  C   UNL A   1      33.570  26.657  25.880  1.00  0.00     0.148 C 
BRANCH  12  14
ATOM     14  C   UNL A   1      31.136  26.776  25.727  1.00  0.00     0.155 C 
BRANCH  14  15
ATOM     15  C   UNL A   1      30.726  27.223  24.285  1.00  0.00     0.077 C 
ATOM     16  C   UNL A   1      29.355  26.702  23.866  1.00  0.00     0.043 C 
ATOM     17  C   UNL A   1      30.709  28.757  24.214  1.00  0.00     0.043 C 
BRANCH  15  18
ATOM     18  O   UNL A   1      31.705  26.790  23.331  1.00  0.00    -0.389 OA
ATOM     19  H   UNL A   1      31.896  27.512  22.712  1.00  0.00     0.211 HD
ENDBRANCH  15  18
ENDBRANCH  14  15
ENDBRANCH  12  14
ENDBRANCH  10  12
ENDBRANCH   8  10
ENDBRANCH   5   8
ENDBRANCH   3   5
ENDBRANCH   2   3
ENDBRANCH   1   2
BRANCH   1  20
ATOM     20  C   UNL A   1      37.115  21.805  24.619  1.00  0.00     0.202 C 
BRANCH  20  21
ATOM     21  O   UNL A   1      38.197  21.270  25.386  1.00  0.00    -0.374 OA
BRANCH  21  22
ATOM     22  C   UNL A   1      38.539  19.925  25.054  1.00  0.00     0.202 C 
BRANCH  22  23
ATOM     23  C   UNL A   1      39.483  19.237  26.030  1.00  0.00     0.261 C 
BRANCH  23  24
ATOM     24  O   UNL A   1      40.789  19.227  25.426  1.00  0.00    -0.460 OA
BRANCH  24  25
ATOM     25  C   UNL A   1      41.793  19.402  26.310  1.00  0.00     0.338 C 
ATOM     26  O   UNL A   1      42.615  18.572  26.664  1.00  0.00    -0.246 OA
BRANCH  25  27
ATOM     27  C   UNL A   1      41.891  20.833  26.666  1.00  0.00     0.060 A 
ATOM     28  C   UNL A   1      41.797  21.748  25.610  1.00  0.00     0.016 A 
ATOM     29  C   UNL A   1      42.071  21.283  27.979  1.00  0.00     0.016 A 
ATOM     30  C   UNL A   1      41.974  23.105  25.845  1.00  0.00     0.010 A 
ATOM     31  C   UNL A   1      42.247  22.650  28.215  1.00  0.00     0.010 A 
ATOM     32  C   UNL A   1      42.252  23.556  27.140  1.00  0.00    -0.014 A 
BRANCH  32  33
ATOM     33  C   UNL A   1      42.733  24.944  27.321  1.00  0.00     0.031 A 
ATOM     34  C   UNL A   1      41.821  25.941  27.982  1.00  0.00     0.074 A 
ATOM     35  C   UNL A   1      43.983  25.289  26.974  1.00  0.00     0.049 A 
ATOM     36  N   UNL A   1      42.030  27.201  28.263  1.00  0.00    -0.248 NA
ATOM     37  C   UNL A   1      40.491  25.448  28.383  1.00  0.00     0.031 C 
ATOM     38  C   UNL A   1      44.970  24.395  26.371  1.00  0.00     0.029 A 
ATOM     39  N   UNL A   1      44.638  26.489  27.086  1.00  0.00    -0.354 N 
ATOM     40  C   UNL A   1      40.862  27.651  28.865  1.00  0.00     0.074 A 
ATOM     41  C   UNL A   1      39.933  26.543  28.875  1.00  0.00     0.031 C 
ATOM     42  C   UNL A   1      46.108  25.078  26.165  1.00  0.00     0.029 A 
ATOM     43  C   UNL A   1      45.918  26.463  26.591  1.00  0.00     0.049 A 
ATOM     44  H   UNL A   1      44.229  27.291  27.483  1.00  0.00     0.167 HD
ATOM     45  C   UNL A   1      40.593  28.876  29.376  1.00  0.00     0.037 A 
ATOM     46  C   UNL A   1      46.824  27.453  26.482  1.00  0.00     0.037 A 
ATOM     47  C   UNL A   1      41.523  29.974  29.364  1.00  0.00     0.049 A 
ATOM     48  C   UNL A   1      46.473  28.827  26.988  1.00  0.00     0.074 A 
ATOM     49  C   UNL A   1      41.356  31.252  29.865  1.00  0.00     0.029 A 
ATOM     50  N   UNL A   1      42.795  29.923  28.811  1.00  0.00    -0.354 N 
ATOM     51  N   UNL A   1      45.374  29.240  27.574  1.00  0.00    -0.248 NA
ATOM     52  C   UNL A   1      47.491  29.873  26.822  1.00  0.00     0.031 C 
ATOM     53  C   UNL A   1      42.504  31.993  29.564  1.00  0.00     0.029 A 
ATOM     54  C   UNL A   1      43.412  31.158  28.934  1.00  0.00     0.049 A 
ATOM     55  H   UNL A   1      43.199  29.129  28.394  1.00  0.00     0.167 HD
ATOM     56  C   UNL A   1      45.581  30.581  27.876  1.00  0.00     0.074 A 
ATOM     57  C   UNL A   1      46.917  30.907  27.419  1.00  0.00     0.031 C 
ATOM     58  C   UNL A   1      44.745  31.463  28.477  1.00  0.00     0.037 A 
BRANCH  45  59
ATOM     59  C   UNL A   1      39.227  29.097  29.962  1.00  0.00     0.057 A 
ATOM     60  C   UNL A   1      38.153  29.563  29.192  1.00  0.00     0.134 A 
ATOM     61  C   UNL A   1      38.980  28.817  31.312  1.00  0.00     0.134 A 
ATOM     62  F   UNL A   1      38.325  29.865  27.896  1.00  0.00    -0.206 F 
ATOM     63  C   UNL A   1      36.890  29.769  29.750  1.00  0.00     0.040 A 
ATOM     64  C   UNL A   1      37.714  28.991  31.874  1.00  0.00     0.040 A 
ATOM     65  F   UNL A   1      39.962  28.366  32.106  1.00  0.00    -0.206 F 
ATOM     66  C   UNL A   1      36.665  29.475  31.094  1.00  0.00     0.006 A 
ENDBRANCH  45  59
BRANCH  46  67
ATOM     67  C   UNL A   1      48.145  27.187  25.858  1.00  0.00     0.057 A 
ATOM     68  C   UNL A   1      49.256  26.830  26.631  1.00  0.00     0.134 A 
ATOM     69  C   UNL A   1      48.333  27.302  24.476  1.00  0.00     0.134 A 
ATOM     70  F   UNL A   1      49.147  26.724  27.964  1.00  0.00    -0.206 F 
ATOM     71  C   UNL A   1      50.510  26.617  26.054  1.00  0.00     0.040 A 
ATOM     72  C   UNL A   1      49.573  27.064  23.883  1.00  0.00     0.040 A 
ATOM     73  F   UNL A   1      47.308  27.638  23.678  1.00  0.00    -0.206 F 
ATOM     74  C   UNL A   1      50.668  26.728  24.675  1.00  0.00     0.006 A 
ENDBRANCH  46  67
BRANCH  58  75
ATOM     75  C   UNL A   1      45.265  32.852  28.713  1.00  0.00     0.057 A 
ATOM     76  C   UNL A   1      45.072  33.887  27.789  1.00  0.00     0.134 A 
ATOM     77  C   UNL A   1      45.943  33.165  29.900  1.00  0.00     0.134 A 
ATOM     78  F   UNL A   1      44.442  33.654  26.628  1.00  0.00    -0.206 F 
ATOM     79  C   UNL A   1      45.563  35.174  28.021  1.00  0.00     0.040 A 
ATOM     80  C   UNL A   1      46.408  34.455  30.158  1.00  0.00     0.040 A 
ATOM     81  F   UNL A   1      46.151  32.225  30.834  1.00  0.00    -0.206 F 
ATOM     82  C   UNL A   1      46.227  35.462  29.212  1.00  0.00     0.006 A 
ENDBRANCH  58  75
ENDBRANCH  32  33
ENDBRANCH  25  27
ENDBRANCH  24  25
ENDBRANCH  23  24
ENDBRANCH  22  23
ENDBRANCH  21  22
ENDBRANCH  20  21
ENDBRANCH   1  20
TORSDOF 21
ENDMDL
