MODEL 1
REMARK VINA RESULT:     -10.7      0.000      0.000
REMARK SMILES C[C@@H](C(=O)OCCOCCOC(=O)c1ccc(-c2c3nc(c(-c4c(F)cccc4F)c4ccc([nH]4)c(-c4c(F)cccc4F)c4nc(c(-c5c(F)cccc5F)c5ccc2[nH]5)C=C4)C=C3)cc1)c1ccc(NC2CCCC2)cc1F
REMARK SMILES IDX 7 1 6 2 5 3 3 4 4 5 2 6 1 7 68 8 69 9 79 10 70 11 78 12
REMARK SMILES IDX 80 13 71 14 72 15 73 17 74 18 77 19 75 20 76 21 8 22 9 23
REMARK SMILES IDX 10 24 11 25 12 26 13 27 14 28 15 29 67 30 16 31 66 32 17 33
REMARK SMILES IDX 18 34 19 35 60 36 20 37 65 38 59 39 61 40 21 41 64 42 58 43
REMARK SMILES IDX 57 44 22 46 48 47 31 48 47 49 32 50 35 51 46 52 62 53 33 54
REMARK SMILES IDX 34 55 45 57 63 58 36 59 23 60 24 61 29 62 25 63 26 64 28 65
REMARK SMILES IDX 30 66 27 67 49 68 50 69 55 70 51 71 52 72 54 73 56 74 53 75
REMARK SMILES IDX 37 76 38 77 43 78 39 79 40 80 42 81 44 82 41 83
REMARK H PARENT 72 16 61 45 35 56
REMARK Flexibility Score: inf
ROOT
ATOM      1  C   UNL A   1      32.037  29.303  25.462  1.00  0.00     0.202 C 
ENDROOT
BRANCH   1   2
ATOM      2  C   UNL A   1      31.802  27.879  25.976  1.00  0.00     0.261 C 
BRANCH   2   3
ATOM      3  O   UNL A   1      32.080  26.926  24.926  1.00  0.00    -0.463 OA
BRANCH   3   4
ATOM      4  C   UNL A   1      33.235  26.217  25.052  1.00  0.00     0.313 C 
ATOM      5  O   UNL A   1      34.022  26.352  25.983  1.00  0.00    -0.252 OA
BRANCH   4   6
ATOM      6  C   UNL A   1      33.466  25.249  23.884  1.00  0.00     0.129 C 
ATOM      7  C   UNL A   1      32.416  25.298  22.772  1.00  0.00     0.025 C 
BRANCH   6   8
ATOM      8  C   UNL A   1      33.677  23.835  24.404  1.00  0.00     0.002 A 
ATOM      9  C   UNL A   1      32.672  23.201  25.136  1.00  0.00     0.010 A 
ATOM     10  C   UNL A   1      34.818  23.089  24.107  1.00  0.00     0.129 A 
ATOM     11  C   UNL A   1      32.803  21.854  25.506  1.00  0.00     0.026 A 
ATOM     12  C   UNL A   1      34.934  21.746  24.455  1.00  0.00     0.065 A 
ATOM     13  F   UNL A   1      35.849  23.653  23.468  1.00  0.00    -0.207 F 
ATOM     14  C   UNL A   1      33.914  21.087  25.144  1.00  0.00     0.037 A 
BRANCH  14  15
ATOM     15  N   UNL A   1      34.081  19.753  25.446  1.00  0.00    -0.382 N 
ATOM     16  H   UNL A   1      34.697  19.563  26.190  1.00  0.00     0.160 HD
BRANCH  15  17
ATOM     17  C   UNL A   1      33.477  18.589  24.826  1.00  0.00     0.079 C 
ATOM     18  C   UNL A   1      32.636  18.925  23.598  1.00  0.00     0.025 C 
ATOM     19  C   UNL A   1      34.467  17.499  24.408  1.00  0.00     0.025 C 
ATOM     20  C   UNL A   1      32.639  17.634  22.798  1.00  0.00     0.002 C 
ATOM     21  C   UNL A   1      34.028  17.049  23.015  1.00  0.00     0.002 C 
ENDBRANCH  15  17
ENDBRANCH  14  15
ENDBRANCH   6   8
ENDBRANCH   4   6
ENDBRANCH   3   4
ENDBRANCH   2   3
ENDBRANCH   1   2
BRANCH   1  22
ATOM     22  O   UNL A   1      32.147  30.327  26.458  1.00  0.00    -0.374 OA
BRANCH  22  23
ATOM     23  C   UNL A   1      31.426  31.533  26.213  1.00  0.00     0.202 C 
BRANCH  23  24
ATOM     24  C   UNL A   1      31.572  32.641  27.264  1.00  0.00     0.261 C 
BRANCH  24  25
ATOM     25  O   UNL A   1      32.728  33.459  27.036  1.00  0.00    -0.460 OA
BRANCH  25  26
ATOM     26  C   UNL A   1      33.279  33.951  28.169  1.00  0.00     0.338 C 
ATOM     27  O   UNL A   1      32.793  34.761  28.949  1.00  0.00    -0.246 OA
BRANCH  26  28
ATOM     28  C   UNL A   1      34.529  33.235  28.464  1.00  0.00     0.060 A 
ATOM     29  C   UNL A   1      34.419  31.892  28.847  1.00  0.00     0.016 A 
ATOM     30  C   UNL A   1      35.773  33.868  28.420  1.00  0.00     0.016 A 
ATOM     31  C   UNL A   1      35.552  31.188  29.239  1.00  0.00     0.010 A 
ATOM     32  C   UNL A   1      36.909  33.162  28.828  1.00  0.00     0.010 A 
ATOM     33  C   UNL A   1      36.794  31.833  29.274  1.00  0.00    -0.014 A 
BRANCH  33  34
ATOM     34  C   UNL A   1      37.931  31.160  29.941  1.00  0.00     0.031 A 
ATOM     35  C   UNL A   1      38.185  31.445  31.395  1.00  0.00     0.074 A 
ATOM     36  C   UNL A   1      38.686  30.266  29.279  1.00  0.00     0.049 A 
ATOM     37  N   UNL A   1      39.108  30.962  32.187  1.00  0.00    -0.248 NA
ATOM     38  C   UNL A   1      37.275  32.403  32.043  1.00  0.00     0.031 C 
ATOM     39  C   UNL A   1      38.504  29.878  27.882  1.00  0.00     0.029 A 
ATOM     40  N   UNL A   1      39.757  29.522  29.702  1.00  0.00    -0.354 N 
ATOM     41  C   UNL A   1      38.890  31.558  33.423  1.00  0.00     0.074 A 
ATOM     42  C   UNL A   1      37.771  32.460  33.270  1.00  0.00     0.031 C 
ATOM     43  C   UNL A   1      39.437  28.964  27.561  1.00  0.00     0.029 A 
ATOM     44  C   UNL A   1      40.294  28.727  28.721  1.00  0.00     0.049 A 
ATOM     45  H   UNL A   1      40.108  29.554  30.621  1.00  0.00     0.167 HD
ATOM     46  C   UNL A   1      39.559  31.362  34.583  1.00  0.00     0.037 A 
ATOM     47  C   UNL A   1      41.365  27.911  28.756  1.00  0.00     0.037 A 
ATOM     48  C   UNL A   1      40.672  30.462  34.730  1.00  0.00     0.049 A 
ATOM     49  C   UNL A   1      42.136  27.765  30.041  1.00  0.00     0.074 A 
ATOM     50  C   UNL A   1      41.406  30.177  35.868  1.00  0.00     0.029 A 
ATOM     51  N   UNL A   1      41.216  29.707  33.702  1.00  0.00    -0.354 N 
ATOM     52  N   UNL A   1      41.908  28.311  31.211  1.00  0.00    -0.248 NA
ATOM     53  C   UNL A   1      43.315  26.887  30.009  1.00  0.00     0.031 C 
ATOM     54  C   UNL A   1      42.425  29.285  35.517  1.00  0.00     0.029 A 
ATOM     55  C   UNL A   1      42.295  28.978  34.172  1.00  0.00     0.049 A 
ATOM     56  H   UNL A   1      40.884  29.693  32.775  1.00  0.00     0.167 HD
ATOM     57  C   UNL A   1      42.892  27.822  32.060  1.00  0.00     0.074 A 
ATOM     58  C   UNL A   1      43.716  26.928  31.272  1.00  0.00     0.031 C 
ATOM     59  C   UNL A   1      43.097  28.088  33.373  1.00  0.00     0.037 A 
BRANCH  46  60
ATOM     60  C   UNL A   1      39.122  32.161  35.774  1.00  0.00     0.057 A 
ATOM     61  C   UNL A   1      38.246  31.638  36.735  1.00  0.00     0.134 A 
ATOM     62  C   UNL A   1      39.601  33.462  35.975  1.00  0.00     0.134 A 
ATOM     63  F   UNL A   1      37.737  30.405  36.592  1.00  0.00    -0.206 F 
ATOM     64  C   UNL A   1      37.844  32.390  37.841  1.00  0.00     0.040 A 
ATOM     65  C   UNL A   1      39.227  34.213  37.090  1.00  0.00     0.040 A 
ATOM     66  F   UNL A   1      40.444  34.019  35.094  1.00  0.00    -0.206 F 
ATOM     67  C   UNL A   1      38.341  33.680  38.024  1.00  0.00     0.006 A 
ENDBRANCH  46  60
BRANCH  47  68
ATOM     68  C   UNL A   1      41.779  27.172  27.536  1.00  0.00     0.057 A 
ATOM     69  C   UNL A   1      42.604  27.764  26.574  1.00  0.00     0.134 A 
ATOM     70  C   UNL A   1      41.341  25.865  27.295  1.00  0.00     0.134 A 
ATOM     71  F   UNL A   1      43.036  29.023  26.736  1.00  0.00    -0.206 F 
ATOM     72  C   UNL A   1      42.967  27.088  25.407  1.00  0.00     0.040 A 
ATOM     73  C   UNL A   1      41.715  25.168  26.145  1.00  0.00     0.040 A 
ATOM     74  F   UNL A   1      40.547  25.242  28.180  1.00  0.00    -0.206 F 
ATOM     75  C   UNL A   1      42.526  25.783  25.193  1.00  0.00     0.006 A 
ENDBRANCH  47  68
BRANCH  59  76
ATOM     76  C   UNL A   1      44.234  27.377  34.049  1.00  0.00     0.057 A 
ATOM     77  C   UNL A   1      44.077  26.108  34.618  1.00  0.00     0.134 A 
ATOM     78  C   UNL A   1      45.510  27.954  34.091  1.00  0.00     0.134 A 
ATOM     79  F   UNL A   1      42.877  25.507  34.621  1.00  0.00    -0.206 F 
ATOM     80  C   UNL A   1      45.145  25.445  35.225  1.00  0.00     0.040 A 
ATOM     81  C   UNL A   1      46.591  27.290  34.672  1.00  0.00     0.040 A 
ATOM     82  F   UNL A   1      45.728  29.164  33.554  1.00  0.00    -0.206 F 
ATOM     83  C   UNL A   1      46.409  26.034  35.247  1.00  0.00     0.006 A 
ENDBRANCH  59  76
ENDBRANCH  33  34
ENDBRANCH  26  28
ENDBRANCH  25  26
ENDBRANCH  24  25
ENDBRANCH  23  24
ENDBRANCH  22  23
ENDBRANCH   1  22
TORSDOF 17
ENDMDL
MODEL 2
REMARK VINA RESULT:     -10.7      3.170      8.430
REMARK SMILES C[C@@H](C(=O)OCCOCCOC(=O)c1ccc(-c2c3nc(c(-c4c(F)cccc4F)c4ccc([nH]4)c(-c4c(F)cccc4F)c4nc(c(-c5c(F)cccc5F)c5ccc2[nH]5)C=C4)C=C3)cc1)c1ccc(NC2CCCC2)cc1F
REMARK SMILES IDX 7 1 6 2 5 3 3 4 4 5 2 6 1 7 68 8 69 9 79 10 70 11 78 12
REMARK SMILES IDX 80 13 71 14 72 15 73 17 74 18 77 19 75 20 76 21 8 22 9 23
REMARK SMILES IDX 10 24 11 25 12 26 13 27 14 28 15 29 67 30 16 31 66 32 17 33
REMARK SMILES IDX 18 34 19 35 60 36 20 37 65 38 59 39 61 40 21 41 64 42 58 43
REMARK SMILES IDX 57 44 22 46 48 47 31 48 47 49 32 50 35 51 46 52 62 53 33 54
REMARK SMILES IDX 34 55 45 57 63 58 36 59 23 60 24 61 29 62 25 63 26 64 28 65
REMARK SMILES IDX 30 66 27 67 49 68 50 69 55 70 51 71 52 72 54 73 56 74 53 75
REMARK SMILES IDX 37 76 38 77 43 78 39 79 40 80 42 81 44 82 41 83
REMARK H PARENT 72 16 61 45 35 56
REMARK Flexibility Score: inf
ROOT
ATOM      1  C   UNL A   1      41.447  21.378  26.135  1.00  0.00     0.202 C 
ENDROOT
BRANCH   1   2
ATOM      2  C   UNL A   1      40.020  20.953  26.495  1.00  0.00     0.261 C 
BRANCH   2   3
ATOM      3  O   UNL A   1      39.109  21.355  25.447  1.00  0.00    -0.463 OA
BRANCH   3   4
ATOM      4  C   UNL A   1      38.138  22.237  25.806  1.00  0.00     0.313 C 
ATOM      5  O   UNL A   1      38.358  23.387  26.168  1.00  0.00    -0.252 OA
BRANCH   4   6
ATOM      6  C   UNL A   1      36.731  21.628  25.739  1.00  0.00     0.129 C 
ATOM      7  C   UNL A   1      36.613  20.332  24.935  1.00  0.00     0.025 C 
BRANCH   6   8
ATOM      8  C   UNL A   1      35.724  22.673  25.282  1.00  0.00     0.002 A 
ATOM      9  C   UNL A   1      35.600  22.980  23.926  1.00  0.00     0.010 A 
ATOM     10  C   UNL A   1      34.837  23.295  26.161  1.00  0.00     0.129 A 
ATOM     11  C   UNL A   1      34.587  23.843  23.482  1.00  0.00     0.026 A 
ATOM     12  C   UNL A   1      33.817  24.131  25.714  1.00  0.00     0.065 A 
ATOM     13  F   UNL A   1      34.941  23.100  27.481  1.00  0.00    -0.207 F 
ATOM     14  C   UNL A   1      33.653  24.407  24.356  1.00  0.00     0.037 A 
BRANCH  14  15
ATOM     15  N   UNL A   1      32.616  25.230  23.973  1.00  0.00    -0.382 N 
ATOM     16  H   UNL A   1      31.751  24.780  23.833  1.00  0.00     0.160 HD
BRANCH  15  17
ATOM     17  C   UNL A   1      32.616  26.663  23.748  1.00  0.00     0.079 C 
ATOM     18  C   UNL A   1      33.619  27.412  24.620  1.00  0.00     0.025 C 
ATOM     19  C   UNL A   1      32.876  27.084  22.300  1.00  0.00     0.025 C 
ATOM     20  C   UNL A   1      33.897  28.682  23.835  1.00  0.00     0.002 C 
ATOM     21  C   UNL A   1      33.863  28.249  22.375  1.00  0.00     0.002 C 
ENDBRANCH  15  17
ENDBRANCH  14  15
ENDBRANCH   6   8
ENDBRANCH   4   6
ENDBRANCH   3   4
ENDBRANCH   2   3
ENDBRANCH   1   2
BRANCH   1  22
ATOM     22  O   UNL A   1      42.365  20.322  25.823  1.00  0.00    -0.374 OA
BRANCH  22  23
ATOM     23  C   UNL A   1      43.731  20.694  25.660  1.00  0.00     0.202 C 
BRANCH  23  24
ATOM     24  C   UNL A   1      43.995  22.089  25.080  1.00  0.00     0.261 C 
BRANCH  24  25
ATOM     25  O   UNL A   1      44.594  22.973  26.038  1.00  0.00    -0.460 OA
BRANCH  25  26
ATOM     26  C   UNL A   1      44.639  24.263  25.635  1.00  0.00     0.338 C 
ATOM     27  O   UNL A   1      45.164  24.716  24.626  1.00  0.00    -0.246 OA
BRANCH  26  28
ATOM     28  C   UNL A   1      43.793  25.085  26.512  1.00  0.00     0.060 A 
ATOM     29  C   UNL A   1      44.065  26.459  26.555  1.00  0.00     0.016 A 
ATOM     30  C   UNL A   1      42.794  24.528  27.313  1.00  0.00     0.016 A 
ATOM     31  C   UNL A   1      43.372  27.276  27.441  1.00  0.00     0.010 A 
ATOM     32  C   UNL A   1      42.107  25.348  28.213  1.00  0.00     0.010 A 
ATOM     33  C   UNL A   1      42.422  26.716  28.305  1.00  0.00    -0.014 A 
BRANCH  33  34
ATOM     34  C   UNL A   1      41.892  27.540  29.414  1.00  0.00     0.031 A 
ATOM     35  C   UNL A   1      42.590  27.493  30.745  1.00  0.00     0.074 A 
ATOM     36  C   UNL A   1      40.843  28.360  29.222  1.00  0.00     0.049 A 
ATOM     37  N   UNL A   1      42.315  28.137  31.850  1.00  0.00    -0.248 NA
ATOM     38  C   UNL A   1      43.756  26.600  30.841  1.00  0.00     0.031 C 
ATOM     39  C   UNL A   1      40.117  28.521  27.964  1.00  0.00     0.029 A 
ATOM     40  N   UNL A   1      40.212  29.213  30.091  1.00  0.00    -0.354 N 
ATOM     41  C   UNL A   1      43.271  27.727  32.770  1.00  0.00     0.074 A 
ATOM     42  C   UNL A   1      44.113  26.756  32.107  1.00  0.00     0.031 C 
ATOM     43  C   UNL A   1      39.134  29.421  28.143  1.00  0.00     0.029 A 
ATOM     44  C   UNL A   1      39.148  29.875  29.533  1.00  0.00     0.049 A 
ATOM     45  H   UNL A   1      40.495  29.339  31.025  1.00  0.00     0.167 HD
ATOM     46  C   UNL A   1      43.436  28.131  34.052  1.00  0.00     0.037 A 
ATOM     47  C   UNL A   1      38.277  30.740  30.089  1.00  0.00     0.037 A 
ATOM     48  C   UNL A   1      42.597  29.098  34.707  1.00  0.00     0.049 A 
ATOM     49  C   UNL A   1      38.441  31.119  31.536  1.00  0.00     0.074 A 
ATOM     50  C   UNL A   1      42.692  29.590  35.997  1.00  0.00     0.029 A 
ATOM     51  N   UNL A   1      41.501  29.714  34.123  1.00  0.00    -0.354 N 
ATOM     52  N   UNL A   1      39.362  30.747  32.391  1.00  0.00    -0.248 NA
ATOM     53  C   UNL A   1      37.441  32.040  32.096  1.00  0.00     0.031 C 
ATOM     54  C   UNL A   1      41.624  30.469  36.208  1.00  0.00     0.029 A 
ATOM     55  C   UNL A   1      40.893  30.560  35.035  1.00  0.00     0.049 A 
ATOM     56  H   UNL A   1      41.199  29.569  33.196  1.00  0.00     0.167 HD
ATOM     57  C   UNL A   1      39.073  31.409  33.578  1.00  0.00     0.074 A 
ATOM     58  C   UNL A   1      37.894  32.213  33.330  1.00  0.00     0.031 C 
ATOM     59  C   UNL A   1      39.724  31.357  34.765  1.00  0.00     0.037 A 
BRANCH  46  60
ATOM     60  C   UNL A   1      44.550  27.502  34.834  1.00  0.00     0.057 A 
ATOM     61  C   UNL A   1      44.369  26.319  35.561  1.00  0.00     0.134 A 
ATOM     62  C   UNL A   1      45.828  28.077  34.841  1.00  0.00     0.134 A 
ATOM     63  F   UNL A   1      43.166  25.728  35.609  1.00  0.00    -0.206 F 
ATOM     64  C   UNL A   1      45.413  25.741  36.287  1.00  0.00     0.040 A 
ATOM     65  C   UNL A   1      46.885  27.495  35.542  1.00  0.00     0.040 A 
ATOM     66  F   UNL A   1      46.068  29.209  34.164  1.00  0.00    -0.206 F 
ATOM     67  C   UNL A   1      46.679  26.327  36.272  1.00  0.00     0.006 A 
ENDBRANCH  46  60
BRANCH  47  68
ATOM     68  C   UNL A   1      37.169  31.304  29.278  1.00  0.00     0.057 A 
ATOM     69  C   UNL A   1      37.242  32.596  28.748  1.00  0.00     0.134 A 
ATOM     70  C   UNL A   1      36.001  30.570  29.033  1.00  0.00     0.134 A 
ATOM     71  F   UNL A   1      38.323  33.357  28.969  1.00  0.00    -0.206 F 
ATOM     72  C   UNL A   1      36.187  33.146  28.015  1.00  0.00     0.040 A 
ATOM     73  C   UNL A   1      34.950  31.098  28.282  1.00  0.00     0.040 A 
ATOM     74  F   UNL A   1      35.870  29.325  29.513  1.00  0.00    -0.206 F 
ATOM     75  C   UNL A   1      35.039  32.393  27.776  1.00  0.00     0.006 A 
ENDBRANCH  47  68
BRANCH  59  76
ATOM     76  C   UNL A   1      39.197  32.219  35.876  1.00  0.00     0.057 A 
ATOM     77  C   UNL A   1      39.597  33.552  36.030  1.00  0.00     0.134 A 
ATOM     78  C   UNL A   1      38.246  31.719  36.775  1.00  0.00     0.134 A 
ATOM     79  F   UNL A   1      40.514  34.086  35.209  1.00  0.00    -0.206 F 
ATOM     80  C   UNL A   1      39.085  34.353  37.052  1.00  0.00     0.040 A 
ATOM     81  C   UNL A   1      37.707  32.518  37.785  1.00  0.00     0.040 A 
ATOM     82  F   UNL A   1      37.813  30.453  36.675  1.00  0.00    -0.206 F 
ATOM     83  C   UNL A   1      38.131  33.837  37.929  1.00  0.00     0.006 A 
ENDBRANCH  59  76
ENDBRANCH  33  34
ENDBRANCH  26  28
ENDBRANCH  25  26
ENDBRANCH  24  25
ENDBRANCH  23  24
ENDBRANCH  22  23
ENDBRANCH   1  22
TORSDOF 17
ENDMDL
MODEL 3
REMARK VINA RESULT:     -10.7      4.820     10.243
REMARK SMILES C[C@@H](C(=O)OCCOCCOC(=O)c1ccc(-c2c3nc(c(-c4c(F)cccc4F)c4ccc([nH]4)c(-c4c(F)cccc4F)c4nc(c(-c5c(F)cccc5F)c5ccc2[nH]5)C=C4)C=C3)cc1)c1ccc(NC2CCCC2)cc1F
REMARK SMILES IDX 7 1 6 2 5 3 3 4 4 5 2 6 1 7 68 8 69 9 79 10 70 11 78 12
REMARK SMILES IDX 80 13 71 14 72 15 73 17 74 18 77 19 75 20 76 21 8 22 9 23
REMARK SMILES IDX 10 24 11 25 12 26 13 27 14 28 15 29 67 30 16 31 66 32 17 33
REMARK SMILES IDX 18 34 19 35 60 36 20 37 65 38 59 39 61 40 21 41 64 42 58 43
REMARK SMILES IDX 57 44 22 46 48 47 31 48 47 49 32 50 35 51 46 52 62 53 33 54
REMARK SMILES IDX 34 55 45 57 63 58 36 59 23 60 24 61 29 62 25 63 26 64 28 65
REMARK SMILES IDX 30 66 27 67 49 68 50 69 55 70 51 71 52 72 54 73 56 74 53 75
REMARK SMILES IDX 37 76 38 77 43 78 39 79 40 80 42 81 44 82 41 83
REMARK H PARENT 72 16 61 45 35 56
REMARK Flexibility Score: inf
ROOT
ATOM      1  C   UNL A   1      36.736  22.410  24.026  1.00  0.00     0.202 C 
ENDROOT
BRANCH   1   2
ATOM      2  C   UNL A   1      35.291  22.517  23.527  1.00  0.00     0.261 C 
BRANCH   2   3
ATOM      3  O   UNL A   1      35.086  23.796  22.888  1.00  0.00    -0.463 OA
BRANCH   3   4
ATOM      4  C   UNL A   1      33.957  24.468  23.242  1.00  0.00     0.313 C 
ATOM      5  O   UNL A   1      32.868  24.307  22.702  1.00  0.00    -0.252 OA
BRANCH   4   6
ATOM      6  C   UNL A   1      34.198  25.477  24.373  1.00  0.00     0.129 C 
ATOM      7  C   UNL A   1      34.230  24.886  25.785  1.00  0.00     0.025 C 
BRANCH   6   8
ATOM      8  C   UNL A   1      33.219  26.635  24.264  1.00  0.00     0.002 A 
ATOM      9  C   UNL A   1      32.197  26.780  25.204  1.00  0.00     0.010 A 
ATOM     10  C   UNL A   1      33.344  27.636  23.299  1.00  0.00     0.129 A 
ATOM     11  C   UNL A   1      31.371  27.914  25.190  1.00  0.00     0.026 A 
ATOM     12  C   UNL A   1      32.540  28.772  23.303  1.00  0.00     0.065 A 
ATOM     13  F   UNL A   1      34.258  27.530  22.328  1.00  0.00    -0.207 F 
ATOM     14  C   UNL A   1      31.546  28.950  24.268  1.00  0.00     0.037 A 
BRANCH  14  15
ATOM     15  N   UNL A   1      30.792  30.103  24.229  1.00  0.00    -0.382 N 
ATOM     16  H   UNL A   1      31.044  30.793  24.886  1.00  0.00     0.160 HD
BRANCH  15  17
ATOM     17  C   UNL A   1      29.682  30.446  23.360  1.00  0.00     0.079 C 
ATOM     18  C   UNL A   1      28.732  29.281  23.106  1.00  0.00     0.025 C 
ATOM     19  C   UNL A   1      28.832  31.624  23.841  1.00  0.00     0.025 C 
ATOM     20  C   UNL A   1      27.420  29.960  22.750  1.00  0.00     0.002 C 
ATOM     21  C   UNL A   1      27.378  31.202  23.630  1.00  0.00     0.002 C 
ENDBRANCH  15  17
ENDBRANCH  14  15
ENDBRANCH   6   8
ENDBRANCH   4   6
ENDBRANCH   3   4
ENDBRANCH   2   3
ENDBRANCH   1   2
BRANCH   1  22
ATOM     22  O   UNL A   1      37.135  21.136  24.546  1.00  0.00    -0.374 OA
BRANCH  22  23
ATOM     23  C   UNL A   1      38.287  21.123  25.386  1.00  0.00     0.202 C 
BRANCH  23  24
ATOM     24  C   UNL A   1      39.103  19.824  25.407  1.00  0.00     0.261 C 
BRANCH  24  25
ATOM     25  O   UNL A   1      39.923  19.715  26.578  1.00  0.00    -0.460 OA
BRANCH  25  26
ATOM     26  C   UNL A   1      41.246  19.626  26.309  1.00  0.00     0.338 C 
ATOM     27  O   UNL A   1      41.852  18.678  25.825  1.00  0.00    -0.246 OA
BRANCH  26  28
ATOM     28  C   UNL A   1      41.883  20.934  26.523  1.00  0.00     0.060 A 
ATOM     29  C   UNL A   1      42.145  21.306  27.848  1.00  0.00     0.016 A 
ATOM     30  C   UNL A   1      42.170  21.800  25.466  1.00  0.00     0.016 A 
ATOM     31  C   UNL A   1      42.649  22.571  28.127  1.00  0.00     0.010 A 
ATOM     32  C   UNL A   1      42.664  23.077  25.749  1.00  0.00     0.010 A 
ATOM     33  C   UNL A   1      42.869  23.478  27.081  1.00  0.00    -0.014 A 
BRANCH  33  34
ATOM     34  C   UNL A   1      43.147  24.893  27.411  1.00  0.00     0.031 A 
ATOM     35  C   UNL A   1      44.510  25.450  27.109  1.00  0.00     0.074 A 
ATOM     36  C   UNL A   1      42.183  25.685  27.915  1.00  0.00     0.049 A 
ATOM     37  N   UNL A   1      44.974  26.659  27.296  1.00  0.00    -0.248 NA
ATOM     38  C   UNL A   1      45.481  24.517  26.516  1.00  0.00     0.031 C 
ATOM     39  C   UNL A   1      40.814  25.266  28.205  1.00  0.00     0.029 A 
ATOM     40  N   UNL A   1      42.216  27.009  28.267  1.00  0.00    -0.354 N 
ATOM     41  C   UNL A   1      46.288  26.630  26.846  1.00  0.00     0.074 A 
ATOM     42  C   UNL A   1      46.559  25.280  26.406  1.00  0.00     0.031 C 
ATOM     43  C   UNL A   1      40.134  26.318  28.695  1.00  0.00     0.029 A 
ATOM     44  C   UNL A   1      41.028  27.471  28.777  1.00  0.00     0.049 A 
ATOM     45  H   UNL A   1      43.014  27.576  28.165  1.00  0.00     0.167 HD
ATOM     46  C   UNL A   1      47.184  27.643  26.795  1.00  0.00     0.037 A 
ATOM     47  C   UNL A   1      40.708  28.684  29.266  1.00  0.00     0.037 A 
ATOM     48  C   UNL A   1      46.910  28.985  27.233  1.00  0.00     0.049 A 
ATOM     49  C   UNL A   1      41.746  29.774  29.264  1.00  0.00     0.074 A 
ATOM     50  C   UNL A   1      47.744  30.090  27.206  1.00  0.00     0.029 A 
ATOM     51  N   UNL A   1      45.709  29.404  27.785  1.00  0.00    -0.354 N 
ATOM     52  N   UNL A   1      42.976  29.747  28.812  1.00  0.00    -0.248 NA
ATOM     53  C   UNL A   1      41.349  31.067  29.841  1.00  0.00     0.031 C 
ATOM     54  C   UNL A   1      47.062  31.165  27.786  1.00  0.00     0.029 A 
ATOM     55  C   UNL A   1      45.789  30.743  28.130  1.00  0.00     0.049 A 
ATOM     56  H   UNL A   1      44.917  28.833  27.914  1.00  0.00     0.167 HD
ATOM     57  C   UNL A   1      43.490  31.020  29.021  1.00  0.00     0.074 A 
ATOM     58  C   UNL A   1      42.434  31.800  29.634  1.00  0.00     0.031 C 
ATOM     59  C   UNL A   1      44.723  31.502  28.733  1.00  0.00     0.037 A 
BRANCH  46  60
ATOM     60  C   UNL A   1      48.554  27.326  26.275  1.00  0.00     0.057 A 
ATOM     61  C   UNL A   1      49.602  26.952  27.127  1.00  0.00     0.134 A 
ATOM     62  C   UNL A   1      48.823  27.372  24.901  1.00  0.00     0.134 A 
ATOM     63  F   UNL A   1      49.415  26.904  28.455  1.00  0.00    -0.206 F 
ATOM     64  C   UNL A   1      50.874  26.657  26.633  1.00  0.00     0.040 A 
ATOM     65  C   UNL A   1      50.084  27.056  24.393  1.00  0.00     0.040 A 
ATOM     66  F   UNL A   1      47.863  27.721  24.032  1.00  0.00    -0.206 F 
ATOM     67  C   UNL A   1      51.116  26.703  25.260  1.00  0.00     0.006 A 
ENDBRANCH  46  60
BRANCH  47  68
ATOM     68  C   UNL A   1      39.348  28.934  29.804  1.00  0.00     0.057 A 
ATOM     69  C   UNL A   1      39.024  28.629  31.131  1.00  0.00     0.134 A 
ATOM     70  C   UNL A   1      38.333  29.465  28.999  1.00  0.00     0.134 A 
ATOM     71  F   UNL A   1      39.945  28.096  31.945  1.00  0.00    -0.206 F 
ATOM     72  C   UNL A   1      37.736  28.828  31.633  1.00  0.00     0.040 A 
ATOM     73  C   UNL A   1      37.048  29.691  29.493  1.00  0.00     0.040 A 
ATOM     74  F   UNL A   1      38.580  29.779  27.718  1.00  0.00    -0.206 F 
ATOM     75  C   UNL A   1      36.745  29.366  30.814  1.00  0.00     0.006 A 
ENDBRANCH  47  68
BRANCH  59  76
ATOM     76  C   UNL A   1      44.987  32.947  29.042  1.00  0.00     0.057 A 
ATOM     77  C   UNL A   1      45.577  33.348  30.247  1.00  0.00     0.134 A 
ATOM     78  C   UNL A   1      44.685  33.943  28.105  1.00  0.00     0.134 A 
ATOM     79  F   UNL A   1      45.878  32.444  31.191  1.00  0.00    -0.206 F 
ATOM     80  C   UNL A   1      45.839  34.693  30.517  1.00  0.00     0.040 A 
ATOM     81  C   UNL A   1      44.967  35.287  28.353  1.00  0.00     0.040 A 
ATOM     82  F   UNL A   1      44.128  33.623  26.927  1.00  0.00    -0.206 F 
ATOM     83  C   UNL A   1      45.540  35.666  29.565  1.00  0.00     0.006 A 
ENDBRANCH  59  76
ENDBRANCH  33  34
ENDBRANCH  26  28
ENDBRANCH  25  26
ENDBRANCH  24  25
ENDBRANCH  23  24
ENDBRANCH  22  23
ENDBRANCH   1  22
TORSDOF 17
ENDMDL
