MODEL 1
REMARK VINA RESULT:     -11.3      0.000      0.000
REMARK SMILES C[C@]1(C(=O)NCc2ccc(C(=O)OCCOCCOC(=O)c3ccc(-c4c5nc(c(-c6c(F)cccc6F)c6ccc([nH]6)c(-c6c(F)cccc6F)c6nc(c(-c7c(F)cccc7F)c7ccc4[nH]7)C=C6)C=C5)cc3)o2)CCC[NH2+]C1
REMARK SMILES IDX 15 1 14 2 13 3 11 4 12 5 10 6 7 7 8 8 76 9 9 10 6 11 5 12
REMARK SMILES IDX 3 13 4 14 2 16 1 17 77 18 81 19 78 20 80 21 79 22 16 25
REMARK SMILES IDX 17 26 18 27 19 28 20 29 21 30 22 31 23 32 75 33 24 34 74 35
REMARK SMILES IDX 25 36 26 37 27 38 68 39 28 40 73 41 67 42 69 43 29 44 72 45
REMARK SMILES IDX 66 46 65 47 30 49 56 50 39 51 55 52 40 53 43 54 54 55 70 56
REMARK SMILES IDX 41 57 42 58 53 60 71 61 44 62 31 63 32 64 37 65 33 66 34 67
REMARK SMILES IDX 36 68 38 69 35 70 57 71 58 72 63 73 59 74 60 75 62 76 64 77
REMARK SMILES IDX 61 78 45 79 46 80 51 81 47 82 48 83 50 84 52 85 49 86
REMARK H PARENT 5 15 80 23 80 24 69 48 43 59
REMARK Flexibility Score: inf
ROOT
ATOM      1  C   UNL A   1      42.904  19.218  25.472  1.00  0.00     0.202 C 
ENDROOT
BRANCH   1   2
ATOM      2  C   UNL A   1      42.270  19.914  26.680  1.00  0.00     0.261 C 
BRANCH   2   3
ATOM      3  O   UNL A   1      41.060  20.577  26.276  1.00  0.00    -0.457 OA
BRANCH   3   4
ATOM      4  C   UNL A   1      40.594  21.542  27.121  1.00  0.00     0.374 C 
ATOM      5  O   UNL A   1      41.119  21.859  28.182  1.00  0.00    -0.242 OA
BRANCH   4   6
ATOM      6  C   UNL A   1      39.477  22.213  26.498  1.00  0.00     0.211 A 
ATOM      7  C   UNL A   1      37.591  22.258  25.352  1.00  0.00     0.124 A 
ATOM      8  C   UNL A   1      37.779  23.533  25.845  1.00  0.00     0.048 A 
ATOM      9  O   UNL A   1      38.631  21.462  25.726  1.00  0.00    -0.452 OA
ATOM     10  C   UNL A   1      38.984  23.503  26.586  1.00  0.00     0.058 A 
BRANCH   7  11
ATOM     11  C   UNL A   1      36.517  21.598  24.561  1.00  0.00     0.191 C 
BRANCH  11  12
ATOM     12  N   UNL A   1      35.905  22.578  23.696  1.00  0.00    -0.348 N 
ATOM     13  C   UNL A   1      34.605  22.890  23.455  1.00  0.00     0.232 C 
ATOM     14  O   UNL A   1      34.413  23.518  22.409  1.00  0.00    -0.274 OA
ATOM     15  H   UNL A   1      36.549  23.122  23.186  1.00  0.00     0.163 HD
BRANCH  13  16
ATOM     16  C   UNL A   1      33.455  22.486  24.410  1.00  0.00     0.095 C 
ATOM     17  C   UNL A   1      33.218  20.964  24.323  1.00  0.00     0.028 C 
ATOM     18  C   UNL A   1      33.750  22.905  25.869  1.00  0.00     0.028 C 
ATOM     19  C   UNL A   1      32.137  23.184  23.958  1.00  0.00     0.277 C 
ATOM     20  C   UNL A   1      33.674  24.419  26.062  1.00  0.00     0.063 C 
ATOM     21  N   UNL A   1      32.088  24.628  24.203  1.00  0.00    -0.345 N 
ATOM     22  C   UNL A   1      32.332  24.968  25.596  1.00  0.00     0.260 C 
ATOM     23  H   UNL A   1      32.796  25.081  23.627  1.00  0.00     0.346 HD
ATOM     24  H   UNL A   1      31.149  24.950  23.966  1.00  0.00     0.346 HD
ENDBRANCH  13  16
ENDBRANCH  11  12
ENDBRANCH   7  11
ENDBRANCH   4   6
ENDBRANCH   3   4
ENDBRANCH   2   3
ENDBRANCH   1   2
BRANCH   1  25
ATOM     25  O   UNL A   1      43.705  20.082  24.660  1.00  0.00    -0.374 OA
BRANCH  25  26
ATOM     26  C   UNL A   1      44.293  21.205  25.320  1.00  0.00     0.202 C 
BRANCH  26  27
ATOM     27  C   UNL A   1      44.666  22.362  24.389  1.00  0.00     0.261 C 
BRANCH  27  28
ATOM     28  O   UNL A   1      43.796  23.488  24.601  1.00  0.00    -0.460 OA
BRANCH  28  29
ATOM     29  C   UNL A   1      44.420  24.618  25.008  1.00  0.00     0.338 C 
ATOM     30  O   UNL A   1      45.497  25.044  24.628  1.00  0.00    -0.246 OA
BRANCH  29  31
ATOM     31  C   UNL A   1      43.535  25.392  25.903  1.00  0.00     0.060 A 
ATOM     32  C   UNL A   1      43.827  26.751  26.066  1.00  0.00     0.016 A 
ATOM     33  C   UNL A   1      42.493  24.800  26.624  1.00  0.00     0.016 A 
ATOM     34  C   UNL A   1      43.127  27.508  27.000  1.00  0.00     0.010 A 
ATOM     35  C   UNL A   1      41.792  25.562  27.567  1.00  0.00     0.010 A 
ATOM     36  C   UNL A   1      42.138  26.907  27.790  1.00  0.00    -0.014 A 
BRANCH  36  37
ATOM     37  C   UNL A   1      41.605  27.648  28.958  1.00  0.00     0.031 A 
ATOM     38  C   UNL A   1      42.312  27.523  30.281  1.00  0.00     0.074 A 
ATOM     39  C   UNL A   1      40.547  28.468  28.835  1.00  0.00     0.049 A 
ATOM     40  N   UNL A   1      42.053  28.112  31.420  1.00  0.00    -0.248 NA
ATOM     41  C   UNL A   1      43.467  26.612  30.322  1.00  0.00     0.031 C 
ATOM     42  C   UNL A   1      39.793  28.696  27.605  1.00  0.00     0.029 A 
ATOM     43  N   UNL A   1      39.930  29.267  29.764  1.00  0.00    -0.354 N 
ATOM     44  C   UNL A   1      43.011  27.645  32.312  1.00  0.00     0.074 A 
ATOM     45  C   UNL A   1      43.835  26.698  31.592  1.00  0.00     0.031 C 
ATOM     46  C   UNL A   1      38.809  29.578  27.856  1.00  0.00     0.029 A 
ATOM     47  C   UNL A   1      38.858  29.963  29.265  1.00  0.00     0.049 A 
ATOM     48  H   UNL A   1      40.229  29.334  30.700  1.00  0.00     0.167 HD
ATOM     49  C   UNL A   1      43.198  27.983  33.610  1.00  0.00     0.037 A 
ATOM     50  C   UNL A   1      38.012  30.812  29.880  1.00  0.00     0.037 A 
ATOM     51  C   UNL A   1      42.384  28.925  34.330  1.00  0.00     0.049 A 
ATOM     52  C   UNL A   1      38.214  31.142  31.334  1.00  0.00     0.074 A 
ATOM     53  C   UNL A   1      42.503  29.343  35.644  1.00  0.00     0.029 A 
ATOM     54  N   UNL A   1      41.294  29.595  33.794  1.00  0.00    -0.354 N 
ATOM     55  N   UNL A   1      39.142  30.718  32.158  1.00  0.00    -0.248 NA
ATOM     56  C   UNL A   1      37.257  32.079  31.940  1.00  0.00     0.031 C 
ATOM     57  C   UNL A   1      41.462  30.239  35.914  1.00  0.00     0.029 A 
ATOM     58  C   UNL A   1      40.721  30.410  34.755  1.00  0.00     0.049 A 
ATOM     59  H   UNL A   1      40.975  29.504  32.867  1.00  0.00     0.167 HD
ATOM     60  C   UNL A   1      38.898  31.357  33.368  1.00  0.00     0.074 A 
ATOM     61  C   UNL A   1      37.741  32.203  33.167  1.00  0.00     0.031 C 
ATOM     62  C   UNL A   1      39.574  31.254  34.538  1.00  0.00     0.037 A 
BRANCH  49  63
ATOM     63  C   UNL A   1      44.322  27.308  34.336  1.00  0.00     0.057 A 
ATOM     64  C   UNL A   1      45.605  27.869  34.395  1.00  0.00     0.134 A 
ATOM     65  C   UNL A   1      44.118  26.088  34.991  1.00  0.00     0.134 A 
ATOM     66  F   UNL A   1      45.869  29.028  33.773  1.00  0.00    -0.206 F 
ATOM     67  C   UNL A   1      46.651  27.229  35.061  1.00  0.00     0.040 A 
ATOM     68  C   UNL A   1      45.151  25.449  35.679  1.00  0.00     0.040 A 
ATOM     69  F   UNL A   1      42.913  25.498  34.973  1.00  0.00    -0.206 F 
ATOM     70  C   UNL A   1      46.423  26.016  35.710  1.00  0.00     0.006 A 
ENDBRANCH  49  63
BRANCH  50  71
ATOM     71  C   UNL A   1      36.894  31.420  29.118  1.00  0.00     0.057 A 
ATOM     72  C   UNL A   1      36.949  32.751  28.688  1.00  0.00     0.134 A 
ATOM     73  C   UNL A   1      35.738  30.690  28.818  1.00  0.00     0.134 A 
ATOM     74  F   UNL A   1      38.021  33.506  28.966  1.00  0.00    -0.206 F 
ATOM     75  C   UNL A   1      35.887  33.339  27.999  1.00  0.00     0.040 A 
ATOM     76  C   UNL A   1      34.678  31.259  28.112  1.00  0.00     0.040 A 
ATOM     77  F   UNL A   1      35.627  29.411  29.204  1.00  0.00    -0.206 F 
ATOM     78  C   UNL A   1      34.749  32.591  27.705  1.00  0.00     0.006 A 
ENDBRANCH  50  71
BRANCH  62  79
ATOM     79  C   UNL A   1      39.102  32.104  35.680  1.00  0.00     0.057 A 
ATOM     80  C   UNL A   1      38.242  31.607  36.667  1.00  0.00     0.134 A 
ATOM     81  C   UNL A   1      39.538  33.429  35.808  1.00  0.00     0.134 A 
ATOM     82  F   UNL A   1      37.779  30.351  36.595  1.00  0.00    -0.206 F 
ATOM     83  C   UNL A   1      37.814  32.406  37.729  1.00  0.00     0.040 A 
ATOM     84  C   UNL A   1      39.136  34.230  36.877  1.00  0.00     0.040 A 
ATOM     85  F   UNL A   1      40.371  33.964  34.901  1.00  0.00    -0.206 F 
ATOM     86  C   UNL A   1      38.265  33.720  37.838  1.00  0.00     0.006 A 
ENDBRANCH  62  79
ENDBRANCH  36  37
ENDBRANCH  29  31
ENDBRANCH  28  29
ENDBRANCH  27  28
ENDBRANCH  26  27
ENDBRANCH  25  26
ENDBRANCH   1  25
TORSDOF 17
ENDMDL
MODEL 2
REMARK VINA RESULT:     -11.0      5.276     10.718
REMARK SMILES C[C@]1(C(=O)NCc2ccc(C(=O)OCCOCCOC(=O)c3ccc(-c4c5nc(c(-c6c(F)cccc6F)c6ccc([nH]6)c(-c6c(F)cccc6F)c6nc(c(-c7c(F)cccc7F)c7ccc4[nH]7)C=C6)C=C5)cc3)o2)CCC[NH2+]C1
REMARK SMILES IDX 15 1 14 2 13 3 11 4 12 5 10 6 7 7 8 8 76 9 9 10 6 11 5 12
REMARK SMILES IDX 3 13 4 14 2 16 1 17 77 18 81 19 78 20 80 21 79 22 16 25
REMARK SMILES IDX 17 26 18 27 19 28 20 29 21 30 22 31 23 32 75 33 24 34 74 35
REMARK SMILES IDX 25 36 26 37 27 38 68 39 28 40 73 41 67 42 69 43 29 44 72 45
REMARK SMILES IDX 66 46 65 47 30 49 56 50 39 51 55 52 40 53 43 54 54 55 70 56
REMARK SMILES IDX 41 57 42 58 53 60 71 61 44 62 31 63 32 64 37 65 33 66 34 67
REMARK SMILES IDX 36 68 38 69 35 70 57 71 58 72 63 73 59 74 60 75 62 76 64 77
REMARK SMILES IDX 61 78 45 79 46 80 51 81 47 82 48 83 50 84 52 85 49 86
REMARK H PARENT 5 15 80 23 80 24 69 48 43 59
REMARK Flexibility Score: inf
ROOT
ATOM      1  C   UNL A   1      33.139  35.705  30.915  1.00  0.00     0.202 C 
ENDROOT
BRANCH   1   2
ATOM      2  C   UNL A   1      33.245  35.711  29.387  1.00  0.00     0.261 C 
BRANCH   2   3
ATOM      3  O   UNL A   1      33.952  34.538  28.947  1.00  0.00    -0.457 OA
BRANCH   3   4
ATOM      4  C   UNL A   1      33.245  33.668  28.169  1.00  0.00     0.374 C 
ATOM      5  O   UNL A   1      32.191  33.930  27.603  1.00  0.00    -0.242 OA
BRANCH   4   6
ATOM      6  C   UNL A   1      34.007  32.450  28.016  1.00  0.00     0.211 A 
ATOM      7  C   UNL A   1      34.321  30.400  27.261  1.00  0.00     0.124 A 
ATOM      8  C   UNL A   1      35.528  30.811  27.787  1.00  0.00     0.048 A 
ATOM      9  O   UNL A   1      33.390  31.382  27.421  1.00  0.00    -0.452 OA
ATOM     10  C   UNL A   1      35.330  32.129  28.265  1.00  0.00     0.058 A 
BRANCH   7  11
ATOM     11  C   UNL A   1      33.859  29.173  26.559  1.00  0.00     0.191 C 
BRANCH  11  12
ATOM     12  N   UNL A   1      33.878  29.413  25.135  1.00  0.00    -0.348 N 
ATOM     13  C   UNL A   1      33.616  28.605  24.075  1.00  0.00     0.232 C 
ATOM     14  O   UNL A   1      34.066  29.008  22.999  1.00  0.00    -0.274 OA
ATOM     15  H   UNL A   1      34.126  30.333  24.887  1.00  0.00     0.163 HD
BRANCH  13  16
ATOM     16  C   UNL A   1      32.822  27.282  24.206  1.00  0.00     0.095 C 
ATOM     17  C   UNL A   1      33.651  26.256  25.007  1.00  0.00     0.028 C 
ATOM     18  C   UNL A   1      31.445  27.504  24.873  1.00  0.00     0.028 C 
ATOM     19  C   UNL A   1      32.587  26.676  22.789  1.00  0.00     0.277 C 
ATOM     20  C   UNL A   1      30.475  28.253  23.959  1.00  0.00     0.063 C 
ATOM     21  N   UNL A   1      31.615  27.399  21.963  1.00  0.00    -0.345 N 
ATOM     22  C   UNL A   1      30.325  27.547  22.617  1.00  0.00     0.260 C 
ATOM     23  H   UNL A   1      31.986  28.326  21.758  1.00  0.00     0.346 HD
ATOM     24  H   UNL A   1      31.470  26.856  21.112  1.00  0.00     0.346 HD
ENDBRANCH  13  16
ENDBRANCH  11  12
ENDBRANCH   7  11
ENDBRANCH   4   6
ENDBRANCH   3   4
ENDBRANCH   2   3
ENDBRANCH   1   2
BRANCH   1  25
ATOM     25  O   UNL A   1      34.179  34.970  31.565  1.00  0.00    -0.374 OA
BRANCH  25  26
ATOM     26  C   UNL A   1      33.814  34.279  32.762  1.00  0.00     0.202 C 
BRANCH  26  27
ATOM     27  C   UNL A   1      35.000  33.824  33.617  1.00  0.00     0.261 C 
BRANCH  27  28
ATOM     28  O   UNL A   1      35.475  32.537  33.183  1.00  0.00    -0.460 OA
BRANCH  28  29
ATOM     29  C   UNL A   1      36.652  32.154  33.730  1.00  0.00     0.338 C 
ATOM     30  O   UNL A   1      36.993  32.258  34.896  1.00  0.00    -0.246 OA
BRANCH  29  31
ATOM     31  C   UNL A   1      37.462  31.423  32.733  1.00  0.00     0.060 A 
ATOM     32  C   UNL A   1      38.413  30.521  33.224  1.00  0.00     0.016 A 
ATOM     33  C   UNL A   1      37.353  31.660  31.360  1.00  0.00     0.016 A 
ATOM     34  C   UNL A   1      39.306  29.906  32.352  1.00  0.00     0.010 A 
ATOM     35  C   UNL A   1      38.255  31.043  30.483  1.00  0.00     0.010 A 
ATOM     36  C   UNL A   1      39.263  30.199  30.982  1.00  0.00    -0.014 A 
BRANCH  36  37
ATOM     37  C   UNL A   1      40.385  29.759  30.120  1.00  0.00     0.031 A 
ATOM     38  C   UNL A   1      41.507  30.722  29.839  1.00  0.00     0.074 A 
ATOM     39  C   UNL A   1      40.440  28.503  29.643  1.00  0.00     0.049 A 
ATOM     40  N   UNL A   1      42.606  30.539  29.154  1.00  0.00    -0.248 NA
ATOM     41  C   UNL A   1      41.369  32.071  30.410  1.00  0.00     0.031 C 
ATOM     42  C   UNL A   1      39.433  27.469  29.866  1.00  0.00     0.029 A 
ATOM     43  N   UNL A   1      41.396  27.887  28.875  1.00  0.00    -0.354 N 
ATOM     44  C   UNL A   1      43.291  31.748  29.211  1.00  0.00     0.074 A 
ATOM     45  C   UNL A   1      42.467  32.666  29.967  1.00  0.00     0.031 C 
ATOM     46  C   UNL A   1      39.823  26.342  29.243  1.00  0.00     0.029 A 
ATOM     47  C   UNL A   1      41.098  26.582  28.570  1.00  0.00     0.049 A 
ATOM     48  H   UNL A   1      42.216  28.338  28.571  1.00  0.00     0.167 HD
ATOM     49  C   UNL A   1      44.501  32.062  28.692  1.00  0.00     0.037 A 
ATOM     50  C   UNL A   1      41.778  25.687  27.829  1.00  0.00     0.037 A 
ATOM     51  C   UNL A   1      45.325  31.153  27.941  1.00  0.00     0.049 A 
ATOM     52  C   UNL A   1      43.102  26.071  27.227  1.00  0.00     0.074 A 
ATOM     53  C   UNL A   1      46.573  31.375  27.386  1.00  0.00     0.029 A 
ATOM     54  N   UNL A   1      44.979  29.846  27.637  1.00  0.00    -0.354 N 
ATOM     55  N   UNL A   1      43.753  27.206  27.315  1.00  0.00    -0.248 NA
ATOM     56  C   UNL A   1      43.793  25.044  26.434  1.00  0.00     0.031 C 
ATOM     57  C   UNL A   1      46.966  30.212  26.714  1.00  0.00     0.029 A 
ATOM     58  C   UNL A   1      45.981  29.253  26.888  1.00  0.00     0.049 A 
ATOM     59  H   UNL A   1      44.143  29.403  27.912  1.00  0.00     0.167 HD
ATOM     60  C   UNL A   1      44.940  27.020  26.614  1.00  0.00     0.074 A 
ATOM     61  C   UNL A   1      44.921  25.661  26.116  1.00  0.00     0.031 C 
ATOM     62  C   UNL A   1      45.952  27.896  26.406  1.00  0.00     0.037 A 
BRANCH  49  63
ATOM     63  C   UNL A   1      44.994  33.460  28.910  1.00  0.00     0.057 A 
ATOM     64  C   UNL A   1      45.798  33.798  30.007  1.00  0.00     0.134 A 
ATOM     65  C   UNL A   1      44.670  34.480  28.006  1.00  0.00     0.134 A 
ATOM     66  F   UNL A   1      46.129  32.870  30.918  1.00  0.00    -0.206 F 
ATOM     67  C   UNL A   1      46.242  35.106  30.211  1.00  0.00     0.040 A 
ATOM     68  C   UNL A   1      45.127  35.786  28.187  1.00  0.00     0.040 A 
ATOM     69  F   UNL A   1      43.906  34.223  26.934  1.00  0.00    -0.206 F 
ATOM     70  C   UNL A   1      45.910  36.103  29.295  1.00  0.00     0.006 A 
ENDBRANCH  49  63
BRANCH  50  71
ATOM     71  C   UNL A   1      41.221  24.329  27.617  1.00  0.00     0.057 A 
ATOM     72  C   UNL A   1      41.712  23.225  28.323  1.00  0.00     0.134 A 
ATOM     73  C   UNL A   1      40.195  24.100  26.692  1.00  0.00     0.134 A 
ATOM     74  F   UNL A   1      42.711  23.378  29.206  1.00  0.00    -0.206 F 
ATOM     75  C   UNL A   1      41.215  21.939  28.105  1.00  0.00     0.040 A 
ATOM     76  C   UNL A   1      39.674  22.824  26.479  1.00  0.00     0.040 A 
ATOM     77  F   UNL A   1      39.683  25.119  25.985  1.00  0.00    -0.206 F 
ATOM     78  C   UNL A   1      40.190  21.736  27.184  1.00  0.00     0.006 A 
ENDBRANCH  50  71
BRANCH  62  79
ATOM     79  C   UNL A   1      47.142  27.399  25.637  1.00  0.00     0.057 A 
ATOM     80  C   UNL A   1      47.261  27.589  24.255  1.00  0.00     0.134 A 
ATOM     81  C   UNL A   1      48.193  26.748  26.295  1.00  0.00     0.134 A 
ATOM     82  F   UNL A   1      46.284  28.195  23.565  1.00  0.00    -0.206 F 
ATOM     83  C   UNL A   1      48.375  27.128  23.550  1.00  0.00     0.040 A 
ATOM     84  C   UNL A   1      49.321  26.303  25.606  1.00  0.00     0.040 A 
ATOM     85  F   UNL A   1      48.144  26.542  27.620  1.00  0.00    -0.206 F 
ATOM     86  C   UNL A   1      49.411  26.487  24.227  1.00  0.00     0.006 A 
ENDBRANCH  62  79
ENDBRANCH  36  37
ENDBRANCH  29  31
ENDBRANCH  28  29
ENDBRANCH  27  28
ENDBRANCH  26  27
ENDBRANCH  25  26
ENDBRANCH   1  25
TORSDOF 17
ENDMDL
MODEL 3
REMARK VINA RESULT:     -10.8      1.465      2.244
REMARK SMILES C[C@]1(C(=O)NCc2ccc(C(=O)OCCOCCOC(=O)c3ccc(-c4c5nc(c(-c6c(F)cccc6F)c6ccc([nH]6)c(-c6c(F)cccc6F)c6nc(c(-c7c(F)cccc7F)c7ccc4[nH]7)C=C6)C=C5)cc3)o2)CCC[NH2+]C1
REMARK SMILES IDX 15 1 14 2 13 3 11 4 12 5 10 6 7 7 8 8 76 9 9 10 6 11 5 12
REMARK SMILES IDX 3 13 4 14 2 16 1 17 77 18 81 19 78 20 80 21 79 22 16 25
REMARK SMILES IDX 17 26 18 27 19 28 20 29 21 30 22 31 23 32 75 33 24 34 74 35
REMARK SMILES IDX 25 36 26 37 27 38 68 39 28 40 73 41 67 42 69 43 29 44 72 45
REMARK SMILES IDX 66 46 65 47 30 49 56 50 39 51 55 52 40 53 43 54 54 55 70 56
REMARK SMILES IDX 41 57 42 58 53 60 71 61 44 62 31 63 32 64 37 65 33 66 34 67
REMARK SMILES IDX 36 68 38 69 35 70 57 71 58 72 63 73 59 74 60 75 62 76 64 77
REMARK SMILES IDX 61 78 45 79 46 80 51 81 47 82 48 83 50 84 52 85 49 86
REMARK H PARENT 5 15 80 23 80 24 69 48 43 59
REMARK Flexibility Score: inf
ROOT
ATOM      1  C   UNL A   1      40.418  20.431  26.249  1.00  0.00     0.202 C 
ENDROOT
BRANCH   1   2
ATOM      2  C   UNL A   1      39.861  21.836  26.498  1.00  0.00     0.261 C 
BRANCH   2   3
ATOM      3  O   UNL A   1      38.601  21.984  25.821  1.00  0.00    -0.457 OA
BRANCH   3   4
ATOM      4  C   UNL A   1      37.994  23.200  25.941  1.00  0.00     0.374 C 
ATOM      5  O   UNL A   1      38.448  24.152  26.563  1.00  0.00    -0.242 OA
BRANCH   4   6
ATOM      6  C   UNL A   1      36.813  23.220  25.109  1.00  0.00     0.211 A 
ATOM      7  C   UNL A   1      34.836  23.993  24.506  1.00  0.00     0.124 A 
ATOM      8  C   UNL A   1      35.240  23.134  23.505  1.00  0.00     0.048 A 
ATOM      9  O   UNL A   1      35.776  24.028  25.491  1.00  0.00    -0.452 OA
ATOM     10  C   UNL A   1      36.512  22.643  23.887  1.00  0.00     0.058 A 
BRANCH   7  11
ATOM     11  C   UNL A   1      33.652  24.872  24.704  1.00  0.00     0.191 C 
BRANCH  11  12
ATOM     12  N   UNL A   1      34.035  26.239  24.438  1.00  0.00    -0.348 N 
ATOM     13  C   UNL A   1      33.304  27.376  24.303  1.00  0.00     0.232 C 
ATOM     14  O   UNL A   1      33.891  28.299  23.730  1.00  0.00    -0.274 OA
ATOM     15  H   UNL A   1      35.005  26.371  24.337  1.00  0.00     0.163 HD
BRANCH  13  16
ATOM     16  C   UNL A   1      31.849  27.503  24.820  1.00  0.00     0.095 C 
ATOM     17  C   UNL A   1      30.935  26.533  24.043  1.00  0.00     0.028 C 
ATOM     18  C   UNL A   1      31.757  27.235  26.340  1.00  0.00     0.028 C 
ATOM     19  C   UNL A   1      31.327  28.946  24.545  1.00  0.00     0.277 C 
ATOM     20  C   UNL A   1      32.382  28.360  27.164  1.00  0.00     0.063 C 
ATOM     21  N   UNL A   1      31.920  29.988  25.389  1.00  0.00    -0.345 N 
ATOM     22  C   UNL A   1      31.771  29.710  26.809  1.00  0.00     0.260 C 
ATOM     23  H   UNL A   1      32.913  30.059  25.171  1.00  0.00     0.346 HD
ATOM     24  H   UNL A   1      31.429  30.861  25.192  1.00  0.00     0.346 HD
ENDBRANCH  13  16
ENDBRANCH  11  12
ENDBRANCH   7  11
ENDBRANCH   4   6
ENDBRANCH   3   4
ENDBRANCH   2   3
ENDBRANCH   1   2
BRANCH   1  25
ATOM     25  O   UNL A   1      41.749  20.420  25.725  1.00  0.00    -0.374 OA
BRANCH  25  26
ATOM     26  C   UNL A   1      42.650  21.391  26.263  1.00  0.00     0.202 C 
BRANCH  26  27
ATOM     27  C   UNL A   1      43.638  21.969  25.247  1.00  0.00     0.261 C 
BRANCH  27  28
ATOM     28  O   UNL A   1      43.155  23.219  24.721  1.00  0.00    -0.460 OA
BRANCH  28  29
ATOM     29  C   UNL A   1      43.907  24.297  25.043  1.00  0.00     0.338 C 
ATOM     30  O   UNL A   1      45.013  24.580  24.616  1.00  0.00    -0.246 OA
BRANCH  29  31
ATOM     31  C   UNL A   1      43.133  25.216  25.904  1.00  0.00     0.060 A 
ATOM     32  C   UNL A   1      43.739  26.431  26.243  1.00  0.00     0.016 A 
ATOM     33  C   UNL A   1      41.883  24.878  26.430  1.00  0.00     0.016 A 
ATOM     34  C   UNL A   1      43.132  27.282  27.163  1.00  0.00     0.010 A 
ATOM     35  C   UNL A   1      41.274  25.732  27.358  1.00  0.00     0.010 A 
ATOM     36  C   UNL A   1      41.920  26.915  27.762  1.00  0.00    -0.014 A 
BRANCH  36  37
ATOM     37  C   UNL A   1      41.436  27.687  28.930  1.00  0.00     0.031 A 
ATOM     38  C   UNL A   1      42.167  27.558  30.239  1.00  0.00     0.074 A 
ATOM     39  C   UNL A   1      40.401  28.538  28.818  1.00  0.00     0.049 A 
ATOM     40  N   UNL A   1      41.950  28.170  31.375  1.00  0.00    -0.248 NA
ATOM     41  C   UNL A   1      43.294  26.612  30.269  1.00  0.00     0.031 C 
ATOM     42  C   UNL A   1      39.628  28.774  27.600  1.00  0.00     0.029 A 
ATOM     43  N   UNL A   1      39.829  29.368  29.748  1.00  0.00    -0.354 N 
ATOM     44  C   UNL A   1      42.912  27.685  32.253  1.00  0.00     0.074 A 
ATOM     45  C   UNL A   1      43.690  26.703  31.530  1.00  0.00     0.031 C 
ATOM     46  C   UNL A   1      38.677  29.689  27.860  1.00  0.00     0.029 A 
ATOM     47  C   UNL A   1      38.769  30.091  29.262  1.00  0.00     0.049 A 
ATOM     48  H   UNL A   1      40.150  29.438  30.677  1.00  0.00     0.167 HD
ATOM     49  C   UNL A   1      43.137  28.035  33.542  1.00  0.00     0.037 A 
ATOM     50  C   UNL A   1      37.963  30.973  29.882  1.00  0.00     0.037 A 
ATOM     51  C   UNL A   1      42.368  29.011  34.266  1.00  0.00     0.049 A 
ATOM     52  C   UNL A   1      38.205  31.316  31.328  1.00  0.00     0.074 A 
ATOM     53  C   UNL A   1      42.528  29.442  35.571  1.00  0.00     0.029 A 
ATOM     54  N   UNL A   1      41.289  29.707  33.744  1.00  0.00    -0.354 N 
ATOM     55  N   UNL A   1      39.137  30.875  32.138  1.00  0.00    -0.248 NA
ATOM     56  C   UNL A   1      37.291  32.291  31.940  1.00  0.00     0.031 C 
ATOM     57  C   UNL A   1      41.521  30.374  35.850  1.00  0.00     0.029 A 
ATOM     58  C   UNL A   1      40.762  30.553  34.705  1.00  0.00     0.049 A 
ATOM     59  H   UNL A   1      40.946  29.614  32.825  1.00  0.00     0.167 HD
ATOM     60  C   UNL A   1      38.940  31.537  33.343  1.00  0.00     0.074 A 
ATOM     61  C   UNL A   1      37.805  32.416  33.155  1.00  0.00     0.031 C 
ATOM     62  C   UNL A   1      39.637  31.428  34.500  1.00  0.00     0.037 A 
BRANCH  49  63
ATOM     63  C   UNL A   1      44.255  27.335  34.254  1.00  0.00     0.057 A 
ATOM     64  C   UNL A   1      45.582  27.776  34.158  1.00  0.00     0.134 A 
ATOM     65  C   UNL A   1      44.001  26.212  35.052  1.00  0.00     0.134 A 
ATOM     66  F   UNL A   1      45.893  28.835  33.395  1.00  0.00    -0.206 F 
ATOM     67  C   UNL A   1      46.621  27.111  34.812  1.00  0.00     0.040 A 
ATOM     68  C   UNL A   1      45.029  25.553  35.728  1.00  0.00     0.040 A 
ATOM     69  F   UNL A   1      42.753  25.740  35.186  1.00  0.00    -0.206 F 
ATOM     70  C   UNL A   1      46.343  25.998  35.604  1.00  0.00     0.006 A 
ENDBRANCH  49  63
BRANCH  50  71
ATOM     71  C   UNL A   1      36.848  31.606  29.136  1.00  0.00     0.057 A 
ATOM     72  C   UNL A   1      36.938  32.926  28.679  1.00  0.00     0.134 A 
ATOM     73  C   UNL A   1      35.660  30.911  28.878  1.00  0.00     0.134 A 
ATOM     74  F   UNL A   1      38.042  33.649  28.917  1.00  0.00    -0.206 F 
ATOM     75  C   UNL A   1      35.881  33.538  28.004  1.00  0.00     0.040 A 
ATOM     76  C   UNL A   1      34.603  31.504  28.186  1.00  0.00     0.040 A 
ATOM     77  F   UNL A   1      35.515  29.644  29.291  1.00  0.00    -0.206 F 
ATOM     78  C   UNL A   1      34.710  32.825  27.752  1.00  0.00     0.006 A 
ENDBRANCH  50  71
BRANCH  62  79
ATOM     79  C   UNL A   1      39.216  32.309  35.640  1.00  0.00     0.057 A 
ATOM     80  C   UNL A   1      38.313  31.873  36.618  1.00  0.00     0.134 A 
ATOM     81  C   UNL A   1      39.745  33.598  35.776  1.00  0.00     0.134 A 
ATOM     82  F   UNL A   1      37.762  30.653  36.538  1.00  0.00    -0.206 F 
ATOM     83  C   UNL A   1      37.933  32.698  37.678  1.00  0.00     0.040 A 
ATOM     84  C   UNL A   1      39.390  34.424  36.844  1.00  0.00     0.040 A 
ATOM     85  F   UNL A   1      40.622  34.074  34.879  1.00  0.00    -0.206 F 
ATOM     86  C   UNL A   1      38.476  33.976  37.795  1.00  0.00     0.006 A 
ENDBRANCH  62  79
ENDBRANCH  36  37
ENDBRANCH  29  31
ENDBRANCH  28  29
ENDBRANCH  27  28
ENDBRANCH  26  27
ENDBRANCH  25  26
ENDBRANCH   1  25
TORSDOF 17
ENDMDL
