MODEL 1
REMARK VINA RESULT:     -12.0      0.000      0.000
REMARK SMILES COc1cccc([C@@H]2[NH2+][C@@](C)(C(=O)OCCOCCOC(=O)c3ccc(-c4c5nc(c(-c6c(F)cccc6F)c6ccc([nH]6)c(-c6c(F)cccc6F)c6nc(c(-c7c(F)cccc7F)c7ccc4[nH]7)C=C6)C=C5)cc3)[C@@H]3C(=O)N(C)C(=O)[C@@H]32)c1O
REMARK SMILES IDX 17 1 16 2 15 3 14 4 12 5 13 6 10 7 8 8 9 9 84 10 77 13 82 14
REMARK SMILES IDX 11 15 78 16 80 17 83 18 79 19 81 20 7 21 3 22 4 23 85 24
REMARK SMILES IDX 5 25 6 26 2 27 1 28 86 29 18 31 19 32 20 33 21 34 22 35
REMARK SMILES IDX 23 36 24 37 76 38 25 39 75 40 26 41 27 42 28 43 69 44 29 45
REMARK SMILES IDX 74 46 68 47 70 48 30 49 73 50 67 51 66 52 31 54 57 55 40 56
REMARK SMILES IDX 56 57 41 58 44 59 55 60 71 61 42 62 43 63 54 65 72 66 45 67
REMARK SMILES IDX 32 68 33 69 38 70 34 71 35 72 37 73 39 74 36 75 58 76 59 77
REMARK SMILES IDX 64 78 60 79 61 80 63 81 65 82 62 83 46 84 47 85 52 86 48 87
REMARK SMILES IDX 49 88 51 89 53 90 50 91
REMARK H PARENT 9 11 9 12 86 30 70 53 44 64
REMARK Flexibility Score: inf
ROOT
ATOM      1  O   UNL A   1      32.402  30.592  26.515  1.00  0.00    -0.374 OA
ENDROOT
BRANCH   1   2
ATOM      2  C   UNL A   1      31.934  29.266  26.738  1.00  0.00     0.202 C 
BRANCH   2   3
ATOM      3  C   UNL A   1      31.630  28.376  25.528  1.00  0.00     0.261 C 
BRANCH   3   4
ATOM      4  O   UNL A   1      32.301  27.106  25.551  1.00  0.00    -0.459 OA
BRANCH   4   5
ATOM      5  C   UNL A   1      31.464  26.043  25.694  1.00  0.00     0.368 C 
ATOM      6  O   UNL A   1      30.520  26.026  26.483  1.00  0.00    -0.245 OA
BRANCH   5   7
ATOM      7  C   UNL A   1      31.814  24.805  24.823  1.00  0.00     0.204 C 
ATOM      8  C   UNL A   1      32.225  22.557  25.695  1.00  0.00     0.232 C 
ATOM      9  N   UNL A   1      31.173  23.527  25.291  1.00  0.00    -0.325 N 
ATOM     10  C   UNL A   1      33.466  23.408  25.941  1.00  0.00     0.161 C 
ATOM     11  H   UNL A   1      30.569  23.725  26.089  1.00  0.00     0.347 HD
ATOM     12  H   UNL A   1      30.620  23.130  24.532  1.00  0.00     0.347 HD
ATOM     13  C   UNL A   1      33.317  24.606  25.015  1.00  0.00     0.170 C 
ATOM     14  C   UNL A   1      34.786  22.829  25.528  1.00  0.00     0.239 C 
ATOM     15  C   UNL A   1      31.282  25.252  23.454  1.00  0.00     0.093 C 
ATOM     16  C   UNL A   1      34.199  24.259  23.849  1.00  0.00     0.240 C 
ATOM     17  N   UNL A   1      35.100  23.324  24.292  1.00  0.00    -0.285 N 
ATOM     18  O   UNL A   1      35.435  22.034  26.192  1.00  0.00    -0.274 OA
ATOM     19  O   UNL A   1      34.184  24.797  22.753  1.00  0.00    -0.274 OA
ATOM     20  C   UNL A   1      36.255  22.883  23.555  1.00  0.00     0.156 C 
BRANCH   8  21
ATOM     21  C   UNL A   1      32.467  21.346  24.789  1.00  0.00     0.056 A 
ATOM     22  C   UNL A   1      32.614  18.930  24.421  1.00  0.00     0.161 A 
ATOM     23  C   UNL A   1      32.332  19.077  23.073  1.00  0.00     0.050 A 
ATOM     24  C   UNL A   1      32.754  20.057  25.242  1.00  0.00     0.166 A 
ATOM     25  C   UNL A   1      32.149  20.359  22.561  1.00  0.00     0.005 A 
ATOM     26  C   UNL A   1      32.197  21.476  23.409  1.00  0.00     0.014 A 
BRANCH  22  27
ATOM     27  O   UNL A   1      32.817  17.675  24.940  1.00  0.00    -0.493 OA
ATOM     28  C   UNL A   1      33.315  16.777  23.939  1.00  0.00     0.278 C 
ENDBRANCH  22  27
BRANCH  24  29
ATOM     29  O   UNL A   1      33.185  19.866  26.516  1.00  0.00    -0.504 OA
ATOM     30  H   UNL A   1      34.094  19.959  26.721  1.00  0.00     0.293 HD
ENDBRANCH  24  29
ENDBRANCH   8  21
ENDBRANCH   5   7
ENDBRANCH   4   5
ENDBRANCH   3   4
ENDBRANCH   2   3
ENDBRANCH   1   2
BRANCH   1  31
ATOM     31  C   UNL A   1      31.444  31.646  26.508  1.00  0.00     0.202 C 
BRANCH  31  32
ATOM     32  C   UNL A   1      31.922  33.084  26.730  1.00  0.00     0.261 C 
BRANCH  32  33
ATOM     33  O   UNL A   1      32.293  33.339  28.094  1.00  0.00    -0.460 OA
BRANCH  33  34
ATOM     34  C   UNL A   1      33.363  34.157  28.238  1.00  0.00     0.338 C 
ATOM     35  O   UNL A   1      33.363  35.371  28.328  1.00  0.00    -0.246 OA
BRANCH  34  36
ATOM     36  C   UNL A   1      34.578  33.356  28.473  1.00  0.00     0.060 A 
ATOM     37  C   UNL A   1      34.404  32.055  28.962  1.00  0.00     0.016 A 
ATOM     38  C   UNL A   1      35.856  33.895  28.314  1.00  0.00     0.016 A 
ATOM     39  C   UNL A   1      35.507  31.305  29.353  1.00  0.00     0.010 A 
ATOM     40  C   UNL A   1      36.964  33.146  28.721  1.00  0.00     0.010 A 
ATOM     41  C   UNL A   1      36.789  31.868  29.281  1.00  0.00    -0.014 A 
BRANCH  41  42
ATOM     42  C   UNL A   1      37.911  31.178  29.957  1.00  0.00     0.031 A 
ATOM     43  C   UNL A   1      38.174  31.478  31.407  1.00  0.00     0.074 A 
ATOM     44  C   UNL A   1      38.648  30.262  29.305  1.00  0.00     0.049 A 
ATOM     45  N   UNL A   1      39.098  31.000  32.200  1.00  0.00    -0.248 NA
ATOM     46  C   UNL A   1      37.272  32.447  32.052  1.00  0.00     0.031 C 
ATOM     47  C   UNL A   1      38.454  29.856  27.915  1.00  0.00     0.029 A 
ATOM     48  N   UNL A   1      39.708  29.506  29.733  1.00  0.00    -0.354 N 
ATOM     49  C   UNL A   1      38.895  31.613  33.430  1.00  0.00     0.074 A 
ATOM     50  C   UNL A   1      37.776  32.517  33.275  1.00  0.00     0.031 C 
ATOM     51  C   UNL A   1      39.371  28.926  27.602  1.00  0.00     0.029 A 
ATOM     52  C   UNL A   1      40.233  28.694  28.759  1.00  0.00     0.049 A 
ATOM     53  H   UNL A   1      40.059  29.542  30.653  1.00  0.00     0.167 HD
ATOM     54  C   UNL A   1      39.574  31.431  34.586  1.00  0.00     0.037 A 
ATOM     55  C   UNL A   1      41.300  27.874  28.797  1.00  0.00     0.037 A 
ATOM     56  C   UNL A   1      40.680  30.523  34.738  1.00  0.00     0.049 A 
ATOM     57  C   UNL A   1      42.082  27.743  30.078  1.00  0.00     0.074 A 
ATOM     58  C   UNL A   1      41.420  30.248  35.874  1.00  0.00     0.029 A 
ATOM     59  N   UNL A   1      41.207  29.747  33.717  1.00  0.00    -0.354 N 
ATOM     60  N   UNL A   1      41.864  28.306  31.242  1.00  0.00    -0.248 NA
ATOM     61  C   UNL A   1      43.258  26.860  30.050  1.00  0.00     0.031 C 
ATOM     62  C   UNL A   1      42.427  29.340  35.529  1.00  0.00     0.029 A 
ATOM     63  C   UNL A   1      42.282  29.012  34.190  1.00  0.00     0.049 A 
ATOM     64  H   UNL A   1      40.868  29.721  32.793  1.00  0.00     0.167 HD
ATOM     65  C   UNL A   1      42.853  27.821  32.091  1.00  0.00     0.074 A 
ATOM     66  C   UNL A   1      43.665  26.912  31.309  1.00  0.00     0.031 C 
ATOM     67  C   UNL A   1      43.069  28.103  33.400  1.00  0.00     0.037 A 
BRANCH  54  68
ATOM     68  C   UNL A   1      39.159  32.250  35.772  1.00  0.00     0.057 A 
ATOM     69  C   UNL A   1      39.612  33.561  35.963  1.00  0.00     0.134 A 
ATOM     70  C   UNL A   1      38.260  31.733  36.713  1.00  0.00     0.134 A 
ATOM     71  F   UNL A   1      40.488  34.110  35.107  1.00  0.00    -0.206 F 
ATOM     72  C   UNL A   1      39.199  34.324  37.057  1.00  0.00     0.040 A 
ATOM     73  C   UNL A   1      37.820  32.493  37.798  1.00  0.00     0.040 A 
ATOM     74  F   UNL A   1      37.785  30.484  36.587  1.00  0.00    -0.206 F 
ATOM     75  C   UNL A   1      38.294  33.792  37.974  1.00  0.00     0.006 A 
ENDBRANCH  54  68
BRANCH  55  76
ATOM     76  C   UNL A   1      41.707  27.119  27.585  1.00  0.00     0.057 A 
ATOM     77  C   UNL A   1      42.515  27.703  26.603  1.00  0.00     0.134 A 
ATOM     78  C   UNL A   1      41.271  25.807  27.366  1.00  0.00     0.134 A 
ATOM     79  F   UNL A   1      42.945  28.966  26.745  1.00  0.00    -0.206 F 
ATOM     80  C   UNL A   1      42.857  27.018  25.435  1.00  0.00     0.040 A 
ATOM     81  C   UNL A   1      41.626  25.101  26.215  1.00  0.00     0.040 A 
ATOM     82  F   UNL A   1      40.495  25.190  28.268  1.00  0.00    -0.206 F 
ATOM     83  C   UNL A   1      42.414  25.711  25.240  1.00  0.00     0.006 A 
ENDBRANCH  55  76
BRANCH  67  84
ATOM     84  C   UNL A   1      44.201  27.388  34.079  1.00  0.00     0.057 A 
ATOM     85  C   UNL A   1      45.485  27.942  34.156  1.00  0.00     0.134 A 
ATOM     86  C   UNL A   1      43.990  26.150  34.698  1.00  0.00     0.134 A 
ATOM     87  F   UNL A   1      45.754  29.119  33.573  1.00  0.00    -0.206 F 
ATOM     88  C   UNL A   1      46.526  27.277  34.807  1.00  0.00     0.040 A 
ATOM     89  C   UNL A   1      45.015  25.489  35.375  1.00  0.00     0.040 A 
ATOM     90  F   UNL A   1      42.780  25.571  34.669  1.00  0.00    -0.206 F 
ATOM     91  C   UNL A   1      46.290  26.050  35.425  1.00  0.00     0.006 A 
ENDBRANCH  67  84
ENDBRANCH  41  42
ENDBRANCH  34  36
ENDBRANCH  33  34
ENDBRANCH  32  33
ENDBRANCH  31  32
ENDBRANCH   1  31
TORSDOF 17
ENDMDL
MODEL 2
REMARK VINA RESULT:     -11.9      3.955      9.627
REMARK SMILES COc1cccc([C@@H]2[NH2+][C@@](C)(C(=O)OCCOCCOC(=O)c3ccc(-c4c5nc(c(-c6c(F)cccc6F)c6ccc([nH]6)c(-c6c(F)cccc6F)c6nc(c(-c7c(F)cccc7F)c7ccc4[nH]7)C=C6)C=C5)cc3)[C@@H]3C(=O)N(C)C(=O)[C@@H]32)c1O
REMARK SMILES IDX 17 1 16 2 15 3 14 4 12 5 13 6 10 7 8 8 9 9 84 10 77 13 82 14
REMARK SMILES IDX 11 15 78 16 80 17 83 18 79 19 81 20 7 21 3 22 4 23 85 24
REMARK SMILES IDX 5 25 6 26 2 27 1 28 86 29 18 31 19 32 20 33 21 34 22 35
REMARK SMILES IDX 23 36 24 37 76 38 25 39 75 40 26 41 27 42 28 43 69 44 29 45
REMARK SMILES IDX 74 46 68 47 70 48 30 49 73 50 67 51 66 52 31 54 57 55 40 56
REMARK SMILES IDX 56 57 41 58 44 59 55 60 71 61 42 62 43 63 54 65 72 66 45 67
REMARK SMILES IDX 32 68 33 69 38 70 34 71 35 72 37 73 39 74 36 75 58 76 59 77
REMARK SMILES IDX 64 78 60 79 61 80 63 81 65 82 62 83 46 84 47 85 52 86 48 87
REMARK SMILES IDX 49 88 51 89 53 90 50 91
REMARK H PARENT 9 11 9 12 86 30 70 53 44 64
REMARK Flexibility Score: inf
ROOT
ATOM      1  O   UNL A   1      35.990  20.992  25.373  1.00  0.00    -0.374 OA
ENDROOT
BRANCH   1   2
ATOM      2  C   UNL A   1      35.535  21.868  24.349  1.00  0.00     0.202 C 
BRANCH   2   3
ATOM      3  C   UNL A   1      34.430  22.878  24.676  1.00  0.00     0.261 C 
BRANCH   3   4
ATOM      4  O   UNL A   1      33.278  22.784  23.822  1.00  0.00    -0.459 OA
BRANCH   4   5
ATOM      5  C   UNL A   1      33.121  23.850  22.990  1.00  0.00     0.368 C 
ATOM      6  O   UNL A   1      33.871  24.086  22.044  1.00  0.00    -0.245 OA
BRANCH   5   7
ATOM      7  C   UNL A   1      31.945  24.800  23.350  1.00  0.00     0.204 C 
ATOM      8  C   UNL A   1      31.603  27.022  22.388  1.00  0.00     0.232 C 
ATOM      9  N   UNL A   1      31.397  25.565  22.177  1.00  0.00    -0.325 N 
ATOM     10  C   UNL A   1      32.706  27.112  23.438  1.00  0.00     0.161 C 
ATOM     11  H   UNL A   1      31.880  25.273  21.328  1.00  0.00     0.347 HD
ATOM     12  H   UNL A   1      30.399  25.374  22.088  1.00  0.00     0.347 HD
ATOM     13  C   UNL A   1      32.562  25.849  24.274  1.00  0.00     0.170 C 
ATOM     14  C   UNL A   1      32.592  28.204  24.459  1.00  0.00     0.239 C 
ATOM     15  C   UNL A   1      30.927  23.801  23.918  1.00  0.00     0.093 C 
ATOM     16  C   UNL A   1      31.825  26.321  25.496  1.00  0.00     0.240 C 
ATOM     17  N   UNL A   1      32.022  27.676  25.585  1.00  0.00    -0.285 N 
ATOM     18  O   UNL A   1      32.935  29.363  24.278  1.00  0.00    -0.274 OA
ATOM     19  O   UNL A   1      31.260  25.611  26.313  1.00  0.00    -0.274 OA
ATOM     20  C   UNL A   1      31.669  28.485  26.722  1.00  0.00     0.156 C 
BRANCH   8  21
ATOM     21  C   UNL A   1      30.373  27.881  22.698  1.00  0.00     0.056 A 
ATOM     22  C   UNL A   1      28.894  29.773  22.218  1.00  0.00     0.161 A 
ATOM     23  C   UNL A   1      27.831  29.156  22.858  1.00  0.00     0.050 A 
ATOM     24  C   UNL A   1      30.160  29.172  22.211  1.00  0.00     0.166 A 
ATOM     25  C   UNL A   1      28.035  27.914  23.455  1.00  0.00     0.005 A 
ATOM     26  C   UNL A   1      29.283  27.278  23.360  1.00  0.00     0.014 A 
BRANCH  22  27
ATOM     27  O   UNL A   1      28.717  31.005  21.641  1.00  0.00    -0.493 OA
ATOM     28  C   UNL A   1      28.673  32.038  22.635  1.00  0.00     0.278 C 
ENDBRANCH  22  27
BRANCH  24  29
ATOM     29  O   UNL A   1      31.200  29.888  21.710  1.00  0.00    -0.504 OA
ATOM     30  H   UNL A   1      31.249  30.811  21.860  1.00  0.00     0.293 HD
ENDBRANCH  24  29
ENDBRANCH   8  21
ENDBRANCH   5   7
ENDBRANCH   4   5
ENDBRANCH   3   4
ENDBRANCH   2   3
ENDBRANCH   1   2
BRANCH   1  31
ATOM     31  C   UNL A   1      36.580  19.756  24.982  1.00  0.00     0.202 C 
BRANCH  31  32
ATOM     32  C   UNL A   1      38.106  19.621  25.011  1.00  0.00     0.261 C 
BRANCH  32  33
ATOM     33  O   UNL A   1      38.762  20.842  25.388  1.00  0.00    -0.460 OA
BRANCH  33  34
ATOM     34  C   UNL A   1      39.792  20.678  26.253  1.00  0.00     0.338 C 
ATOM     35  O   UNL A   1      40.485  19.687  26.403  1.00  0.00    -0.246 OA
BRANCH  34  36
ATOM     36  C   UNL A   1      40.117  21.963  26.896  1.00  0.00     0.060 A 
ATOM     37  C   UNL A   1      39.427  23.097  26.446  1.00  0.00     0.016 A 
ATOM     38  C   UNL A   1      41.137  22.075  27.842  1.00  0.00     0.016 A 
ATOM     39  C   UNL A   1      39.796  24.359  26.897  1.00  0.00     0.010 A 
ATOM     40  C   UNL A   1      41.517  23.346  28.284  1.00  0.00     0.010 A 
ATOM     41  C   UNL A   1      40.876  24.493  27.780  1.00  0.00    -0.014 A 
BRANCH  41  42
ATOM     42  C   UNL A   1      41.435  25.841  28.026  1.00  0.00     0.031 A 
ATOM     43  C   UNL A   1      42.811  26.159  27.506  1.00  0.00     0.074 A 
ATOM     44  C   UNL A   1      40.709  26.782  28.655  1.00  0.00     0.049 A 
ATOM     45  N   UNL A   1      43.500  27.266  27.606  1.00  0.00    -0.248 NA
ATOM     46  C   UNL A   1      43.499  25.085  26.773  1.00  0.00     0.031 C 
ATOM     47  C   UNL A   1      39.349  26.603  29.159  1.00  0.00     0.029 A 
ATOM     48  N   UNL A   1      41.020  28.079  28.973  1.00  0.00    -0.354 N 
ATOM     49  C   UNL A   1      44.704  27.019  26.958  1.00  0.00     0.074 A 
ATOM     50  C   UNL A   1      44.663  25.651  26.490  1.00  0.00     0.031 C 
ATOM     51  C   UNL A   1      38.943  27.749  29.730  1.00  0.00     0.029 A 
ATOM     52  C   UNL A   1      40.024  28.730  29.657  1.00  0.00     0.049 A 
ATOM     53  H   UNL A   1      41.876  28.503  28.733  1.00  0.00     0.167 HD
ATOM     54  C   UNL A   1      45.745  27.861  26.763  1.00  0.00     0.037 A 
ATOM     55  C   UNL A   1      40.000  29.971  30.179  1.00  0.00     0.037 A 
ATOM     56  C   UNL A   1      45.778  29.225  27.222  1.00  0.00     0.049 A 
ATOM     57  C   UNL A   1      41.200  30.865  30.007  1.00  0.00     0.074 A 
ATOM     58  C   UNL A   1      46.776  30.167  27.054  1.00  0.00     0.029 A 
ATOM     59  N   UNL A   1      44.765  29.836  27.944  1.00  0.00    -0.354 N 
ATOM     60  N   UNL A   1      42.322  30.631  29.369  1.00  0.00    -0.248 NA
ATOM     61  C   UNL A   1      41.130  32.195  30.629  1.00  0.00     0.031 C 
ATOM     62  C   UNL A   1      46.388  31.336  27.718  1.00  0.00     0.029 A 
ATOM     63  C   UNL A   1      45.127  31.137  28.255  1.00  0.00     0.049 A 
ATOM     64  H   UNL A   1      43.915  29.409  28.199  1.00  0.00     0.167 HD
ATOM     65  C   UNL A   1      43.075  31.794  29.485  1.00  0.00     0.074 A 
ATOM     66  C   UNL A   1      42.278  32.734  30.245  1.00  0.00     0.031 C 
ATOM     67  C   UNL A   1      44.314  32.060  29.002  1.00  0.00     0.037 A 
BRANCH  54  68
ATOM     68  C   UNL A   1      46.949  27.324  26.046  1.00  0.00     0.057 A 
ATOM     69  C   UNL A   1      47.991  26.680  26.724  1.00  0.00     0.134 A 
ATOM     70  C   UNL A   1      47.044  27.416  24.651  1.00  0.00     0.134 A 
ATOM     71  F   UNL A   1      47.968  26.575  28.062  1.00  0.00    -0.206 F 
ATOM     72  C   UNL A   1      49.093  26.161  26.044  1.00  0.00     0.040 A 
ATOM     73  C   UNL A   1      48.130  26.879  23.957  1.00  0.00     0.040 A 
ATOM     74  F   UNL A   1      46.078  28.017  23.940  1.00  0.00    -0.206 F 
ATOM     75  C   UNL A   1      49.161  26.253  24.655  1.00  0.00     0.006 A 
ENDBRANCH  54  68
BRANCH  55  76
ATOM     76  C   UNL A   1      38.807  30.447  30.925  1.00  0.00     0.057 A 
ATOM     77  C   UNL A   1      38.652  30.181  32.291  1.00  0.00     0.134 A 
ATOM     78  C   UNL A   1      37.780  31.148  30.283  1.00  0.00     0.134 A 
ATOM     79  F   UNL A   1      39.591  29.492  32.955  1.00  0.00    -0.206 F 
ATOM     80  C   UNL A   1      37.508  30.577  32.987  1.00  0.00     0.040 A 
ATOM     81  C   UNL A   1      36.642  31.572  30.973  1.00  0.00     0.040 A 
ATOM     82  F   UNL A   1      37.867  31.434  28.976  1.00  0.00    -0.206 F 
ATOM     83  C   UNL A   1      36.500  31.278  32.328  1.00  0.00     0.006 A 
ENDBRANCH  55  76
BRANCH  67  84
ATOM     84  C   UNL A   1      44.866  33.434  29.247  1.00  0.00     0.057 A 
ATOM     85  C   UNL A   1      44.610  34.500  28.375  1.00  0.00     0.134 A 
ATOM     86  C   UNL A   1      45.629  33.701  30.391  1.00  0.00     0.134 A 
ATOM     87  F   UNL A   1      43.897  34.307  27.256  1.00  0.00    -0.206 F 
ATOM     88  C   UNL A   1      45.113  35.779  28.623  1.00  0.00     0.040 A 
ATOM     89  C   UNL A   1      46.113  34.981  30.663  1.00  0.00     0.040 A 
ATOM     90  F   UNL A   1      45.901  32.726  31.271  1.00  0.00    -0.206 F 
ATOM     91  C   UNL A   1      45.860  36.023  29.774  1.00  0.00     0.006 A 
ENDBRANCH  67  84
ENDBRANCH  41  42
ENDBRANCH  34  36
ENDBRANCH  33  34
ENDBRANCH  32  33
ENDBRANCH  31  32
ENDBRANCH   1  31
TORSDOF 17
ENDMDL
MODEL 3
REMARK VINA RESULT:     -11.8      0.498      6.065
REMARK SMILES COc1cccc([C@@H]2[NH2+][C@@](C)(C(=O)OCCOCCOC(=O)c3ccc(-c4c5nc(c(-c6c(F)cccc6F)c6ccc([nH]6)c(-c6c(F)cccc6F)c6nc(c(-c7c(F)cccc7F)c7ccc4[nH]7)C=C6)C=C5)cc3)[C@@H]3C(=O)N(C)C(=O)[C@@H]32)c1O
REMARK SMILES IDX 17 1 16 2 15 3 14 4 12 5 13 6 10 7 8 8 9 9 84 10 77 13 82 14
REMARK SMILES IDX 11 15 78 16 80 17 83 18 79 19 81 20 7 21 3 22 4 23 85 24
REMARK SMILES IDX 5 25 6 26 2 27 1 28 86 29 18 31 19 32 20 33 21 34 22 35
REMARK SMILES IDX 23 36 24 37 76 38 25 39 75 40 26 41 27 42 28 43 69 44 29 45
REMARK SMILES IDX 74 46 68 47 70 48 30 49 73 50 67 51 66 52 31 54 57 55 40 56
REMARK SMILES IDX 56 57 41 58 44 59 55 60 71 61 42 62 43 63 54 65 72 66 45 67
REMARK SMILES IDX 32 68 33 69 38 70 34 71 35 72 37 73 39 74 36 75 58 76 59 77
REMARK SMILES IDX 64 78 60 79 61 80 63 81 65 82 62 83 46 84 47 85 52 86 48 87
REMARK SMILES IDX 49 88 51 89 53 90 50 91
REMARK H PARENT 9 11 9 12 86 30 70 53 44 64
REMARK Flexibility Score: inf
ROOT
ATOM      1  O   UNL A   1      32.681  30.657  26.693  1.00  0.00    -0.374 OA
ENDROOT
BRANCH   1   2
ATOM      2  C   UNL A   1      32.553  29.653  25.692  1.00  0.00     0.202 C 
BRANCH   2   3
ATOM      3  C   UNL A   1      31.751  28.387  26.013  1.00  0.00     0.261 C 
BRANCH   3   4
ATOM      4  O   UNL A   1      32.234  27.204  25.356  1.00  0.00    -0.459 OA
BRANCH   4   5
ATOM      5  C   UNL A   1      31.541  26.076  25.673  1.00  0.00     0.368 C 
ATOM      6  O   UNL A   1      30.747  26.010  26.610  1.00  0.00    -0.245 OA
BRANCH   5   7
ATOM      7  C   UNL A   1      31.862  24.836  24.793  1.00  0.00     0.204 C 
ATOM      8  C   UNL A   1      32.261  22.581  25.653  1.00  0.00     0.232 C 
ATOM      9  N   UNL A   1      31.214  23.565  25.269  1.00  0.00    -0.325 N 
ATOM     10  C   UNL A   1      33.516  23.418  25.881  1.00  0.00     0.161 C 
ATOM     11  H   UNL A   1      30.626  23.768  26.077  1.00  0.00     0.347 HD
ATOM     12  H   UNL A   1      30.645  23.176  24.518  1.00  0.00     0.347 HD
ATOM     13  C   UNL A   1      33.366  24.620  24.960  1.00  0.00     0.170 C 
ATOM     14  C   UNL A   1      34.823  22.824  25.445  1.00  0.00     0.239 C 
ATOM     15  C   UNL A   1      31.313  25.293  23.434  1.00  0.00     0.093 C 
ATOM     16  C   UNL A   1      34.224  24.265  23.779  1.00  0.00     0.240 C 
ATOM     17  N   UNL A   1      35.121  23.318  24.204  1.00  0.00    -0.285 N 
ATOM     18  O   UNL A   1      35.472  22.020  26.095  1.00  0.00    -0.274 OA
ATOM     19  O   UNL A   1      34.198  24.806  22.684  1.00  0.00    -0.274 OA
ATOM     20  C   UNL A   1      36.259  22.865  23.447  1.00  0.00     0.156 C 
BRANCH   8  21
ATOM     21  C   UNL A   1      32.474  21.370  24.740  1.00  0.00     0.056 A 
ATOM     22  C   UNL A   1      32.561  18.953  24.360  1.00  0.00     0.161 A 
ATOM     23  C   UNL A   1      32.284  19.114  23.012  1.00  0.00     0.050 A 
ATOM     24  C   UNL A   1      32.728  20.071  25.187  1.00  0.00     0.166 A 
ATOM     25  C   UNL A   1      32.134  20.404  22.506  1.00  0.00     0.005 A 
ATOM     26  C   UNL A   1      32.210  21.514  23.362  1.00  0.00     0.014 A 
BRANCH  22  27
ATOM     27  O   UNL A   1      32.731  17.691  24.871  1.00  0.00    -0.493 OA
ATOM     28  C   UNL A   1      33.410  16.842  23.937  1.00  0.00     0.278 C 
ENDBRANCH  22  27
BRANCH  24  29
ATOM     29  O   UNL A   1      33.152  19.863  26.460  1.00  0.00    -0.504 OA
ATOM     30  H   UNL A   1      32.881  20.443  27.145  1.00  0.00     0.293 HD
ENDBRANCH  24  29
ENDBRANCH   8  21
ENDBRANCH   5   7
ENDBRANCH   4   5
ENDBRANCH   3   4
ENDBRANCH   2   3
ENDBRANCH   1   2
BRANCH   1  31
ATOM     31  C   UNL A   1      31.676  31.664  26.760  1.00  0.00     0.202 C 
BRANCH  31  32
ATOM     32  C   UNL A   1      32.103  33.134  26.820  1.00  0.00     0.261 C 
BRANCH  32  33
ATOM     33  O   UNL A   1      32.137  33.646  28.162  1.00  0.00    -0.460 OA
BRANCH  33  34
ATOM     34  C   UNL A   1      33.184  34.466  28.420  1.00  0.00     0.338 C 
ATOM     35  O   UNL A   1      33.166  35.677  28.544  1.00  0.00    -0.246 OA
BRANCH  34  36
ATOM     36  C   UNL A   1      34.382  33.666  28.734  1.00  0.00     0.060 A 
ATOM     37  C   UNL A   1      34.182  32.437  29.376  1.00  0.00     0.016 A 
ATOM     38  C   UNL A   1      35.670  34.148  28.497  1.00  0.00     0.016 A 
ATOM     39  C   UNL A   1      35.272  31.709  29.840  1.00  0.00     0.010 A 
ATOM     40  C   UNL A   1      36.765  33.422  28.977  1.00  0.00     0.010 A 
ATOM     41  C   UNL A   1      36.566  32.224  29.687  1.00  0.00    -0.014 A 
BRANCH  41  42
ATOM     42  C   UNL A   1      37.680  31.590  30.427  1.00  0.00     0.031 A 
ATOM     43  C   UNL A   1      38.532  30.573  29.717  1.00  0.00     0.074 A 
ATOM     44  C   UNL A   1      37.961  31.953  31.690  1.00  0.00     0.049 A 
ATOM     45  N   UNL A   1      39.554  29.890  30.163  1.00  0.00    -0.248 NA
ATOM     46  C   UNL A   1      38.186  30.292  28.314  1.00  0.00     0.031 C 
ATOM     47  C   UNL A   1      37.235  32.960  32.461  1.00  0.00     0.029 A 
ATOM     48  N   UNL A   1      38.938  31.512  32.545  1.00  0.00    -0.354 N 
ATOM     49  C   UNL A   1      39.967  29.093  29.102  1.00  0.00     0.074 A 
ATOM     50  C   UNL A   1      39.072  29.358  27.997  1.00  0.00     0.031 C 
ATOM     51  C   UNL A   1      37.790  33.057  33.681  1.00  0.00     0.029 A 
ATOM     52  C   UNL A   1      38.889  32.099  33.785  1.00  0.00     0.049 A 
ATOM     53  H   UNL A   1      39.611  30.838  32.293  1.00  0.00     0.167 HD
ATOM     54  C   UNL A   1      41.005  28.227  29.052  1.00  0.00     0.037 A 
ATOM     55  C   UNL A   1      39.636  31.871  34.881  1.00  0.00     0.037 A 
ATOM     56  C   UNL A   1      41.899  27.974  30.151  1.00  0.00     0.049 A 
ATOM     57  C   UNL A   1      40.742  30.849  34.819  1.00  0.00     0.074 A 
ATOM     58  C   UNL A   1      42.996  27.132  30.194  1.00  0.00     0.029 A 
ATOM     59  N   UNL A   1      41.793  28.559  31.403  1.00  0.00    -0.354 N 
ATOM     60  N   UNL A   1      41.141  30.123  33.803  1.00  0.00    -0.248 NA
ATOM     61  C   UNL A   1      41.501  30.618  36.057  1.00  0.00     0.031 C 
ATOM     62  C   UNL A   1      43.525  27.171  31.488  1.00  0.00     0.029 A 
ATOM     63  C   UNL A   1      42.788  28.075  32.235  1.00  0.00     0.049 A 
ATOM     64  H   UNL A   1      41.110  29.220  31.662  1.00  0.00     0.167 HD
ATOM     65  C   UNL A   1      42.215  29.374  34.270  1.00  0.00     0.074 A 
ATOM     66  C   UNL A   1      42.411  29.743  35.656  1.00  0.00     0.031 C 
ATOM     67  C   UNL A   1      42.973  28.464  33.609  1.00  0.00     0.037 A 
BRANCH  54  68
ATOM     68  C   UNL A   1      41.214  27.466  27.776  1.00  0.00     0.057 A 
ATOM     69  C   UNL A   1      41.990  27.974  26.727  1.00  0.00     0.134 A 
ATOM     70  C   UNL A   1      40.664  26.187  27.614  1.00  0.00     0.134 A 
ATOM     71  F   UNL A   1      42.531  29.199  26.814  1.00  0.00    -0.206 F 
ATOM     72  C   UNL A   1      42.199  27.246  25.555  1.00  0.00     0.040 A 
ATOM     73  C   UNL A   1      40.886  25.439  26.456  1.00  0.00     0.040 A 
ATOM     74  F   UNL A   1      39.913  25.640  28.582  1.00  0.00    -0.206 F 
ATOM     75  C   UNL A   1      41.653  25.970  25.421  1.00  0.00     0.006 A 
ENDBRANCH  54  68
BRANCH  55  76
ATOM     76  C   UNL A   1      39.364  32.610  36.140  1.00  0.00     0.057 A 
ATOM     77  C   UNL A   1      38.419  32.148  37.063  1.00  0.00     0.134 A 
ATOM     78  C   UNL A   1      40.017  33.813  36.433  1.00  0.00     0.134 A 
ATOM     79  F   UNL A   1      37.743  31.014  36.827  1.00  0.00    -0.206 F 
ATOM     80  C   UNL A   1      38.117  32.866  38.223  1.00  0.00     0.040 A 
ATOM     81  C   UNL A   1      39.744  34.529  37.600  1.00  0.00     0.040 A 
ATOM     82  F   UNL A   1      40.933  34.310  35.589  1.00  0.00    -0.206 F 
ATOM     83  C   UNL A   1      38.784  34.059  38.495  1.00  0.00     0.006 A 
ENDBRANCH  55  76
BRANCH  67  84
ATOM     84  C   UNL A   1      44.109  27.837  34.364  1.00  0.00     0.057 A 
ATOM     85  C   UNL A   1      43.967  26.616  35.034  1.00  0.00     0.134 A 
ATOM     86  C   UNL A   1      45.371  28.445  34.385  1.00  0.00     0.134 A 
ATOM     87  F   UNL A   1      42.781  25.990  35.062  1.00  0.00    -0.206 F 
ATOM     88  C   UNL A   1      45.035  26.032  35.718  1.00  0.00     0.040 A 
ATOM     89  C   UNL A   1      46.452  27.857  35.042  1.00  0.00     0.040 A 
ATOM     90  F   UNL A   1      45.575  29.611  33.754  1.00  0.00    -0.206 F 
ATOM     91  C   UNL A   1      46.284  26.650  35.716  1.00  0.00     0.006 A 
ENDBRANCH  67  84
ENDBRANCH  41  42
ENDBRANCH  34  36
ENDBRANCH  33  34
ENDBRANCH  32  33
ENDBRANCH  31  32
ENDBRANCH   1  31
TORSDOF 17
ENDMDL
