MODEL 1
REMARK VINA RESULT:     -11.5      0.000      0.000
REMARK SMILES COc1cc(/C=C2\[NH+]=C(S)N(c3ccc(Br)cc3)C2=O)ccc1OCC(=O)OCCOCCOC(=O)c1ccc(-c2c3nc(c(-c4c(F)cccc4F)c4ccc([nH]4)c(-c4c(F)cccc4F)c4nc(c(-c5c(F)cccc5F)c5ccc2[nH]5)C=C4)C=C3)cc1
REMARK SMILES IDX 30 1 29 2 28 3 26 4 27 5 25 6 24 7 23 8 3 9 4 10 5 11 22 12
REMARK SMILES IDX 21 13 2 14 1 15 6 16 7 17 8 18 19 19 9 20 11 22 20 23 10 24
REMARK SMILES IDX 12 26 13 27 18 28 14 29 17 30 15 31 16 32 31 33 32 34 33 35
REMARK SMILES IDX 34 36 35 37 36 38 37 39 38 40 90 41 39 42 89 43 40 44 41 45
REMARK SMILES IDX 42 46 83 47 43 48 88 49 82 50 84 51 44 52 87 53 81 54 80 55
REMARK SMILES IDX 45 57 71 58 54 59 70 60 55 61 58 62 69 63 85 64 56 65 57 66
REMARK SMILES IDX 68 68 86 69 59 70 46 71 47 72 52 73 48 74 49 75 51 76 53 77
REMARK SMILES IDX 50 78 72 79 73 80 78 81 74 82 75 83 77 84 79 85 76 86 60 87
REMARK SMILES IDX 61 88 66 89 62 90 63 91 65 92 67 93 64 94
REMARK H PARENT 8 21 10 25 84 56 58 67
REMARK Flexibility Score: inf
ROOT
ATOM      1  C   UNL A   1      34.802  34.924  31.757  1.00  0.00     0.202 C 
ENDROOT
BRANCH   1   2
ATOM      2  C   UNL A   1      33.761  34.952  30.632  1.00  0.00     0.261 C 
BRANCH   2   3
ATOM      3  O   UNL A   1      33.694  33.684  29.943  1.00  0.00    -0.461 OA
BRANCH   3   4
ATOM      4  C   UNL A   1      33.935  33.724  28.603  1.00  0.00     0.344 C 
ATOM      5  O   UNL A   1      33.818  34.729  27.908  1.00  0.00    -0.248 OA
BRANCH   4   6
ATOM      6  C   UNL A   1      34.287  32.353  28.018  1.00  0.00     0.352 C 
BRANCH   6   7
ATOM      7  O   UNL A   1      33.274  31.450  27.625  1.00  0.00    -0.478 OA
BRANCH   7   8
ATOM      8  C   UNL A   1      33.568  30.297  26.957  1.00  0.00     0.162 A 
ATOM      9  C   UNL A   1      34.484  29.290  27.290  1.00  0.00     0.161 A 
ATOM     10  C   UNL A   1      34.562  28.127  26.500  1.00  0.00     0.058 A 
ATOM     11  C   UNL A   1      33.746  27.967  25.365  1.00  0.00    -0.017 A 
ATOM     12  C   UNL A   1      32.808  30.156  25.787  1.00  0.00     0.051 A 
ATOM     13  C   UNL A   1      32.903  29.015  24.992  1.00  0.00     0.012 A 
BRANCH   9  14
ATOM     14  O   UNL A   1      35.397  29.504  28.286  1.00  0.00    -0.493 OA
ATOM     15  C   UNL A   1      36.730  29.745  27.839  1.00  0.00     0.278 C 
ENDBRANCH   9  14
BRANCH  11  16
ATOM     16  C   UNL A   1      33.791  26.778  24.505  1.00  0.00     0.068 C 
ATOM     17  C   UNL A   1      33.117  25.638  24.694  1.00  0.00     0.217 C 
ATOM     18  N   UNL A   1      32.248  25.308  25.702  1.00  0.00    -0.228 N 
ATOM     19  C   UNL A   1      33.417  24.434  23.873  1.00  0.00     0.386 C 
ATOM     20  C   UNL A   1      32.144  24.015  25.611  1.00  0.00     0.321 C 
ATOM     21  H   UNL A   1      31.806  25.910  26.344  1.00  0.00     0.313 HD
ATOM     22  N   UNL A   1      32.848  23.415  24.599  1.00  0.00    -0.149 N 
ATOM     23  O   UNL A   1      34.046  24.419  22.828  1.00  0.00    -0.236 OA
BRANCH  20  24
ATOM     24  S   UNL A   1      31.247  23.165  26.825  1.00  0.00    -0.055 SA
ATOM     25  H   UNL A   1      30.236  22.470  26.239  1.00  0.00     0.116 HD
ENDBRANCH  20  24
BRANCH  22  26
ATOM     26  C   UNL A   1      33.168  22.048  24.387  1.00  0.00     0.137 A 
ATOM     27  C   UNL A   1      32.280  21.124  23.825  1.00  0.00     0.053 A 
ATOM     28  C   UNL A   1      34.406  21.570  24.854  1.00  0.00     0.053 A 
ATOM     29  C   UNL A   1      32.583  19.754  23.815  1.00  0.00     0.020 A 
ATOM     30  C   UNL A   1      34.711  20.207  24.853  1.00  0.00     0.020 A 
ATOM     31  C   UNL A   1      33.786  19.301  24.351  1.00  0.00     0.018 A 
ATOM     32  Br  UNL A   1      34.160  17.451  24.417  1.00  0.00    -0.051 Br
ENDBRANCH  22  26
ENDBRANCH  11  16
ENDBRANCH   7   8
ENDBRANCH   6   7
ENDBRANCH   4   6
ENDBRANCH   3   4
ENDBRANCH   2   3
ENDBRANCH   1   2
BRANCH   1  33
ATOM     33  O   UNL A   1      34.406  34.185  32.916  1.00  0.00    -0.374 OA
BRANCH  33  34
ATOM     34  C   UNL A   1      34.937  34.645  34.162  1.00  0.00     0.202 C 
BRANCH  34  35
ATOM     35  C   UNL A   1      36.125  33.845  34.681  1.00  0.00     0.261 C 
BRANCH  35  36
ATOM     36  O   UNL A   1      36.336  32.693  33.856  1.00  0.00    -0.460 OA
BRANCH  36  37
ATOM     37  C   UNL A   1      37.316  31.883  34.303  1.00  0.00     0.338 C 
ATOM     38  O   UNL A   1      37.604  31.623  35.459  1.00  0.00    -0.246 OA
BRANCH  37  39
ATOM     39  C   UNL A   1      37.912  31.172  33.165  1.00  0.00     0.060 A 
ATOM     40  C   UNL A   1      38.971  30.313  33.466  1.00  0.00     0.016 A 
ATOM     41  C   UNL A   1      37.506  31.390  31.844  1.00  0.00     0.016 A 
ATOM     42  C   UNL A   1      39.708  29.754  32.437  1.00  0.00     0.010 A 
ATOM     43  C   UNL A   1      38.246  30.820  30.807  1.00  0.00     0.010 A 
ATOM     44  C   UNL A   1      39.387  30.057  31.106  1.00  0.00    -0.014 A 
BRANCH  44  45
ATOM     45  C   UNL A   1      40.395  29.723  30.080  1.00  0.00     0.031 A 
ATOM     46  C   UNL A   1      41.499  30.707  29.815  1.00  0.00     0.074 A 
ATOM     47  C   UNL A   1      40.407  28.496  29.535  1.00  0.00     0.049 A 
ATOM     48  N   UNL A   1      42.610  30.547  29.145  1.00  0.00    -0.248 NA
ATOM     49  C   UNL A   1      41.335  32.050  30.397  1.00  0.00     0.031 C 
ATOM     50  C   UNL A   1      39.398  27.465  29.770  1.00  0.00     0.029 A 
ATOM     51  N   UNL A   1      41.325  27.896  28.716  1.00  0.00    -0.354 N 
ATOM     52  C   UNL A   1      43.282  31.760  29.238  1.00  0.00     0.074 A 
ATOM     53  C   UNL A   1      42.435  32.661  29.986  1.00  0.00     0.031 C 
ATOM     54  C   UNL A   1      39.775  26.340  29.142  1.00  0.00     0.029 A 
ATOM     55  C   UNL A   1      41.041  26.580  28.455  1.00  0.00     0.049 A 
ATOM     56  H   UNL A   1      42.111  28.363  28.350  1.00  0.00     0.167 HD
ATOM     57  C   UNL A   1      44.505  32.084  28.758  1.00  0.00     0.037 A 
ATOM     58  C   UNL A   1      41.745  25.668  27.759  1.00  0.00     0.037 A 
ATOM     59  C   UNL A   1      45.328  31.177  28.003  1.00  0.00     0.049 A 
ATOM     60  C   UNL A   1      43.077  26.066  27.189  1.00  0.00     0.074 A 
ATOM     61  C   UNL A   1      46.577  31.393  27.451  1.00  0.00     0.029 A 
ATOM     62  N   UNL A   1      44.969  29.873  27.688  1.00  0.00    -0.354 N 
ATOM     63  N   UNL A   1      43.716  27.206  27.299  1.00  0.00    -0.248 NA
ATOM     64  C   UNL A   1      43.790  25.047  26.409  1.00  0.00     0.031 C 
ATOM     65  C   UNL A   1      46.953  30.234  26.762  1.00  0.00     0.029 A 
ATOM     66  C   UNL A   1      45.962  29.278  26.929  1.00  0.00     0.049 A 
ATOM     67  H   UNL A   1      44.131  29.435  27.964  1.00  0.00     0.167 HD
ATOM     68  C   UNL A   1      44.918  27.037  26.624  1.00  0.00     0.074 A 
ATOM     69  C   UNL A   1      44.921  25.677  26.120  1.00  0.00     0.031 C 
ATOM     70  C   UNL A   1      45.930  27.922  26.437  1.00  0.00     0.037 A 
BRANCH  57  71
ATOM     71  C   UNL A   1      44.988  33.485  29.007  1.00  0.00     0.057 A 
ATOM     72  C   UNL A   1      45.730  33.825  30.147  1.00  0.00     0.134 A 
ATOM     73  C   UNL A   1      44.681  34.515  28.110  1.00  0.00     0.134 A 
ATOM     74  F   UNL A   1      46.042  32.891  31.059  1.00  0.00    -0.206 F 
ATOM     75  C   UNL A   1      46.118  35.143  30.403  1.00  0.00     0.040 A 
ATOM     76  C   UNL A   1      45.085  35.832  28.341  1.00  0.00     0.040 A 
ATOM     77  F   UNL A   1      43.974  34.263  26.999  1.00  0.00    -0.206 F 
ATOM     78  C   UNL A   1      45.797  36.150  29.496  1.00  0.00     0.006 A 
ENDBRANCH  57  71
BRANCH  58  79
ATOM     79  C   UNL A   1      41.215  24.289  27.614  1.00  0.00     0.057 A 
ATOM     80  C   UNL A   1      40.182  23.997  26.718  1.00  0.00     0.134 A 
ATOM     81  C   UNL A   1      41.757  23.223  28.344  1.00  0.00     0.134 A 
ATOM     82  F   UNL A   1      39.612  24.976  26.001  1.00  0.00    -0.206 F 
ATOM     83  C   UNL A   1      39.705  22.695  26.551  1.00  0.00     0.040 A 
ATOM     84  C   UNL A   1      41.306  21.914  28.171  1.00  0.00     0.040 A 
ATOM     85  F   UNL A   1      42.754  23.437  29.215  1.00  0.00    -0.206 F 
ATOM     86  C   UNL A   1      40.274  21.647  27.273  1.00  0.00     0.006 A 
ENDBRANCH  58  79
BRANCH  70  87
ATOM     87  C   UNL A   1      47.126  27.430  25.677  1.00  0.00     0.057 A 
ATOM     88  C   UNL A   1      47.263  27.640  24.299  1.00  0.00     0.134 A 
ATOM     89  C   UNL A   1      48.164  26.762  26.339  1.00  0.00     0.134 A 
ATOM     90  F   UNL A   1      46.298  28.263  23.607  1.00  0.00    -0.206 F 
ATOM     91  C   UNL A   1      48.377  27.174  23.600  1.00  0.00     0.040 A 
ATOM     92  C   UNL A   1      49.295  26.316  25.656  1.00  0.00     0.040 A 
ATOM     93  F   UNL A   1      48.098  26.541  27.660  1.00  0.00    -0.206 F 
ATOM     94  C   UNL A   1      49.400  26.514  24.281  1.00  0.00     0.006 A 
ENDBRANCH  70  87
ENDBRANCH  44  45
ENDBRANCH  37  39
ENDBRANCH  36  37
ENDBRANCH  35  36
ENDBRANCH  34  35
ENDBRANCH  33  34
ENDBRANCH   1  33
TORSDOF 20
ENDMDL
MODEL 2
REMARK VINA RESULT:     -11.2      4.988     10.588
REMARK SMILES COc1cc(/C=C2\[NH+]=C(S)N(c3ccc(Br)cc3)C2=O)ccc1OCC(=O)OCCOCCOC(=O)c1ccc(-c2c3nc(c(-c4c(F)cccc4F)c4ccc([nH]4)c(-c4c(F)cccc4F)c4nc(c(-c5c(F)cccc5F)c5ccc2[nH]5)C=C4)C=C3)cc1
REMARK SMILES IDX 30 1 29 2 28 3 26 4 27 5 25 6 24 7 23 8 3 9 4 10 5 11 22 12
REMARK SMILES IDX 21 13 2 14 1 15 6 16 7 17 8 18 19 19 9 20 11 22 20 23 10 24
REMARK SMILES IDX 12 26 13 27 18 28 14 29 17 30 15 31 16 32 31 33 32 34 33 35
REMARK SMILES IDX 34 36 35 37 36 38 37 39 38 40 90 41 39 42 89 43 40 44 41 45
REMARK SMILES IDX 42 46 83 47 43 48 88 49 82 50 84 51 44 52 87 53 81 54 80 55
REMARK SMILES IDX 45 57 71 58 54 59 70 60 55 61 58 62 69 63 85 64 56 65 57 66
REMARK SMILES IDX 68 68 86 69 59 70 46 71 47 72 52 73 48 74 49 75 51 76 53 77
REMARK SMILES IDX 50 78 72 79 73 80 78 81 74 82 75 83 77 84 79 85 76 86 60 87
REMARK SMILES IDX 61 88 66 89 62 90 63 91 65 92 67 93 64 94
REMARK H PARENT 8 21 10 25 84 56 58 67
REMARK Flexibility Score: inf
ROOT
ATOM      1  C   UNL A   1      43.674  19.166  25.386  1.00  0.00     0.202 C 
ENDROOT
BRANCH   1   2
ATOM      2  C   UNL A   1      42.303  19.780  25.687  1.00  0.00     0.261 C 
BRANCH   2   3
ATOM      3  O   UNL A   1      42.185  20.154  27.077  1.00  0.00    -0.461 OA
BRANCH   3   4
ATOM      4  C   UNL A   1      41.189  21.035  27.372  1.00  0.00     0.344 C 
ATOM      5  O   UNL A   1      41.278  21.926  28.212  1.00  0.00    -0.248 OA
BRANCH   4   6
ATOM      6  C   UNL A   1      39.893  20.751  26.607  1.00  0.00     0.352 C 
BRANCH   6   7
ATOM      7  O   UNL A   1      39.407  21.660  25.641  1.00  0.00    -0.478 OA
BRANCH   7   8
ATOM      8  C   UNL A   1      38.095  22.039  25.617  1.00  0.00     0.162 A 
ATOM      9  C   UNL A   1      36.962  21.285  25.284  1.00  0.00     0.161 A 
ATOM     10  C   UNL A   1      35.681  21.853  25.419  1.00  0.00     0.058 A 
ATOM     11  C   UNL A   1      35.519  23.177  25.866  1.00  0.00    -0.017 A 
ATOM     12  C   UNL A   1      37.926  23.378  25.997  1.00  0.00     0.051 A 
ATOM     13  C   UNL A   1      36.658  23.947  26.108  1.00  0.00     0.012 A 
BRANCH   9  14
ATOM     14  O   UNL A   1      37.110  20.061  24.690  1.00  0.00    -0.493 OA
ATOM     15  C   UNL A   1      35.983  19.196  24.806  1.00  0.00     0.278 C 
ENDBRANCH   9  14
BRANCH  11  16
ATOM     16  C   UNL A   1      34.207  23.819  26.020  1.00  0.00     0.068 C 
ATOM     17  C   UNL A   1      33.466  24.349  25.041  1.00  0.00     0.217 C 
ATOM     18  N   UNL A   1      33.736  24.421  23.699  1.00  0.00    -0.228 N 
ATOM     19  C   UNL A   1      32.261  25.161  25.357  1.00  0.00     0.386 C 
ATOM     20  C   UNL A   1      32.888  25.304  23.259  1.00  0.00     0.321 C 
ATOM     21  H   UNL A   1      34.413  23.921  23.188  1.00  0.00     0.313 HD
ATOM     22  N   UNL A   1      32.023  25.833  24.182  1.00  0.00    -0.149 N 
ATOM     23  O   UNL A   1      31.684  25.197  26.432  1.00  0.00    -0.236 OA
BRANCH  20  24
ATOM     24  S   UNL A   1      33.002  25.818  21.609  1.00  0.00    -0.055 SA
ATOM     25  H   UNL A   1      32.545  24.831  20.794  1.00  0.00     0.116 HD
ENDBRANCH  20  24
BRANCH  22  26
ATOM     26  C   UNL A   1      31.185  26.976  24.106  1.00  0.00     0.137 A 
ATOM     27  C   UNL A   1      29.963  26.996  23.423  1.00  0.00     0.053 A 
ATOM     28  C   UNL A   1      31.646  28.184  24.662  1.00  0.00     0.053 A 
ATOM     29  C   UNL A   1      29.273  28.201  23.224  1.00  0.00     0.020 A 
ATOM     30  C   UNL A   1      30.967  29.388  24.461  1.00  0.00     0.020 A 
ATOM     31  C   UNL A   1      29.792  29.394  23.722  1.00  0.00     0.018 A 
ATOM     32  Br  UNL A   1      28.910  31.028  23.381  1.00  0.00    -0.051 Br
ENDBRANCH  22  26
ENDBRANCH  11  16
ENDBRANCH   7   8
ENDBRANCH   6   7
ENDBRANCH   4   6
ENDBRANCH   3   4
ENDBRANCH   2   3
ENDBRANCH   1   2
BRANCH   1  33
ATOM     33  O   UNL A   1      44.785  20.027  25.656  1.00  0.00    -0.374 OA
BRANCH  33  34
ATOM     34  C   UNL A   1      44.726  21.327  25.063  1.00  0.00     0.202 C 
BRANCH  34  35
ATOM     35  C   UNL A   1      45.059  22.473  26.010  1.00  0.00     0.261 C 
BRANCH  35  36
ATOM     36  O   UNL A   1      43.852  23.102  26.458  1.00  0.00    -0.460 OA
BRANCH  36  37
ATOM     37  C   UNL A   1      43.413  24.074  25.634  1.00  0.00     0.338 C 
ATOM     38  O   UNL A   1      43.430  24.088  24.415  1.00  0.00    -0.246 OA
BRANCH  37  39
ATOM     39  C   UNL A   1      42.708  25.093  26.422  1.00  0.00     0.060 A 
ATOM     40  C   UNL A   1      43.246  26.382  26.379  1.00  0.00     0.016 A 
ATOM     41  C   UNL A   1      41.609  24.792  27.233  1.00  0.00     0.016 A 
ATOM     42  C   UNL A   1      42.760  27.352  27.236  1.00  0.00     0.010 A 
ATOM     43  C   UNL A   1      41.114  25.774  28.093  1.00  0.00     0.010 A 
ATOM     44  C   UNL A   1      41.737  27.032  28.140  1.00  0.00    -0.014 A 
BRANCH  44  45
ATOM     45  C   UNL A   1      41.499  27.981  29.247  1.00  0.00     0.031 A 
ATOM     46  C   UNL A   1      40.303  28.887  29.168  1.00  0.00     0.074 A 
ATOM     47  C   UNL A   1      42.242  27.900  30.362  1.00  0.00     0.049 A 
ATOM     48  N   UNL A   1      39.761  29.627  30.099  1.00  0.00    -0.248 NA
ATOM     49  C   UNL A   1      39.616  28.955  27.867  1.00  0.00     0.031 C 
ATOM     50  C   UNL A   1      43.395  27.020  30.539  1.00  0.00     0.029 A 
ATOM     51  N   UNL A   1      42.106  28.531  31.569  1.00  0.00    -0.354 N 
ATOM     52  C   UNL A   1      38.663  30.236  29.501  1.00  0.00     0.074 A 
ATOM     53  C   UNL A   1      38.644  29.818  28.117  1.00  0.00     0.031 C 
ATOM     54  C   UNL A   1      43.837  27.133  31.801  1.00  0.00     0.029 A 
ATOM     55  C   UNL A   1      43.006  28.102  32.511  1.00  0.00     0.049 A 
ATOM     56  H   UNL A   1      41.428  29.224  31.744  1.00  0.00     0.167 HD
ATOM     57  C   UNL A   1      37.744  31.054  30.064  1.00  0.00     0.037 A 
ATOM     58  C   UNL A   1      43.123  28.440  33.808  1.00  0.00     0.037 A 
ATOM     59  C   UNL A   1      37.788  31.470  31.440  1.00  0.00     0.049 A 
ATOM     60  C   UNL A   1      42.122  29.392  34.399  1.00  0.00     0.074 A 
ATOM     61  C   UNL A   1      36.924  32.308  32.122  1.00  0.00     0.029 A 
ATOM     62  N   UNL A   1      38.766  31.078  32.346  1.00  0.00    -0.354 N 
ATOM     63  N   UNL A   1      41.075  29.946  33.836  1.00  0.00    -0.248 NA
ATOM     64  C   UNL A   1      42.312  29.756  35.809  1.00  0.00     0.031 C 
ATOM     65  C   UNL A   1      37.407  32.458  33.428  1.00  0.00     0.029 A 
ATOM     66  C   UNL A   1      38.541  31.674  33.574  1.00  0.00     0.049 A 
ATOM     67  H   UNL A   1      39.510  30.465  32.143  1.00  0.00     0.167 HD
ATOM     68  C   UNL A   1      40.465  30.706  34.825  1.00  0.00     0.074 A 
ATOM     69  C   UNL A   1      41.256  30.528  36.028  1.00  0.00     0.031 C 
ATOM     70  C   UNL A   1      39.353  31.480  34.751  1.00  0.00     0.037 A 
BRANCH  57  71
ATOM     71  C   UNL A   1      36.653  31.573  29.171  1.00  0.00     0.057 A 
ATOM     72  C   UNL A   1      36.622  32.903  28.728  1.00  0.00     0.134 A 
ATOM     73  C   UNL A   1      35.601  30.738  28.772  1.00  0.00     0.134 A 
ATOM     74  F   UNL A   1      37.587  33.762  29.090  1.00  0.00    -0.206 F 
ATOM     75  C   UNL A   1      35.568  33.393  27.952  1.00  0.00     0.040 A 
ATOM     76  C   UNL A   1      34.556  31.209  27.974  1.00  0.00     0.040 A 
ATOM     77  F   UNL A   1      35.565  29.455  29.158  1.00  0.00    -0.206 F 
ATOM     78  C   UNL A   1      34.532  32.543  27.572  1.00  0.00     0.006 A 
ENDBRANCH  57  71
BRANCH  58  79
ATOM     79  C   UNL A   1      44.198  27.830  34.630  1.00  0.00     0.057 A 
ATOM     80  C   UNL A   1      45.378  28.526  34.915  1.00  0.00     0.134 A 
ATOM     81  C   UNL A   1      44.054  26.551  35.181  1.00  0.00     0.134 A 
ATOM     82  F   UNL A   1      45.582  29.749  34.405  1.00  0.00    -0.206 F 
ATOM     83  C   UNL A   1      46.378  27.972  35.717  1.00  0.00     0.040 A 
ATOM     84  C   UNL A   1      45.035  25.994  36.003  1.00  0.00     0.040 A 
ATOM     85  F   UNL A   1      42.944  25.836  34.950  1.00  0.00    -0.206 F 
ATOM     86  C   UNL A   1      46.202  26.704  36.271  1.00  0.00     0.006 A 
ENDBRANCH  58  79
BRANCH  70  87
ATOM     87  C   UNL A   1      38.922  32.166  36.013  1.00  0.00     0.057 A 
ATOM     88  C   UNL A   1      38.167  31.507  36.992  1.00  0.00     0.134 A 
ATOM     89  C   UNL A   1      39.290  33.494  36.262  1.00  0.00     0.134 A 
ATOM     90  F   UNL A   1      37.774  30.238  36.807  1.00  0.00    -0.206 F 
ATOM     91  C   UNL A   1      37.767  32.155  38.161  1.00  0.00     0.040 A 
ATOM     92  C   UNL A   1      38.919  34.144  37.439  1.00  0.00     0.040 A 
ATOM     93  F   UNL A   1      40.022  34.178  35.370  1.00  0.00    -0.206 F 
ATOM     94  C   UNL A   1      38.148  33.477  38.389  1.00  0.00     0.006 A 
ENDBRANCH  70  87
ENDBRANCH  44  45
ENDBRANCH  37  39
ENDBRANCH  36  37
ENDBRANCH  35  36
ENDBRANCH  34  35
ENDBRANCH  33  34
ENDBRANCH   1  33
TORSDOF 20
ENDMDL
MODEL 3
REMARK VINA RESULT:     -10.9      5.014     10.529
REMARK SMILES COc1cc(/C=C2\[NH+]=C(S)N(c3ccc(Br)cc3)C2=O)ccc1OCC(=O)OCCOCCOC(=O)c1ccc(-c2c3nc(c(-c4c(F)cccc4F)c4ccc([nH]4)c(-c4c(F)cccc4F)c4nc(c(-c5c(F)cccc5F)c5ccc2[nH]5)C=C4)C=C3)cc1
REMARK SMILES IDX 30 1 29 2 28 3 26 4 27 5 25 6 24 7 23 8 3 9 4 10 5 11 22 12
REMARK SMILES IDX 21 13 2 14 1 15 6 16 7 17 8 18 19 19 9 20 11 22 20 23 10 24
REMARK SMILES IDX 12 26 13 27 18 28 14 29 17 30 15 31 16 32 31 33 32 34 33 35
REMARK SMILES IDX 34 36 35 37 36 38 37 39 38 40 90 41 39 42 89 43 40 44 41 45
REMARK SMILES IDX 42 46 83 47 43 48 88 49 82 50 84 51 44 52 87 53 81 54 80 55
REMARK SMILES IDX 45 57 71 58 54 59 70 60 55 61 58 62 69 63 85 64 56 65 57 66
REMARK SMILES IDX 68 68 86 69 59 70 46 71 47 72 52 73 48 74 49 75 51 76 53 77
REMARK SMILES IDX 50 78 72 79 73 80 78 81 74 82 75 83 77 84 79 85 76 86 60 87
REMARK SMILES IDX 61 88 66 89 62 90 63 91 65 92 67 93 64 94
REMARK H PARENT 8 21 10 25 84 56 58 67
REMARK Flexibility Score: inf
ROOT
ATOM      1  C   UNL A   1      43.931  18.888  25.572  1.00  0.00     0.202 C 
ENDROOT
BRANCH   1   2
ATOM      2  C   UNL A   1      42.580  18.734  26.279  1.00  0.00     0.261 C 
BRANCH   2   3
ATOM      3  O   UNL A   1      41.560  19.538  25.648  1.00  0.00    -0.461 OA
BRANCH   3   4
ATOM      4  C   UNL A   1      40.952  20.458  26.447  1.00  0.00     0.344 C 
ATOM      5  O   UNL A   1      41.529  21.124  27.301  1.00  0.00    -0.248 OA
BRANCH   4   6
ATOM      6  C   UNL A   1      39.436  20.525  26.237  1.00  0.00     0.352 C 
BRANCH   6   7
ATOM      7  O   UNL A   1      38.876  21.374  25.256  1.00  0.00    -0.478 OA
BRANCH   7   8
ATOM      8  C   UNL A   1      37.782  22.147  25.525  1.00  0.00     0.162 A 
ATOM      9  C   UNL A   1      37.718  23.508  25.850  1.00  0.00     0.161 A 
ATOM     10  C   UNL A   1      36.466  24.133  25.998  1.00  0.00     0.058 A 
ATOM     11  C   UNL A   1      35.271  23.406  25.843  1.00  0.00    -0.017 A 
ATOM     12  C   UNL A   1      36.588  21.418  25.439  1.00  0.00     0.051 A 
ATOM     13  C   UNL A   1      35.347  22.032  25.609  1.00  0.00     0.012 A 
BRANCH   9  14
ATOM     14  O   UNL A   1      38.864  24.185  26.169  1.00  0.00    -0.493 OA
ATOM     15  C   UNL A   1      39.033  24.461  27.558  1.00  0.00     0.278 C 
ENDBRANCH   9  14
BRANCH  11  16
ATOM     16  C   UNL A   1      33.940  24.008  25.990  1.00  0.00     0.068 C 
ATOM     17  C   UNL A   1      33.164  24.467  25.001  1.00  0.00     0.217 C 
ATOM     18  N   UNL A   1      33.412  24.490  23.653  1.00  0.00    -0.228 N 
ATOM     19  C   UNL A   1      31.936  25.250  25.303  1.00  0.00     0.386 C 
ATOM     20  C   UNL A   1      32.525  25.322  23.190  1.00  0.00     0.321 C 
ATOM     21  H   UNL A   1      34.098  23.992  23.153  1.00  0.00     0.313 HD
ATOM     22  N   UNL A   1      31.656  25.860  24.103  1.00  0.00    -0.149 N 
ATOM     23  O   UNL A   1      31.375  25.313  26.384  1.00  0.00    -0.236 OA
BRANCH  20  24
ATOM     24  S   UNL A   1      32.596  25.766  21.517  1.00  0.00    -0.055 SA
ATOM     25  H   UNL A   1      31.437  26.382  21.162  1.00  0.00     0.116 HD
ENDBRANCH  20  24
BRANCH  22  26
ATOM     26  C   UNL A   1      30.776  26.968  23.991  1.00  0.00     0.137 A 
ATOM     27  C   UNL A   1      29.430  26.854  23.628  1.00  0.00     0.053 A 
ATOM     28  C   UNL A   1      31.304  28.262  24.159  1.00  0.00     0.053 A 
ATOM     29  C   UNL A   1      28.662  27.995  23.351  1.00  0.00     0.020 A 
ATOM     30  C   UNL A   1      30.547  29.402  23.878  1.00  0.00     0.020 A 
ATOM     31  C   UNL A   1      29.232  29.262  23.454  1.00  0.00     0.018 A 
ATOM     32  Br  UNL A   1      28.228  30.794  22.998  1.00  0.00    -0.051 Br
ENDBRANCH  22  26
ENDBRANCH  11  16
ENDBRANCH   7   8
ENDBRANCH   6   7
ENDBRANCH   4   6
ENDBRANCH   3   4
ENDBRANCH   2   3
ENDBRANCH   1   2
BRANCH   1  33
ATOM     33  O   UNL A   1      44.012  20.001  24.677  1.00  0.00    -0.374 OA
BRANCH  33  34
ATOM     34  C   UNL A   1      44.632  21.178  25.200  1.00  0.00     0.202 C 
BRANCH  34  35
ATOM     35  C   UNL A   1      43.875  22.471  24.925  1.00  0.00     0.261 C 
BRANCH  35  36
ATOM     36  O   UNL A   1      44.226  23.459  25.901  1.00  0.00    -0.460 OA
BRANCH  36  37
ATOM     37  C   UNL A   1      43.660  24.662  25.677  1.00  0.00     0.338 C 
ATOM     38  O   UNL A   1      43.164  25.077  24.644  1.00  0.00    -0.246 OA
BRANCH  37  39
ATOM     39  C   UNL A   1      43.543  25.385  26.950  1.00  0.00     0.060 A 
ATOM     40  C   UNL A   1      42.917  24.695  27.992  1.00  0.00     0.016 A 
ATOM     41  C   UNL A   1      43.961  26.711  27.106  1.00  0.00     0.016 A 
ATOM     42  C   UNL A   1      42.598  25.367  29.158  1.00  0.00     0.010 A 
ATOM     43  C   UNL A   1      43.645  27.385  28.286  1.00  0.00     0.010 A 
ATOM     44  C   UNL A   1      42.904  26.730  29.283  1.00  0.00    -0.014 A 
BRANCH  44  45
ATOM     45  C   UNL A   1      42.245  27.467  30.380  1.00  0.00     0.031 A 
ATOM     46  C   UNL A   1      42.940  27.540  31.710  1.00  0.00     0.074 A 
ATOM     47  C   UNL A   1      41.143  28.190  30.127  1.00  0.00     0.049 A 
ATOM     48  N   UNL A   1      42.685  28.305  32.738  1.00  0.00    -0.248 NA
ATOM     49  C   UNL A   1      44.089  26.639  31.901  1.00  0.00     0.031 C 
ATOM     50  C   UNL A   1      40.428  28.210  28.853  1.00  0.00     0.029 A 
ATOM     51  N   UNL A   1      40.465  29.082  30.914  1.00  0.00    -0.354 N 
ATOM     52  C   UNL A   1      43.648  27.989  33.690  1.00  0.00     0.074 A 
ATOM     53  C   UNL A   1      44.462  26.930  33.137  1.00  0.00     0.031 C 
ATOM     54  C   UNL A   1      39.433  29.108  28.928  1.00  0.00     0.029 A 
ATOM     55  C   UNL A   1      39.437  29.712  30.259  1.00  0.00     0.049 A 
ATOM     56  H   UNL A   1      40.693  29.255  31.856  1.00  0.00     0.167 HD
ATOM     57  C   UNL A   1      43.844  28.546  34.907  1.00  0.00     0.037 A 
ATOM     58  C   UNL A   1      38.612  30.686  30.684  1.00  0.00     0.037 A 
ATOM     59  C   UNL A   1      43.014  29.590  35.446  1.00  0.00     0.049 A 
ATOM     60  C   UNL A   1      38.816  31.254  32.060  1.00  0.00     0.074 A 
ATOM     61  C   UNL A   1      43.103  30.224  36.671  1.00  0.00     0.029 A 
ATOM     62  N   UNL A   1      41.928  30.147  34.783  1.00  0.00    -0.354 N 
ATOM     63  N   UNL A   1      39.740  30.966  32.945  1.00  0.00    -0.248 NA
ATOM     64  C   UNL A   1      37.869  32.290  32.491  1.00  0.00     0.031 C 
ATOM     65  C   UNL A   1      42.042  31.133  36.767  1.00  0.00     0.029 A 
ATOM     66  C   UNL A   1      41.323  31.102  35.581  1.00  0.00     0.049 A 
ATOM     67  H   UNL A   1      41.632  29.899  33.877  1.00  0.00     0.167 HD
ATOM     68  C   UNL A   1      39.505  31.801  34.030  1.00  0.00     0.074 A 
ATOM     69  C   UNL A   1      38.356  32.615  33.682  1.00  0.00     0.031 C 
ATOM     70  C   UNL A   1      40.175  31.890  35.206  1.00  0.00     0.037 A 
BRANCH  57  71
ATOM     71  C   UNL A   1      44.973  28.000  35.734  1.00  0.00     0.057 A 
ATOM     72  C   UNL A   1      44.832  26.845  36.518  1.00  0.00     0.134 A 
ATOM     73  C   UNL A   1      46.211  28.654  35.773  1.00  0.00     0.134 A 
ATOM     74  F   UNL A   1      43.666  26.181  36.544  1.00  0.00    -0.206 F 
ATOM     75  C   UNL A   1      45.866  26.383  37.335  1.00  0.00     0.040 A 
ATOM     76  C   UNL A   1      47.262  28.187  36.565  1.00  0.00     0.040 A 
ATOM     77  F   UNL A   1      46.418  29.764  35.050  1.00  0.00    -0.206 F 
ATOM     78  C   UNL A   1      47.087  27.054  37.358  1.00  0.00     0.006 A 
ENDBRANCH  57  71
BRANCH  58  79
ATOM     79  C   UNL A   1      37.561  31.205  29.774  1.00  0.00     0.057 A 
ATOM     80  C   UNL A   1      37.724  32.415  29.091  1.00  0.00     0.134 A 
ATOM     81  C   UNL A   1      36.385  30.483  29.536  1.00  0.00     0.134 A 
ATOM     82  F   UNL A   1      38.822  33.159  29.286  1.00  0.00    -0.206 F 
ATOM     83  C   UNL A   1      36.755  32.890  28.204  1.00  0.00     0.040 A 
ATOM     84  C   UNL A   1      35.419  30.935  28.636  1.00  0.00     0.040 A 
ATOM     85  F   UNL A   1      36.173  29.313  30.156  1.00  0.00    -0.206 F 
ATOM     86  C   UNL A   1      35.601  32.144  27.969  1.00  0.00     0.006 A 
ENDBRANCH  58  79
BRANCH  70  87
ATOM     87  C   UNL A   1      39.691  32.920  36.183  1.00  0.00     0.057 A 
ATOM     88  C   UNL A   1      38.622  32.670  37.052  1.00  0.00     0.134 A 
ATOM     89  C   UNL A   1      40.320  34.169  36.271  1.00  0.00     0.134 A 
ATOM     90  F   UNL A   1      37.971  31.498  37.009  1.00  0.00    -0.206 F 
ATOM     91  C   UNL A   1      38.175  33.636  37.954  1.00  0.00     0.040 A 
ATOM     92  C   UNL A   1      39.901  35.133  37.187  1.00  0.00     0.040 A 
ATOM     93  F   UNL A   1      41.357  34.467  35.474  1.00  0.00    -0.206 F 
ATOM     94  C   UNL A   1      38.820  34.871  38.026  1.00  0.00     0.006 A 
ENDBRANCH  70  87
ENDBRANCH  44  45
ENDBRANCH  37  39
ENDBRANCH  36  37
ENDBRANCH  35  36
ENDBRANCH  34  35
ENDBRANCH  33  34
ENDBRANCH   1  33
TORSDOF 20
ENDMDL
