MODEL 1
REMARK VINA RESULT:     -11.0      0.000      0.000
REMARK SMILES Cc1c(Cl)cccc1NC(=O)C[C@](C)(C(=O)OCCOCCOC(=O)c1ccc(-c2c3nc(c(-c4c(F)cccc4F)c4ccc([nH]4)c(-c4c(F)cccc4F)c4nc(c(-c5c(F)cccc5F)c5ccc2[nH]5)C=C4)C=C3)cc1)c1ccccc1
REMARK SMILES IDX 19 1 18 2 17 3 15 4 16 5 13 6 14 7 12 8 10 9 9 10 11 12 8 13
REMARK SMILES IDX 1 14 2 15 3 16 4 17 5 18 7 19 6 20 80 21 81 22 85 23 82 24
REMARK SMILES IDX 84 25 83 26 20 27 21 28 22 29 23 30 24 31 25 32 26 33 27 34
REMARK SMILES IDX 79 35 28 36 78 37 29 38 30 39 31 40 72 41 32 42 77 43 71 44
REMARK SMILES IDX 73 45 33 46 76 47 70 48 69 49 34 51 60 52 43 53 59 54 44 55
REMARK SMILES IDX 47 56 58 57 74 58 45 59 46 60 57 62 75 63 48 64 35 65 36 66
REMARK SMILES IDX 41 67 37 68 38 69 40 70 42 71 39 72 61 73 62 74 67 75 63 76
REMARK SMILES IDX 64 77 66 78 68 79 65 80 49 81 50 82 55 83 51 84 52 85 54 86
REMARK SMILES IDX 56 87 53 88
REMARK H PARENT 9 11 73 50 47 61
REMARK Flexibility Score: inf
ROOT
ATOM      1  C   UNL A   1      37.156  22.113  24.428  1.00  0.00     0.202 C 
ENDROOT
BRANCH   1   2
ATOM      2  C   UNL A   1      36.023  23.032  24.889  1.00  0.00     0.261 C 
BRANCH   2   3
ATOM      3  O   UNL A   1      34.944  23.009  23.938  1.00  0.00    -0.463 OA
BRANCH   3   4
ATOM      4  C   UNL A   1      33.758  22.531  24.401  1.00  0.00     0.316 C 
ATOM      5  O   UNL A   1      33.581  21.356  24.703  1.00  0.00    -0.251 OA
BRANCH   4   6
ATOM      6  C   UNL A   1      32.679  23.636  24.546  1.00  0.00     0.099 C 
ATOM      7  C   UNL A   1      31.272  23.171  24.064  1.00  0.00     0.029 C 
BRANCH   6   8
ATOM      8  C   UNL A   1      32.576  24.070  26.046  1.00  0.00     0.123 C 
BRANCH   8   9
ATOM      9  C   UNL A   1      31.207  24.273  26.677  1.00  0.00     0.225 C 
ATOM     10  N   UNL A   1      30.474  25.413  26.561  1.00  0.00    -0.326 N 
ATOM     11  H   UNL A   1      29.572  25.334  26.945  1.00  0.00     0.169 HD
ATOM     12  O   UNL A   1      30.697  23.353  27.328  1.00  0.00    -0.275 OA
BRANCH  10  13
ATOM     13  C   UNL A   1      30.732  26.677  26.010  1.00  0.00     0.045 A 
ATOM     14  C   UNL A   1      29.202  26.122  24.012  1.00  0.00     0.048 C 
ATOM     15  C   UNL A   1      30.178  27.003  24.753  1.00  0.00    -0.009 A 
ATOM     16  C   UNL A   1      30.599  28.193  24.132  1.00  0.00     0.046 A 
ATOM     17  Cl  UNL A   1      30.190  28.513  22.481  1.00  0.00    -0.084 Cl
ATOM     18  C   UNL A   1      31.416  29.107  24.797  1.00  0.00     0.021 A 
ATOM     19  C   UNL A   1      31.523  27.616  26.681  1.00  0.00     0.026 A 
ATOM     20  C   UNL A   1      31.857  28.832  26.084  1.00  0.00     0.004 A 
ENDBRANCH  10  13
ENDBRANCH   8   9
ENDBRANCH   6   8
BRANCH   6  21
ATOM     21  C   UNL A   1      33.004  24.866  23.641  1.00  0.00    -0.030 A 
ATOM     22  C   UNL A   1      33.726  25.961  24.164  1.00  0.00     0.005 A 
ATOM     23  C   UNL A   1      32.540  24.978  22.317  1.00  0.00     0.005 A 
ATOM     24  C   UNL A   1      33.989  27.097  23.394  1.00  0.00     0.000 A 
ATOM     25  C   UNL A   1      32.808  26.113  21.546  1.00  0.00     0.000 A 
ATOM     26  C   UNL A   1      33.533  27.171  22.082  1.00  0.00     0.000 A 
ENDBRANCH   6  21
ENDBRANCH   4   6
ENDBRANCH   3   4
ENDBRANCH   2   3
ENDBRANCH   1   2
BRANCH   1  27
ATOM     27  O   UNL A   1      36.949  20.717  24.653  1.00  0.00    -0.374 OA
BRANCH  27  28
ATOM     28  C   UNL A   1      38.099  19.926  24.943  1.00  0.00     0.202 C 
BRANCH  28  29
ATOM     29  C   UNL A   1      39.262  20.627  25.659  1.00  0.00     0.261 C 
BRANCH  29  30
ATOM     30  O   UNL A   1      40.165  19.739  26.345  1.00  0.00    -0.460 OA
BRANCH  30  31
ATOM     31  C   UNL A   1      41.463  19.865  25.974  1.00  0.00     0.338 C 
ATOM     32  O   UNL A   1      42.087  19.132  25.217  1.00  0.00    -0.246 OA
BRANCH  31  33
ATOM     33  C   UNL A   1      42.058  21.097  26.524  1.00  0.00     0.060 A 
ATOM     34  C   UNL A   1      42.058  21.258  27.915  1.00  0.00     0.016 A 
ATOM     35  C   UNL A   1      42.490  22.138  25.697  1.00  0.00     0.016 A 
ATOM     36  C   UNL A   1      42.454  22.472  28.481  1.00  0.00     0.010 A 
ATOM     37  C   UNL A   1      42.883  23.360  26.268  1.00  0.00     0.010 A 
ATOM     38  C   UNL A   1      42.837  23.544  27.662  1.00  0.00    -0.014 A 
BRANCH  38  39
ATOM     39  C   UNL A   1      42.998  24.892  28.271  1.00  0.00     0.031 A 
ATOM     40  C   UNL A   1      44.382  25.369  28.606  1.00  0.00     0.074 A 
ATOM     41  C   UNL A   1      41.950  25.715  28.465  1.00  0.00     0.049 A 
ATOM     42  N   UNL A   1      44.769  26.525  29.078  1.00  0.00    -0.248 NA
ATOM     43  C   UNL A   1      45.472  24.402  28.405  1.00  0.00     0.031 C 
ATOM     44  C   UNL A   1      40.561  25.363  28.221  1.00  0.00     0.029 A 
ATOM     45  N   UNL A   1      41.889  27.020  28.890  1.00  0.00    -0.354 N 
ATOM     46  C   UNL A   1      46.142  26.420  29.245  1.00  0.00     0.074 A 
ATOM     47  C   UNL A   1      46.516  25.078  28.857  1.00  0.00     0.031 C 
ATOM     48  C   UNL A   1      39.783  26.438  28.422  1.00  0.00     0.029 A 
ATOM     49  C   UNL A   1      40.617  27.547  28.872  1.00  0.00     0.049 A 
ATOM     50  H   UNL A   1      42.680  27.530  29.181  1.00  0.00     0.167 HD
ATOM     51  C   UNL A   1      47.016  27.361  29.674  1.00  0.00     0.037 A 
ATOM     52  C   UNL A   1      40.177  28.781  29.188  1.00  0.00     0.037 A 
ATOM     53  C   UNL A   1      46.644  28.696  30.061  1.00  0.00     0.049 A 
ATOM     54  C   UNL A   1      41.168  29.808  29.668  1.00  0.00     0.074 A 
ATOM     55  C   UNL A   1      47.457  29.721  30.511  1.00  0.00     0.029 A 
ATOM     56  N   UNL A   1      45.348  29.189  30.047  1.00  0.00    -0.354 N 
ATOM     57  N   UNL A   1      42.468  29.703  29.798  1.00  0.00    -0.248 NA
ATOM     58  C   UNL A   1      40.628  31.119  30.060  1.00  0.00     0.031 C 
ATOM     59  C   UNL A   1      46.647  30.823  30.805  1.00  0.00     0.029 A 
ATOM     60  C   UNL A   1      45.336  30.500  30.491  1.00  0.00     0.049 A 
ATOM     61  H   UNL A   1      44.554  28.682  29.762  1.00  0.00     0.167 HD
ATOM     62  C   UNL A   1      42.904  30.936  30.269  1.00  0.00     0.074 A 
ATOM     63  C   UNL A   1      41.732  31.778  30.381  1.00  0.00     0.031 C 
ATOM     64  C   UNL A   1      44.162  31.330  30.586  1.00  0.00     0.037 A 
BRANCH  51  65
ATOM     65  C   UNL A   1      48.454  26.950  29.772  1.00  0.00     0.057 A 
ATOM     66  C   UNL A   1      48.982  26.376  30.937  1.00  0.00     0.134 A 
ATOM     67  C   UNL A   1      49.327  27.149  28.696  1.00  0.00     0.134 A 
ATOM     68  F   UNL A   1      48.203  26.180  32.011  1.00  0.00    -0.206 F 
ATOM     69  C   UNL A   1      50.335  26.049  31.040  1.00  0.00     0.040 A 
ATOM     70  C   UNL A   1      50.676  26.800  28.777  1.00  0.00     0.040 A 
ATOM     71  F   UNL A   1      48.886  27.695  27.553  1.00  0.00    -0.206 F 
ATOM     72  C   UNL A   1      51.185  26.257  29.955  1.00  0.00     0.006 A 
ENDBRANCH  51  65
BRANCH  52  73
ATOM     73  C   UNL A   1      38.735  29.125  29.065  1.00  0.00     0.057 A 
ATOM     74  C   UNL A   1      38.194  29.559  27.848  1.00  0.00     0.134 A 
ATOM     75  C   UNL A   1      37.868  29.060  30.163  1.00  0.00     0.134 A 
ATOM     76  F   UNL A   1      38.975  29.670  26.763  1.00  0.00    -0.206 F 
ATOM     77  C   UNL A   1      36.853  29.933  27.732  1.00  0.00     0.040 A 
ATOM     78  C   UNL A   1      36.519  29.403  30.055  1.00  0.00     0.040 A 
ATOM     79  F   UNL A   1      38.320  28.655  31.359  1.00  0.00    -0.206 F 
ATOM     80  C   UNL A   1      36.009  29.850  28.837  1.00  0.00     0.006 A 
ENDBRANCH  52  73
BRANCH  64  81
ATOM     81  C   UNL A   1      44.341  32.747  31.044  1.00  0.00     0.057 A 
ATOM     82  C   UNL A   1      44.280  33.103  32.397  1.00  0.00     0.134 A 
ATOM     83  C   UNL A   1      44.619  33.762  30.120  1.00  0.00     0.134 A 
ATOM     84  F   UNL A   1      44.005  32.180  33.332  1.00  0.00    -0.206 F 
ATOM     85  C   UNL A   1      44.468  34.423  32.813  1.00  0.00     0.040 A 
ATOM     86  C   UNL A   1      44.834  35.079  30.525  1.00  0.00     0.040 A 
ATOM     87  F   UNL A   1      44.699  33.486  28.808  1.00  0.00    -0.206 F 
ATOM     88  C   UNL A   1      44.753  35.414  31.875  1.00  0.00     0.006 A 
ENDBRANCH  64  81
ENDBRANCH  38  39
ENDBRANCH  31  33
ENDBRANCH  30  31
ENDBRANCH  29  30
ENDBRANCH  28  29
ENDBRANCH  27  28
ENDBRANCH   1  27
TORSDOF 18
ENDMDL
MODEL 2
REMARK VINA RESULT:     -10.8      3.874      7.665
REMARK SMILES Cc1c(Cl)cccc1NC(=O)C[C@](C)(C(=O)OCCOCCOC(=O)c1ccc(-c2c3nc(c(-c4c(F)cccc4F)c4ccc([nH]4)c(-c4c(F)cccc4F)c4nc(c(-c5c(F)cccc5F)c5ccc2[nH]5)C=C4)C=C3)cc1)c1ccccc1
REMARK SMILES IDX 19 1 18 2 17 3 15 4 16 5 13 6 14 7 12 8 10 9 9 10 11 12 8 13
REMARK SMILES IDX 1 14 2 15 3 16 4 17 5 18 7 19 6 20 80 21 81 22 85 23 82 24
REMARK SMILES IDX 84 25 83 26 20 27 21 28 22 29 23 30 24 31 25 32 26 33 27 34
REMARK SMILES IDX 79 35 28 36 78 37 29 38 30 39 31 40 72 41 32 42 77 43 71 44
REMARK SMILES IDX 73 45 33 46 76 47 70 48 69 49 34 51 60 52 43 53 59 54 44 55
REMARK SMILES IDX 47 56 58 57 74 58 45 59 46 60 57 62 75 63 48 64 35 65 36 66
REMARK SMILES IDX 41 67 37 68 38 69 40 70 42 71 39 72 61 73 62 74 67 75 63 76
REMARK SMILES IDX 64 77 66 78 68 79 65 80 49 81 50 82 55 83 51 84 52 85 54 86
REMARK SMILES IDX 56 87 53 88
REMARK H PARENT 9 11 73 50 47 61
REMARK Flexibility Score: inf
ROOT
ATOM      1  C   UNL A   1      37.797  23.500  26.071  1.00  0.00     0.202 C 
ENDROOT
BRANCH   1   2
ATOM      2  C   UNL A   1      36.613  22.586  25.752  1.00  0.00     0.261 C 
BRANCH   2   3
ATOM      3  O   UNL A   1      35.399  23.353  25.670  1.00  0.00    -0.463 OA
BRANCH   3   4
ATOM      4  C   UNL A   1      34.436  22.849  24.854  1.00  0.00     0.316 C 
ATOM      5  O   UNL A   1      34.566  21.799  24.233  1.00  0.00    -0.251 OA
BRANCH   4   6
ATOM      6  C   UNL A   1      33.150  23.717  24.830  1.00  0.00     0.099 C 
ATOM      7  C   UNL A   1      31.905  22.936  24.313  1.00  0.00     0.029 C 
BRANCH   6   8
ATOM      8  C   UNL A   1      32.849  24.242  26.273  1.00  0.00     0.123 C 
BRANCH   8   9
ATOM      9  C   UNL A   1      31.410  24.316  26.760  1.00  0.00     0.225 C 
ATOM     10  N   UNL A   1      30.588  25.378  26.552  1.00  0.00    -0.326 N 
ATOM     11  H   UNL A   1      29.663  25.216  26.845  1.00  0.00     0.169 HD
ATOM     12  O   UNL A   1      30.927  23.355  27.372  1.00  0.00    -0.275 OA
BRANCH  10  13
ATOM     13  C   UNL A   1      30.778  26.657  26.008  1.00  0.00     0.045 A 
ATOM     14  C   UNL A   1      29.374  25.997  23.951  1.00  0.00     0.048 C 
ATOM     15  C   UNL A   1      30.254  26.944  24.729  1.00  0.00    -0.009 A 
ATOM     16  C   UNL A   1      30.616  28.161  24.122  1.00  0.00     0.046 A 
ATOM     17  Cl  UNL A   1      30.253  28.451  22.455  1.00  0.00    -0.084 Cl
ATOM     18  C   UNL A   1      31.339  29.129  24.818  1.00  0.00     0.021 A 
ATOM     19  C   UNL A   1      31.473  27.650  26.708  1.00  0.00     0.026 A 
ATOM     20  C   UNL A   1      31.745  28.886  26.122  1.00  0.00     0.004 A 
ENDBRANCH  10  13
ENDBRANCH   8   9
ENDBRANCH   6   8
BRANCH   6  21
ATOM     21  C   UNL A   1      33.293  24.910  23.832  1.00  0.00    -0.030 A 
ATOM     22  C   UNL A   1      33.902  26.114  24.248  1.00  0.00     0.005 A 
ATOM     23  C   UNL A   1      32.765  24.875  22.528  1.00  0.00     0.005 A 
ATOM     24  C   UNL A   1      33.999  27.215  23.394  1.00  0.00     0.000 A 
ATOM     25  C   UNL A   1      32.867  25.977  21.673  1.00  0.00     0.000 A 
ATOM     26  C   UNL A   1      33.484  27.146  22.104  1.00  0.00     0.000 A 
ENDBRANCH   6  21
ENDBRANCH   4   6
ENDBRANCH   3   4
ENDBRANCH   2   3
ENDBRANCH   1   2
BRANCH   1  27
ATOM     27  O   UNL A   1      38.856  22.900  26.820  1.00  0.00    -0.374 OA
BRANCH  27  28
ATOM     28  C   UNL A   1      39.679  21.955  26.142  1.00  0.00     0.202 C 
BRANCH  28  29
ATOM     29  C   UNL A   1      41.190  22.224  26.140  1.00  0.00     0.261 C 
BRANCH  29  30
ATOM     30  O   UNL A   1      41.616  23.252  27.055  1.00  0.00    -0.460 OA
BRANCH  30  31
ATOM     31  C   UNL A   1      41.902  24.441  26.467  1.00  0.00     0.338 C 
ATOM     32  O   UNL A   1      42.376  24.616  25.352  1.00  0.00    -0.246 OA
BRANCH  31  33
ATOM     33  C   UNL A   1      41.468  25.570  27.310  1.00  0.00     0.060 A 
ATOM     34  C   UNL A   1      42.234  26.742  27.278  1.00  0.00     0.016 A 
ATOM     35  C   UNL A   1      40.410  25.448  28.216  1.00  0.00     0.016 A 
ATOM     36  C   UNL A   1      41.970  27.779  28.175  1.00  0.00     0.010 A 
ATOM     37  C   UNL A   1      40.148  26.491  29.121  1.00  0.00     0.010 A 
ATOM     38  C   UNL A   1      40.947  27.648  29.126  1.00  0.00    -0.014 A 
BRANCH  38  39
ATOM     39  C   UNL A   1      40.860  28.645  30.228  1.00  0.00     0.031 A 
ATOM     40  C   UNL A   1      39.762  29.668  30.186  1.00  0.00     0.074 A 
ATOM     41  C   UNL A   1      41.690  28.609  31.287  1.00  0.00     0.049 A 
ATOM     42  N   UNL A   1      39.451  30.587  31.064  1.00  0.00    -0.248 NA
ATOM     43  C   UNL A   1      38.919  29.672  28.981  1.00  0.00     0.031 C 
ATOM     44  C   UNL A   1      42.814  27.697  31.431  1.00  0.00     0.029 A 
ATOM     45  N   UNL A   1      41.708  29.340  32.451  1.00  0.00    -0.354 N 
ATOM     46  C   UNL A   1      38.388  31.286  30.511  1.00  0.00     0.074 A 
ATOM     47  C   UNL A   1      38.131  30.711  29.210  1.00  0.00     0.031 C 
ATOM     48  C   UNL A   1      43.373  27.861  32.642  1.00  0.00     0.029 A 
ATOM     49  C   UNL A   1      42.679  28.938  33.340  1.00  0.00     0.049 A 
ATOM     50  H   UNL A   1      41.086  30.082  32.631  1.00  0.00     0.167 HD
ATOM     51  C   UNL A   1      37.683  32.313  31.044  1.00  0.00     0.037 A 
ATOM     52  C   UNL A   1      42.979  29.392  34.573  1.00  0.00     0.037 A 
ATOM     53  C   UNL A   1      37.941  32.887  32.337  1.00  0.00     0.049 A 
ATOM     54  C   UNL A   1      42.183  30.537  35.141  1.00  0.00     0.074 A 
ATOM     55  C   UNL A   1      37.282  33.929  32.964  1.00  0.00     0.029 A 
ATOM     56  N   UNL A   1      38.940  32.467  33.202  1.00  0.00    -0.354 N 
ATOM     57  N   UNL A   1      41.164  31.175  34.617  1.00  0.00    -0.248 NA
ATOM     58  C   UNL A   1      42.589  31.036  36.463  1.00  0.00     0.031 C 
ATOM     59  C   UNL A   1      37.908  34.166  34.193  1.00  0.00     0.029 A 
ATOM     60  C   UNL A   1      38.925  33.237  34.352  1.00  0.00     0.049 A 
ATOM     61  H   UNL A   1      39.568  31.730  33.024  1.00  0.00     0.167 HD
ATOM     62  C   UNL A   1      40.796  32.136  35.551  1.00  0.00     0.074 A 
ATOM     63  C   UNL A   1      41.688  31.983  36.682  1.00  0.00     0.031 C 
ATOM     64  C   UNL A   1      39.813  33.065  35.474  1.00  0.00     0.037 A 
BRANCH  51  65
ATOM     65  C   UNL A   1      36.588  32.889  30.198  1.00  0.00     0.057 A 
ATOM     66  C   UNL A   1      36.852  33.809  29.173  1.00  0.00     0.134 A 
ATOM     67  C   UNL A   1      35.253  32.535  30.422  1.00  0.00     0.134 A 
ATOM     68  F   UNL A   1      38.108  34.206  28.923  1.00  0.00    -0.206 F 
ATOM     69  C   UNL A   1      35.822  34.385  28.428  1.00  0.00     0.040 A 
ATOM     70  C   UNL A   1      34.217  33.082  29.664  1.00  0.00     0.040 A 
ATOM     71  F   UNL A   1      34.932  31.661  31.387  1.00  0.00    -0.206 F 
ATOM     72  C   UNL A   1      34.500  34.017  28.670  1.00  0.00     0.006 A 
ENDBRANCH  51  65
BRANCH  52  73
ATOM     73  C   UNL A   1      44.076  28.772  35.363  1.00  0.00     0.057 A 
ATOM     74  C   UNL A   1      43.819  27.752  36.287  1.00  0.00     0.134 A 
ATOM     75  C   UNL A   1      45.403  29.202  35.239  1.00  0.00     0.134 A 
ATOM     76  F   UNL A   1      42.566  27.311  36.475  1.00  0.00    -0.206 F 
ATOM     77  C   UNL A   1      44.833  27.196  37.070  1.00  0.00     0.040 A 
ATOM     78  C   UNL A   1      46.432  28.637  35.994  1.00  0.00     0.040 A 
ATOM     79  F   UNL A   1      45.721  30.177  34.373  1.00  0.00    -0.206 F 
ATOM     80  C   UNL A   1      46.147  27.635  36.920  1.00  0.00     0.006 A 
ENDBRANCH  52  73
BRANCH  64  81
ATOM     81  C   UNL A   1      39.622  33.962  36.661  1.00  0.00     0.057 A 
ATOM     82  C   UNL A   1      40.147  35.259  36.705  1.00  0.00     0.134 A 
ATOM     83  C   UNL A   1      38.866  33.533  37.760  1.00  0.00     0.134 A 
ATOM     84  F   UNL A   1      40.891  35.726  35.689  1.00  0.00    -0.206 F 
ATOM     85  C   UNL A   1      39.946  36.091  37.808  1.00  0.00     0.040 A 
ATOM     86  C   UNL A   1      38.637  34.364  38.857  1.00  0.00     0.040 A 
ATOM     87  F   UNL A   1      38.328  32.303  37.779  1.00  0.00    -0.206 F 
ATOM     88  C   UNL A   1      39.183  35.645  38.885  1.00  0.00     0.006 A 
ENDBRANCH  64  81
ENDBRANCH  38  39
ENDBRANCH  31  33
ENDBRANCH  30  31
ENDBRANCH  29  30
ENDBRANCH  28  29
ENDBRANCH  27  28
ENDBRANCH   1  27
TORSDOF 18
ENDMDL
MODEL 3
REMARK VINA RESULT:     -10.8      4.242      8.747
REMARK SMILES Cc1c(Cl)cccc1NC(=O)C[C@](C)(C(=O)OCCOCCOC(=O)c1ccc(-c2c3nc(c(-c4c(F)cccc4F)c4ccc([nH]4)c(-c4c(F)cccc4F)c4nc(c(-c5c(F)cccc5F)c5ccc2[nH]5)C=C4)C=C3)cc1)c1ccccc1
REMARK SMILES IDX 19 1 18 2 17 3 15 4 16 5 13 6 14 7 12 8 10 9 9 10 11 12 8 13
REMARK SMILES IDX 1 14 2 15 3 16 4 17 5 18 7 19 6 20 80 21 81 22 85 23 82 24
REMARK SMILES IDX 84 25 83 26 20 27 21 28 22 29 23 30 24 31 25 32 26 33 27 34
REMARK SMILES IDX 79 35 28 36 78 37 29 38 30 39 31 40 72 41 32 42 77 43 71 44
REMARK SMILES IDX 73 45 33 46 76 47 70 48 69 49 34 51 60 52 43 53 59 54 44 55
REMARK SMILES IDX 47 56 58 57 74 58 45 59 46 60 57 62 75 63 48 64 35 65 36 66
REMARK SMILES IDX 41 67 37 68 38 69 40 70 42 71 39 72 61 73 62 74 67 75 63 76
REMARK SMILES IDX 64 77 66 78 68 79 65 80 49 81 50 82 55 83 51 84 52 85 54 86
REMARK SMILES IDX 56 87 53 88
REMARK H PARENT 9 11 73 50 47 61
REMARK Flexibility Score: inf
ROOT
ATOM      1  C   UNL A   1      31.125  29.987  24.644  1.00  0.00     0.202 C 
ENDROOT
BRANCH   1   2
ATOM      2  C   UNL A   1      30.672  28.677  23.999  1.00  0.00     0.261 C 
BRANCH   2   3
ATOM      3  O   UNL A   1      31.511  27.592  24.432  1.00  0.00    -0.463 OA
BRANCH   3   4
ATOM      4  C   UNL A   1      31.093  26.346  24.080  1.00  0.00     0.316 C 
ATOM      5  O   UNL A   1      30.353  26.132  23.127  1.00  0.00    -0.251 OA
BRANCH   4   6
ATOM      6  C   UNL A   1      31.687  25.234  24.985  1.00  0.00     0.099 C 
ATOM      7  C   UNL A   1      32.083  25.755  26.399  1.00  0.00     0.029 C 
BRANCH   6   8
ATOM      8  C   UNL A   1      30.639  24.083  25.151  1.00  0.00     0.123 C 
BRANCH   8   9
ATOM      9  C   UNL A   1      30.554  23.330  26.469  1.00  0.00     0.225 C 
ATOM     10  N   UNL A   1      31.354  22.283  26.803  1.00  0.00    -0.326 N 
ATOM     11  H   UNL A   1      31.230  21.981  27.732  1.00  0.00     0.169 HD
ATOM     12  O   UNL A   1      29.724  23.683  27.316  1.00  0.00    -0.275 OA
BRANCH  10  13
ATOM     13  C   UNL A   1      32.318  21.541  26.106  1.00  0.00     0.045 A 
ATOM     14  C   UNL A   1      34.131  22.341  27.752  1.00  0.00     0.048 C 
ATOM     15  C   UNL A   1      33.667  21.613  26.514  1.00  0.00    -0.009 A 
ATOM     16  C   UNL A   1      34.641  21.018  25.691  1.00  0.00     0.046 A 
ATOM     17  Cl  UNL A   1      36.324  21.313  25.971  1.00  0.00    -0.084 Cl
ATOM     18  C   UNL A   1      34.283  20.242  24.590  1.00  0.00     0.021 A 
ATOM     19  C   UNL A   1      31.968  20.731  25.019  1.00  0.00     0.026 A 
ATOM     20  C   UNL A   1      32.943  20.075  24.268  1.00  0.00     0.004 A 
ENDBRANCH  10  13
ENDBRANCH   8   9
ENDBRANCH   6   8
BRANCH   6  21
ATOM     21  C   UNL A   1      33.021  24.679  24.395  1.00  0.00    -0.030 A 
ATOM     22  C   UNL A   1      33.003  23.857  23.248  1.00  0.00     0.005 A 
ATOM     23  C   UNL A   1      34.270  24.899  25.006  1.00  0.00     0.005 A 
ATOM     24  C   UNL A   1      34.176  23.304  22.727  1.00  0.00     0.000 A 
ATOM     25  C   UNL A   1      35.443  24.349  24.481  1.00  0.00     0.000 A 
ATOM     26  C   UNL A   1      35.398  23.554  23.342  1.00  0.00     0.000 A 
ENDBRANCH   6  21
ENDBRANCH   4   6
ENDBRANCH   3   4
ENDBRANCH   2   3
ENDBRANCH   1   2
BRANCH   1  27
ATOM     27  O   UNL A   1      32.073  29.857  25.705  1.00  0.00    -0.374 OA
BRANCH  27  28
ATOM     28  C   UNL A   1      31.789  30.543  26.922  1.00  0.00     0.202 C 
BRANCH  28  29
ATOM     29  C   UNL A   1      31.517  32.050  26.823  1.00  0.00     0.261 C 
BRANCH  29  30
ATOM     30  O   UNL A   1      32.699  32.867  26.725  1.00  0.00    -0.460 OA
BRANCH  30  31
ATOM     31  C   UNL A   1      33.205  33.263  27.920  1.00  0.00     0.338 C 
ATOM     32  O   UNL A   1      32.654  33.966  28.757  1.00  0.00    -0.246 OA
BRANCH  31  33
ATOM     33  C   UNL A   1      34.521  32.646  28.171  1.00  0.00     0.060 A 
ATOM     34  C   UNL A   1      34.548  31.303  28.566  1.00  0.00     0.016 A 
ATOM     35  C   UNL A   1      35.701  33.396  28.150  1.00  0.00     0.016 A 
ATOM     36  C   UNL A   1      35.747  30.716  28.978  1.00  0.00     0.010 A 
ATOM     37  C   UNL A   1      36.905  32.805  28.568  1.00  0.00     0.010 A 
ATOM     38  C   UNL A   1      36.929  31.471  29.014  1.00  0.00    -0.014 A 
BRANCH  38  39
ATOM     39  C   UNL A   1      38.123  30.904  29.699  1.00  0.00     0.031 A 
ATOM     40  C   UNL A   1      38.342  31.230  31.148  1.00  0.00     0.074 A 
ATOM     41  C   UNL A   1      38.965  30.058  29.077  1.00  0.00     0.049 A 
ATOM     42  N   UNL A   1      39.269  30.799  31.963  1.00  0.00    -0.248 NA
ATOM     43  C   UNL A   1      37.405  32.190  31.750  1.00  0.00     0.031 C 
ATOM     44  C   UNL A   1      38.888  29.693  27.671  1.00  0.00     0.029 A 
ATOM     45  N   UNL A   1      40.037  29.337  29.546  1.00  0.00    -0.354 N 
ATOM     46  C   UNL A   1      39.036  31.445  33.169  1.00  0.00     0.074 A 
ATOM     47  C   UNL A   1      37.905  32.324  32.969  1.00  0.00     0.031 C 
ATOM     48  C   UNL A   1      39.815  28.761  27.398  1.00  0.00     0.029 A 
ATOM     49  C   UNL A   1      40.597  28.505  28.603  1.00  0.00     0.049 A 
ATOM     50  H   UNL A   1      40.373  29.410  30.468  1.00  0.00     0.167 HD
ATOM     51  C   UNL A   1      39.701  31.314  34.341  1.00  0.00     0.037 A 
ATOM     52  C   UNL A   1      41.627  27.642  28.699  1.00  0.00     0.037 A 
ATOM     53  C   UNL A   1      40.828  30.443  34.539  1.00  0.00     0.049 A 
ATOM     54  C   UNL A   1      42.353  27.517  30.012  1.00  0.00     0.074 A 
ATOM     55  C   UNL A   1      41.569  30.241  35.690  1.00  0.00     0.029 A 
ATOM     56  N   UNL A   1      41.378  29.629  33.561  1.00  0.00    -0.354 N 
ATOM     57  N   UNL A   1      42.108  28.118  31.152  1.00  0.00    -0.248 NA
ATOM     58  C   UNL A   1      43.509  26.608  30.048  1.00  0.00     0.031 C 
ATOM     59  C   UNL A   1      42.593  29.332  35.397  1.00  0.00     0.029 A 
ATOM     60  C   UNL A   1      42.458  28.932  34.077  1.00  0.00     0.049 A 
ATOM     61  H   UNL A   1      41.050  29.557  32.635  1.00  0.00     0.167 HD
ATOM     62  C   UNL A   1      43.065  27.647  32.043  1.00  0.00     0.074 A 
ATOM     63  C   UNL A   1      43.880  26.696  31.317  1.00  0.00     0.031 C 
ATOM     64  C   UNL A   1      43.253  27.979  33.344  1.00  0.00     0.037 A 
BRANCH  51  65
ATOM     65  C   UNL A   1      39.231  32.166  35.481  1.00  0.00     0.057 A 
ATOM     66  C   UNL A   1      38.342  31.679  36.450  1.00  0.00     0.134 A 
ATOM     67  C   UNL A   1      39.656  33.493  35.603  1.00  0.00     0.134 A 
ATOM     68  F   UNL A   1      37.879  30.422  36.377  1.00  0.00    -0.206 F 
ATOM     69  C   UNL A   1      37.864  32.495  37.477  1.00  0.00     0.040 A 
ATOM     70  C   UNL A   1      39.208  34.311  36.641  1.00  0.00     0.040 A 
ATOM     71  F   UNL A   1      40.506  34.021  34.710  1.00  0.00    -0.206 F 
ATOM     72  C   UNL A   1      38.302  33.814  37.577  1.00  0.00     0.006 A 
ENDBRANCH  51  65
BRANCH  52  73
ATOM     73  C   UNL A   1      42.041  26.822  27.529  1.00  0.00     0.057 A 
ATOM     74  C   UNL A   1      42.908  27.333  26.555  1.00  0.00     0.134 A 
ATOM     75  C   UNL A   1      41.558  25.521  27.336  1.00  0.00     0.134 A 
ATOM     76  F   UNL A   1      43.386  28.581  26.665  1.00  0.00    -0.206 F 
ATOM     77  C   UNL A   1      43.265  26.591  25.426  1.00  0.00     0.040 A 
ATOM     78  C   UNL A   1      41.929  24.757  26.228  1.00  0.00     0.040 A 
ATOM     79  F   UNL A   1      40.723  24.970  28.230  1.00  0.00    -0.206 F 
ATOM     80  C   UNL A   1      42.779  25.296  25.264  1.00  0.00     0.006 A 
ENDBRANCH  52  73
BRANCH  64  81
ATOM     81  C   UNL A   1      44.358  27.279  34.077  1.00  0.00     0.057 A 
ATOM     82  C   UNL A   1      45.649  27.816  34.163  1.00  0.00     0.134 A 
ATOM     83  C   UNL A   1      44.115  26.070  34.741  1.00  0.00     0.134 A 
ATOM     84  F   UNL A   1      45.951  28.965  33.539  1.00  0.00    -0.206 F 
ATOM     85  C   UNL A   1      46.664  27.163  34.865  1.00  0.00     0.040 A 
ATOM     86  C   UNL A   1      45.114  25.422  35.468  1.00  0.00     0.040 A 
ATOM     87  F   UNL A   1      42.897  25.506  34.705  1.00  0.00    -0.206 F 
ATOM     88  C   UNL A   1      46.395  25.966  35.525  1.00  0.00     0.006 A 
ENDBRANCH  64  81
ENDBRANCH  38  39
ENDBRANCH  31  33
ENDBRANCH  30  31
ENDBRANCH  29  30
ENDBRANCH  28  29
ENDBRANCH  27  28
ENDBRANCH   1  27
TORSDOF 18
ENDMDL
