MODEL 1
REMARK VINA RESULT:     -12.0      0.000      0.000
REMARK SMILES O=C(C[C@H](NC(=O)[C@]12C[C@H]3C[C@H](C[C@H](C3)C1)C2)c1ccc(Cl)cc1Cl)OCCOCCOC(=O)c1ccc(-c2c3nc(c(-c4c(F)cccc4F)c4ccc([nH]4)c(-c4c(F)cccc4F)c4nc(c(-c5c(F)cccc5F)c5ccc2[nH]5)C=C4)C=C3)cc1
REMARK SMILES IDX 28 1 27 2 26 3 2 4 1 5 3 6 4 7 18 8 19 9 24 10 20 11 23 12
REMARK SMILES IDX 25 13 21 14 22 15 5 16 6 17 7 19 8 20 9 21 16 22 17 23 10 24
REMARK SMILES IDX 14 25 12 26 11 27 15 28 13 29 29 30 30 31 31 32 32 33 33 34
REMARK SMILES IDX 34 35 35 36 36 37 88 38 37 39 87 40 38 41 39 42 40 43 81 44
REMARK SMILES IDX 41 45 86 46 80 47 82 48 42 49 85 50 79 51 78 52 43 54 69 55
REMARK SMILES IDX 52 56 68 57 53 58 56 59 67 60 83 61 54 62 55 63 66 65 84 66
REMARK SMILES IDX 57 67 44 68 45 69 50 70 46 71 47 72 49 73 51 74 48 75 70 76
REMARK SMILES IDX 71 77 76 78 72 79 73 80 75 81 77 82 74 83 58 84 59 85 64 86
REMARK SMILES IDX 60 87 61 88 63 89 65 90 62 91
REMARK H PARENT 5 18 82 53 56 64
REMARK Flexibility Score: inf
ROOT
ATOM      1  C   UNL A   1      39.575  21.828  25.958  1.00  0.00     0.202 C 
ENDROOT
BRANCH   1   2
ATOM      2  C   UNL A   1      38.055  21.799  25.883  1.00  0.00     0.261 C 
BRANCH   2   3
ATOM      3  O   UNL A   1      37.547  22.108  24.579  1.00  0.00    -0.463 OA
BRANCH   3   4
ATOM      4  C   UNL A   1      36.403  22.791  24.357  1.00  0.00     0.308 C 
ATOM      5  O   UNL A   1      36.199  23.284  23.251  1.00  0.00    -0.252 OA
BRANCH   4   6
ATOM      6  C   UNL A   1      35.481  23.088  25.514  1.00  0.00     0.152 C 
BRANCH   6   7
ATOM      7  C   UNL A   1      33.985  23.028  25.255  1.00  0.00     0.125 C 
BRANCH   7   8
ATOM      8  C   UNL A   1      33.455  21.731  24.640  1.00  0.00    -0.006 A 
ATOM      9  C   UNL A   1      33.879  20.519  25.238  1.00  0.00     0.009 A 
ATOM     10  C   UNL A   1      32.531  21.610  23.578  1.00  0.00     0.047 A 
ATOM     11  C   UNL A   1      33.534  19.273  24.706  1.00  0.00     0.021 A 
ATOM     12  C   UNL A   1      32.283  20.369  22.976  1.00  0.00     0.041 A 
ATOM     13  Cl  UNL A   1      31.638  22.927  22.887  1.00  0.00    -0.084 Cl
ATOM     14  C   UNL A   1      32.802  19.209  23.531  1.00  0.00     0.042 A 
ATOM     15  Cl  UNL A   1      32.524  17.697  22.765  1.00  0.00    -0.084 Cl
ENDBRANCH   7   8
BRANCH   7  16
ATOM     16  N   UNL A   1      33.209  23.734  26.294  1.00  0.00    -0.348 N 
ATOM     17  C   UNL A   1      32.272  24.703  26.397  1.00  0.00     0.226 C 
ATOM     18  H   UNL A   1      33.448  23.394  27.187  1.00  0.00     0.164 HD
ATOM     19  O   UNL A   1      31.397  24.453  27.238  1.00  0.00    -0.274 OA
BRANCH  17  20
ATOM     20  C   UNL A   1      32.352  26.102  25.775  1.00  0.00     0.050 C 
ATOM     21  C   UNL A   1      31.480  27.088  26.608  1.00  0.00     0.020 C 
ATOM     22  C   UNL A   1      31.855  26.214  24.338  1.00  0.00     0.020 C 
ATOM     23  C   UNL A   1      33.824  26.572  25.851  1.00  0.00     0.020 C 
ATOM     24  C   UNL A   1      31.617  28.529  26.087  1.00  0.00    -0.010 C 
ATOM     25  C   UNL A   1      32.010  27.637  23.781  1.00  0.00    -0.010 C 
ATOM     26  C   UNL A   1      33.964  28.010  25.329  1.00  0.00    -0.010 C 
ATOM     27  C   UNL A   1      33.092  28.948  26.179  1.00  0.00     0.007 C 
ATOM     28  C   UNL A   1      31.158  28.592  24.621  1.00  0.00     0.007 C 
ATOM     29  C   UNL A   1      33.489  28.060  23.868  1.00  0.00     0.007 C 
ENDBRANCH  17  20
ENDBRANCH   7  16
ENDBRANCH   6   7
ENDBRANCH   4   6
ENDBRANCH   3   4
ENDBRANCH   2   3
ENDBRANCH   1   2
BRANCH   1  30
ATOM     30  O   UNL A   1      40.261  20.591  26.116  1.00  0.00    -0.374 OA
BRANCH  30  31
ATOM     31  C   UNL A   1      41.608  20.664  26.614  1.00  0.00     0.202 C 
BRANCH  31  32
ATOM     32  C   UNL A   1      42.654  21.378  25.751  1.00  0.00     0.261 C 
BRANCH  32  33
ATOM     33  O   UNL A   1      43.329  22.398  26.497  1.00  0.00    -0.460 OA
BRANCH  33  34
ATOM     34  C   UNL A   1      43.513  23.564  25.827  1.00  0.00     0.338 C 
ATOM     35  O   UNL A   1      43.908  23.712  24.692  1.00  0.00    -0.246 OA
BRANCH  34  36
ATOM     36  C   UNL A   1      42.859  24.632  26.613  1.00  0.00     0.060 A 
ATOM     37  C   UNL A   1      43.529  25.864  26.696  1.00  0.00     0.016 A 
ATOM     38  C   UNL A   1      41.597  24.460  27.185  1.00  0.00     0.016 A 
ATOM     39  C   UNL A   1      42.960  26.917  27.398  1.00  0.00     0.010 A 
ATOM     40  C   UNL A   1      41.041  25.505  27.919  1.00  0.00     0.010 A 
ATOM     41  C   UNL A   1      41.746  26.713  28.061  1.00  0.00    -0.014 A 
BRANCH  41  42
ATOM     42  C   UNL A   1      41.366  27.645  29.137  1.00  0.00     0.031 A 
ATOM     43  C   UNL A   1      42.141  27.559  30.420  1.00  0.00     0.074 A 
ATOM     44  C   UNL A   1      40.386  28.546  28.964  1.00  0.00     0.049 A 
ATOM     45  N   UNL A   1      41.966  28.204  31.542  1.00  0.00    -0.248 NA
ATOM     46  C   UNL A   1      43.264  26.605  30.441  1.00  0.00     0.031 C 
ATOM     47  C   UNL A   1      39.617  28.735  27.736  1.00  0.00     0.029 A 
ATOM     48  N   UNL A   1      39.866  29.460  29.838  1.00  0.00    -0.354 N 
ATOM     49  C   UNL A   1      42.944  27.721  32.402  1.00  0.00     0.074 A 
ATOM     50  C   UNL A   1      43.692  26.714  31.687  1.00  0.00     0.031 C 
ATOM     51  C   UNL A   1      38.701  29.698  27.945  1.00  0.00     0.029 A 
ATOM     52  C   UNL A   1      38.801  30.159  29.327  1.00  0.00     0.049 A 
ATOM     53  H   UNL A   1      40.220  29.603  30.746  1.00  0.00     0.167 HD
ATOM     54  C   UNL A   1      43.194  28.092  33.677  1.00  0.00     0.037 A 
ATOM     55  C   UNL A   1      37.987  31.043  29.932  1.00  0.00     0.037 A 
ATOM     56  C   UNL A   1      42.432  29.093  34.371  1.00  0.00     0.049 A 
ATOM     57  C   UNL A   1      38.241  31.392  31.376  1.00  0.00     0.074 A 
ATOM     58  C   UNL A   1      42.599  29.566  35.659  1.00  0.00     0.029 A 
ATOM     59  N   UNL A   1      41.346  29.767  33.830  1.00  0.00    -0.354 N 
ATOM     60  N   UNL A   1      39.178  30.950  32.182  1.00  0.00    -0.248 NA
ATOM     61  C   UNL A   1      37.327  32.361  31.993  1.00  0.00     0.031 C 
ATOM     62  C   UNL A   1      41.577  30.484  35.917  1.00  0.00     0.029 A 
ATOM     63  C   UNL A   1      40.813  30.633  34.768  1.00  0.00     0.049 A 
ATOM     64  H   UNL A   1      41.005  29.647  32.914  1.00  0.00     0.167 HD
ATOM     65  C   UNL A   1      38.986  31.609  33.390  1.00  0.00     0.074 A 
ATOM     66  C   UNL A   1      37.851  32.490  33.204  1.00  0.00     0.031 C 
ATOM     67  C   UNL A   1      39.684  31.502  34.549  1.00  0.00     0.037 A 
BRANCH  54  68
ATOM     68  C   UNL A   1      44.300  27.384  34.402  1.00  0.00     0.057 A 
ATOM     69  C   UNL A   1      45.608  27.885  34.441  1.00  0.00     0.134 A 
ATOM     70  C   UNL A   1      44.048  26.185  35.080  1.00  0.00     0.134 A 
ATOM     71  F   UNL A   1      45.923  29.016  33.791  1.00  0.00    -0.206 F 
ATOM     72  C   UNL A   1      46.629  27.208  35.110  1.00  0.00     0.040 A 
ATOM     73  C   UNL A   1      45.054  25.514  35.776  1.00  0.00     0.040 A 
ATOM     74  F   UNL A   1      42.820  25.644  35.076  1.00  0.00    -0.206 F 
ATOM     75  C   UNL A   1      46.351  26.022  35.788  1.00  0.00     0.006 A 
ENDBRANCH  54  68
BRANCH  55  76
ATOM     76  C   UNL A   1      36.854  31.643  29.184  1.00  0.00     0.057 A 
ATOM     77  C   UNL A   1      36.919  32.950  28.687  1.00  0.00     0.134 A 
ATOM     78  C   UNL A   1      35.673  30.925  28.951  1.00  0.00     0.134 A 
ATOM     79  F   UNL A   1      38.014  33.695  28.894  1.00  0.00    -0.206 F 
ATOM     80  C   UNL A   1      35.849  33.526  28.001  1.00  0.00     0.040 A 
ATOM     81  C   UNL A   1      34.606  31.479  28.243  1.00  0.00     0.040 A 
ATOM     82  F   UNL A   1      35.547  29.666  29.397  1.00  0.00    -0.206 F 
ATOM     83  C   UNL A   1      34.690  32.788  27.772  1.00  0.00     0.006 A 
ENDBRANCH  55  76
BRANCH  67  84
ATOM     84  C   UNL A   1      39.266  32.387  35.686  1.00  0.00     0.057 A 
ATOM     85  C   UNL A   1      38.365  31.959  36.668  1.00  0.00     0.134 A 
ATOM     86  C   UNL A   1      39.814  33.669  35.825  1.00  0.00     0.134 A 
ATOM     87  F   UNL A   1      37.797  30.745  36.588  1.00  0.00    -0.206 F 
ATOM     88  C   UNL A   1      38.004  32.785  37.734  1.00  0.00     0.040 A 
ATOM     89  C   UNL A   1      39.486  34.491  36.903  1.00  0.00     0.040 A 
ATOM     90  F   UNL A   1      40.696  34.135  34.926  1.00  0.00    -0.206 F 
ATOM     91  C   UNL A   1      38.571  34.051  37.857  1.00  0.00     0.006 A 
ENDBRANCH  67  84
ENDBRANCH  41  42
ENDBRANCH  34  36
ENDBRANCH  33  34
ENDBRANCH  32  33
ENDBRANCH  31  32
ENDBRANCH  30  31
ENDBRANCH   1  30
TORSDOF 18
ENDMDL
MODEL 2
REMARK VINA RESULT:     -11.6      4.443      9.459
REMARK SMILES O=C(C[C@H](NC(=O)[C@]12C[C@H]3C[C@H](C[C@H](C3)C1)C2)c1ccc(Cl)cc1Cl)OCCOCCOC(=O)c1ccc(-c2c3nc(c(-c4c(F)cccc4F)c4ccc([nH]4)c(-c4c(F)cccc4F)c4nc(c(-c5c(F)cccc5F)c5ccc2[nH]5)C=C4)C=C3)cc1
REMARK SMILES IDX 28 1 27 2 26 3 2 4 1 5 3 6 4 7 18 8 19 9 24 10 20 11 23 12
REMARK SMILES IDX 25 13 21 14 22 15 5 16 6 17 7 19 8 20 9 21 16 22 17 23 10 24
REMARK SMILES IDX 14 25 12 26 11 27 15 28 13 29 29 30 30 31 31 32 32 33 33 34
REMARK SMILES IDX 34 35 35 36 36 37 88 38 37 39 87 40 38 41 39 42 40 43 81 44
REMARK SMILES IDX 41 45 86 46 80 47 82 48 42 49 85 50 79 51 78 52 43 54 69 55
REMARK SMILES IDX 52 56 68 57 53 58 56 59 67 60 83 61 54 62 55 63 66 65 84 66
REMARK SMILES IDX 57 67 44 68 45 69 50 70 46 71 47 72 49 73 51 74 48 75 70 76
REMARK SMILES IDX 71 77 76 78 72 79 73 80 75 81 77 82 74 83 58 84 59 85 64 86
REMARK SMILES IDX 60 87 61 88 63 89 65 90 62 91
REMARK H PARENT 5 18 82 53 56 64
REMARK Flexibility Score: inf
ROOT
ATOM      1  C   UNL A   1      33.039  30.765  27.006  1.00  0.00     0.202 C 
ENDROOT
BRANCH   1   2
ATOM      2  C   UNL A   1      33.382  29.346  26.572  1.00  0.00     0.261 C 
BRANCH   2   3
ATOM      3  O   UNL A   1      32.313  28.693  25.877  1.00  0.00    -0.463 OA
BRANCH   3   4
ATOM      4  C   UNL A   1      31.541  27.727  26.418  1.00  0.00     0.308 C 
ATOM      5  O   UNL A   1      31.295  27.753  27.621  1.00  0.00    -0.252 OA
BRANCH   4   6
ATOM      6  C   UNL A   1      31.140  26.540  25.577  1.00  0.00     0.152 C 
BRANCH   6   7
ATOM      7  C   UNL A   1      31.179  26.703  24.066  1.00  0.00     0.125 C 
BRANCH   7   8
ATOM      8  C   UNL A   1      30.198  27.713  23.468  1.00  0.00    -0.006 A 
ATOM      9  C   UNL A   1      30.752  28.771  22.707  1.00  0.00     0.009 A 
ATOM     10  C   UNL A   1      28.787  27.668  23.535  1.00  0.00     0.047 A 
ATOM     11  C   UNL A   1      29.962  29.803  22.190  1.00  0.00     0.021 A 
ATOM     12  C   UNL A   1      28.011  28.759  23.121  1.00  0.00     0.041 A 
ATOM     13  Cl  UNL A   1      27.866  26.328  24.137  1.00  0.00    -0.084 Cl
ATOM     14  C   UNL A   1      28.604  29.830  22.469  1.00  0.00     0.042 A 
ATOM     15  Cl  UNL A   1      27.651  31.179  21.999  1.00  0.00    -0.084 Cl
ENDBRANCH   7   8
BRANCH   7  16
ATOM     16  N   UNL A   1      32.548  26.581  23.526  1.00  0.00    -0.348 N 
ATOM     17  C   UNL A   1      33.419  25.620  23.142  1.00  0.00     0.226 C 
ATOM     18  H   UNL A   1      32.950  27.472  23.411  1.00  0.00     0.164 HD
ATOM     19  O   UNL A   1      34.044  25.908  22.111  1.00  0.00    -0.274 OA
BRANCH  17  20
ATOM     20  C   UNL A   1      33.841  24.403  23.973  1.00  0.00     0.050 C 
ATOM     21  C   UNL A   1      34.299  24.876  25.385  1.00  0.00     0.020 C 
ATOM     22  C   UNL A   1      34.999  23.588  23.407  1.00  0.00     0.020 C 
ATOM     23  C   UNL A   1      32.602  23.492  24.144  1.00  0.00     0.020 C 
ATOM     24  C   UNL A   1      34.628  23.679  26.294  1.00  0.00    -0.010 C 
ATOM     25  C   UNL A   1      35.327  22.367  24.280  1.00  0.00    -0.010 C 
ATOM     26  C   UNL A   1      32.929  22.295  25.049  1.00  0.00    -0.010 C 
ATOM     27  C   UNL A   1      33.372  22.804  26.430  1.00  0.00     0.007 C 
ATOM     28  C   UNL A   1      35.760  22.852  25.665  1.00  0.00     0.007 C 
ATOM     29  C   UNL A   1      34.071  21.486  24.415  1.00  0.00     0.007 C 
ENDBRANCH  17  20
ENDBRANCH   7  16
ENDBRANCH   6   7
ENDBRANCH   4   6
ENDBRANCH   3   4
ENDBRANCH   2   3
ENDBRANCH   1   2
BRANCH   1  30
ATOM     30  O   UNL A   1      33.989  31.472  27.795  1.00  0.00    -0.374 OA
BRANCH  30  31
ATOM     31  C   UNL A   1      33.730  32.869  28.011  1.00  0.00     0.202 C 
BRANCH  31  32
ATOM     32  C   UNL A   1      34.159  33.481  29.349  1.00  0.00     0.261 C 
BRANCH  32  33
ATOM     33  O   UNL A   1      35.534  33.194  29.630  1.00  0.00    -0.460 OA
BRANCH  33  34
ATOM     34  C   UNL A   1      35.736  32.333  30.660  1.00  0.00     0.338 C 
ATOM     35  O   UNL A   1      35.027  32.154  31.625  1.00  0.00    -0.246 OA
BRANCH  34  36
ATOM     36  C   UNL A   1      36.826  31.416  30.263  1.00  0.00     0.060 A 
ATOM     37  C   UNL A   1      37.506  30.749  31.294  1.00  0.00     0.016 A 
ATOM     38  C   UNL A   1      37.122  31.160  28.922  1.00  0.00     0.016 A 
ATOM     39  C   UNL A   1      38.524  29.857  30.990  1.00  0.00     0.010 A 
ATOM     40  C   UNL A   1      38.166  30.291  28.617  1.00  0.00     0.010 A 
ATOM     41  C   UNL A   1      38.893  29.679  29.653  1.00  0.00    -0.014 A 
BRANCH  41  42
ATOM     42  C   UNL A   1      40.215  29.098  29.359  1.00  0.00     0.031 A 
ATOM     43  C   UNL A   1      41.398  30.021  29.438  1.00  0.00     0.074 A 
ATOM     44  C   UNL A   1      40.354  27.798  29.058  1.00  0.00     0.049 A 
ATOM     45  N   UNL A   1      42.652  29.790  29.158  1.00  0.00    -0.248 NA
ATOM     46  C   UNL A   1      41.124  31.397  29.887  1.00  0.00     0.031 C 
ATOM     47  C   UNL A   1      39.269  26.820  29.010  1.00  0.00     0.029 A 
ATOM     48  N   UNL A   1      41.473  27.086  28.722  1.00  0.00    -0.354 N 
ATOM     49  C   UNL A   1      43.308  30.993  29.381  1.00  0.00     0.074 A 
ATOM     50  C   UNL A   1      42.317  31.958  29.794  1.00  0.00     0.031 C 
ATOM     51  C   UNL A   1      39.777  25.631  28.639  1.00  0.00     0.029 A 
ATOM     52  C   UNL A   1      41.209  25.780  28.392  1.00  0.00     0.049 A 
ATOM     53  H   UNL A   1      42.378  27.472  28.717  1.00  0.00     0.167 HD
ATOM     54  C   UNL A   1      44.626  31.263  29.254  1.00  0.00     0.037 A 
ATOM     55  C   UNL A   1      42.037  24.833  27.914  1.00  0.00     0.037 A 
ATOM     56  C   UNL A   1      45.595  30.288  28.835  1.00  0.00     0.049 A 
ATOM     57  C   UNL A   1      43.490  25.177  27.714  1.00  0.00     0.074 A 
ATOM     58  C   UNL A   1      46.960  30.438  28.684  1.00  0.00     0.029 A 
ATOM     59  N   UNL A   1      45.290  28.979  28.490  1.00  0.00    -0.354 N 
ATOM     60  N   UNL A   1      44.114  26.309  27.944  1.00  0.00    -0.248 NA
ATOM     61  C   UNL A   1      44.356  24.112  27.189  1.00  0.00     0.031 C 
ATOM     62  C   UNL A   1      47.474  29.236  28.190  1.00  0.00     0.029 A 
ATOM     63  C   UNL A   1      46.440  28.316  28.097  1.00  0.00     0.049 A 
ATOM     64  H   UNL A   1      44.391  28.582  28.519  1.00  0.00     0.167 HD
ATOM     65  C   UNL A   1      45.447  26.084  27.624  1.00  0.00     0.074 A 
ATOM     66  C   UNL A   1      45.541  24.704  27.195  1.00  0.00     0.031 C 
ATOM     67  C   UNL A   1      46.500  26.937  27.680  1.00  0.00     0.037 A 
BRANCH  54  68
ATOM     68  C   UNL A   1      45.076  32.668  29.529  1.00  0.00     0.057 A 
ATOM     69  C   UNL A   1      45.097  33.655  28.535  1.00  0.00     0.134 A 
ATOM     70  C   UNL A   1      45.487  33.039  30.816  1.00  0.00     0.134 A 
ATOM     71  F   UNL A   1      44.740  33.359  27.276  1.00  0.00    -0.206 F 
ATOM     72  C   UNL A   1      45.529  34.955  28.806  1.00  0.00     0.040 A 
ATOM     73  C   UNL A   1      45.894  34.342  31.105  1.00  0.00     0.040 A 
ATOM     74  F   UNL A   1      45.501  32.142  31.813  1.00  0.00    -0.206 F 
ATOM     75  C   UNL A   1      45.921  35.303  30.097  1.00  0.00     0.006 A 
ENDBRANCH  54  68
BRANCH  55  76
ATOM     76  C   UNL A   1      41.511  23.487  27.576  1.00  0.00     0.057 A 
ATOM     77  C   UNL A   1      40.642  23.295  26.496  1.00  0.00     0.134 A 
ATOM     78  C   UNL A   1      41.862  22.358  28.327  1.00  0.00     0.134 A 
ATOM     79  F   UNL A   1      40.253  24.339  25.749  1.00  0.00    -0.206 F 
ATOM     80  C   UNL A   1      40.128  22.035  26.185  1.00  0.00     0.040 A 
ATOM     81  C   UNL A   1      41.378  21.088  28.011  1.00  0.00     0.040 A 
ATOM     82  F   UNL A   1      42.695  22.472  29.373  1.00  0.00    -0.206 F 
ATOM     83  C   UNL A   1      40.501  20.925  26.941  1.00  0.00     0.006 A 
ENDBRANCH  55  76
BRANCH  67  84
ATOM     84  C   UNL A   1      47.848  26.389  27.310  1.00  0.00     0.057 A 
ATOM     85  C   UNL A   1      48.641  25.689  28.226  1.00  0.00     0.134 A 
ATOM     86  C   UNL A   1      48.333  26.523  26.003  1.00  0.00     0.134 A 
ATOM     87  F   UNL A   1      48.237  25.534  29.497  1.00  0.00    -0.206 F 
ATOM     88  C   UNL A   1      49.882  25.164  27.862  1.00  0.00     0.040 A 
ATOM     89  C   UNL A   1      49.556  25.975  25.618  1.00  0.00     0.040 A 
ATOM     90  F   UNL A   1      47.615  27.171  25.071  1.00  0.00    -0.206 F 
ATOM     91  C   UNL A   1      50.338  25.300  26.552  1.00  0.00     0.006 A 
ENDBRANCH  67  84
ENDBRANCH  41  42
ENDBRANCH  34  36
ENDBRANCH  33  34
ENDBRANCH  32  33
ENDBRANCH  31  32
ENDBRANCH  30  31
ENDBRANCH   1  30
TORSDOF 18
ENDMDL
MODEL 3
REMARK VINA RESULT:     -11.6      3.618      7.278
REMARK SMILES O=C(C[C@H](NC(=O)[C@]12C[C@H]3C[C@H](C[C@H](C3)C1)C2)c1ccc(Cl)cc1Cl)OCCOCCOC(=O)c1ccc(-c2c3nc(c(-c4c(F)cccc4F)c4ccc([nH]4)c(-c4c(F)cccc4F)c4nc(c(-c5c(F)cccc5F)c5ccc2[nH]5)C=C4)C=C3)cc1
REMARK SMILES IDX 28 1 27 2 26 3 2 4 1 5 3 6 4 7 18 8 19 9 24 10 20 11 23 12
REMARK SMILES IDX 25 13 21 14 22 15 5 16 6 17 7 19 8 20 9 21 16 22 17 23 10 24
REMARK SMILES IDX 14 25 12 26 11 27 15 28 13 29 29 30 30 31 31 32 32 33 33 34
REMARK SMILES IDX 34 35 35 36 36 37 88 38 37 39 87 40 38 41 39 42 40 43 81 44
REMARK SMILES IDX 41 45 86 46 80 47 82 48 42 49 85 50 79 51 78 52 43 54 69 55
REMARK SMILES IDX 52 56 68 57 53 58 56 59 67 60 83 61 54 62 55 63 66 65 84 66
REMARK SMILES IDX 57 67 44 68 45 69 50 70 46 71 47 72 49 73 51 74 48 75 70 76
REMARK SMILES IDX 71 77 76 78 72 79 73 80 75 81 77 82 74 83 58 84 59 85 64 86
REMARK SMILES IDX 60 87 61 88 63 89 65 90 62 91
REMARK H PARENT 5 18 82 53 56 64
REMARK Flexibility Score: inf
ROOT
ATOM      1  C   UNL A   1      37.827  22.862  26.170  1.00  0.00     0.202 C 
ENDROOT
BRANCH   1   2
ATOM      2  C   UNL A   1      37.361  23.378  24.816  1.00  0.00     0.261 C 
BRANCH   2   3
ATOM      3  O   UNL A   1      35.941  23.307  24.641  1.00  0.00    -0.463 OA
BRANCH   3   4
ATOM      4  C   UNL A   1      35.330  23.269  23.437  1.00  0.00     0.308 C 
ATOM      5  O   UNL A   1      35.991  23.028  22.432  1.00  0.00    -0.252 OA
BRANCH   4   6
ATOM      6  C   UNL A   1      33.887  23.694  23.326  1.00  0.00     0.152 C 
BRANCH   6   7
ATOM      7  C   UNL A   1      32.905  23.127  24.339  1.00  0.00     0.125 C 
BRANCH   7   8
ATOM      8  C   UNL A   1      32.911  21.607  24.511  1.00  0.00    -0.006 A 
ATOM      9  C   UNL A   1      32.460  20.836  23.411  1.00  0.00     0.009 A 
ATOM     10  C   UNL A   1      33.385  20.881  25.626  1.00  0.00     0.047 A 
ATOM     11  C   UNL A   1      32.335  19.445  23.486  1.00  0.00     0.021 A 
ATOM     12  C   UNL A   1      33.149  19.505  25.743  1.00  0.00     0.041 A 
ATOM     13  Cl  UNL A   1      34.259  21.568  26.957  1.00  0.00    -0.084 Cl
ATOM     14  C   UNL A   1      32.606  18.797  24.681  1.00  0.00     0.042 A 
ATOM     15  Cl  UNL A   1      32.286  17.118  24.846  1.00  0.00    -0.084 Cl
ENDBRANCH   7   8
BRANCH   7  16
ATOM     16  N   UNL A   1      32.738  24.012  25.509  1.00  0.00    -0.348 N 
ATOM     17  C   UNL A   1      32.114  25.164  25.846  1.00  0.00     0.226 C 
ATOM     18  H   UNL A   1      33.232  23.653  26.281  1.00  0.00     0.164 HD
ATOM     19  O   UNL A   1      31.599  25.131  26.973  1.00  0.00    -0.274 OA
BRANCH  17  20
ATOM     20  C   UNL A   1      32.213  26.494  25.092  1.00  0.00     0.050 C 
ATOM     21  C   UNL A   1      31.443  26.381  23.742  1.00  0.00     0.020 C 
ATOM     22  C   UNL A   1      33.624  26.945  24.732  1.00  0.00     0.020 C 
ATOM     23  C   UNL A   1      31.527  27.581  25.953  1.00  0.00     0.020 C 
ATOM     24  C   UNL A   1      31.420  27.728  22.999  1.00  0.00    -0.010 C 
ATOM     25  C   UNL A   1      33.633  28.305  24.017  1.00  0.00    -0.010 C 
ATOM     26  C   UNL A   1      31.505  28.927  25.214  1.00  0.00    -0.010 C 
ATOM     27  C   UNL A   1      30.734  28.773  23.894  1.00  0.00     0.007 C 
ATOM     28  C   UNL A   1      32.860  28.176  22.703  1.00  0.00     0.007 C 
ATOM     29  C   UNL A   1      32.950  29.355  24.912  1.00  0.00     0.007 C 
ENDBRANCH  17  20
ENDBRANCH   7  16
ENDBRANCH   6   7
ENDBRANCH   4   6
ENDBRANCH   3   4
ENDBRANCH   2   3
ENDBRANCH   1   2
BRANCH   1  30
ATOM     30  O   UNL A   1      38.895  21.922  26.197  1.00  0.00    -0.374 OA
BRANCH  30  31
ATOM     31  C   UNL A   1      38.748  20.761  25.362  1.00  0.00     0.202 C 
BRANCH  31  32
ATOM     32  C   UNL A   1      39.512  19.492  25.756  1.00  0.00     0.261 C 
BRANCH  32  33
ATOM     33  O   UNL A   1      40.837  19.497  25.211  1.00  0.00    -0.460 OA
BRANCH  33  34
ATOM     34  C   UNL A   1      41.830  19.511  26.136  1.00  0.00     0.338 C 
ATOM     35  O   UNL A   1      42.668  18.660  26.336  1.00  0.00    -0.246 OA
BRANCH  34  36
ATOM     36  C   UNL A   1      41.916  20.887  26.672  1.00  0.00     0.060 A 
ATOM     37  C   UNL A   1      42.227  21.909  25.760  1.00  0.00     0.016 A 
ATOM     38  C   UNL A   1      41.628  21.177  28.007  1.00  0.00     0.016 A 
ATOM     39  C   UNL A   1      42.300  23.225  26.192  1.00  0.00     0.010 A 
ATOM     40  C   UNL A   1      41.735  22.493  28.448  1.00  0.00     0.010 A 
ATOM     41  C   UNL A   1      42.116  23.505  27.550  1.00  0.00    -0.014 A 
BRANCH  41  42
ATOM     42  C   UNL A   1      42.613  24.787  28.078  1.00  0.00     0.031 A 
ATOM     43  C   UNL A   1      41.593  25.858  28.340  1.00  0.00     0.074 A 
ATOM     44  C   UNL A   1      43.916  24.977  28.336  1.00  0.00     0.049 A 
ATOM     45  N   UNL A   1      41.765  27.092  28.731  1.00  0.00    -0.248 NA
ATOM     46  C   UNL A   1      40.184  25.486  28.121  1.00  0.00     0.031 C 
ATOM     47  C   UNL A   1      44.967  23.976  28.162  1.00  0.00     0.029 A 
ATOM     48  N   UNL A   1      44.573  26.089  28.787  1.00  0.00    -0.354 N 
ATOM     49  C   UNL A   1      40.491  27.643  28.787  1.00  0.00     0.074 A 
ATOM     50  C   UNL A   1      39.558  26.623  28.368  1.00  0.00     0.031 C 
ATOM     51  C   UNL A   1      46.149  24.533  28.483  1.00  0.00     0.029 A 
ATOM     52  C   UNL A   1      45.934  25.931  28.848  1.00  0.00     0.049 A 
ATOM     53  H   UNL A   1      44.113  26.921  29.043  1.00  0.00     0.167 HD
ATOM     54  C   UNL A   1      40.136  28.892  29.160  1.00  0.00     0.037 A 
ATOM     55  C   UNL A   1      46.890  26.834  29.134  1.00  0.00     0.037 A 
ATOM     56  C   UNL A   1      41.083  29.893  29.568  1.00  0.00     0.049 A 
ATOM     57  C   UNL A   1      46.475  28.241  29.481  1.00  0.00     0.074 A 
ATOM     58  C   UNL A   1      40.843  31.189  29.983  1.00  0.00     0.029 A 
ATOM     59  N   UNL A   1      42.458  29.706  29.599  1.00  0.00    -0.354 N 
ATOM     60  N   UNL A   1      45.270  28.755  29.554  1.00  0.00    -0.248 NA
ATOM     61  C   UNL A   1      47.552  29.192  29.787  1.00  0.00     0.031 C 
ATOM     62  C   UNL A   1      42.077  31.805  30.209  1.00  0.00     0.029 A 
ATOM     63  C   UNL A   1      43.083  30.873  29.999  1.00  0.00     0.049 A 
ATOM     64  H   UNL A   1      42.919  28.867  29.369  1.00  0.00     0.167 HD
ATOM     65  C   UNL A   1      45.441  30.078  29.943  1.00  0.00     0.074 A 
ATOM     66  C   UNL A   1      46.866  30.281  30.102  1.00  0.00     0.031 C 
ATOM     67  C   UNL A   1      44.507  31.040  30.153  1.00  0.00     0.037 A 
BRANCH  54  68
ATOM     68  C   UNL A   1      38.680  29.246  29.102  1.00  0.00     0.057 A 
ATOM     69  C   UNL A   1      37.843  29.158  30.223  1.00  0.00     0.134 A 
ATOM     70  C   UNL A   1      38.107  29.691  27.903  1.00  0.00     0.134 A 
ATOM     71  F   UNL A   1      38.322  28.715  31.395  1.00  0.00    -0.206 F 
ATOM     72  C   UNL A   1      36.486  29.481  30.148  1.00  0.00     0.040 A 
ATOM     73  C   UNL A   1      36.759  30.043  27.824  1.00  0.00     0.040 A 
ATOM     74  F   UNL A   1      38.849  29.790  26.789  1.00  0.00    -0.206 F 
ATOM     75  C   UNL A   1      35.943  29.933  28.947  1.00  0.00     0.006 A 
ENDBRANCH  54  68
BRANCH  55  76
ATOM     76  C   UNL A   1      48.321  26.443  29.088  1.00  0.00     0.057 A 
ATOM     77  C   UNL A   1      48.966  25.911  30.210  1.00  0.00     0.134 A 
ATOM     78  C   UNL A   1      49.080  26.596  27.921  1.00  0.00     0.134 A 
ATOM     79  F   UNL A   1      48.299  25.758  31.363  1.00  0.00    -0.206 F 
ATOM     80  C   UNL A   1      50.317  25.560  30.179  1.00  0.00     0.040 A 
ATOM     81  C   UNL A   1      50.425  26.224  27.868  1.00  0.00     0.040 A 
ATOM     82  F   UNL A   1      48.521  27.096  26.809  1.00  0.00    -0.206 F 
ATOM     83  C   UNL A   1      51.049  25.712  29.003  1.00  0.00     0.006 A 
ENDBRANCH  55  76
BRANCH  67  84
ATOM     84  C   UNL A   1      44.996  32.380  30.619  1.00  0.00     0.057 A 
ATOM     85  C   UNL A   1      45.295  33.414  29.723  1.00  0.00     0.134 A 
ATOM     86  C   UNL A   1      45.119  32.653  31.987  1.00  0.00     0.134 A 
ATOM     87  F   UNL A   1      45.205  33.214  28.399  1.00  0.00    -0.206 F 
ATOM     88  C   UNL A   1      45.726  34.664  30.172  1.00  0.00     0.040 A 
ATOM     89  C   UNL A   1      45.517  33.908  32.449  1.00  0.00     0.040 A 
ATOM     90  F   UNL A   1      44.834  31.710  32.900  1.00  0.00    -0.206 F 
ATOM     91  C   UNL A   1      45.830  34.914  31.539  1.00  0.00     0.006 A 
ENDBRANCH  67  84
ENDBRANCH  41  42
ENDBRANCH  34  36
ENDBRANCH  33  34
ENDBRANCH  32  33
ENDBRANCH  31  32
ENDBRANCH  30  31
ENDBRANCH   1  30
TORSDOF 18
ENDMDL
