MODEL 1
REMARK VINA RESULT:     -10.7      0.000      0.000
REMARK SMILES Nc1ccc(Cl)c(SC[C@H]2CC[C@@H](C(=O)OCCOCCOC(=O)c3ccc(-c4c5nc(c(-c6c(F)cccc6F)c6ccc([nH]6)c(-c6c(F)cccc6F)c6nc(c(-c7c(F)cccc7F)c7ccc4[nH]7)C=C6)C=C5)cc3)O2)c1
REMARK SMILES IDX 18 1 17 2 16 3 14 4 15 5 13 6 10 7 11 8 79 9 12 10 9 11 8 12
REMARK SMILES IDX 7 13 2 14 3 15 80 16 4 17 5 18 6 19 1 20 19 23 20 24 21 25
REMARK SMILES IDX 22 26 23 27 24 28 25 29 26 30 78 31 27 32 77 33 28 34 29 35
REMARK SMILES IDX 30 36 71 37 31 38 76 39 70 40 72 41 32 42 75 43 69 44 68 45
REMARK SMILES IDX 33 47 59 48 42 49 58 50 43 51 46 52 57 53 73 54 44 55 45 56
REMARK SMILES IDX 56 58 74 59 47 60 34 61 35 62 40 63 36 64 37 65 39 66 41 67
REMARK SMILES IDX 38 68 60 69 61 70 66 71 62 72 63 73 65 74 67 75 64 76 48 77
REMARK SMILES IDX 49 78 54 79 50 80 51 81 53 82 55 83 52 84
REMARK H PARENT 1 21 1 22 72 46 46 57
REMARK Flexibility Score: inf
ROOT
ATOM      1  C   UNL A   1      43.366  19.291  25.376  1.00  0.00     0.202 C 
ENDROOT
BRANCH   1   2
ATOM      2  C   UNL A   1      42.469  19.910  26.453  1.00  0.00     0.261 C 
BRANCH   2   3
ATOM      3  O   UNL A   1      41.460  20.771  25.892  1.00  0.00    -0.461 OA
BRANCH   3   4
ATOM      4  C   UNL A   1      40.554  21.268  26.782  1.00  0.00     0.335 C 
ATOM      5  O   UNL A   1      40.562  21.038  27.987  1.00  0.00    -0.249 OA
BRANCH   4   6
ATOM      6  C   UNL A   1      39.537  22.214  26.126  1.00  0.00     0.228 C 
ATOM      7  C   UNL A   1      37.384  22.856  25.539  1.00  0.00     0.129 C 
ATOM      8  C   UNL A   1      38.156  24.079  26.086  1.00  0.00     0.036 C 
ATOM      9  O   UNL A   1      38.214  21.721  25.853  1.00  0.00    -0.362 OA
ATOM     10  C   UNL A   1      39.267  23.470  26.919  1.00  0.00     0.047 C 
BRANCH   7  11
ATOM     11  C   UNL A   1      35.957  22.839  26.127  1.00  0.00     0.107 C 
BRANCH  11  12
ATOM     12  S   UNL A   1      34.333  23.234  25.334  1.00  0.00    -0.122 SA
BRANCH  12  13
ATOM     13  C   UNL A   1      33.482  21.722  24.917  1.00  0.00     0.028 A 
ATOM     14  C   UNL A   1      32.895  19.425  25.499  1.00  0.00     0.033 A 
ATOM     15  C   UNL A   1      32.209  19.291  24.293  1.00  0.00     0.027 A 
ATOM     16  C   UNL A   1      33.478  20.656  25.820  1.00  0.00     0.042 A 
ATOM     17  C   UNL A   1      32.253  20.312  23.347  1.00  0.00     0.024 A 
ATOM     18  C   UNL A   1      32.936  21.498  23.635  1.00  0.00     0.054 A 
ATOM     19  Cl  UNL A   1      33.087  22.629  22.326  1.00  0.00    -0.083 Cl
BRANCH  14  20
ATOM     20  N   UNL A   1      32.903  18.390  26.419  1.00  0.00    -0.399 N 
ATOM     21  H   UNL A   1      32.782  18.581  27.377  1.00  0.00     0.156 HD
ATOM     22  H   UNL A   1      33.030  17.463  26.115  1.00  0.00     0.156 HD
ENDBRANCH  14  20
ENDBRANCH  12  13
ENDBRANCH  11  12
ENDBRANCH   7  11
ENDBRANCH   4   6
ENDBRANCH   3   4
ENDBRANCH   2   3
ENDBRANCH   1   2
BRANCH   1  23
ATOM     23  O   UNL A   1      44.728  19.697  25.306  1.00  0.00    -0.374 OA
BRANCH  23  24
ATOM     24  C   UNL A   1      45.021  20.973  24.759  1.00  0.00     0.202 C 
BRANCH  24  25
ATOM     25  C   UNL A   1      45.443  22.117  25.693  1.00  0.00     0.261 C 
BRANCH  25  26
ATOM     26  O   UNL A   1      44.415  22.754  26.433  1.00  0.00    -0.460 OA
BRANCH  26  27
ATOM     27  C   UNL A   1      43.844  23.797  25.793  1.00  0.00     0.338 C 
ATOM     28  O   UNL A   1      43.649  23.968  24.603  1.00  0.00    -0.246 OA
BRANCH  27  29
ATOM     29  C   UNL A   1      43.410  24.716  26.837  1.00  0.00     0.060 A 
ATOM     30  C   UNL A   1      43.884  26.028  26.801  1.00  0.00     0.016 A 
ATOM     31  C   UNL A   1      42.503  24.278  27.802  1.00  0.00     0.016 A 
ATOM     32  C   UNL A   1      43.427  26.934  27.744  1.00  0.00     0.010 A 
ATOM     33  C   UNL A   1      42.051  25.185  28.749  1.00  0.00     0.010 A 
ATOM     34  C   UNL A   1      42.514  26.511  28.720  1.00  0.00    -0.014 A 
BRANCH  34  35
ATOM     35  C   UNL A   1      42.072  27.452  29.759  1.00  0.00     0.031 A 
ATOM     36  C   UNL A   1      42.767  27.442  31.083  1.00  0.00     0.074 A 
ATOM     37  C   UNL A   1      41.047  28.279  29.499  1.00  0.00     0.049 A 
ATOM     38  N   UNL A   1      42.490  28.119  32.164  1.00  0.00    -0.248 NA
ATOM     39  C   UNL A   1      43.924  26.540  31.208  1.00  0.00     0.031 C 
ATOM     40  C   UNL A   1      40.333  28.360  28.223  1.00  0.00     0.029 A 
ATOM     41  N   UNL A   1      40.416  29.193  30.298  1.00  0.00    -0.354 N 
ATOM     42  C   UNL A   1      43.433  27.722  33.102  1.00  0.00     0.074 A 
ATOM     43  C   UNL A   1      44.269  26.722  32.475  1.00  0.00     0.031 C 
ATOM     44  C   UNL A   1      39.352  29.271  28.330  1.00  0.00     0.029 A 
ATOM     45  C   UNL A   1      39.344  29.798  29.691  1.00  0.00     0.049 A 
ATOM     46  H   UNL A   1      40.703  29.396  31.217  1.00  0.00     0.167 HD
ATOM     47  C   UNL A   1      43.581  28.166  34.370  1.00  0.00     0.037 A 
ATOM     48  C   UNL A   1      38.441  30.657  30.199  1.00  0.00     0.037 A 
ATOM     49  C   UNL A   1      42.725  29.155  34.967  1.00  0.00     0.049 A 
ATOM     50  C   UNL A   1      38.583  31.074  31.637  1.00  0.00     0.074 A 
ATOM     51  C   UNL A   1      42.791  29.704  36.234  1.00  0.00     0.029 A 
ATOM     52  N   UNL A   1      41.632  29.733  34.335  1.00  0.00    -0.354 N 
ATOM     53  N   UNL A   1      39.502  30.730  32.510  1.00  0.00    -0.248 NA
ATOM     54  C   UNL A   1      37.566  31.991  32.164  1.00  0.00     0.031 C 
ATOM     55  C   UNL A   1      41.704  30.568  36.389  1.00  0.00     0.029 A 
ATOM     56  C   UNL A   1      40.991  30.604  35.199  1.00  0.00     0.049 A 
ATOM     57  H   UNL A   1      41.353  29.550  33.408  1.00  0.00     0.167 HD
ATOM     58  C   UNL A   1      39.185  31.401  33.683  1.00  0.00     0.074 A 
ATOM     59  C   UNL A   1      37.999  32.188  33.402  1.00  0.00     0.031 C 
ATOM     60  C   UNL A   1      39.810  31.370  34.886  1.00  0.00     0.037 A 
BRANCH  47  61
ATOM     61  C   UNL A   1      44.681  27.562  35.193  1.00  0.00     0.057 A 
ATOM     62  C   UNL A   1      44.494  26.391  35.939  1.00  0.00     0.134 A 
ATOM     63  C   UNL A   1      45.951  28.151  35.226  1.00  0.00     0.134 A 
ATOM     64  F   UNL A   1      43.296  25.785  35.966  1.00  0.00    -0.206 F 
ATOM     65  C   UNL A   1      45.522  25.840  36.707  1.00  0.00     0.040 A 
ATOM     66  C   UNL A   1      46.996  27.594  35.966  1.00  0.00     0.040 A 
ATOM     67  F   UNL A   1      46.200  29.274  34.535  1.00  0.00    -0.206 F 
ATOM     68  C   UNL A   1      46.780  26.439  36.715  1.00  0.00     0.006 A 
ENDBRANCH  47  61
BRANCH  48  69
ATOM     69  C   UNL A   1      37.327  31.152  29.354  1.00  0.00     0.057 A 
ATOM     70  C   UNL A   1      36.222  30.343  29.066  1.00  0.00     0.134 A 
ATOM     71  C   UNL A   1      37.335  32.446  28.816  1.00  0.00     0.134 A 
ATOM     72  F   UNL A   1      36.161  29.091  29.539  1.00  0.00    -0.206 F 
ATOM     73  C   UNL A   1      35.175  30.795  28.260  1.00  0.00     0.040 A 
ATOM     74  C   UNL A   1      36.282  32.920  28.032  1.00  0.00     0.040 A 
ATOM     75  F   UNL A   1      38.361  33.275  29.061  1.00  0.00    -0.206 F 
ATOM     76  C   UNL A   1      35.201  32.090  27.745  1.00  0.00     0.006 A 
ENDBRANCH  48  69
BRANCH  60  77
ATOM     77  C   UNL A   1      39.232  32.222  35.977  1.00  0.00     0.057 A 
ATOM     78  C   UNL A   1      39.638  33.549  36.167  1.00  0.00     0.134 A 
ATOM     79  C   UNL A   1      38.218  31.727  36.805  1.00  0.00     0.134 A 
ATOM     80  F   UNL A   1      40.616  34.076  35.414  1.00  0.00    -0.206 F 
ATOM     81  C   UNL A   1      39.064  34.349  37.155  1.00  0.00     0.040 A 
ATOM     82  C   UNL A   1      37.617  32.526  37.776  1.00  0.00     0.040 A 
ATOM     83  F   UNL A   1      37.779  30.466  36.667  1.00  0.00    -0.206 F 
ATOM     84  C   UNL A   1      38.043  33.841  37.956  1.00  0.00     0.006 A 
ENDBRANCH  60  77
ENDBRANCH  34  35
ENDBRANCH  27  29
ENDBRANCH  26  27
ENDBRANCH  25  26
ENDBRANCH  24  25
ENDBRANCH  23  24
ENDBRANCH   1  23
TORSDOF 18
ENDMDL
MODEL 2
REMARK VINA RESULT:     -10.7      6.052     10.863
REMARK SMILES Nc1ccc(Cl)c(SC[C@H]2CC[C@@H](C(=O)OCCOCCOC(=O)c3ccc(-c4c5nc(c(-c6c(F)cccc6F)c6ccc([nH]6)c(-c6c(F)cccc6F)c6nc(c(-c7c(F)cccc7F)c7ccc4[nH]7)C=C6)C=C5)cc3)O2)c1
REMARK SMILES IDX 18 1 17 2 16 3 14 4 15 5 13 6 10 7 11 8 79 9 12 10 9 11 8 12
REMARK SMILES IDX 7 13 2 14 3 15 80 16 4 17 5 18 6 19 1 20 19 23 20 24 21 25
REMARK SMILES IDX 22 26 23 27 24 28 25 29 26 30 78 31 27 32 77 33 28 34 29 35
REMARK SMILES IDX 30 36 71 37 31 38 76 39 70 40 72 41 32 42 75 43 69 44 68 45
REMARK SMILES IDX 33 47 59 48 42 49 58 50 43 51 46 52 57 53 73 54 44 55 45 56
REMARK SMILES IDX 56 58 74 59 47 60 34 61 35 62 40 63 36 64 37 65 39 66 41 67
REMARK SMILES IDX 38 68 60 69 61 70 66 71 62 72 63 73 65 74 67 75 64 76 48 77
REMARK SMILES IDX 49 78 54 79 50 80 51 81 53 82 55 83 52 84
REMARK H PARENT 1 21 1 22 72 46 46 57
REMARK Flexibility Score: inf
ROOT
ATOM      1  C   UNL A   1      33.584  34.027  28.152  1.00  0.00     0.202 C 
ENDROOT
BRANCH   1   2
ATOM      2  C   UNL A   1      33.396  32.584  27.671  1.00  0.00     0.261 C 
BRANCH   2   3
ATOM      3  O   UNL A   1      34.318  31.676  28.304  1.00  0.00    -0.461 OA
BRANCH   3   4
ATOM      4  C   UNL A   1      34.554  30.517  27.627  1.00  0.00     0.335 C 
ATOM      5  O   UNL A   1      35.640  29.948  27.574  1.00  0.00    -0.249 OA
BRANCH   4   6
ATOM      6  C   UNL A   1      33.288  29.945  26.970  1.00  0.00     0.228 C 
ATOM      7  C   UNL A   1      32.134  28.937  25.226  1.00  0.00     0.129 C 
ATOM      8  C   UNL A   1      31.729  28.274  26.564  1.00  0.00     0.036 C 
ATOM      9  O   UNL A   1      33.278  29.752  25.546  1.00  0.00    -0.362 OA
ATOM     10  C   UNL A   1      32.886  28.587  27.493  1.00  0.00     0.047 C 
BRANCH   7  11
ATOM     11  C   UNL A   1      32.352  27.847  24.154  1.00  0.00     0.107 C 
BRANCH  11  12
ATOM     12  S   UNL A   1      31.319  27.388  22.690  1.00  0.00    -0.122 SA
BRANCH  12  13
ATOM     13  C   UNL A   1      29.898  28.462  22.594  1.00  0.00     0.028 A 
ATOM     14  C   UNL A   1      28.974  30.669  22.108  1.00  0.00     0.033 A 
ATOM     15  C   UNL A   1      27.706  30.223  22.476  1.00  0.00     0.027 A 
ATOM     16  C   UNL A   1      30.045  29.768  22.122  1.00  0.00     0.042 A 
ATOM     17  C   UNL A   1      27.541  28.949  23.013  1.00  0.00     0.024 A 
ATOM     18  C   UNL A   1      28.643  28.095  23.126  1.00  0.00     0.054 A 
ATOM     19  Cl  UNL A   1      28.369  26.604  23.974  1.00  0.00    -0.083 Cl
BRANCH  14  20
ATOM     20  N   UNL A   1      29.153  31.956  21.629  1.00  0.00    -0.399 N 
ATOM     21  H   UNL A   1      28.550  32.678  21.921  1.00  0.00     0.156 HD
ATOM     22  H   UNL A   1      29.883  32.150  20.998  1.00  0.00     0.156 HD
ENDBRANCH  14  20
ENDBRANCH  12  13
ENDBRANCH  11  12
ENDBRANCH   7  11
ENDBRANCH   4   6
ENDBRANCH   3   4
ENDBRANCH   2   3
ENDBRANCH   1   2
BRANCH   1  23
ATOM     23  O   UNL A   1      32.973  34.424  29.374  1.00  0.00    -0.374 OA
BRANCH  23  24
ATOM     24  C   UNL A   1      33.807  34.908  30.415  1.00  0.00     0.202 C 
BRANCH  24  25
ATOM     25  C   UNL A   1      34.400  33.919  31.430  1.00  0.00     0.261 C 
BRANCH  25  26
ATOM     26  O   UNL A   1      35.523  33.163  31.008  1.00  0.00    -0.460 OA
BRANCH  26  27
ATOM     27  C   UNL A   1      36.030  32.353  31.964  1.00  0.00     0.338 C 
ATOM     28  O   UNL A   1      35.591  32.081  33.066  1.00  0.00    -0.246 OA
BRANCH  27  29
ATOM     29  C   UNL A   1      37.236  31.770  31.392  1.00  0.00     0.060 A 
ATOM     30  C   UNL A   1      37.415  31.843  30.010  1.00  0.00     0.016 A 
ATOM     31  C   UNL A   1      38.193  31.207  32.238  1.00  0.00     0.016 A 
ATOM     32  C   UNL A   1      38.588  31.357  29.456  1.00  0.00     0.010 A 
ATOM     33  C   UNL A   1      39.365  30.716  31.681  1.00  0.00     0.010 A 
ATOM     34  C   UNL A   1      39.560  30.790  30.292  1.00  0.00    -0.014 A 
BRANCH  34  35
ATOM     35  C   UNL A   1      40.780  30.217  29.704  1.00  0.00     0.031 A 
ATOM     36  C   UNL A   1      41.961  31.109  29.486  1.00  0.00     0.074 A 
ATOM     37  C   UNL A   1      40.794  28.920  29.361  1.00  0.00     0.049 A 
ATOM     38  N   UNL A   1      43.099  30.840  28.908  1.00  0.00    -0.248 NA
ATOM     39  C   UNL A   1      41.837  32.492  29.976  1.00  0.00     0.031 C 
ATOM     40  C   UNL A   1      39.687  27.983  29.563  1.00  0.00     0.029 A 
ATOM     41  N   UNL A   1      41.765  28.169  28.756  1.00  0.00    -0.354 N 
ATOM     42  C   UNL A   1      43.828  32.021  28.958  1.00  0.00     0.074 A 
ATOM     43  C   UNL A   1      42.992  33.016  29.592  1.00  0.00     0.031 C 
ATOM     44  C   UNL A   1      40.039  26.781  29.078  1.00  0.00     0.029 A 
ATOM     45  C   UNL A   1      41.373  26.880  28.495  1.00  0.00     0.049 A 
ATOM     46  H   UNL A   1      42.656  28.520  28.530  1.00  0.00     0.167 HD
ATOM     47  C   UNL A   1      45.087  32.240  28.516  1.00  0.00     0.037 A 
ATOM     48  C   UNL A   1      42.017  25.905  27.828  1.00  0.00     0.037 A 
ATOM     49  C   UNL A   1      45.888  31.229  27.878  1.00  0.00     0.049 A 
ATOM     50  C   UNL A   1      43.385  26.200  27.276  1.00  0.00     0.074 A 
ATOM     51  C   UNL A   1      47.186  31.324  27.411  1.00  0.00     0.029 A 
ATOM     52  N   UNL A   1      45.455  29.938  27.607  1.00  0.00    -0.354 N 
ATOM     53  N   UNL A   1      44.089  27.305  27.363  1.00  0.00    -0.248 NA
ATOM     54  C   UNL A   1      44.045  25.121  26.532  1.00  0.00     0.031 C 
ATOM     55  C   UNL A   1      47.516  30.109  26.803  1.00  0.00     0.029 A 
ATOM     56  C   UNL A   1      46.446  29.236  26.942  1.00  0.00     0.049 A 
ATOM     57  H   UNL A   1      44.573  29.575  27.851  1.00  0.00     0.167 HD
ATOM     58  C   UNL A   1      45.283  27.049  26.702  1.00  0.00     0.074 A 
ATOM     59  C   UNL A   1      45.212  25.677  26.236  1.00  0.00     0.031 C 
ATOM     60  C   UNL A   1      46.341  27.871  26.492  1.00  0.00     0.037 A 
BRANCH  47  61
ATOM     61  C   UNL A   1      45.649  33.621  28.677  1.00  0.00     0.057 A 
ATOM     62  C   UNL A   1      45.506  34.602  27.686  1.00  0.00     0.134 A 
ATOM     63  C   UNL A   1      46.328  33.981  29.848  1.00  0.00     0.134 A 
ATOM     64  F   UNL A   1      44.881  34.319  26.533  1.00  0.00    -0.206 F 
ATOM     65  C   UNL A   1      46.039  35.883  27.844  1.00  0.00     0.040 A 
ATOM     66  C   UNL A   1      46.840  35.267  30.029  1.00  0.00     0.040 A 
ATOM     67  F   UNL A   1      46.501  33.091  30.837  1.00  0.00    -0.206 F 
ATOM     68  C   UNL A   1      46.702  36.221  29.022  1.00  0.00     0.006 A 
ENDBRANCH  47  61
BRANCH  48  69
ATOM     69  C   UNL A   1      41.369  24.586  27.630  1.00  0.00     0.057 A 
ATOM     70  C   UNL A   1      40.351  24.412  26.685  1.00  0.00     0.134 A 
ATOM     71  C   UNL A   1      41.751  23.463  28.376  1.00  0.00     0.134 A 
ATOM     72  F   UNL A   1      39.930  25.451  25.949  1.00  0.00    -0.206 F 
ATOM     73  C   UNL A   1      39.726  23.178  26.501  1.00  0.00     0.040 A 
ATOM     74  C   UNL A   1      41.153  22.216  28.184  1.00  0.00     0.040 A 
ATOM     75  F   UNL A   1      42.726  23.558  29.293  1.00  0.00    -0.206 F 
ATOM     76  C   UNL A   1      40.131  22.073  27.249  1.00  0.00     0.006 A 
ENDBRANCH  48  69
BRANCH  60  77
ATOM     77  C   UNL A   1      47.508  27.301  25.742  1.00  0.00     0.057 A 
ATOM     78  C   UNL A   1      47.635  27.451  24.355  1.00  0.00     0.134 A 
ATOM     79  C   UNL A   1      48.544  26.650  26.423  1.00  0.00     0.134 A 
ATOM     80  F   UNL A   1      46.669  28.052  23.644  1.00  0.00    -0.206 F 
ATOM     81  C   UNL A   1      48.746  26.957  23.670  1.00  0.00     0.040 A 
ATOM     82  C   UNL A   1      49.672  26.179  25.753  1.00  0.00     0.040 A 
ATOM     83  F   UNL A   1      48.485  26.483  27.754  1.00  0.00    -0.206 F 
ATOM     84  C   UNL A   1      49.773  26.328  24.372  1.00  0.00     0.006 A 
ENDBRANCH  60  77
ENDBRANCH  34  35
ENDBRANCH  27  29
ENDBRANCH  26  27
ENDBRANCH  25  26
ENDBRANCH  24  25
ENDBRANCH  23  24
ENDBRANCH   1  23
TORSDOF 18
ENDMDL
MODEL 3
REMARK VINA RESULT:     -10.7      1.950      3.019
REMARK SMILES Nc1ccc(Cl)c(SC[C@H]2CC[C@@H](C(=O)OCCOCCOC(=O)c3ccc(-c4c5nc(c(-c6c(F)cccc6F)c6ccc([nH]6)c(-c6c(F)cccc6F)c6nc(c(-c7c(F)cccc7F)c7ccc4[nH]7)C=C6)C=C5)cc3)O2)c1
REMARK SMILES IDX 18 1 17 2 16 3 14 4 15 5 13 6 10 7 11 8 79 9 12 10 9 11 8 12
REMARK SMILES IDX 7 13 2 14 3 15 80 16 4 17 5 18 6 19 1 20 19 23 20 24 21 25
REMARK SMILES IDX 22 26 23 27 24 28 25 29 26 30 78 31 27 32 77 33 28 34 29 35
REMARK SMILES IDX 30 36 71 37 31 38 76 39 70 40 72 41 32 42 75 43 69 44 68 45
REMARK SMILES IDX 33 47 59 48 42 49 58 50 43 51 46 52 57 53 73 54 44 55 45 56
REMARK SMILES IDX 56 58 74 59 47 60 34 61 35 62 40 63 36 64 37 65 39 66 41 67
REMARK SMILES IDX 38 68 60 69 61 70 66 71 62 72 63 73 65 74 67 75 64 76 48 77
REMARK SMILES IDX 49 78 54 79 50 80 51 81 53 82 55 83 52 84
REMARK H PARENT 1 21 1 22 72 46 46 57
REMARK Flexibility Score: inf
ROOT
ATOM      1  C   UNL A   1      41.019  19.779  26.124  1.00  0.00     0.202 C 
ENDROOT
BRANCH   1   2
ATOM      2  C   UNL A   1      40.202  21.008  26.538  1.00  0.00     0.261 C 
BRANCH   2   3
ATOM      3  O   UNL A   1      38.993  21.142  25.768  1.00  0.00    -0.461 OA
BRANCH   3   4
ATOM      4  C   UNL A   1      38.340  22.330  25.907  1.00  0.00     0.335 C 
ATOM      5  O   UNL A   1      38.857  23.369  26.304  1.00  0.00    -0.249 OA
BRANCH   4   6
ATOM      6  C   UNL A   1      36.874  22.257  25.451  1.00  0.00     0.228 C 
ATOM      7  C   UNL A   1      34.666  22.975  25.453  1.00  0.00     0.129 C 
ATOM      8  C   UNL A   1      35.123  22.714  23.999  1.00  0.00     0.036 C 
ATOM      9  O   UNL A   1      35.874  22.928  26.237  1.00  0.00    -0.362 OA
ATOM     10  C   UNL A   1      36.634  22.807  24.066  1.00  0.00     0.047 C 
BRANCH   7  11
ATOM     11  C   UNL A   1      33.864  24.293  25.516  1.00  0.00     0.107 C 
BRANCH  11  12
ATOM     12  S   UNL A   1      33.875  25.753  24.380  1.00  0.00    -0.122 SA
BRANCH  12  13
ATOM     13  C   UNL A   1      33.241  27.185  25.233  1.00  0.00     0.028 A 
ATOM     14  C   UNL A   1      31.936  28.113  27.077  1.00  0.00     0.033 A 
ATOM     15  C   UNL A   1      32.164  29.401  26.595  1.00  0.00     0.027 A 
ATOM     16  C   UNL A   1      32.521  27.024  26.420  1.00  0.00     0.042 A 
ATOM     17  C   UNL A   1      32.819  29.587  25.381  1.00  0.00     0.024 A 
ATOM     18  C   UNL A   1      33.303  28.481  24.675  1.00  0.00     0.054 A 
ATOM     19  Cl  UNL A   1      33.939  28.804  23.092  1.00  0.00    -0.083 Cl
BRANCH  14  20
ATOM     20  N   UNL A   1      31.232  27.919  28.254  1.00  0.00    -0.399 N 
ATOM     21  H   UNL A   1      31.631  27.393  28.985  1.00  0.00     0.156 HD
ATOM     22  H   UNL A   1      30.335  28.309  28.361  1.00  0.00     0.156 HD
ENDBRANCH  14  20
ENDBRANCH  12  13
ENDBRANCH  11  12
ENDBRANCH   7  11
ENDBRANCH   4   6
ENDBRANCH   3   4
ENDBRANCH   2   3
ENDBRANCH   1   2
BRANCH   1  23
ATOM     23  O   UNL A   1      42.411  19.753  26.420  1.00  0.00    -0.374 OA
BRANCH  23  24
ATOM     24  C   UNL A   1      43.303  20.365  25.502  1.00  0.00     0.202 C 
BRANCH  24  25
ATOM     25  C   UNL A   1      43.861  21.764  25.808  1.00  0.00     0.261 C 
BRANCH  25  26
ATOM     26  O   UNL A   1      42.972  22.857  25.652  1.00  0.00    -0.460 OA
BRANCH  26  27
ATOM     27  C   UNL A   1      43.588  24.035  25.411  1.00  0.00     0.338 C 
ATOM     28  O   UNL A   1      44.304  24.363  24.482  1.00  0.00    -0.246 OA
BRANCH  27  29
ATOM     29  C   UNL A   1      43.173  24.928  26.484  1.00  0.00     0.060 A 
ATOM     30  C   UNL A   1      43.787  26.178  26.580  1.00  0.00     0.016 A 
ATOM     31  C   UNL A   1      42.147  24.535  27.345  1.00  0.00     0.016 A 
ATOM     32  C   UNL A   1      43.356  27.068  27.549  1.00  0.00     0.010 A 
ATOM     33  C   UNL A   1      41.720  25.426  28.319  1.00  0.00     0.010 A 
ATOM     34  C   UNL A   1      42.326  26.689  28.421  1.00  0.00    -0.014 A 
BRANCH  34  35
ATOM     35  C   UNL A   1      41.905  27.606  29.491  1.00  0.00     0.031 A 
ATOM     36  C   UNL A   1      42.627  27.567  30.799  1.00  0.00     0.074 A 
ATOM     37  C   UNL A   1      40.873  28.437  29.271  1.00  0.00     0.049 A 
ATOM     38  N   UNL A   1      42.372  28.219  31.900  1.00  0.00    -0.248 NA
ATOM     39  C   UNL A   1      43.787  26.664  30.880  1.00  0.00     0.031 C 
ATOM     40  C   UNL A   1      40.133  28.546  28.012  1.00  0.00     0.029 A 
ATOM     41  N   UNL A   1      40.258  29.332  30.103  1.00  0.00    -0.354 N 
ATOM     42  C   UNL A   1      43.335  27.802  32.809  1.00  0.00     0.074 A 
ATOM     43  C   UNL A   1      44.158  26.818  32.142  1.00  0.00     0.031 C 
ATOM     44  C   UNL A   1      39.153  29.453  28.160  1.00  0.00     0.029 A 
ATOM     45  C   UNL A   1      39.173  29.949  29.533  1.00  0.00     0.049 A 
ATOM     46  H   UNL A   1      40.564  29.515  31.021  1.00  0.00     0.167 HD
ATOM     47  C   UNL A   1      43.509  28.218  34.084  1.00  0.00     0.037 A 
ATOM     48  C   UNL A   1      38.281  30.795  30.079  1.00  0.00     0.037 A 
ATOM     49  C   UNL A   1      42.664  29.192  34.721  1.00  0.00     0.049 A 
ATOM     50  C   UNL A   1      38.452  31.180  31.522  1.00  0.00     0.074 A 
ATOM     51  C   UNL A   1      42.757  29.712  35.998  1.00  0.00     0.029 A 
ATOM     52  N   UNL A   1      41.557  29.783  34.125  1.00  0.00    -0.354 N 
ATOM     53  N   UNL A   1      39.389  30.817  32.368  1.00  0.00    -0.248 NA
ATOM     54  C   UNL A   1      37.445  32.083  32.091  1.00  0.00     0.031 C 
ATOM     55  C   UNL A   1      41.672  30.571  36.196  1.00  0.00     0.029 A 
ATOM     56  C   UNL A   1      40.934  30.632  35.021  1.00  0.00     0.049 A 
ATOM     57  H   UNL A   1      41.260  29.620  33.200  1.00  0.00     0.167 HD
ATOM     58  C   UNL A   1      39.096  31.461  33.562  1.00  0.00     0.074 A 
ATOM     59  C   UNL A   1      37.904  32.252  33.324  1.00  0.00     0.031 C 
ATOM     60  C   UNL A   1      39.746  31.404  34.750  1.00  0.00     0.037 A 
BRANCH  47  61
ATOM     61  C   UNL A   1      44.626  27.597  34.870  1.00  0.00     0.057 A 
ATOM     62  C   UNL A   1      44.445  26.430  35.625  1.00  0.00     0.134 A 
ATOM     63  C   UNL A   1      45.906  28.165  34.858  1.00  0.00     0.134 A 
ATOM     64  F   UNL A   1      43.240  25.844  35.693  1.00  0.00    -0.206 F 
ATOM     65  C   UNL A   1      45.490  25.864  36.357  1.00  0.00     0.040 A 
ATOM     66  C   UNL A   1      46.967  27.592  35.563  1.00  0.00     0.040 A 
ATOM     67  F   UNL A   1      46.150  29.283  34.157  1.00  0.00    -0.206 F 
ATOM     68  C   UNL A   1      46.758  26.442  36.322  1.00  0.00     0.006 A 
ENDBRANCH  47  61
BRANCH  48  69
ATOM     69  C   UNL A   1      37.149  31.307  29.269  1.00  0.00     0.057 A 
ATOM     70  C   UNL A   1      36.024  30.514  29.011  1.00  0.00     0.134 A 
ATOM     71  C   UNL A   1      37.157  32.602  28.735  1.00  0.00     0.134 A 
ATOM     72  F   UNL A   1      35.961  29.261  29.483  1.00  0.00    -0.206 F 
ATOM     73  C   UNL A   1      34.960  30.982  28.238  1.00  0.00     0.040 A 
ATOM     74  C   UNL A   1      36.088  33.093  27.983  1.00  0.00     0.040 A 
ATOM     75  F   UNL A   1      38.201  33.418  28.951  1.00  0.00    -0.206 F 
ATOM     76  C   UNL A   1      34.988  32.279  27.726  1.00  0.00     0.006 A 
ENDBRANCH  48  69
BRANCH  60  77
ATOM     77  C   UNL A   1      39.191  32.230  35.872  1.00  0.00     0.057 A 
ATOM     78  C   UNL A   1      38.302  31.692  36.812  1.00  0.00     0.134 A 
ATOM     79  C   UNL A   1      39.596  33.559  36.047  1.00  0.00     0.134 A 
ATOM     80  F   UNL A   1      37.865  30.429  36.689  1.00  0.00    -0.206 F 
ATOM     81  C   UNL A   1      37.825  32.454  37.878  1.00  0.00     0.040 A 
ATOM     82  C   UNL A   1      39.149  34.320  37.126  1.00  0.00     0.040 A 
ATOM     83  F   UNL A   1      40.453  34.129  35.186  1.00  0.00    -0.206 F 
ATOM     84  C   UNL A   1      38.256  33.769  38.043  1.00  0.00     0.006 A 
ENDBRANCH  60  77
ENDBRANCH  34  35
ENDBRANCH  27  29
ENDBRANCH  26  27
ENDBRANCH  25  26
ENDBRANCH  24  25
ENDBRANCH  23  24
ENDBRANCH   1  23
TORSDOF 18
ENDMDL
