MODEL 1
REMARK VINA RESULT:     -11.0      0.000      0.000
REMARK SMILES O=C(OCCOCCOC(=O)c1c(F)cccc1NS(=O)(=O)C(F)(F)F)c1ccc(-c2c3nc(c(-c4c(F)cccc4F)c4ccc([nH]4)c(-c4c(F)cccc4F)c4nc(c(-c5c(F)cccc5F)c5ccc2[nH]5)C=C4)C=C3)cc1
REMARK SMILES IDX 7 1 6 2 5 3 4 4 3 5 2 6 1 7 27 8 28 9 80 10 29 11 79 12
REMARK SMILES IDX 30 13 31 14 32 15 73 16 33 17 78 18 72 19 74 20 34 21 77 22
REMARK SMILES IDX 71 23 70 24 35 26 61 27 44 28 60 29 45 30 48 31 59 32 75 33
REMARK SMILES IDX 46 34 47 35 58 37 76 38 49 39 36 40 37 41 42 42 38 43 39 44
REMARK SMILES IDX 41 45 43 46 40 47 62 48 63 49 68 50 64 51 65 52 67 53 69 54
REMARK SMILES IDX 66 55 50 56 51 57 56 58 52 59 53 60 55 61 57 62 54 63 8 64
REMARK SMILES IDX 9 65 10 66 11 67 12 68 13 69 18 70 14 71 15 72 17 73 16 74
REMARK SMILES IDX 19 75 20 77 21 78 22 79 23 80 24 81 25 82 26 83
REMARK H PARENT 74 25 48 36 19 76
REMARK Flexibility Score: inf
ROOT
ATOM      1  C   UNL A   1      37.037  21.874  25.041  1.00  0.00     0.202 C 
ENDROOT
BRANCH   1   2
ATOM      2  O   UNL A   1      36.771  20.482  24.927  1.00  0.00    -0.374 OA
BRANCH   2   3
ATOM      3  C   UNL A   1      37.889  19.606  24.912  1.00  0.00     0.202 C 
BRANCH   3   4
ATOM      4  C   UNL A   1      39.134  20.119  25.635  1.00  0.00     0.261 C 
BRANCH   4   5
ATOM      5  O   UNL A   1      40.127  19.085  25.726  1.00  0.00    -0.460 OA
BRANCH   5   6
ATOM      6  C   UNL A   1      41.441  19.256  26.006  1.00  0.00     0.338 C 
ATOM      7  O   UNL A   1      42.193  18.284  25.986  1.00  0.00    -0.246 OA
BRANCH   6   8
ATOM      8  C   UNL A   1      42.022  20.583  26.357  1.00  0.00     0.060 A 
ATOM      9  C   UNL A   1      42.416  21.526  25.410  1.00  0.00     0.016 A 
ATOM     10  C   UNL A   1      42.056  20.955  27.707  1.00  0.00     0.016 A 
ATOM     11  C   UNL A   1      42.842  22.789  25.757  1.00  0.00     0.010 A 
ATOM     12  C   UNL A   1      42.436  22.250  28.074  1.00  0.00     0.010 A 
ATOM     13  C   UNL A   1      42.804  23.173  27.086  1.00  0.00    -0.014 A 
BRANCH  13  14
ATOM     14  C   UNL A   1      43.172  24.560  27.382  1.00  0.00     0.031 A 
ATOM     15  C   UNL A   1      44.595  24.964  27.221  1.00  0.00     0.074 A 
ATOM     16  C   UNL A   1      42.193  25.444  27.656  1.00  0.00     0.049 A 
ATOM     17  N   UNL A   1      45.164  26.090  27.544  1.00  0.00    -0.248 NA
ATOM     18  C   UNL A   1      45.499  23.978  26.603  1.00  0.00     0.031 C 
ATOM     19  C   UNL A   1      40.757  25.138  27.665  1.00  0.00     0.029 A 
ATOM     20  N   UNL A   1      42.247  26.776  27.956  1.00  0.00    -0.354 N 
ATOM     21  C   UNL A   1      46.501  25.932  27.216  1.00  0.00     0.074 A 
ATOM     22  C   UNL A   1      46.661  24.614  26.647  1.00  0.00     0.031 C 
ATOM     23  C   UNL A   1      40.070  26.253  27.951  1.00  0.00     0.029 A 
ATOM     24  C   UNL A   1      41.017  27.320  28.242  1.00  0.00     0.049 A 
ATOM     25  H   UNL A   1      43.083  27.296  27.967  1.00  0.00     0.167 HD
ATOM     26  C   UNL A   1      47.495  26.824  27.403  1.00  0.00     0.037 A 
ATOM     27  C   UNL A   1      40.708  28.527  28.752  1.00  0.00     0.037 A 
ATOM     28  C   UNL A   1      47.272  28.133  27.951  1.00  0.00     0.049 A 
ATOM     29  C   UNL A   1      41.850  29.458  29.054  1.00  0.00     0.074 A 
ATOM     30  C   UNL A   1      48.198  29.119  28.226  1.00  0.00     0.029 A 
ATOM     31  N   UNL A   1      46.024  28.632  28.303  1.00  0.00    -0.354 N 
ATOM     32  N   UNL A   1      43.130  29.290  28.813  1.00  0.00    -0.248 NA
ATOM     33  C   UNL A   1      41.524  30.723  29.722  1.00  0.00     0.031 C 
ATOM     34  C   UNL A   1      47.516  30.196  28.797  1.00  0.00     0.029 A 
ATOM     35  C   UNL A   1      46.159  29.901  28.828  1.00  0.00     0.049 A 
ATOM     36  H   UNL A   1      45.172  28.152  28.195  1.00  0.00     0.167 HD
ATOM     37  C   UNL A   1      43.762  30.424  29.298  1.00  0.00     0.074 A 
ATOM     38  C   UNL A   1      42.721  31.286  29.823  1.00  0.00     0.031 C 
ATOM     39  C   UNL A   1      45.083  30.724  29.322  1.00  0.00     0.037 A 
BRANCH  26  40
ATOM     40  C   UNL A   1      48.893  26.397  27.092  1.00  0.00     0.057 A 
ATOM     41  C   UNL A   1      49.667  25.769  28.077  1.00  0.00     0.134 A 
ATOM     42  C   UNL A   1      49.494  26.643  25.853  1.00  0.00     0.134 A 
ATOM     43  F   UNL A   1      49.142  25.493  29.281  1.00  0.00    -0.206 F 
ATOM     44  C   UNL A   1      50.999  25.426  27.850  1.00  0.00     0.040 A 
ATOM     45  C   UNL A   1      50.822  26.287  25.607  1.00  0.00     0.040 A 
ATOM     46  F   UNL A   1      48.797  27.215  24.860  1.00  0.00    -0.206 F 
ATOM     47  C   UNL A   1      51.582  25.688  26.611  1.00  0.00     0.006 A 
ENDBRANCH  26  40
BRANCH  27  48
ATOM     48  C   UNL A   1      39.301  28.865  29.098  1.00  0.00     0.057 A 
ATOM     49  C   UNL A   1      38.431  29.421  28.149  1.00  0.00     0.134 A 
ATOM     50  C   UNL A   1      38.785  28.640  30.379  1.00  0.00     0.134 A 
ATOM     51  F   UNL A   1      38.854  29.663  26.899  1.00  0.00    -0.206 F 
ATOM     52  C   UNL A   1      37.112  29.756  28.462  1.00  0.00     0.040 A 
ATOM     53  C   UNL A   1      37.458  28.942  30.698  1.00  0.00     0.040 A 
ATOM     54  F   UNL A   1      39.556  28.094  31.331  1.00  0.00    -0.206 F 
ATOM     55  C   UNL A   1      36.620  29.509  29.740  1.00  0.00     0.006 A 
ENDBRANCH  27  48
BRANCH  39  56
ATOM     56  C   UNL A   1      45.478  32.033  29.926  1.00  0.00     0.057 A 
ATOM     57  C   UNL A   1      45.614  33.172  29.123  1.00  0.00     0.134 A 
ATOM     58  C   UNL A   1      45.865  32.124  31.268  1.00  0.00     0.134 A 
ATOM     59  F   UNL A   1      45.272  33.135  27.826  1.00  0.00    -0.206 F 
ATOM     60  C   UNL A   1      46.160  34.350  29.626  1.00  0.00     0.040 A 
ATOM     61  C   UNL A   1      46.388  33.307  31.789  1.00  0.00     0.040 A 
ATOM     62  F   UNL A   1      45.745  31.067  32.083  1.00  0.00    -0.206 F 
ATOM     63  C   UNL A   1      46.553  34.418  30.962  1.00  0.00     0.006 A 
ENDBRANCH  39  56
ENDBRANCH  13  14
ENDBRANCH   6   8
ENDBRANCH   5   6
ENDBRANCH   4   5
ENDBRANCH   3   4
ENDBRANCH   2   3
ENDBRANCH   1   2
BRANCH   1  64
ATOM     64  C   UNL A   1      36.081  22.410  26.104  1.00  0.00     0.261 C 
BRANCH  64  65
ATOM     65  O   UNL A   1      35.203  21.336  26.482  1.00  0.00    -0.460 OA
BRANCH  65  66
ATOM     66  C   UNL A   1      33.910  21.632  26.788  1.00  0.00     0.343 C 
ATOM     67  O   UNL A   1      33.396  21.701  27.883  1.00  0.00    -0.246 OA
BRANCH  66  68
ATOM     68  C   UNL A   1      33.241  22.070  25.542  1.00  0.00     0.119 A 
ATOM     69  C   UNL A   1      32.699  23.362  25.493  1.00  0.00     0.139 A 
ATOM     70  C   UNL A   1      33.086  21.203  24.435  1.00  0.00     0.066 A 
ATOM     71  F   UNL A   1      32.876  24.235  26.495  1.00  0.00    -0.206 F 
ATOM     72  C   UNL A   1      31.977  23.800  24.392  1.00  0.00     0.040 A 
ATOM     73  C   UNL A   1      32.380  21.680  23.323  1.00  0.00     0.028 A 
ATOM     74  C   UNL A   1      31.811  22.956  23.308  1.00  0.00     0.005 A 
BRANCH  70  75
ATOM     75  N   UNL A   1      33.764  19.931  24.345  1.00  0.00    -0.275 N 
ATOM     76  H   UNL A   1      34.749  19.915  24.359  1.00  0.00     0.180 HD
BRANCH  75  77
ATOM     77  S   UNL A   1      32.922  18.457  24.217  1.00  0.00     0.333 S 
ATOM     78  O   UNL A   1      32.321  18.285  25.530  1.00  0.00    -0.197 OA
ATOM     79  O   UNL A   1      32.050  18.559  23.058  1.00  0.00    -0.197 OA
BRANCH  77  80
ATOM     80  C   UNL A   1      34.190  17.111  23.939  1.00  0.00     0.516 C 
ATOM     81  F   UNL A   1      35.387  17.431  24.515  1.00  0.00    -0.155 F 
ATOM     82  F   UNL A   1      33.811  15.918  24.478  1.00  0.00    -0.155 F 
ATOM     83  F   UNL A   1      34.446  16.894  22.619  1.00  0.00    -0.155 F 
ENDBRANCH  77  80
ENDBRANCH  75  77
ENDBRANCH  70  75
ENDBRANCH  66  68
ENDBRANCH  65  66
ENDBRANCH  64  65
ENDBRANCH   1  64
TORSDOF 17
ENDMDL
MODEL 2
REMARK VINA RESULT:     -10.8      0.633      6.380
REMARK SMILES O=C(OCCOCCOC(=O)c1c(F)cccc1NS(=O)(=O)C(F)(F)F)c1ccc(-c2c3nc(c(-c4c(F)cccc4F)c4ccc([nH]4)c(-c4c(F)cccc4F)c4nc(c(-c5c(F)cccc5F)c5ccc2[nH]5)C=C4)C=C3)cc1
REMARK SMILES IDX 7 1 6 2 5 3 4 4 3 5 2 6 1 7 27 8 28 9 80 10 29 11 79 12
REMARK SMILES IDX 30 13 31 14 32 15 73 16 33 17 78 18 72 19 74 20 34 21 77 22
REMARK SMILES IDX 71 23 70 24 35 26 61 27 44 28 60 29 45 30 48 31 59 32 75 33
REMARK SMILES IDX 46 34 47 35 58 37 76 38 49 39 36 40 37 41 42 42 38 43 39 44
REMARK SMILES IDX 41 45 43 46 40 47 62 48 63 49 68 50 64 51 65 52 67 53 69 54
REMARK SMILES IDX 66 55 50 56 51 57 56 58 52 59 53 60 55 61 57 62 54 63 8 64
REMARK SMILES IDX 9 65 10 66 11 67 12 68 13 69 18 70 14 71 15 72 17 73 16 74
REMARK SMILES IDX 19 75 20 77 21 78 22 79 23 80 24 81 25 82 26 83
REMARK H PARENT 74 25 48 36 19 76
REMARK Flexibility Score: inf
ROOT
ATOM      1  C   UNL A   1      36.887  22.291  25.572  1.00  0.00     0.202 C 
ENDROOT
BRANCH   1   2
ATOM      2  O   UNL A   1      36.661  20.931  25.225  1.00  0.00    -0.374 OA
BRANCH   2   3
ATOM      3  C   UNL A   1      37.801  20.138  24.929  1.00  0.00     0.202 C 
BRANCH   3   4
ATOM      4  C   UNL A   1      39.084  20.536  25.657  1.00  0.00     0.261 C 
BRANCH   4   5
ATOM      5  O   UNL A   1      39.990  19.423  25.731  1.00  0.00    -0.460 OA
BRANCH   5   6
ATOM      6  C   UNL A   1      41.320  19.485  25.981  1.00  0.00     0.338 C 
ATOM      7  O   UNL A   1      41.997  18.463  25.894  1.00  0.00    -0.246 OA
BRANCH   6   8
ATOM      8  C   UNL A   1      42.005  20.747  26.378  1.00  0.00     0.060 A 
ATOM      9  C   UNL A   1      42.380  21.738  25.472  1.00  0.00     0.016 A 
ATOM     10  C   UNL A   1      42.167  21.011  27.744  1.00  0.00     0.016 A 
ATOM     11  C   UNL A   1      42.907  22.946  25.874  1.00  0.00     0.010 A 
ATOM     12  C   UNL A   1      42.653  22.252  28.171  1.00  0.00     0.010 A 
ATOM     13  C   UNL A   1      42.997  23.227  27.226  1.00  0.00    -0.014 A 
BRANCH  13  14
ATOM     14  C   UNL A   1      43.470  24.565  27.590  1.00  0.00     0.031 A 
ATOM     15  C   UNL A   1      42.474  25.563  28.066  1.00  0.00     0.074 A 
ATOM     16  C   UNL A   1      44.797  24.798  27.608  1.00  0.00     0.049 A 
ATOM     17  N   UNL A   1      42.645  26.828  28.318  1.00  0.00    -0.248 NA
ATOM     18  C   UNL A   1      41.106  25.071  28.305  1.00  0.00     0.031 C 
ATOM     19  C   UNL A   1      45.834  23.802  27.309  1.00  0.00     0.029 A 
ATOM     20  N   UNL A   1      45.505  25.928  27.910  1.00  0.00    -0.354 N 
ATOM     21  C   UNL A   1      41.397  27.298  28.696  1.00  0.00     0.074 A 
ATOM     22  C   UNL A   1      40.481  26.183  28.667  1.00  0.00     0.031 C 
ATOM     23  C   UNL A   1      47.042  24.368  27.447  1.00  0.00     0.029 A 
ATOM     24  C   UNL A   1      46.862  25.781  27.745  1.00  0.00     0.049 A 
ATOM     25  H   UNL A   1      45.084  26.765  28.215  1.00  0.00     0.167 HD
ATOM     26  C   UNL A   1      41.070  28.566  29.019  1.00  0.00     0.037 A 
ATOM     27  C   UNL A   1      47.835  26.711  27.764  1.00  0.00     0.037 A 
ATOM     28  C   UNL A   1      42.032  29.632  29.057  1.00  0.00     0.049 A 
ATOM     29  C   UNL A   1      47.422  28.134  28.017  1.00  0.00     0.074 A 
ATOM     30  C   UNL A   1      41.824  30.968  29.332  1.00  0.00     0.029 A 
ATOM     31  N   UNL A   1      43.390  29.470  28.811  1.00  0.00    -0.354 N 
ATOM     32  N   UNL A   1      46.229  28.603  28.306  1.00  0.00    -0.248 NA
ATOM     33  C   UNL A   1      48.463  29.162  27.917  1.00  0.00     0.031 C 
ATOM     34  C   UNL A   1      43.048  31.626  29.200  1.00  0.00     0.029 A 
ATOM     35  C   UNL A   1      44.029  30.691  28.894  1.00  0.00     0.049 A 
ATOM     36  H   UNL A   1      43.830  28.613  28.609  1.00  0.00     0.167 HD
ATOM     37  C   UNL A   1      46.375  29.975  28.423  1.00  0.00     0.074 A 
ATOM     38  C   UNL A   1      47.779  30.263  28.200  1.00  0.00     0.031 C 
ATOM     39  C   UNL A   1      45.436  30.918  28.678  1.00  0.00     0.037 A 
BRANCH  26  40
ATOM     40  C   UNL A   1      39.631  28.878  29.274  1.00  0.00     0.057 A 
ATOM     41  C   UNL A   1      39.099  28.724  30.562  1.00  0.00     0.134 A 
ATOM     42  C   UNL A   1      38.760  29.279  28.256  1.00  0.00     0.134 A 
ATOM     43  F   UNL A   1      39.889  28.356  31.583  1.00  0.00    -0.206 F 
ATOM     44  C   UNL A   1      37.746  28.930  30.822  1.00  0.00     0.040 A 
ATOM     45  C   UNL A   1      37.405  29.507  28.508  1.00  0.00     0.040 A 
ATOM     46  F   UNL A   1      39.213  29.473  27.009  1.00  0.00    -0.206 F 
ATOM     47  C   UNL A   1      36.893  29.320  29.792  1.00  0.00     0.006 A 
ENDBRANCH  26  40
BRANCH  27  48
ATOM     48  C   UNL A   1      49.239  26.343  27.438  1.00  0.00     0.057 A 
ATOM     49  C   UNL A   1      50.172  26.062  28.447  1.00  0.00     0.134 A 
ATOM     50  C   UNL A   1      49.689  26.257  26.116  1.00  0.00     0.134 A 
ATOM     51  F   UNL A   1      49.814  26.122  29.739  1.00  0.00    -0.206 F 
ATOM     52  C   UNL A   1      51.497  25.729  28.157  1.00  0.00     0.040 A 
ATOM     53  C   UNL A   1      51.003  25.894  25.810  1.00  0.00     0.040 A 
ATOM     54  F   UNL A   1      48.845  26.494  25.100  1.00  0.00    -0.206 F 
ATOM     55  C   UNL A   1      51.914  25.636  26.833  1.00  0.00     0.006 A 
ENDBRANCH  27  48
BRANCH  39  56
ATOM     56  C   UNL A   1      45.890  32.342  28.735  1.00  0.00     0.057 A 
ATOM     57  C   UNL A   1      46.190  32.940  29.964  1.00  0.00     0.134 A 
ATOM     58  C   UNL A   1      45.884  33.150  27.593  1.00  0.00     0.134 A 
ATOM     59  F   UNL A   1      46.196  32.214  31.093  1.00  0.00    -0.206 F 
ATOM     60  C   UNL A   1      46.431  34.309  30.062  1.00  0.00     0.040 A 
ATOM     61  C   UNL A   1      46.151  34.516  27.675  1.00  0.00     0.040 A 
ATOM     62  F   UNL A   1      45.614  32.625  26.389  1.00  0.00    -0.206 F 
ATOM     63  C   UNL A   1      46.407  35.101  28.915  1.00  0.00     0.006 A 
ENDBRANCH  39  56
ENDBRANCH  13  14
ENDBRANCH   6   8
ENDBRANCH   5   6
ENDBRANCH   4   5
ENDBRANCH   3   4
ENDBRANCH   2   3
ENDBRANCH   1   2
BRANCH   1  64
ATOM     64  C   UNL A   1      35.767  22.684  26.531  1.00  0.00     0.261 C 
BRANCH  64  65
ATOM     65  O   UNL A   1      34.844  21.584  26.597  1.00  0.00    -0.460 OA
BRANCH  65  66
ATOM     66  C   UNL A   1      33.527  21.853  26.817  1.00  0.00     0.343 C 
ATOM     67  O   UNL A   1      32.955  21.975  27.878  1.00  0.00    -0.246 OA
BRANCH  66  68
ATOM     68  C   UNL A   1      32.912  22.183  25.512  1.00  0.00     0.119 A 
ATOM     69  C   UNL A   1      32.264  23.420  25.372  1.00  0.00     0.139 A 
ATOM     70  C   UNL A   1      32.909  21.266  24.436  1.00  0.00     0.066 A 
ATOM     71  F   UNL A   1      32.296  24.341  26.346  1.00  0.00    -0.206 F 
ATOM     72  C   UNL A   1      31.586  23.751  24.209  1.00  0.00     0.040 A 
ATOM     73  C   UNL A   1      32.243  21.637  23.260  1.00  0.00     0.028 A 
ATOM     74  C   UNL A   1      31.569  22.856  23.153  1.00  0.00     0.005 A 
BRANCH  70  75
ATOM     75  N   UNL A   1      33.699  20.057  24.445  1.00  0.00    -0.275 N 
ATOM     76  H   UNL A   1      34.681  20.131  24.421  1.00  0.00     0.180 HD
BRANCH  75  77
ATOM     77  S   UNL A   1      32.993  18.508  24.496  1.00  0.00     0.333 S 
ATOM     78  O   UNL A   1      32.533  18.381  25.869  1.00  0.00    -0.197 OA
ATOM     79  O   UNL A   1      32.014  18.446  23.422  1.00  0.00    -0.197 OA
BRANCH  77  80
ATOM     80  C   UNL A   1      34.353  17.263  24.184  1.00  0.00     0.516 C 
ATOM     81  F   UNL A   1      34.479  16.990  22.850  1.00  0.00    -0.155 F 
ATOM     82  F   UNL A   1      35.572  17.707  24.602  1.00  0.00    -0.155 F 
ATOM     83  F   UNL A   1      34.125  16.070  24.798  1.00  0.00    -0.155 F 
ENDBRANCH  77  80
ENDBRANCH  75  77
ENDBRANCH  70  75
ENDBRANCH  66  68
ENDBRANCH  65  66
ENDBRANCH  64  65
ENDBRANCH   1  64
TORSDOF 17
ENDMDL
MODEL 3
REMARK VINA RESULT:     -10.5      4.706      9.037
REMARK SMILES O=C(OCCOCCOC(=O)c1c(F)cccc1NS(=O)(=O)C(F)(F)F)c1ccc(-c2c3nc(c(-c4c(F)cccc4F)c4ccc([nH]4)c(-c4c(F)cccc4F)c4nc(c(-c5c(F)cccc5F)c5ccc2[nH]5)C=C4)C=C3)cc1
REMARK SMILES IDX 7 1 6 2 5 3 4 4 3 5 2 6 1 7 27 8 28 9 80 10 29 11 79 12
REMARK SMILES IDX 30 13 31 14 32 15 73 16 33 17 78 18 72 19 74 20 34 21 77 22
REMARK SMILES IDX 71 23 70 24 35 26 61 27 44 28 60 29 45 30 48 31 59 32 75 33
REMARK SMILES IDX 46 34 47 35 58 37 76 38 49 39 36 40 37 41 42 42 38 43 39 44
REMARK SMILES IDX 41 45 43 46 40 47 62 48 63 49 68 50 64 51 65 52 67 53 69 54
REMARK SMILES IDX 66 55 50 56 51 57 56 58 52 59 53 60 55 61 57 62 54 63 8 64
REMARK SMILES IDX 9 65 10 66 11 67 12 68 13 69 18 70 14 71 15 72 17 73 16 74
REMARK SMILES IDX 19 75 20 77 21 78 22 79 23 80 24 81 25 82 26 83
REMARK H PARENT 74 25 48 36 19 76
REMARK Flexibility Score: inf
ROOT
ATOM      1  C   UNL A   1      34.094  30.299  27.083  1.00  0.00     0.202 C 
ENDROOT
BRANCH   1   2
ATOM      2  O   UNL A   1      33.466  31.254  27.928  1.00  0.00    -0.374 OA
BRANCH   2   3
ATOM      3  C   UNL A   1      33.880  32.606  27.800  1.00  0.00     0.202 C 
BRANCH   3   4
ATOM      4  C   UNL A   1      34.400  33.257  29.081  1.00  0.00     0.261 C 
BRANCH   4   5
ATOM      5  O   UNL A   1      34.328  32.336  30.181  1.00  0.00    -0.460 OA
BRANCH   5   6
ATOM      6  C   UNL A   1      35.337  32.009  31.022  1.00  0.00     0.338 C 
ATOM      7  O   UNL A   1      35.269  32.342  32.203  1.00  0.00    -0.246 OA
BRANCH   6   8
ATOM      8  C   UNL A   1      36.550  31.268  30.574  1.00  0.00     0.060 A 
ATOM      9  C   UNL A   1      37.017  31.278  29.260  1.00  0.00     0.016 A 
ATOM     10  C   UNL A   1      37.336  30.633  31.545  1.00  0.00     0.016 A 
ATOM     11  C   UNL A   1      38.203  30.683  28.892  1.00  0.00     0.010 A 
ATOM     12  C   UNL A   1      38.568  30.068  31.198  1.00  0.00     0.010 A 
ATOM     13  C   UNL A   1      39.007  30.121  29.868  1.00  0.00    -0.014 A 
BRANCH  13  14
ATOM     14  C   UNL A   1      40.302  29.593  29.431  1.00  0.00     0.031 A 
ATOM     15  C   UNL A   1      41.484  30.497  29.466  1.00  0.00     0.074 A 
ATOM     16  C   UNL A   1      40.401  28.280  29.143  1.00  0.00     0.049 A 
ATOM     17  N   UNL A   1      42.685  30.285  29.012  1.00  0.00    -0.248 NA
ATOM     18  C   UNL A   1      41.295  31.809  30.108  1.00  0.00     0.031 C 
ATOM     19  C   UNL A   1      39.307  27.307  29.253  1.00  0.00     0.029 A 
ATOM     20  N   UNL A   1      41.466  27.531  28.727  1.00  0.00    -0.354 N 
ATOM     21  C   UNL A   1      43.384  31.455  29.267  1.00  0.00     0.074 A 
ATOM     22  C   UNL A   1      42.486  32.366  29.937  1.00  0.00     0.031 C 
ATOM     23  C   UNL A   1      39.762  26.092  28.915  1.00  0.00     0.029 A 
ATOM     24  C   UNL A   1      41.143  26.219  28.473  1.00  0.00     0.049 A 
ATOM     25  H   UNL A   1      42.375  27.895  28.619  1.00  0.00     0.167 HD
ATOM     26  C   UNL A   1      44.665  31.724  28.941  1.00  0.00     0.037 A 
ATOM     27  C   UNL A   1      41.871  25.254  27.881  1.00  0.00     0.037 A 
ATOM     28  C   UNL A   1      45.521  30.767  28.297  1.00  0.00     0.049 A 
ATOM     29  C   UNL A   1      43.259  25.619  27.429  1.00  0.00     0.074 A 
ATOM     30  C   UNL A   1      46.827  30.926  27.880  1.00  0.00     0.029 A 
ATOM     31  N   UNL A   1      45.145  29.467  27.983  1.00  0.00    -0.354 N 
ATOM     32  N   UNL A   1      43.907  26.749  27.601  1.00  0.00    -0.248 NA
ATOM     33  C   UNL A   1      44.006  24.606  26.676  1.00  0.00     0.031 C 
ATOM     34  C   UNL A   1      47.224  29.738  27.263  1.00  0.00     0.029 A 
ATOM     35  C   UNL A   1      46.184  28.822  27.343  1.00  0.00     0.049 A 
ATOM     36  H   UNL A   1      44.269  29.067  28.186  1.00  0.00     0.167 HD
ATOM     37  C   UNL A   1      45.135  26.583  26.982  1.00  0.00     0.074 A 
ATOM     38  C   UNL A   1      45.153  25.234  26.451  1.00  0.00     0.031 C 
ATOM     39  C   UNL A   1      46.153  27.467  26.849  1.00  0.00     0.037 A 
BRANCH  26  40
ATOM     40  C   UNL A   1      45.182  33.102  29.199  1.00  0.00     0.057 A 
ATOM     41  C   UNL A   1      45.008  34.106  28.237  1.00  0.00     0.134 A 
ATOM     42  C   UNL A   1      45.890  33.431  30.360  1.00  0.00     0.134 A 
ATOM     43  F   UNL A   1      44.326  33.854  27.109  1.00  0.00    -0.206 F 
ATOM     44  C   UNL A   1      45.544  35.381  28.407  1.00  0.00     0.040 A 
ATOM     45  C   UNL A   1      46.415  34.712  30.550  1.00  0.00     0.040 A 
ATOM     46  F   UNL A   1      46.065  32.524  31.331  1.00  0.00    -0.206 F 
ATOM     47  C   UNL A   1      46.253  35.686  29.566  1.00  0.00     0.006 A 
ENDBRANCH  26  40
BRANCH  27  48
ATOM     48  C   UNL A   1      41.274  23.922  27.597  1.00  0.00     0.057 A 
ATOM     49  C   UNL A   1      40.281  23.762  26.619  1.00  0.00     0.134 A 
ATOM     50  C   UNL A   1      41.677  22.773  28.285  1.00  0.00     0.134 A 
ATOM     51  F   UNL A   1      39.844  24.819  25.916  1.00  0.00    -0.206 F 
ATOM     52  C   UNL A   1      39.701  22.521  26.350  1.00  0.00     0.040 A 
ATOM     53  C   UNL A   1      41.128  21.519  28.005  1.00  0.00     0.040 A 
ATOM     54  F   UNL A   1      42.636  22.849  29.221  1.00  0.00    -0.206 F 
ATOM     55  C   UNL A   1      40.131  21.392  27.039  1.00  0.00     0.006 A 
ENDBRANCH  27  48
BRANCH  39  56
ATOM     56  C   UNL A   1      47.368  27.008  26.109  1.00  0.00     0.057 A 
ATOM     57  C   UNL A   1      48.418  26.383  26.793  1.00  0.00     0.134 A 
ATOM     58  C   UNL A   1      47.555  27.319  24.759  1.00  0.00     0.134 A 
ATOM     59  F   UNL A   1      48.298  26.076  28.094  1.00  0.00    -0.206 F 
ATOM     60  C   UNL A   1      49.633  26.118  26.165  1.00  0.00     0.040 A 
ATOM     61  C   UNL A   1      48.757  27.034  24.112  1.00  0.00     0.040 A 
ATOM     62  F   UNL A   1      46.577  27.907  24.054  1.00  0.00    -0.206 F 
ATOM     63  C   UNL A   1      49.806  26.448  24.821  1.00  0.00     0.006 A 
ENDBRANCH  39  56
ENDBRANCH  13  14
ENDBRANCH   6   8
ENDBRANCH   5   6
ENDBRANCH   4   5
ENDBRANCH   3   4
ENDBRANCH   2   3
ENDBRANCH   1   2
BRANCH   1  64
ATOM     64  C   UNL A   1      32.991  29.365  26.591  1.00  0.00     0.261 C 
BRANCH  64  65
ATOM     65  O   UNL A   1      32.524  29.870  25.329  1.00  0.00    -0.460 OA
BRANCH  65  66
ATOM     66  C   UNL A   1      32.806  29.162  24.201  1.00  0.00     0.343 C 
ATOM     67  O   UNL A   1      33.725  29.320  23.427  1.00  0.00    -0.246 OA
BRANCH  66  68
ATOM     68  C   UNL A   1      31.899  27.992  24.166  1.00  0.00     0.119 A 
ATOM     69  C   UNL A   1      32.450  26.714  24.341  1.00  0.00     0.139 A 
ATOM     70  C   UNL A   1      30.517  28.129  23.901  1.00  0.00     0.066 A 
ATOM     71  F   UNL A   1      33.743  26.544  24.654  1.00  0.00    -0.206 F 
ATOM     72  C   UNL A   1      31.672  25.572  24.225  1.00  0.00     0.040 A 
ATOM     73  C   UNL A   1      29.746  26.961  23.819  1.00  0.00     0.028 A 
ATOM     74  C   UNL A   1      30.319  25.694  23.957  1.00  0.00     0.005 A 
BRANCH  70  75
ATOM     75  N   UNL A   1      29.853  29.411  23.885  1.00  0.00    -0.275 N 
ATOM     76  H   UNL A   1      29.986  30.025  24.644  1.00  0.00     0.180 HD
BRANCH  75  77
ATOM     77  S   UNL A   1      28.850  29.901  22.599  1.00  0.00     0.333 S 
ATOM     78  O   UNL A   1      29.759  30.002  21.468  1.00  0.00    -0.197 OA
ATOM     79  O   UNL A   1      27.749  28.954  22.528  1.00  0.00    -0.197 OA
BRANCH  77  80
ATOM     80  C   UNL A   1      28.195  31.602  23.018  1.00  0.00     0.516 C 
ATOM     81  F   UNL A   1      27.214  31.536  23.967  1.00  0.00    -0.155 F 
ATOM     82  F   UNL A   1      29.160  32.424  23.518  1.00  0.00    -0.155 F 
ATOM     83  F   UNL A   1      27.645  32.233  21.944  1.00  0.00    -0.155 F 
ENDBRANCH  77  80
ENDBRANCH  75  77
ENDBRANCH  70  75
ENDBRANCH  66  68
ENDBRANCH  65  66
ENDBRANCH  64  65
ENDBRANCH   1  64
TORSDOF 17
ENDMDL
