MODEL 1
REMARK VINA RESULT:     -11.7      0.000      0.000
REMARK SMILES COC(=O)c1ccc([C@H]2CC(=O)Nc3c(C(=O)OCCOCCOC(=O)c4ccc(-c5c6nc(c(-c7c(F)cccc7F)c7ccc([nH]7)c(-c7c(F)cccc7F)c7nc(c(-c8c(F)cccc8F)c8ccc5[nH]8)C=C7)C=C6)cc4)cn(-c4ccccc4)c32)cc1
REMARK SMILES IDX 20 1 19 2 18 3 16 4 17 5 15 6 9 7 10 8 89 9 11 10 14 11
REMARK SMILES IDX 82 12 12 13 13 14 81 15 8 17 5 18 6 19 91 20 7 21 90 22 3 23
REMARK SMILES IDX 4 24 2 25 1 26 83 27 84 28 88 29 85 30 87 31 86 32 21 33
REMARK SMILES IDX 22 34 23 35 24 36 25 37 26 38 27 39 28 40 80 41 29 42 79 43
REMARK SMILES IDX 30 44 31 45 32 46 73 47 33 48 78 49 72 50 74 51 34 52 77 53
REMARK SMILES IDX 71 54 70 55 35 57 61 58 44 59 60 60 45 61 48 62 59 63 75 64
REMARK SMILES IDX 46 65 47 66 58 68 76 69 49 70 36 71 37 72 42 73 38 74 39 75
REMARK SMILES IDX 41 76 43 77 40 78 62 79 63 80 68 81 64 82 65 83 67 84 69 85
REMARK SMILES IDX 66 86 50 87 51 88 56 89 52 90 53 91 55 92 57 93 54 94
REMARK H PARENT 13 16 74 56 48 67
REMARK Flexibility Score: inf
ROOT
ATOM      1  C   UNL A   1      39.422  22.539  26.702  1.00  0.00     0.202 C 
ENDROOT
BRANCH   1   2
ATOM      2  C   UNL A   1      38.579  23.677  26.113  1.00  0.00     0.261 C 
BRANCH   2   3
ATOM      3  O   UNL A   1      37.165  23.477  26.265  1.00  0.00    -0.460 OA
BRANCH   3   4
ATOM      4  C   UNL A   1      36.510  23.164  25.104  1.00  0.00     0.341 C 
ATOM      5  O   UNL A   1      36.839  22.280  24.334  1.00  0.00    -0.246 OA
BRANCH   4   6
ATOM      6  C   UNL A   1      35.271  23.917  24.952  1.00  0.00     0.102 A 
ATOM      7  C   UNL A   1      31.687  24.497  24.117  1.00  0.00     0.078 C 
ATOM      8  C   UNL A   1      31.513  23.356  23.096  1.00  0.00     0.115 C 
ATOM      9  C   UNL A   1      33.133  24.579  24.547  1.00  0.00     0.055 A 
ATOM     10  C   UNL A   1      32.409  22.149  23.300  1.00  0.00     0.225 C 
ATOM     11  C   UNL A   1      34.040  23.555  24.368  1.00  0.00     0.078 A 
ATOM     12  N   UNL A   1      33.774  25.568  25.278  1.00  0.00    -0.317 N 
ATOM     13  O   UNL A   1      32.066  21.024  22.936  1.00  0.00    -0.275 OA
ATOM     14  N   UNL A   1      33.667  22.367  23.790  1.00  0.00    -0.324 N 
ATOM     15  C   UNL A   1      35.101  25.219  25.400  1.00  0.00     0.109 A 
ATOM     16  H   UNL A   1      34.331  21.644  23.726  1.00  0.00     0.170 HD
BRANCH   7  17
ATOM     17  C   UNL A   1      31.007  25.751  23.554  1.00  0.00    -0.038 A 
ATOM     18  C   UNL A   1      29.716  28.152  22.789  1.00  0.00     0.060 A 
ATOM     19  C   UNL A   1      29.030  27.191  23.535  1.00  0.00     0.016 A 
ATOM     20  C   UNL A   1      31.014  27.873  22.354  1.00  0.00     0.016 A 
ATOM     21  C   UNL A   1      29.673  26.012  23.923  1.00  0.00     0.005 A 
ATOM     22  C   UNL A   1      31.631  26.661  22.692  1.00  0.00     0.005 A 
BRANCH  18  23
ATOM     23  C   UNL A   1      29.051  29.457  22.527  1.00  0.00     0.337 C 
ATOM     24  O   UNL A   1      28.396  29.690  21.523  1.00  0.00    -0.246 OA
BRANCH  23  25
ATOM     25  O   UNL A   1      29.266  30.315  23.555  1.00  0.00    -0.465 OA
ATOM     26  C   UNL A   1      28.754  31.630  23.337  1.00  0.00     0.282 C 
ENDBRANCH  23  25
ENDBRANCH  18  23
ENDBRANCH   7  17
BRANCH  12  27
ATOM     27  C   UNL A   1      33.214  26.729  25.852  1.00  0.00     0.045 A 
ATOM     28  C   UNL A   1      33.758  27.976  25.541  1.00  0.00     0.026 A 
ATOM     29  C   UNL A   1      32.174  26.608  26.783  1.00  0.00     0.026 A 
ATOM     30  C   UNL A   1      33.292  29.109  26.203  1.00  0.00     0.002 A 
ATOM     31  C   UNL A   1      31.753  27.743  27.478  1.00  0.00     0.002 A 
ATOM     32  C   UNL A   1      32.313  28.988  27.190  1.00  0.00     0.000 A 
ENDBRANCH  12  27
ENDBRANCH   4   6
ENDBRANCH   3   4
ENDBRANCH   2   3
ENDBRANCH   1   2
BRANCH   1  33
ATOM     33  O   UNL A   1      40.060  21.624  25.815  1.00  0.00    -0.374 OA
BRANCH  33  34
ATOM     34  C   UNL A   1      40.384  20.309  26.245  1.00  0.00     0.202 C 
BRANCH  34  35
ATOM     35  C   UNL A   1      41.763  19.747  25.950  1.00  0.00     0.261 C 
BRANCH  35  36
ATOM     36  O   UNL A   1      42.812  20.550  26.467  1.00  0.00    -0.460 OA
BRANCH  36  37
ATOM     37  C   UNL A   1      43.670  20.987  25.514  1.00  0.00     0.338 C 
ATOM     38  O   UNL A   1      44.306  20.312  24.728  1.00  0.00    -0.246 OA
BRANCH  37  39
ATOM     39  C   UNL A   1      43.893  22.421  25.720  1.00  0.00     0.060 A 
ATOM     40  C   UNL A   1      44.691  22.775  26.807  1.00  0.00     0.016 A 
ATOM     41  C   UNL A   1      43.058  23.347  25.079  1.00  0.00     0.016 A 
ATOM     42  C   UNL A   1      44.445  23.985  27.416  1.00  0.00     0.010 A 
ATOM     43  C   UNL A   1      42.822  24.556  25.686  1.00  0.00     0.010 A 
ATOM     44  C   UNL A   1      43.429  24.814  26.909  1.00  0.00    -0.014 A 
BRANCH  44  45
ATOM     45  C   UNL A   1      43.212  26.110  27.524  1.00  0.00     0.031 A 
ATOM     46  C   UNL A   1      44.319  27.013  27.129  1.00  0.00     0.074 A 
ATOM     47  C   UNL A   1      42.131  26.445  28.264  1.00  0.00     0.049 A 
ATOM     48  N   UNL A   1      45.324  27.340  27.868  1.00  0.00    -0.248 NA
ATOM     49  C   UNL A   1      44.509  27.324  25.698  1.00  0.00     0.031 C 
ATOM     50  C   UNL A   1      40.926  25.657  28.535  1.00  0.00     0.029 A 
ATOM     51  N   UNL A   1      41.857  27.628  28.902  1.00  0.00    -0.354 N 
ATOM     52  C   UNL A   1      46.100  28.166  27.069  1.00  0.00     0.074 A 
ATOM     53  C   UNL A   1      45.716  27.894  25.713  1.00  0.00     0.031 C 
ATOM     54  C   UNL A   1      39.963  26.457  29.060  1.00  0.00     0.029 A 
ATOM     55  C   UNL A   1      40.517  27.776  29.299  1.00  0.00     0.049 A 
ATOM     56  H   UNL A   1      42.542  28.315  29.067  1.00  0.00     0.167 HD
ATOM     57  C   UNL A   1      46.676  29.263  27.626  1.00  0.00     0.037 A 
ATOM     58  C   UNL A   1      39.937  28.923  29.763  1.00  0.00     0.037 A 
ATOM     59  C   UNL A   1      46.783  29.100  29.061  1.00  0.00     0.049 A 
ATOM     60  C   UNL A   1      41.035  29.794  30.259  1.00  0.00     0.074 A 
ATOM     61  C   UNL A   1      47.366  28.159  29.889  1.00  0.00     0.029 A 
ATOM     62  N   UNL A   1      45.846  29.748  29.825  1.00  0.00    -0.354 N 
ATOM     63  N   UNL A   1      41.756  29.501  31.304  1.00  0.00    -0.248 NA
ATOM     64  C   UNL A   1      41.660  30.666  29.276  1.00  0.00     0.031 C 
ATOM     65  C   UNL A   1      46.434  27.972  30.953  1.00  0.00     0.029 A 
ATOM     66  C   UNL A   1      45.398  28.890  30.796  1.00  0.00     0.049 A 
ATOM     67  H   UNL A   1      45.545  30.677  29.699  1.00  0.00     0.167 HD
ATOM     68  C   UNL A   1      43.059  29.723  30.885  1.00  0.00     0.074 A 
ATOM     69  C   UNL A   1      42.933  30.464  29.628  1.00  0.00     0.031 C 
ATOM     70  C   UNL A   1      44.098  29.013  31.413  1.00  0.00     0.037 A 
BRANCH  57  71
ATOM     71  C   UNL A   1      46.643  30.621  26.962  1.00  0.00     0.057 A 
ATOM     72  C   UNL A   1      47.815  31.394  26.954  1.00  0.00     0.134 A 
ATOM     73  C   UNL A   1      45.468  31.320  26.603  1.00  0.00     0.134 A 
ATOM     74  F   UNL A   1      48.992  30.859  27.312  1.00  0.00    -0.206 F 
ATOM     75  C   UNL A   1      47.806  32.765  26.671  1.00  0.00     0.040 A 
ATOM     76  C   UNL A   1      45.457  32.674  26.269  1.00  0.00     0.040 A 
ATOM     77  F   UNL A   1      44.248  30.776  26.659  1.00  0.00    -0.206 F 
ATOM     78  C   UNL A   1      46.624  33.410  26.329  1.00  0.00     0.006 A 
ENDBRANCH  57  71
BRANCH  58  79
ATOM     79  C   UNL A   1      38.590  29.497  29.480  1.00  0.00     0.057 A 
ATOM     80  C   UNL A   1      38.155  29.745  28.162  1.00  0.00     0.134 A 
ATOM     81  C   UNL A   1      37.583  29.509  30.457  1.00  0.00     0.134 A 
ATOM     82  F   UNL A   1      39.024  29.711  27.140  1.00  0.00    -0.206 F 
ATOM     83  C   UNL A   1      36.805  29.959  27.838  1.00  0.00     0.040 A 
ATOM     84  C   UNL A   1      36.231  29.720  30.147  1.00  0.00     0.040 A 
ATOM     85  F   UNL A   1      37.861  29.221  31.736  1.00  0.00    -0.206 F 
ATOM     86  C   UNL A   1      35.834  29.930  28.832  1.00  0.00     0.006 A 
ENDBRANCH  58  79
BRANCH  70  87
ATOM     87  C   UNL A   1      43.841  28.177  32.639  1.00  0.00     0.057 A 
ATOM     88  C   UNL A   1      43.707  28.674  33.946  1.00  0.00     0.134 A 
ATOM     89  C   UNL A   1      43.581  26.815  32.454  1.00  0.00     0.134 A 
ATOM     90  F   UNL A   1      43.844  29.981  34.211  1.00  0.00    -0.206 F 
ATOM     91  C   UNL A   1      43.369  27.839  35.019  1.00  0.00     0.040 A 
ATOM     92  C   UNL A   1      43.209  25.980  33.508  1.00  0.00     0.040 A 
ATOM     93  F   UNL A   1      43.638  26.279  31.225  1.00  0.00    -0.206 F 
ATOM     94  C   UNL A   1      43.114  26.489  34.799  1.00  0.00     0.006 A 
ENDBRANCH  70  87
ENDBRANCH  44  45
ENDBRANCH  37  39
ENDBRANCH  36  37
ENDBRANCH  35  36
ENDBRANCH  34  35
ENDBRANCH  33  34
ENDBRANCH   1  33
TORSDOF 18
ENDMDL
MODEL 2
REMARK VINA RESULT:     -11.7      2.884      7.571
REMARK SMILES COC(=O)c1ccc([C@H]2CC(=O)Nc3c(C(=O)OCCOCCOC(=O)c4ccc(-c5c6nc(c(-c7c(F)cccc7F)c7ccc([nH]7)c(-c7c(F)cccc7F)c7nc(c(-c8c(F)cccc8F)c8ccc5[nH]8)C=C7)C=C6)cc4)cn(-c4ccccc4)c32)cc1
REMARK SMILES IDX 20 1 19 2 18 3 16 4 17 5 15 6 9 7 10 8 89 9 11 10 14 11
REMARK SMILES IDX 82 12 12 13 13 14 81 15 8 17 5 18 6 19 91 20 7 21 90 22 3 23
REMARK SMILES IDX 4 24 2 25 1 26 83 27 84 28 88 29 85 30 87 31 86 32 21 33
REMARK SMILES IDX 22 34 23 35 24 36 25 37 26 38 27 39 28 40 80 41 29 42 79 43
REMARK SMILES IDX 30 44 31 45 32 46 73 47 33 48 78 49 72 50 74 51 34 52 77 53
REMARK SMILES IDX 71 54 70 55 35 57 61 58 44 59 60 60 45 61 48 62 59 63 75 64
REMARK SMILES IDX 46 65 47 66 58 68 76 69 49 70 36 71 37 72 42 73 38 74 39 75
REMARK SMILES IDX 41 76 43 77 40 78 62 79 63 80 68 81 64 82 65 83 67 84 69 85
REMARK SMILES IDX 66 86 50 87 51 88 56 89 52 90 53 91 55 92 57 93 54 94
REMARK H PARENT 13 16 74 56 48 67
REMARK Flexibility Score: inf
ROOT
ATOM      1  C   UNL A   1      31.857  30.364  25.920  1.00  0.00     0.202 C 
ENDROOT
BRANCH   1   2
ATOM      2  C   UNL A   1      31.731  29.558  24.622  1.00  0.00     0.261 C 
BRANCH   2   3
ATOM      3  O   UNL A   1      30.526  28.782  24.546  1.00  0.00    -0.460 OA
BRANCH   3   4
ATOM      4  C   UNL A   1      30.432  27.988  23.435  1.00  0.00     0.341 C 
ATOM      5  O   UNL A   1      29.921  28.321  22.380  1.00  0.00    -0.246 OA
BRANCH   4   6
ATOM      6  C   UNL A   1      31.147  26.728  23.597  1.00  0.00     0.102 A 
ATOM      7  C   UNL A   1      33.314  23.860  22.618  1.00  0.00     0.078 C 
ATOM      8  C   UNL A   1      33.079  23.918  21.097  1.00  0.00     0.115 C 
ATOM      9  C   UNL A   1      32.429  24.872  23.308  1.00  0.00     0.055 A 
ATOM     10  C   UNL A   1      32.756  25.289  20.533  1.00  0.00     0.225 C 
ATOM     11  C   UNL A   1      31.832  25.931  22.657  1.00  0.00     0.078 A 
ATOM     12  N   UNL A   1      32.160  25.021  24.661  1.00  0.00    -0.317 N 
ATOM     13  O   UNL A   1      33.040  25.593  19.374  1.00  0.00    -0.275 OA
ATOM     14  N   UNL A   1      32.025  26.141  21.315  1.00  0.00    -0.324 N 
ATOM     15  C   UNL A   1      31.274  26.066  24.809  1.00  0.00     0.109 A 
ATOM     16  H   UNL A   1      31.622  26.936  20.897  1.00  0.00     0.170 HD
BRANCH   7  17
ATOM     17  C   UNL A   1      33.246  22.392  23.057  1.00  0.00    -0.038 A 
ATOM     18  C   UNL A   1      33.120  19.780  24.141  1.00  0.00     0.060 A 
ATOM     19  C   UNL A   1      34.228  20.592  24.391  1.00  0.00     0.016 A 
ATOM     20  C   UNL A   1      32.120  20.241  23.281  1.00  0.00     0.016 A 
ATOM     21  C   UNL A   1      34.282  21.887  23.866  1.00  0.00     0.005 A 
ATOM     22  C   UNL A   1      32.212  21.515  22.706  1.00  0.00     0.005 A 
BRANCH  18  23
ATOM     23  C   UNL A   1      33.027  18.470  24.841  1.00  0.00     0.337 C 
ATOM     24  O   UNL A   1      32.074  18.139  25.529  1.00  0.00    -0.246 OA
BRANCH  23  25
ATOM     25  O   UNL A   1      34.127  17.717  24.587  1.00  0.00    -0.465 OA
ATOM     26  C   UNL A   1      33.942  16.735  23.566  1.00  0.00     0.282 C 
ENDBRANCH  23  25
ENDBRANCH  18  23
ENDBRANCH   7  17
BRANCH  12  27
ATOM     27  C   UNL A   1      32.694  24.288  25.742  1.00  0.00     0.045 A 
ATOM     28  C   UNL A   1      34.049  24.416  26.053  1.00  0.00     0.026 A 
ATOM     29  C   UNL A   1      31.878  23.386  26.436  1.00  0.00     0.026 A 
ATOM     30  C   UNL A   1      34.605  23.599  27.034  1.00  0.00     0.002 A 
ATOM     31  C   UNL A   1      32.457  22.536  27.380  1.00  0.00     0.002 A 
ATOM     32  C   UNL A   1      33.817  22.641  27.674  1.00  0.00     0.000 A 
ENDBRANCH  12  27
ENDBRANCH   4   6
ENDBRANCH   3   4
ENDBRANCH   2   3
ENDBRANCH   1   2
BRANCH   1  33
ATOM     33  O   UNL A   1      32.626  29.827  26.993  1.00  0.00    -0.374 OA
BRANCH  33  34
ATOM     34  C   UNL A   1      33.897  30.373  27.314  1.00  0.00     0.202 C 
BRANCH  34  35
ATOM     35  C   UNL A   1      35.107  29.457  27.376  1.00  0.00     0.261 C 
BRANCH  35  36
ATOM     36  O   UNL A   1      36.275  30.111  27.847  1.00  0.00    -0.460 OA
BRANCH  36  37
ATOM     37  C   UNL A   1      36.823  29.513  28.931  1.00  0.00     0.338 C 
ATOM     38  O   UNL A   1      36.515  29.673  30.096  1.00  0.00    -0.246 OA
BRANCH  37  39
ATOM     39  C   UNL A   1      38.022  28.789  28.499  1.00  0.00     0.060 A 
ATOM     40  C   UNL A   1      38.542  27.858  29.396  1.00  0.00     0.016 A 
ATOM     41  C   UNL A   1      38.772  29.280  27.421  1.00  0.00     0.016 A 
ATOM     42  C   UNL A   1      39.899  27.628  29.369  1.00  0.00     0.010 A 
ATOM     43  C   UNL A   1      40.124  29.042  27.393  1.00  0.00     0.010 A 
ATOM     44  C   UNL A   1      40.692  28.314  28.433  1.00  0.00    -0.014 A 
BRANCH  44  45
ATOM     45  C   UNL A   1      42.113  28.027  28.375  1.00  0.00     0.031 A 
ATOM     46  C   UNL A   1      42.306  26.732  27.683  1.00  0.00     0.074 A 
ATOM     47  C   UNL A   1      43.088  28.855  28.812  1.00  0.00     0.049 A 
ATOM     48  N   UNL A   1      42.566  25.604  28.253  1.00  0.00    -0.248 NA
ATOM     49  C   UNL A   1      41.858  26.598  26.282  1.00  0.00     0.031 C 
ATOM     50  C   UNL A   1      42.967  30.218  29.336  1.00  0.00     0.029 A 
ATOM     51  N   UNL A   1      44.445  28.656  28.823  1.00  0.00    -0.354 N 
ATOM     52  C   UNL A   1      42.627  24.685  27.217  1.00  0.00     0.074 A 
ATOM     53  C   UNL A   1      41.926  25.275  26.111  1.00  0.00     0.031 C 
ATOM     54  C   UNL A   1      44.191  30.803  29.378  1.00  0.00     0.029 A 
ATOM     55  C   UNL A   1      45.201  29.824  29.024  1.00  0.00     0.049 A 
ATOM     56  H   UNL A   1      44.855  27.770  28.700  1.00  0.00     0.167 HD
ATOM     57  C   UNL A   1      43.589  23.726  27.248  1.00  0.00     0.037 A 
ATOM     58  C   UNL A   1      46.555  29.942  28.877  1.00  0.00     0.037 A 
ATOM     59  C   UNL A   1      44.060  23.532  28.603  1.00  0.00     0.049 A 
ATOM     60  C   UNL A   1      47.124  28.574  28.990  1.00  0.00     0.074 A 
ATOM     61  C   UNL A   1      43.454  23.211  29.804  1.00  0.00     0.029 A 
ATOM     62  N   UNL A   1      45.257  24.119  28.928  1.00  0.00    -0.354 N 
ATOM     63  N   UNL A   1      47.104  27.886  30.097  1.00  0.00    -0.248 NA
ATOM     64  C   UNL A   1      47.192  27.800  27.759  1.00  0.00     0.031 C 
ATOM     65  C   UNL A   1      44.094  24.037  30.775  1.00  0.00     0.029 A 
ATOM     66  C   UNL A   1      45.134  24.722  30.152  1.00  0.00     0.049 A 
ATOM     67  H   UNL A   1      46.070  24.107  28.374  1.00  0.00     0.167 HD
ATOM     68  C   UNL A   1      46.658  26.633  29.705  1.00  0.00     0.074 A 
ATOM     69  C   UNL A   1      46.750  26.637  28.244  1.00  0.00     0.031 C 
ATOM     70  C   UNL A   1      45.954  25.838  30.563  1.00  0.00     0.037 A 
BRANCH  57  71
ATOM     71  C   UNL A   1      44.425  23.377  26.038  1.00  0.00     0.057 A 
ATOM     72  C   UNL A   1      44.555  22.026  25.678  1.00  0.00     0.134 A 
ATOM     73  C   UNL A   1      45.333  24.253  25.400  1.00  0.00     0.134 A 
ATOM     74  F   UNL A   1      43.779  21.089  26.240  1.00  0.00    -0.206 F 
ATOM     75  C   UNL A   1      45.551  21.578  24.801  1.00  0.00     0.040 A 
ATOM     76  C   UNL A   1      46.294  23.823  24.485  1.00  0.00     0.040 A 
ATOM     77  F   UNL A   1      45.427  25.553  25.698  1.00  0.00    -0.206 F 
ATOM     78  C   UNL A   1      46.425  22.477  24.203  1.00  0.00     0.006 A 
ENDBRANCH  57  71
BRANCH  58  79
ATOM     79  C   UNL A   1      47.361  31.046  28.280  1.00  0.00     0.057 A 
ATOM     80  C   UNL A   1      47.000  31.644  27.056  1.00  0.00     0.134 A 
ATOM     81  C   UNL A   1      48.301  31.756  29.042  1.00  0.00     0.134 A 
ATOM     82  F   UNL A   1      46.072  31.079  26.267  1.00  0.00    -0.206 F 
ATOM     83  C   UNL A   1      47.518  32.881  26.636  1.00  0.00     0.040 A 
ATOM     84  C   UNL A   1      48.826  32.991  28.635  1.00  0.00     0.040 A 
ATOM     85  F   UNL A   1      48.674  31.322  30.254  1.00  0.00    -0.206 F 
ATOM     86  C   UNL A   1      48.424  33.567  27.436  1.00  0.00     0.006 A 
ENDBRANCH  58  79
BRANCH  70  87
ATOM     87  C   UNL A   1      45.899  26.229  32.017  1.00  0.00     0.057 A 
ATOM     88  C   UNL A   1      44.864  26.960  32.621  1.00  0.00     0.134 A 
ATOM     89  C   UNL A   1      46.885  25.713  32.866  1.00  0.00     0.134 A 
ATOM     90  F   UNL A   1      43.825  27.416  31.907  1.00  0.00    -0.206 F 
ATOM     91  C   UNL A   1      44.839  27.196  34.002  1.00  0.00     0.040 A 
ATOM     92  C   UNL A   1      46.853  25.912  34.246  1.00  0.00     0.040 A 
ATOM     93  F   UNL A   1      47.878  24.961  32.366  1.00  0.00    -0.206 F 
ATOM     94  C   UNL A   1      45.835  26.666  34.818  1.00  0.00     0.006 A 
ENDBRANCH  70  87
ENDBRANCH  44  45
ENDBRANCH  37  39
ENDBRANCH  36  37
ENDBRANCH  35  36
ENDBRANCH  34  35
ENDBRANCH  33  34
ENDBRANCH   1  33
TORSDOF 18
ENDMDL
MODEL 3
REMARK VINA RESULT:     -11.6      1.821      2.672
REMARK SMILES COC(=O)c1ccc([C@H]2CC(=O)Nc3c(C(=O)OCCOCCOC(=O)c4ccc(-c5c6nc(c(-c7c(F)cccc7F)c7ccc([nH]7)c(-c7c(F)cccc7F)c7nc(c(-c8c(F)cccc8F)c8ccc5[nH]8)C=C7)C=C6)cc4)cn(-c4ccccc4)c32)cc1
REMARK SMILES IDX 20 1 19 2 18 3 16 4 17 5 15 6 9 7 10 8 89 9 11 10 14 11
REMARK SMILES IDX 82 12 12 13 13 14 81 15 8 17 5 18 6 19 91 20 7 21 90 22 3 23
REMARK SMILES IDX 4 24 2 25 1 26 83 27 84 28 88 29 85 30 87 31 86 32 21 33
REMARK SMILES IDX 22 34 23 35 24 36 25 37 26 38 27 39 28 40 80 41 29 42 79 43
REMARK SMILES IDX 30 44 31 45 32 46 73 47 33 48 78 49 72 50 74 51 34 52 77 53
REMARK SMILES IDX 71 54 70 55 35 57 61 58 44 59 60 60 45 61 48 62 59 63 75 64
REMARK SMILES IDX 46 65 47 66 58 68 76 69 49 70 36 71 37 72 42 73 38 74 39 75
REMARK SMILES IDX 41 76 43 77 40 78 62 79 63 80 68 81 64 82 65 83 67 84 69 85
REMARK SMILES IDX 66 86 50 87 51 88 56 89 52 90 53 91 55 92 57 93 54 94
REMARK H PARENT 13 16 74 56 48 67
REMARK Flexibility Score: inf
ROOT
ATOM      1  C   UNL A   1      39.379  22.828  26.809  1.00  0.00     0.202 C 
ENDROOT
BRANCH   1   2
ATOM      2  C   UNL A   1      38.433  23.843  26.156  1.00  0.00     0.261 C 
BRANCH   2   3
ATOM      3  O   UNL A   1      37.046  23.489  26.276  1.00  0.00    -0.460 OA
BRANCH   3   4
ATOM      4  C   UNL A   1      36.429  23.209  25.087  1.00  0.00     0.341 C 
ATOM      5  O   UNL A   1      36.787  22.351  24.299  1.00  0.00    -0.246 OA
BRANCH   4   6
ATOM      6  C   UNL A   1      35.190  23.959  24.920  1.00  0.00     0.102 A 
ATOM      7  C   UNL A   1      31.600  24.520  24.097  1.00  0.00     0.078 C 
ATOM      8  C   UNL A   1      31.415  23.347  23.115  1.00  0.00     0.115 C 
ATOM      9  C   UNL A   1      33.050  24.613  24.511  1.00  0.00     0.055 A 
ATOM     10  C   UNL A   1      32.311  22.145  23.351  1.00  0.00     0.225 C 
ATOM     11  C   UNL A   1      33.953  23.581  24.359  1.00  0.00     0.078 A 
ATOM     12  N   UNL A   1      33.700  25.624  25.205  1.00  0.00    -0.317 N 
ATOM     13  O   UNL A   1      31.963  21.009  23.028  1.00  0.00    -0.275 OA
ATOM     14  N   UNL A   1      33.573  22.376  23.824  1.00  0.00    -0.324 N 
ATOM     15  C   UNL A   1      35.027  25.276  25.326  1.00  0.00     0.109 A 
ATOM     16  H   UNL A   1      34.235  21.649  23.778  1.00  0.00     0.170 HD
BRANCH   7  17
ATOM     17  C   UNL A   1      30.919  25.757  23.498  1.00  0.00    -0.038 A 
ATOM     18  C   UNL A   1      29.660  28.151  22.661  1.00  0.00     0.060 A 
ATOM     19  C   UNL A   1      29.022  27.300  23.566  1.00  0.00     0.016 A 
ATOM     20  C   UNL A   1      30.885  27.761  22.112  1.00  0.00     0.016 A 
ATOM     21  C   UNL A   1      29.650  26.124  23.988  1.00  0.00     0.005 A 
ATOM     22  C   UNL A   1      31.479  26.551  22.490  1.00  0.00     0.005 A 
BRANCH  18  23
ATOM     23  C   UNL A   1      29.030  29.463  22.354  1.00  0.00     0.337 C 
ATOM     24  O   UNL A   1      28.985  29.943  21.232  1.00  0.00    -0.246 OA
BRANCH  23  25
ATOM     25  O   UNL A   1      28.516  30.019  23.480  1.00  0.00    -0.465 OA
ATOM     26  C   UNL A   1      29.126  31.254  23.855  1.00  0.00     0.282 C 
ENDBRANCH  23  25
ENDBRANCH  18  23
ENDBRANCH   7  17
BRANCH  12  27
ATOM     27  C   UNL A   1      33.147  26.805  25.744  1.00  0.00     0.045 A 
ATOM     28  C   UNL A   1      32.205  26.713  26.770  1.00  0.00     0.026 A 
ATOM     29  C   UNL A   1      33.492  28.045  25.191  1.00  0.00     0.026 A 
ATOM     30  C   UNL A   1      31.564  27.867  27.214  1.00  0.00     0.002 A 
ATOM     31  C   UNL A   1      32.806  29.187  25.607  1.00  0.00     0.002 A 
ATOM     32  C   UNL A   1      31.843  29.096  26.614  1.00  0.00     0.000 A 
ENDBRANCH  12  27
ENDBRANCH   4   6
ENDBRANCH   3   4
ENDBRANCH   2   3
ENDBRANCH   1   2
BRANCH   1  33
ATOM     33  O   UNL A   1      40.059  21.887  25.983  1.00  0.00    -0.374 OA
BRANCH  33  34
ATOM     34  C   UNL A   1      41.268  21.284  26.419  1.00  0.00     0.202 C 
BRANCH  34  35
ATOM     35  C   UNL A   1      42.590  21.758  25.839  1.00  0.00     0.261 C 
BRANCH  35  36
ATOM     36  O   UNL A   1      42.444  22.862  24.959  1.00  0.00    -0.460 OA
BRANCH  36  37
ATOM     37  C   UNL A   1      43.227  23.917  25.291  1.00  0.00     0.338 C 
ATOM     38  O   UNL A   1      44.392  24.093  24.993  1.00  0.00    -0.246 OA
BRANCH  37  39
ATOM     39  C   UNL A   1      42.507  24.731  26.274  1.00  0.00     0.060 A 
ATOM     40  C   UNL A   1      41.591  25.651  25.765  1.00  0.00     0.016 A 
ATOM     41  C   UNL A   1      42.990  24.814  27.587  1.00  0.00     0.016 A 
ATOM     42  C   UNL A   1      41.372  26.804  26.486  1.00  0.00     0.010 A 
ATOM     43  C   UNL A   1      42.762  25.962  28.305  1.00  0.00     0.010 A 
ATOM     44  C   UNL A   1      42.053  26.993  27.701  1.00  0.00    -0.014 A 
BRANCH  44  45
ATOM     45  C   UNL A   1      41.776  28.185  28.480  1.00  0.00     0.031 A 
ATOM     46  C   UNL A   1      42.874  29.157  28.264  1.00  0.00     0.074 A 
ATOM     47  C   UNL A   1      40.656  28.391  29.209  1.00  0.00     0.049 A 
ATOM     48  N   UNL A   1      43.838  29.398  29.086  1.00  0.00    -0.248 NA
ATOM     49  C   UNL A   1      43.114  29.670  26.900  1.00  0.00     0.031 C 
ATOM     50  C   UNL A   1      39.463  27.547  29.314  1.00  0.00     0.029 A 
ATOM     51  N   UNL A   1      40.325  29.466  29.993  1.00  0.00    -0.354 N 
ATOM     52  C   UNL A   1      44.625  30.343  28.445  1.00  0.00     0.074 A 
ATOM     53  C   UNL A   1      44.304  30.257  27.048  1.00  0.00     0.031 C 
ATOM     54  C   UNL A   1      38.458  28.246  29.902  1.00  0.00     0.029 A 
ATOM     55  C   UNL A   1      38.967  29.529  30.347  1.00  0.00     0.049 A 
ATOM     56  H   UNL A   1      40.984  30.138  30.283  1.00  0.00     0.167 HD
ATOM     57  C   UNL A   1      45.148  31.363  29.175  1.00  0.00     0.037 A 
ATOM     58  C   UNL A   1      38.337  30.588  30.940  1.00  0.00     0.037 A 
ATOM     59  C   UNL A   1      45.199  31.003  30.575  1.00  0.00     0.049 A 
ATOM     60  C   UNL A   1      39.390  31.403  31.600  1.00  0.00     0.074 A 
ATOM     61  C   UNL A   1      45.772  29.967  31.290  1.00  0.00     0.029 A 
ATOM     62  N   UNL A   1      44.214  31.518  31.380  1.00  0.00    -0.354 N 
ATOM     63  N   UNL A   1      40.075  30.981  32.626  1.00  0.00    -0.248 NA
ATOM     64  C   UNL A   1      40.032  32.417  30.777  1.00  0.00     0.031 C 
ATOM     65  C   UNL A   1      44.802  29.614  32.275  1.00  0.00     0.029 A 
ATOM     66  C   UNL A   1      43.750  30.523  32.201  1.00  0.00     0.049 A 
ATOM     67  H   UNL A   1      43.895  32.449  31.371  1.00  0.00     0.167 HD
ATOM     68  C   UNL A   1      41.387  31.287  32.300  1.00  0.00     0.074 A 
ATOM     69  C   UNL A   1      41.294  32.194  31.154  1.00  0.00     0.031 C 
ATOM     70  C   UNL A   1      42.423  30.531  32.771  1.00  0.00     0.037 A 
BRANCH  57  71
ATOM     71  C   UNL A   1      45.106  32.800  28.705  1.00  0.00     0.057 A 
ATOM     72  C   UNL A   1      46.301  33.536  28.688  1.00  0.00     0.134 A 
ATOM     73  C   UNL A   1      43.930  33.571  28.558  1.00  0.00     0.134 A 
ATOM     74  F   UNL A   1      47.484  32.928  28.856  1.00  0.00    -0.206 F 
ATOM     75  C   UNL A   1      46.319  34.934  28.595  1.00  0.00     0.040 A 
ATOM     76  C   UNL A   1      43.940  34.958  28.411  1.00  0.00     0.040 A 
ATOM     77  F   UNL A   1      42.701  33.056  28.657  1.00  0.00    -0.206 F 
ATOM     78  C   UNL A   1      45.136  35.649  28.457  1.00  0.00     0.006 A 
ENDBRANCH  57  71
BRANCH  58  79
ATOM     79  C   UNL A   1      36.988  31.169  30.680  1.00  0.00     0.057 A 
ATOM     80  C   UNL A   1      36.093  31.455  31.731  1.00  0.00     0.134 A 
ATOM     81  C   UNL A   1      36.673  31.756  29.445  1.00  0.00     0.134 A 
ATOM     82  F   UNL A   1      36.321  30.987  32.968  1.00  0.00    -0.206 F 
ATOM     83  C   UNL A   1      34.979  32.296  31.569  1.00  0.00     0.040 A 
ATOM     84  C   UNL A   1      35.564  32.597  29.269  1.00  0.00     0.040 A 
ATOM     85  F   UNL A   1      37.483  31.612  28.388  1.00  0.00    -0.206 F 
ATOM     86  C   UNL A   1      34.720  32.883  30.336  1.00  0.00     0.006 A 
ENDBRANCH  58  79
BRANCH  70  87
ATOM     87  C   UNL A   1      42.138  29.526  33.855  1.00  0.00     0.057 A 
ATOM     88  C   UNL A   1      41.739  28.197  33.645  1.00  0.00     0.134 A 
ATOM     89  C   UNL A   1      42.419  29.897  35.175  1.00  0.00     0.134 A 
ATOM     90  F   UNL A   1      41.536  27.718  32.409  1.00  0.00    -0.206 F 
ATOM     91  C   UNL A   1      41.591  27.296  34.707  1.00  0.00     0.040 A 
ATOM     92  C   UNL A   1      42.309  29.001  36.237  1.00  0.00     0.040 A 
ATOM     93  F   UNL A   1      42.855  31.138  35.447  1.00  0.00    -0.206 F 
ATOM     94  C   UNL A   1      41.882  27.697  36.008  1.00  0.00     0.006 A 
ENDBRANCH  70  87
ENDBRANCH  44  45
ENDBRANCH  37  39
ENDBRANCH  36  37
ENDBRANCH  35  36
ENDBRANCH  34  35
ENDBRANCH  33  34
ENDBRANCH   1  33
TORSDOF 18
ENDMDL
