MODEL 1
REMARK VINA RESULT:     -11.5      0.000      0.000
REMARK SMILES Cc1ccc(C)c(N2C(=O)S[C@H](CC(=O)Nc3ccc(C(=O)OCCOCCOC(=O)c4ccc(-c5c6nc(c(-c7c(F)cccc7F)c7ccc([nH]7)c(-c7c(F)cccc7F)c7nc(c(-c8c(F)cccc8F)c8ccc5[nH]8)C=C7)C=C6)cc4)c(O)c3)C2=O)c1
REMARK SMILES IDX 25 1 24 2 23 3 21 4 22 5 20 6 17 7 18 8 88 9 19 10 86 11
REMARK SMILES IDX 16 12 14 13 15 14 13 16 12 17 8 18 9 19 89 20 10 21 11 22
REMARK SMILES IDX 90 23 7 24 1 25 2 26 3 27 91 28 4 29 5 30 6 31 87 32 26 34
REMARK SMILES IDX 27 35 28 36 29 37 30 38 31 39 32 40 33 41 85 42 34 43 84 44
REMARK SMILES IDX 35 45 36 46 37 47 78 48 38 49 83 50 77 51 79 52 39 53 82 54
REMARK SMILES IDX 76 55 75 56 40 58 66 59 49 60 65 61 50 62 53 63 64 64 80 65
REMARK SMILES IDX 51 66 52 67 63 69 81 70 54 71 41 72 42 73 47 74 43 75 44 76
REMARK SMILES IDX 46 77 48 78 45 79 67 80 68 81 73 82 69 83 70 84 72 85 74 86
REMARK SMILES IDX 71 87 55 88 56 89 61 90 57 91 58 92 60 93 62 94 59 95
REMARK H PARENT 16 15 87 33 79 57 53 68
REMARK Flexibility Score: inf
ROOT
ATOM      1  C   UNL A   1      37.893  21.743  25.044  1.00  0.00     0.202 C 
ENDROOT
BRANCH   1   2
ATOM      2  C   UNL A   1      36.660  20.948  25.511  1.00  0.00     0.261 C 
BRANCH   2   3
ATOM      3  O   UNL A   1      35.735  21.915  26.053  1.00  0.00    -0.460 OA
BRANCH   3   4
ATOM      4  C   UNL A   1      34.477  21.567  25.722  1.00  0.00     0.341 C 
ATOM      5  O   UNL A   1      33.715  20.975  26.473  1.00  0.00    -0.246 OA
BRANCH   4   6
ATOM      6  C   UNL A   1      34.029  22.042  24.413  1.00  0.00     0.101 A 
ATOM      7  C   UNL A   1      33.200  23.329  22.077  1.00  0.00     0.044 A 
ATOM      8  C   UNL A   1      34.196  23.840  22.878  1.00  0.00     0.027 A 
ATOM      9  C   UNL A   1      32.519  22.196  22.516  1.00  0.00     0.073 A 
ATOM     10  C   UNL A   1      34.728  23.133  23.922  1.00  0.00     0.022 A 
ATOM     11  C   UNL A   1      32.924  21.568  23.709  1.00  0.00     0.132 A 
BRANCH   7  12
ATOM     12  N   UNL A   1      32.920  24.040  20.897  1.00  0.00    -0.326 N 
ATOM     13  C   UNL A   1      32.397  25.333  20.846  1.00  0.00     0.226 C 
ATOM     14  O   UNL A   1      31.752  25.701  19.864  1.00  0.00    -0.275 OA
ATOM     15  H   UNL A   1      33.108  23.591  20.042  1.00  0.00     0.169 HD
BRANCH  13  16
ATOM     16  C   UNL A   1      32.818  26.343  21.943  1.00  0.00     0.125 C 
BRANCH  16  17
ATOM     17  C   UNL A   1      31.841  27.460  22.358  1.00  0.00     0.156 C 
ATOM     18  N   UNL A   1      32.156  28.164  24.647  1.00  0.00    -0.240 N 
ATOM     19  C   UNL A   1      31.129  27.288  24.843  1.00  0.00     0.293 C 
ATOM     20  C   UNL A   1      32.533  28.417  23.333  1.00  0.00     0.248 C 
ATOM     21  O   UNL A   1      30.710  26.820  25.887  1.00  0.00    -0.261 OA
ATOM     22  S   UNL A   1      30.367  27.014  23.321  1.00  0.00    -0.050 SA
ATOM     23  O   UNL A   1      33.320  29.280  22.959  1.00  0.00    -0.273 OA
BRANCH  18  24
ATOM     24  C   UNL A   1      32.432  29.042  25.714  1.00  0.00     0.056 A 
ATOM     25  C   UNL A   1      31.441  32.580  26.736  1.00  0.00     0.044 C 
ATOM     26  C   UNL A   1      32.140  31.255  26.676  1.00  0.00    -0.049 A 
ATOM     27  C   UNL A   1      33.226  31.010  27.524  1.00  0.00     0.004 A 
ATOM     28  C   UNL A   1      31.737  30.259  25.781  1.00  0.00     0.030 A 
ATOM     29  C   UNL A   1      33.936  29.812  27.441  1.00  0.00     0.006 A 
ATOM     30  C   UNL A   1      33.574  28.828  26.513  1.00  0.00    -0.027 A 
ATOM     31  C   UNL A   1      34.480  27.631  26.383  1.00  0.00     0.046 C 
ENDBRANCH  18  24
ENDBRANCH  16  17
ENDBRANCH  13  16
ENDBRANCH   7  12
BRANCH  11  32
ATOM     32  O   UNL A   1      32.201  20.493  24.140  1.00  0.00    -0.507 OA
ATOM     33  H   UNL A   1      31.394  20.271  23.719  1.00  0.00     0.293 HD
ENDBRANCH  11  32
ENDBRANCH   4   6
ENDBRANCH   3   4
ENDBRANCH   2   3
ENDBRANCH   1   2
BRANCH   1  34
ATOM     34  O   UNL A   1      38.590  22.176  26.204  1.00  0.00    -0.374 OA
BRANCH  34  35
ATOM     35  C   UNL A   1      39.855  21.633  26.506  1.00  0.00     0.202 C 
BRANCH  35  36
ATOM     36  C   UNL A   1      40.528  22.350  27.672  1.00  0.00     0.261 C 
BRANCH  36  37
ATOM     37  O   UNL A   1      40.709  23.783  27.505  1.00  0.00    -0.460 OA
BRANCH  37  38
ATOM     38  C   UNL A   1      41.986  24.266  27.422  1.00  0.00     0.338 C 
ATOM     39  O   UNL A   1      42.959  23.582  27.154  1.00  0.00    -0.246 OA
BRANCH  38  40
ATOM     40  C   UNL A   1      42.028  25.715  27.797  1.00  0.00     0.060 A 
ATOM     41  C   UNL A   1      42.530  26.116  29.044  1.00  0.00     0.016 A 
ATOM     42  C   UNL A   1      41.246  26.601  27.062  1.00  0.00     0.016 A 
ATOM     43  C   UNL A   1      42.066  27.315  29.629  1.00  0.00     0.010 A 
ATOM     44  C   UNL A   1      40.690  27.702  27.703  1.00  0.00     0.010 A 
ATOM     45  C   UNL A   1      41.038  28.064  29.016  1.00  0.00    -0.014 A 
BRANCH  45  46
ATOM     46  C   UNL A   1      40.646  29.460  29.415  1.00  0.00     0.031 A 
ATOM     47  C   UNL A   1      41.884  30.238  29.238  1.00  0.00     0.074 A 
ATOM     48  C   UNL A   1      39.497  30.089  29.828  1.00  0.00     0.049 A 
ATOM     49  N   UNL A   1      42.669  30.510  30.230  1.00  0.00    -0.248 NA
ATOM     50  C   UNL A   1      42.517  30.395  27.918  1.00  0.00     0.031 C 
ATOM     51  C   UNL A   1      38.267  29.528  30.353  1.00  0.00     0.029 A 
ATOM     52  N   UNL A   1      39.144  31.445  29.839  1.00  0.00    -0.354 N 
ATOM     53  C   UNL A   1      43.698  31.214  29.647  1.00  0.00     0.074 A 
ATOM     54  C   UNL A   1      43.738  30.806  28.271  1.00  0.00     0.031 C 
ATOM     55  C   UNL A   1      37.223  30.384  30.292  1.00  0.00     0.029 A 
ATOM     56  C   UNL A   1      37.733  31.684  29.916  1.00  0.00     0.049 A 
ATOM     57  H   UNL A   1      39.808  32.171  29.797  1.00  0.00     0.167 HD
ATOM     58  C   UNL A   1      44.014  32.415  30.195  1.00  0.00     0.037 A 
ATOM     59  C   UNL A   1      37.011  32.830  30.143  1.00  0.00     0.037 A 
ATOM     60  C   UNL A   1      43.510  32.508  31.549  1.00  0.00     0.049 A 
ATOM     61  C   UNL A   1      37.899  33.712  30.902  1.00  0.00     0.074 A 
ATOM     62  C   UNL A   1      43.782  31.886  32.750  1.00  0.00     0.029 A 
ATOM     63  N   UNL A   1      42.233  33.001  31.635  1.00  0.00    -0.354 N 
ATOM     64  N   UNL A   1      38.136  33.530  32.168  1.00  0.00    -0.248 NA
ATOM     65  C   UNL A   1      38.855  34.533  30.176  1.00  0.00     0.031 C 
ATOM     66  C   UNL A   1      42.599  31.980  33.540  1.00  0.00     0.029 A 
ATOM     67  C   UNL A   1      41.651  32.721  32.843  1.00  0.00     0.049 A 
ATOM     68  H   UNL A   1      41.785  33.497  30.912  1.00  0.00     0.167 HD
ATOM     69  C   UNL A   1      39.489  33.765  32.262  1.00  0.00     0.074 A 
ATOM     70  C   UNL A   1      39.839  34.548  31.079  1.00  0.00     0.031 C 
ATOM     71  C   UNL A   1      40.257  32.996  33.083  1.00  0.00     0.037 A 
BRANCH  58  72
ATOM     72  C   UNL A   1      44.251  33.641  29.350  1.00  0.00     0.057 A 
ATOM     73  C   UNL A   1      45.516  34.238  29.381  1.00  0.00     0.134 A 
ATOM     74  C   UNL A   1      43.243  34.406  28.717  1.00  0.00     0.134 A 
ATOM     75  F   UNL A   1      46.540  33.636  30.003  1.00  0.00    -0.206 F 
ATOM     76  C   UNL A   1      45.754  35.504  28.832  1.00  0.00     0.040 A 
ATOM     77  C   UNL A   1      43.482  35.638  28.116  1.00  0.00     0.040 A 
ATOM     78  F   UNL A   1      41.950  34.069  28.735  1.00  0.00    -0.206 F 
ATOM     79  C   UNL A   1      44.739  36.203  28.190  1.00  0.00     0.006 A 
ENDBRANCH  58  72
BRANCH  59  80
ATOM     80  C   UNL A   1      35.678  33.328  29.662  1.00  0.00     0.057 A 
ATOM     81  C   UNL A   1      34.693  33.821  30.534  1.00  0.00     0.134 A 
ATOM     82  C   UNL A   1      35.446  33.625  28.324  1.00  0.00     0.134 A 
ATOM     83  F   UNL A   1      34.693  33.473  31.828  1.00  0.00    -0.206 F 
ATOM     84  C   UNL A   1      33.687  34.712  30.117  1.00  0.00     0.040 A 
ATOM     85  C   UNL A   1      34.527  34.598  27.895  1.00  0.00     0.040 A 
ATOM     86  F   UNL A   1      36.050  32.891  27.391  1.00  0.00    -0.206 F 
ATOM     87  C   UNL A   1      33.658  35.175  28.808  1.00  0.00     0.006 A 
ENDBRANCH  59  80
BRANCH  71  88
ATOM     88  C   UNL A   1      39.578  32.341  34.247  1.00  0.00     0.057 A 
ATOM     89  C   UNL A   1      39.183  32.985  35.426  1.00  0.00     0.134 A 
ATOM     90  C   UNL A   1      39.257  30.986  34.129  1.00  0.00     0.134 A 
ATOM     91  F   UNL A   1      39.406  34.290  35.613  1.00  0.00    -0.206 F 
ATOM     92  C   UNL A   1      38.509  32.304  36.448  1.00  0.00     0.040 A 
ATOM     93  C   UNL A   1      38.564  30.300  35.126  1.00  0.00     0.040 A 
ATOM     94  F   UNL A   1      39.589  30.311  33.017  1.00  0.00    -0.206 F 
ATOM     95  C   UNL A   1      38.191  30.957  36.294  1.00  0.00     0.006 A 
ENDBRANCH  71  88
ENDBRANCH  45  46
ENDBRANCH  38  40
ENDBRANCH  37  38
ENDBRANCH  36  37
ENDBRANCH  35  36
ENDBRANCH  34  35
ENDBRANCH   1  34
TORSDOF 19
ENDMDL
MODEL 2
REMARK VINA RESULT:     -11.1      1.737      3.370
REMARK SMILES Cc1ccc(C)c(N2C(=O)S[C@H](CC(=O)Nc3ccc(C(=O)OCCOCCOC(=O)c4ccc(-c5c6nc(c(-c7c(F)cccc7F)c7ccc([nH]7)c(-c7c(F)cccc7F)c7nc(c(-c8c(F)cccc8F)c8ccc5[nH]8)C=C7)C=C6)cc4)c(O)c3)C2=O)c1
REMARK SMILES IDX 25 1 24 2 23 3 21 4 22 5 20 6 17 7 18 8 88 9 19 10 86 11
REMARK SMILES IDX 16 12 14 13 15 14 13 16 12 17 8 18 9 19 89 20 10 21 11 22
REMARK SMILES IDX 90 23 7 24 1 25 2 26 3 27 91 28 4 29 5 30 6 31 87 32 26 34
REMARK SMILES IDX 27 35 28 36 29 37 30 38 31 39 32 40 33 41 85 42 34 43 84 44
REMARK SMILES IDX 35 45 36 46 37 47 78 48 38 49 83 50 77 51 79 52 39 53 82 54
REMARK SMILES IDX 76 55 75 56 40 58 66 59 49 60 65 61 50 62 53 63 64 64 80 65
REMARK SMILES IDX 51 66 52 67 63 69 81 70 54 71 41 72 42 73 47 74 43 75 44 76
REMARK SMILES IDX 46 77 48 78 45 79 67 80 68 81 73 82 69 83 70 84 72 85 74 86
REMARK SMILES IDX 71 87 55 88 56 89 61 90 57 91 58 92 60 93 62 94 59 95
REMARK H PARENT 16 15 87 33 79 57 53 68
REMARK Flexibility Score: inf
ROOT
ATOM      1  C   UNL A   1      43.259  21.423  26.146  1.00  0.00     0.202 C 
ENDROOT
BRANCH   1   2
ATOM      2  C   UNL A   1      42.078  22.317  25.727  1.00  0.00     0.261 C 
BRANCH   2   3
ATOM      3  O   UNL A   1      40.881  21.543  25.956  1.00  0.00    -0.460 OA
BRANCH   3   4
ATOM      4  C   UNL A   1      39.848  22.374  26.188  1.00  0.00     0.341 C 
ATOM      5  O   UNL A   1      39.976  23.554  26.480  1.00  0.00    -0.246 OA
BRANCH   4   6
ATOM      6  C   UNL A   1      38.525  21.793  25.960  1.00  0.00     0.101 A 
ATOM      7  C   UNL A   1      36.150  20.559  25.162  1.00  0.00     0.044 A 
ATOM      8  C   UNL A   1      37.383  20.011  24.894  1.00  0.00     0.027 A 
ATOM      9  C   UNL A   1      36.104  21.821  25.750  1.00  0.00     0.073 A 
ATOM     10  C   UNL A   1      38.537  20.512  25.431  1.00  0.00     0.022 A 
ATOM     11  C   UNL A   1      37.307  22.449  26.125  1.00  0.00     0.132 A 
BRANCH   7  12
ATOM     12  N   UNL A   1      35.031  19.809  24.761  1.00  0.00    -0.326 N 
ATOM     13  C   UNL A   1      33.716  20.276  24.748  1.00  0.00     0.226 C 
ATOM     14  O   UNL A   1      32.777  19.487  24.853  1.00  0.00    -0.275 OA
ATOM     15  H   UNL A   1      35.187  18.882  24.467  1.00  0.00     0.169 HD
BRANCH  13  16
ATOM     16  C   UNL A   1      33.466  21.764  24.393  1.00  0.00     0.125 C 
BRANCH  16  17
ATOM     17  C   UNL A   1      32.018  22.277  24.263  1.00  0.00     0.156 C 
ATOM     18  N   UNL A   1      31.785  24.576  24.967  1.00  0.00    -0.240 N 
ATOM     19  C   UNL A   1      31.392  23.969  26.123  1.00  0.00     0.293 C 
ATOM     20  C   UNL A   1      32.028  23.758  23.870  1.00  0.00     0.248 C 
ATOM     21  O   UNL A   1      31.243  24.453  27.231  1.00  0.00    -0.261 OA
ATOM     22  S   UNL A   1      30.979  22.336  25.752  1.00  0.00    -0.050 SA
ATOM     23  O   UNL A   1      32.235  24.130  22.720  1.00  0.00    -0.273 OA
BRANCH  18  24
ATOM     24  C   UNL A   1      31.483  25.948  24.856  1.00  0.00     0.056 A 
ATOM     25  C   UNL A   1      28.824  28.088  23.158  1.00  0.00     0.044 C 
ATOM     26  C   UNL A   1      30.068  27.665  23.879  1.00  0.00    -0.049 A 
ATOM     27  C   UNL A   1      31.032  28.623  24.211  1.00  0.00     0.004 A 
ATOM     28  C   UNL A   1      30.293  26.327  24.219  1.00  0.00     0.030 A 
ATOM     29  C   UNL A   1      32.229  28.246  24.820  1.00  0.00     0.006 A 
ATOM     30  C   UNL A   1      32.488  26.904  25.118  1.00  0.00    -0.027 A 
ATOM     31  C   UNL A   1      33.861  26.561  25.636  1.00  0.00     0.046 C 
ENDBRANCH  18  24
ENDBRANCH  16  17
ENDBRANCH  13  16
ENDBRANCH   7  12
BRANCH  11  32
ATOM     32  O   UNL A   1      37.232  23.709  26.649  1.00  0.00    -0.507 OA
ATOM     33  H   UNL A   1      37.862  24.357  26.403  1.00  0.00     0.293 HD
ENDBRANCH  11  32
ENDBRANCH   4   6
ENDBRANCH   3   4
ENDBRANCH   2   3
ENDBRANCH   1   2
BRANCH   1  34
ATOM     34  O   UNL A   1      44.383  22.265  26.357  1.00  0.00    -0.374 OA
BRANCH  34  35
ATOM     35  C   UNL A   1      44.274  23.652  26.128  1.00  0.00     0.202 C 
BRANCH  35  36
ATOM     36  C   UNL A   1      44.736  24.475  27.327  1.00  0.00     0.261 C 
BRANCH  36  37
ATOM     37  O   UNL A   1      44.157  24.094  28.606  1.00  0.00    -0.460 OA
BRANCH  37  38
ATOM     38  C   UNL A   1      42.838  24.381  28.827  1.00  0.00     0.338 C 
ATOM     39  O   UNL A   1      41.950  23.545  28.835  1.00  0.00    -0.246 OA
BRANCH  38  40
ATOM     40  C   UNL A   1      42.633  25.858  28.961  1.00  0.00     0.060 A 
ATOM     41  C   UNL A   1      43.192  26.561  30.037  1.00  0.00     0.016 A 
ATOM     42  C   UNL A   1      41.606  26.442  28.225  1.00  0.00     0.016 A 
ATOM     43  C   UNL A   1      42.571  27.747  30.492  1.00  0.00     0.010 A 
ATOM     44  C   UNL A   1      40.923  27.525  28.765  1.00  0.00     0.010 A 
ATOM     45  C   UNL A   1      41.348  28.177  29.936  1.00  0.00    -0.014 A 
BRANCH  45  46
ATOM     46  C   UNL A   1      40.734  29.530  30.167  1.00  0.00     0.031 A 
ATOM     47  C   UNL A   1      41.857  30.463  29.973  1.00  0.00     0.074 A 
ATOM     48  C   UNL A   1      39.484  30.017  30.455  1.00  0.00     0.049 A 
ATOM     49  N   UNL A   1      42.530  30.942  30.969  1.00  0.00    -0.248 NA
ATOM     50  C   UNL A   1      42.546  30.587  28.677  1.00  0.00     0.031 C 
ATOM     51  C   UNL A   1      38.315  29.333  30.973  1.00  0.00     0.029 A 
ATOM     52  N   UNL A   1      38.939  31.301  30.308  1.00  0.00    -0.354 N 
ATOM     53  C   UNL A   1      43.483  31.734  30.369  1.00  0.00     0.074 A 
ATOM     54  C   UNL A   1      43.670  31.207  29.047  1.00  0.00     0.031 C 
ATOM     55  C   UNL A   1      37.165  30.013  30.771  1.00  0.00     0.029 A 
ATOM     56  C   UNL A   1      37.507  31.333  30.289  1.00  0.00     0.049 A 
ATOM     57  H   UNL A   1      39.494  32.111  30.224  1.00  0.00     0.167 HD
ATOM     58  C   UNL A   1      43.587  33.015  30.805  1.00  0.00     0.037 A 
ATOM     59  C   UNL A   1      36.615  32.375  30.359  1.00  0.00     0.037 A 
ATOM     60  C   UNL A   1      42.989  33.161  32.115  1.00  0.00     0.049 A 
ATOM     61  C   UNL A   1      37.316  33.448  31.067  1.00  0.00     0.074 A 
ATOM     62  C   UNL A   1      43.268  32.703  33.387  1.00  0.00     0.029 A 
ATOM     63  N   UNL A   1      41.651  33.463  32.085  1.00  0.00    -0.354 N 
ATOM     64  N   UNL A   1      37.494  33.424  32.355  1.00  0.00    -0.248 NA
ATOM     65  C   UNL A   1      38.190  34.329  30.308  1.00  0.00     0.031 C 
ATOM     66  C   UNL A   1      42.035  32.695  34.102  1.00  0.00     0.029 A 
ATOM     67  C   UNL A   1      41.038  33.217  33.286  1.00  0.00     0.049 A 
ATOM     68  H   UNL A   1      41.185  33.816  31.294  1.00  0.00     0.167 HD
ATOM     69  C   UNL A   1      38.791  33.866  32.491  1.00  0.00     0.074 A 
ATOM     70  C   UNL A   1      39.101  34.576  31.253  1.00  0.00     0.031 C 
ATOM     71  C   UNL A   1      39.606  33.302  33.425  1.00  0.00     0.037 A 
BRANCH  58  72
ATOM     72  C   UNL A   1      43.701  34.177  29.851  1.00  0.00     0.057 A 
ATOM     73  C   UNL A   1      44.861  34.957  29.884  1.00  0.00     0.134 A 
ATOM     74  C   UNL A   1      42.637  34.717  29.091  1.00  0.00     0.134 A 
ATOM     75  F   UNL A   1      45.917  34.578  30.618  1.00  0.00    -0.206 F 
ATOM     76  C   UNL A   1      44.950  36.187  29.221  1.00  0.00     0.040 A 
ATOM     77  C   UNL A   1      42.735  35.909  28.377  1.00  0.00     0.040 A 
ATOM     78  F   UNL A   1      41.408  34.193  29.076  1.00  0.00    -0.206 F 
ATOM     79  C   UNL A   1      43.889  36.661  28.457  1.00  0.00     0.006 A 
ENDBRANCH  58  72
BRANCH  59  80
ATOM     80  C   UNL A   1      35.259  32.620  29.762  1.00  0.00     0.057 A 
ATOM     81  C   UNL A   1      34.473  33.735  30.100  1.00  0.00     0.134 A 
ATOM     82  C   UNL A   1      34.825  31.949  28.626  1.00  0.00     0.134 A 
ATOM     83  F   UNL A   1      34.667  34.381  31.258  1.00  0.00    -0.206 F 
ATOM     84  C   UNL A   1      33.477  34.248  29.248  1.00  0.00     0.040 A 
ATOM     85  C   UNL A   1      33.918  32.496  27.702  1.00  0.00     0.040 A 
ATOM     86  F   UNL A   1      35.209  30.687  28.442  1.00  0.00    -0.206 F 
ATOM     87  C   UNL A   1      33.260  33.678  28.000  1.00  0.00     0.006 A 
ENDBRANCH  59  80
BRANCH  71  88
ATOM     88  C   UNL A   1      38.954  32.667  34.615  1.00  0.00     0.057 A 
ATOM     89  C   UNL A   1      38.756  31.293  34.798  1.00  0.00     0.134 A 
ATOM     90  C   UNL A   1      38.560  33.507  35.661  1.00  0.00     0.134 A 
ATOM     91  F   UNL A   1      39.141  30.407  33.873  1.00  0.00    -0.206 F 
ATOM     92  C   UNL A   1      38.179  30.780  35.967  1.00  0.00     0.040 A 
ATOM     93  C   UNL A   1      38.007  33.010  36.840  1.00  0.00     0.040 A 
ATOM     94  F   UNL A   1      38.738  34.833  35.561  1.00  0.00    -0.206 F 
ATOM     95  C   UNL A   1      37.809  31.642  36.996  1.00  0.00     0.006 A 
ENDBRANCH  71  88
ENDBRANCH  45  46
ENDBRANCH  38  40
ENDBRANCH  37  38
ENDBRANCH  36  37
ENDBRANCH  35  36
ENDBRANCH  34  35
ENDBRANCH   1  34
TORSDOF 19
ENDMDL
MODEL 3
REMARK VINA RESULT:     -11.0      3.919      9.144
REMARK SMILES Cc1ccc(C)c(N2C(=O)S[C@H](CC(=O)Nc3ccc(C(=O)OCCOCCOC(=O)c4ccc(-c5c6nc(c(-c7c(F)cccc7F)c7ccc([nH]7)c(-c7c(F)cccc7F)c7nc(c(-c8c(F)cccc8F)c8ccc5[nH]8)C=C7)C=C6)cc4)c(O)c3)C2=O)c1
REMARK SMILES IDX 25 1 24 2 23 3 21 4 22 5 20 6 17 7 18 8 88 9 19 10 86 11
REMARK SMILES IDX 16 12 14 13 15 14 13 16 12 17 8 18 9 19 89 20 10 21 11 22
REMARK SMILES IDX 90 23 7 24 1 25 2 26 3 27 91 28 4 29 5 30 6 31 87 32 26 34
REMARK SMILES IDX 27 35 28 36 29 37 30 38 31 39 32 40 33 41 85 42 34 43 84 44
REMARK SMILES IDX 35 45 36 46 37 47 78 48 38 49 83 50 77 51 79 52 39 53 82 54
REMARK SMILES IDX 76 55 75 56 40 58 66 59 49 60 65 61 50 62 53 63 64 64 80 65
REMARK SMILES IDX 51 66 52 67 63 69 81 70 54 71 41 72 42 73 47 74 43 75 44 76
REMARK SMILES IDX 46 77 48 78 45 79 67 80 68 81 73 82 69 83 70 84 72 85 74 86
REMARK SMILES IDX 71 87 55 88 56 89 61 90 57 91 58 92 60 93 62 94 59 95
REMARK H PARENT 16 15 87 33 79 57 53 68
REMARK Flexibility Score: inf
ROOT
ATOM      1  C   UNL A   1      34.405  31.900  29.055  1.00  0.00     0.202 C 
ENDROOT
BRANCH   1   2
ATOM      2  C   UNL A   1      34.354  31.400  27.600  1.00  0.00     0.261 C 
BRANCH   2   3
ATOM      3  O   UNL A   1      33.384  30.331  27.571  1.00  0.00    -0.460 OA
BRANCH   3   4
ATOM      4  C   UNL A   1      33.977  29.199  27.149  1.00  0.00     0.341 C 
ATOM      5  O   UNL A   1      35.169  28.964  27.287  1.00  0.00    -0.246 OA
BRANCH   4   6
ATOM      6  C   UNL A   1      33.069  28.195  26.596  1.00  0.00     0.101 A 
ATOM      7  C   UNL A   1      31.362  26.492  25.187  1.00  0.00     0.044 A 
ATOM      8  C   UNL A   1      32.483  27.042  24.610  1.00  0.00     0.027 A 
ATOM      9  C   UNL A   1      31.021  26.893  26.477  1.00  0.00     0.073 A 
ATOM     10  C   UNL A   1      33.416  27.730  25.337  1.00  0.00     0.022 A 
ATOM     11  C   UNL A   1      31.872  27.774  27.170  1.00  0.00     0.132 A 
BRANCH   7  12
ATOM     12  N   UNL A   1      30.620  25.602  24.390  1.00  0.00    -0.326 N 
ATOM     13  C   UNL A   1      30.957  24.269  24.153  1.00  0.00     0.226 C 
ATOM     14  O   UNL A   1      30.575  23.707  23.126  1.00  0.00    -0.275 OA
ATOM     15  H   UNL A   1      29.801  25.947  23.967  1.00  0.00     0.169 HD
BRANCH  13  16
ATOM     16  C   UNL A   1      31.633  23.465  25.292  1.00  0.00     0.125 C 
BRANCH  16  17
ATOM     17  C   UNL A   1      32.497  22.238  24.942  1.00  0.00     0.156 C 
ATOM     18  N   UNL A   1      34.863  22.685  25.133  1.00  0.00    -0.240 N 
ATOM     19  C   UNL A   1      34.726  22.884  23.791  1.00  0.00     0.293 C 
ATOM     20  C   UNL A   1      33.750  22.219  25.823  1.00  0.00     0.248 C 
ATOM     21  O   UNL A   1      35.507  23.396  23.009  1.00  0.00    -0.261 OA
ATOM     22  S   UNL A   1      33.249  22.145  23.292  1.00  0.00    -0.050 SA
ATOM     23  O   UNL A   1      33.727  21.839  26.989  1.00  0.00    -0.273 OA
BRANCH  18  24
ATOM     24  C   UNL A   1      36.182  22.539  25.605  1.00  0.00     0.056 A 
ATOM     25  C   UNL A   1      39.024  24.837  26.692  1.00  0.00     0.044 C 
ATOM     26  C   UNL A   1      38.252  23.620  26.280  1.00  0.00    -0.049 A 
ATOM     27  C   UNL A   1      38.918  22.399  26.131  1.00  0.00     0.004 A 
ATOM     28  C   UNL A   1      36.877  23.681  26.029  1.00  0.00     0.030 A 
ATOM     29  C   UNL A   1      38.236  21.267  25.683  1.00  0.00     0.006 A 
ATOM     30  C   UNL A   1      36.871  21.328  25.379  1.00  0.00    -0.027 A 
ATOM     31  C   UNL A   1      36.244  20.106  24.759  1.00  0.00     0.046 C 
ENDBRANCH  18  24
ENDBRANCH  16  17
ENDBRANCH  13  16
ENDBRANCH   7  12
BRANCH  11  32
ATOM     32  O   UNL A   1      31.482  28.191  28.411  1.00  0.00    -0.507 OA
ATOM     33  H   UNL A   1      31.781  27.737  29.175  1.00  0.00     0.293 HD
ENDBRANCH  11  32
ENDBRANCH   4   6
ENDBRANCH   3   4
ENDBRANCH   2   3
ENDBRANCH   1   2
BRANCH   1  34
ATOM     34  O   UNL A   1      34.779  33.270  29.026  1.00  0.00    -0.374 OA
BRANCH  34  35
ATOM     35  C   UNL A   1      34.549  34.084  30.154  1.00  0.00     0.202 C 
BRANCH  35  36
ATOM     36  C   UNL A   1      35.762  34.151  31.076  1.00  0.00     0.261 C 
BRANCH  36  37
ATOM     37  O   UNL A   1      36.585  32.952  31.114  1.00  0.00    -0.460 OA
BRANCH  37  38
ATOM     38  C   UNL A   1      36.447  32.109  32.182  1.00  0.00     0.338 C 
ATOM     39  O   UNL A   1      35.504  32.133  32.954  1.00  0.00    -0.246 OA
BRANCH  38  40
ATOM     40  C   UNL A   1      37.651  31.229  32.321  1.00  0.00     0.060 A 
ATOM     41  C   UNL A   1      38.940  31.782  32.340  1.00  0.00     0.016 A 
ATOM     42  C   UNL A   1      37.496  29.870  32.068  1.00  0.00     0.016 A 
ATOM     43  C   UNL A   1      40.036  31.008  31.896  1.00  0.00     0.010 A 
ATOM     44  C   UNL A   1      38.553  29.165  31.501  1.00  0.00     0.010 A 
ATOM     45  C   UNL A   1      39.834  29.723  31.349  1.00  0.00    -0.014 A 
BRANCH  45  46
ATOM     46  C   UNL A   1      40.930  28.729  31.078  1.00  0.00     0.031 A 
ATOM     47  C   UNL A   1      41.550  28.521  32.397  1.00  0.00     0.074 A 
ATOM     48  C   UNL A   1      41.393  28.035  29.988  1.00  0.00     0.049 A 
ATOM     49  N   UNL A   1      42.627  29.143  32.754  1.00  0.00    -0.248 NA
ATOM     50  C   UNL A   1      40.797  27.943  33.524  1.00  0.00     0.031 C 
ATOM     51  C   UNL A   1      41.173  28.267  28.574  1.00  0.00     0.029 A 
ATOM     52  N   UNL A   1      42.184  26.880  29.901  1.00  0.00    -0.354 N 
ATOM     53  C   UNL A   1      42.854  28.694  34.036  1.00  0.00     0.074 A 
ATOM     54  C   UNL A   1      41.578  28.286  34.552  1.00  0.00     0.031 C 
ATOM     55  C   UNL A   1      41.447  27.189  27.807  1.00  0.00     0.029 A 
ATOM     56  C   UNL A   1      42.095  26.201  28.642  1.00  0.00     0.049 A 
ATOM     57  H   UNL A   1      42.751  26.563  30.641  1.00  0.00     0.167 HD
ATOM     58  C   UNL A   1      44.088  28.198  34.308  1.00  0.00     0.037 A 
ATOM     59  C   UNL A   1      42.835  25.180  28.100  1.00  0.00     0.037 A 
ATOM     60  C   UNL A   1      45.051  28.654  33.329  1.00  0.00     0.049 A 
ATOM     61  C   UNL A   1      44.146  25.256  28.748  1.00  0.00     0.074 A 
ATOM     62  C   UNL A   1      45.612  29.867  32.984  1.00  0.00     0.029 A 
ATOM     63  N   UNL A   1      45.157  27.839  32.230  1.00  0.00    -0.354 N 
ATOM     64  N   UNL A   1      45.026  26.157  28.422  1.00  0.00    -0.248 NA
ATOM     65  C   UNL A   1      44.324  24.615  30.041  1.00  0.00     0.031 C 
ATOM     66  C   UNL A   1      46.012  29.763  31.620  1.00  0.00     0.029 A 
ATOM     67  C   UNL A   1      45.760  28.470  31.175  1.00  0.00     0.049 A 
ATOM     68  H   UNL A   1      44.836  26.909  32.203  1.00  0.00     0.167 HD
ATOM     69  C   UNL A   1      45.529  26.546  29.643  1.00  0.00     0.074 A 
ATOM     70  C   UNL A   1      45.214  25.459  30.567  1.00  0.00     0.031 C 
ATOM     71  C   UNL A   1      45.818  27.857  29.872  1.00  0.00     0.037 A 
BRANCH  58  72
ATOM     72  C   UNL A   1      44.282  26.913  35.073  1.00  0.00     0.057 A 
ATOM     73  C   UNL A   1      45.048  26.941  36.242  1.00  0.00     0.134 A 
ATOM     74  C   UNL A   1      43.974  25.619  34.589  1.00  0.00     0.134 A 
ATOM     75  F   UNL A   1      45.451  28.108  36.766  1.00  0.00    -0.206 F 
ATOM     76  C   UNL A   1      45.484  25.770  36.874  1.00  0.00     0.040 A 
ATOM     77  C   UNL A   1      44.351  24.449  35.241  1.00  0.00     0.040 A 
ATOM     78  F   UNL A   1      43.392  25.400  33.406  1.00  0.00    -0.206 F 
ATOM     79  C   UNL A   1      45.128  24.520  36.380  1.00  0.00     0.006 A 
ENDBRANCH  58  72
BRANCH  59  80
ATOM     80  C   UNL A   1      42.509  24.038  27.180  1.00  0.00     0.057 A 
ATOM     81  C   UNL A   1      42.742  24.090  25.796  1.00  0.00     0.134 A 
ATOM     82  C   UNL A   1      42.253  22.759  27.661  1.00  0.00     0.134 A 
ATOM     83  F   UNL A   1      42.838  25.268  25.165  1.00  0.00    -0.206 F 
ATOM     84  C   UNL A   1      42.914  22.935  25.010  1.00  0.00     0.040 A 
ATOM     85  C   UNL A   1      42.529  21.589  26.933  1.00  0.00     0.040 A 
ATOM     86  F   UNL A   1      41.628  22.628  28.829  1.00  0.00    -0.206 F 
ATOM     87  C   UNL A   1      42.897  21.677  25.600  1.00  0.00     0.006 A 
ENDBRANCH  59  80
BRANCH  71  88
ATOM     88  C   UNL A   1      46.131  28.711  28.681  1.00  0.00     0.057 A 
ATOM     89  C   UNL A   1      45.225  29.553  28.023  1.00  0.00     0.134 A 
ATOM     90  C   UNL A   1      47.450  28.717  28.218  1.00  0.00     0.134 A 
ATOM     91  F   UNL A   1      43.952  29.650  28.421  1.00  0.00    -0.206 F 
ATOM     92  C   UNL A   1      45.615  30.355  26.944  1.00  0.00     0.040 A 
ATOM     93  C   UNL A   1      47.859  29.528  27.161  1.00  0.00     0.040 A 
ATOM     94  F   UNL A   1      48.375  27.948  28.814  1.00  0.00    -0.206 F 
ATOM     95  C   UNL A   1      46.940  30.349  26.514  1.00  0.00     0.006 A 
ENDBRANCH  71  88
ENDBRANCH  45  46
ENDBRANCH  38  40
ENDBRANCH  37  38
ENDBRANCH  36  37
ENDBRANCH  35  36
ENDBRANCH  34  35
ENDBRANCH   1  34
TORSDOF 19
ENDMDL
