MODEL 1
REMARK VINA RESULT:     -12.4      0.000      0.000
REMARK SMILES CC(C)Cc1ccc(-c2cc(Cl)cc3c2O[C@@H](C(F)(F)F)C(C(=O)OCCOCCOC(=O)c2ccc(-c4c5nc(c(-c6c(F)cccc6F)c6ccc([nH]6)c(-c6c(F)cccc6F)c6nc(c(-c7c(F)cccc7F)c7ccc4[nH]7)C=C6)C=C5)cc2)=C3)cc1
REMARK SMILES IDX 27 1 26 2 25 3 23 4 24 5 22 6 9 7 10 8 15 9 11 10 14 11
REMARK SMILES IDX 16 12 12 13 13 14 88 15 17 16 8 17 5 18 6 19 90 20 7 21
REMARK SMILES IDX 89 22 4 23 2 24 1 25 3 26 18 27 19 28 20 29 21 30 28 31
REMARK SMILES IDX 29 32 30 33 31 34 32 35 33 36 34 37 35 38 87 39 36 40 86 41
REMARK SMILES IDX 37 42 38 43 39 44 80 45 40 46 85 47 79 48 81 49 41 50 84 51
REMARK SMILES IDX 78 52 77 53 42 55 68 56 51 57 67 58 52 59 55 60 66 61 82 62
REMARK SMILES IDX 53 63 54 64 65 66 83 67 56 68 43 69 44 70 49 71 45 72 46 73
REMARK SMILES IDX 48 74 50 75 47 76 69 77 70 78 75 79 71 80 72 81 74 82 76 83
REMARK SMILES IDX 73 84 57 85 58 86 63 87 59 88 60 89 62 90 64 91 61 92
REMARK H PARENT 81 54 55 65
REMARK Flexibility Score: inf
ROOT
ATOM      1  C   UNL A   1      38.198  21.144  25.215  1.00  0.00     0.202 C 
ENDROOT
BRANCH   1   2
ATOM      2  C   UNL A   1      36.740  21.489  25.557  1.00  0.00     0.261 C 
BRANCH   2   3
ATOM      3  O   UNL A   1      36.403  22.856  25.274  1.00  0.00    -0.460 OA
BRANCH   3   4
ATOM      4  C   UNL A   1      35.159  23.071  24.806  1.00  0.00     0.338 C 
ATOM      5  O   UNL A   1      34.599  22.398  23.951  1.00  0.00    -0.246 OA
BRANCH   4   6
ATOM      6  C   UNL A   1      34.449  24.130  25.564  1.00  0.00     0.087 C 
ATOM      7  C   UNL A   1      31.157  25.851  23.675  1.00  0.00     0.026 A 
ATOM      8  C   UNL A   1      31.384  25.559  22.310  1.00  0.00     0.033 A 
ATOM      9  C   UNL A   1      32.216  25.487  24.543  1.00  0.00     0.135 A 
ATOM     10  C   UNL A   1      32.671  25.323  21.829  1.00  0.00     0.042 A 
ATOM     11  C   UNL A   1      33.536  25.502  24.052  1.00  0.00     0.019 A 
ATOM     12  O   UNL A   1      31.958  24.523  25.558  1.00  0.00    -0.475 OA
ATOM     13  Cl  UNL A   1      32.916  25.056  20.151  1.00  0.00    -0.084 Cl
ATOM     14  C   UNL A   1      33.762  25.396  22.685  1.00  0.00     0.032 A 
ATOM     15  C   UNL A   1      34.659  25.331  25.000  1.00  0.00     0.027 C 
ATOM     16  C   UNL A   1      33.137  24.004  26.309  1.00  0.00     0.316 C 
BRANCH   7  17
ATOM     17  C   UNL A   1      30.292  27.090  23.832  1.00  0.00    -0.015 A 
ATOM     18  C   UNL A   1      28.730  29.446  23.152  1.00  0.00    -0.048 A 
ATOM     19  C   UNL A   1      28.137  28.189  23.291  1.00  0.00     0.004 A 
ATOM     20  C   UNL A   1      30.094  29.527  23.482  1.00  0.00     0.004 A 
ATOM     21  C   UNL A   1      28.899  27.041  23.620  1.00  0.00     0.009 A 
ATOM     22  C   UNL A   1      30.857  28.380  23.818  1.00  0.00     0.009 A 
BRANCH  18  23
ATOM     23  C   UNL A   1      27.949  30.706  22.782  1.00  0.00     0.038 C 
BRANCH  23  24
ATOM     24  C   UNL A   1      28.637  31.897  22.045  1.00  0.00    -0.013 C 
ATOM     25  C   UNL A   1      27.893  32.400  20.807  1.00  0.00     0.008 C 
ATOM     26  C   UNL A   1      28.781  33.092  23.013  1.00  0.00     0.008 C 
ENDBRANCH  23  24
ENDBRANCH  18  23
ENDBRANCH   7  17
BRANCH  16  27
ATOM     27  C   UNL A   1      32.954  22.663  27.059  1.00  0.00     0.430 C 
ATOM     28  F   UNL A   1      32.768  21.666  26.148  1.00  0.00    -0.167 F 
ATOM     29  F   UNL A   1      34.054  22.326  27.771  1.00  0.00    -0.167 F 
ATOM     30  F   UNL A   1      31.905  22.612  27.901  1.00  0.00    -0.167 F 
ENDBRANCH  16  27
ENDBRANCH   4   6
ENDBRANCH   3   4
ENDBRANCH   2   3
ENDBRANCH   1   2
BRANCH   1  31
ATOM     31  O   UNL A   1      39.230  21.660  26.044  1.00  0.00    -0.374 OA
BRANCH  31  32
ATOM     32  C   UNL A   1      40.362  20.833  26.304  1.00  0.00     0.202 C 
BRANCH  32  33
ATOM     33  C   UNL A   1      41.756  21.462  26.239  1.00  0.00     0.261 C 
BRANCH  33  34
ATOM     34  O   UNL A   1      41.865  22.518  25.269  1.00  0.00    -0.460 OA
BRANCH  34  35
ATOM     35  C   UNL A   1      42.903  23.364  25.466  1.00  0.00     0.338 C 
ATOM     36  O   UNL A   1      43.996  23.352  24.915  1.00  0.00    -0.246 OA
BRANCH  35  37
ATOM     37  C   UNL A   1      42.490  24.449  26.365  1.00  0.00     0.060 A 
ATOM     38  C   UNL A   1      43.298  25.591  26.443  1.00  0.00     0.016 A 
ATOM     39  C   UNL A   1      41.367  24.311  27.181  1.00  0.00     0.016 A 
ATOM     40  C   UNL A   1      42.986  26.602  27.349  1.00  0.00     0.010 A 
ATOM     41  C   UNL A   1      41.063  25.320  28.097  1.00  0.00     0.010 A 
ATOM     42  C   UNL A   1      41.879  26.462  28.196  1.00  0.00    -0.014 A 
BRANCH  42  43
ATOM     43  C   UNL A   1      41.607  27.478  29.237  1.00  0.00     0.031 A 
ATOM     44  C   UNL A   1      42.413  27.478  30.502  1.00  0.00     0.074 A 
ATOM     45  C   UNL A   1      40.627  28.379  29.054  1.00  0.00     0.049 A 
ATOM     46  N   UNL A   1      42.280  28.221  31.570  1.00  0.00    -0.248 NA
ATOM     47  C   UNL A   1      43.513  26.505  30.575  1.00  0.00     0.031 C 
ATOM     48  C   UNL A   1      39.797  28.486  27.856  1.00  0.00     0.029 A 
ATOM     49  N   UNL A   1      40.151  29.359  29.887  1.00  0.00    -0.354 N 
ATOM     50  C   UNL A   1      43.266  27.796  32.450  1.00  0.00     0.074 A 
ATOM     51  C   UNL A   1      43.976  26.715  31.799  1.00  0.00     0.031 C 
ATOM     52  C   UNL A   1      38.893  29.461  28.041  1.00  0.00     0.029 A 
ATOM     53  C   UNL A   1      39.057  30.018  29.382  1.00  0.00     0.049 A 
ATOM     54  H   UNL A   1      40.554  29.569  30.760  1.00  0.00     0.167 HD
ATOM     55  C   UNL A   1      43.549  28.266  33.689  1.00  0.00     0.037 A 
ATOM     56  C   UNL A   1      38.256  30.937  29.953  1.00  0.00     0.037 A 
ATOM     57  C   UNL A   1      42.831  29.340  34.326  1.00  0.00     0.049 A 
ATOM     58  C   UNL A   1      38.549  31.401  31.352  1.00  0.00     0.074 A 
ATOM     59  C   UNL A   1      43.073  29.929  35.556  1.00  0.00     0.029 A 
ATOM     60  N   UNL A   1      41.716  29.971  33.794  1.00  0.00    -0.354 N 
ATOM     61  N   UNL A   1      39.516  31.032  32.159  1.00  0.00    -0.248 NA
ATOM     62  C   UNL A   1      37.643  32.407  31.921  1.00  0.00     0.031 C 
ATOM     63  C   UNL A   1      42.063  30.867  35.796  1.00  0.00     0.029 A 
ATOM     64  C   UNL A   1      41.228  30.909  34.690  1.00  0.00     0.049 A 
ATOM     65  H   UNL A   1      41.328  29.780  32.910  1.00  0.00     0.167 HD
ATOM     66  C   UNL A   1      39.341  31.766  33.326  1.00  0.00     0.074 A 
ATOM     67  C   UNL A   1      38.189  32.620  33.111  1.00  0.00     0.031 C 
ATOM     68  C   UNL A   1      40.067  31.737  34.471  1.00  0.00     0.037 A 
BRANCH  55  69
ATOM     69  C   UNL A   1      44.653  27.590  34.451  1.00  0.00     0.057 A 
ATOM     70  C   UNL A   1      45.984  28.023  34.383  1.00  0.00     0.134 A 
ATOM     71  C   UNL A   1      44.375  26.494  35.278  1.00  0.00     0.134 A 
ATOM     72  F   UNL A   1      46.324  29.059  33.601  1.00  0.00    -0.206 F 
ATOM     73  C   UNL A   1      47.002  27.370  35.083  1.00  0.00     0.040 A 
ATOM     74  C   UNL A   1      45.379  25.852  36.006  1.00  0.00     0.040 A 
ATOM     75  F   UNL A   1      43.122  26.030  35.395  1.00  0.00    -0.206 F 
ATOM     76  C   UNL A   1      46.699  26.285  35.902  1.00  0.00     0.006 A 
ENDBRANCH  55  69
BRANCH  56  77
ATOM     77  C   UNL A   1      37.083  31.449  29.202  1.00  0.00     0.057 A 
ATOM     78  C   UNL A   1      35.922  30.683  29.055  1.00  0.00     0.134 A 
ATOM     79  C   UNL A   1      37.089  32.730  28.633  1.00  0.00     0.134 A 
ATOM     80  F   UNL A   1      35.865  29.442  29.557  1.00  0.00    -0.206 F 
ATOM     81  C   UNL A   1      34.809  31.171  28.367  1.00  0.00     0.040 A 
ATOM     82  C   UNL A   1      35.975  33.239  27.966  1.00  0.00     0.040 A 
ATOM     83  F   UNL A   1      38.171  33.515  28.742  1.00  0.00    -0.206 F 
ATOM     84  C   UNL A   1      34.830  32.457  27.829  1.00  0.00     0.006 A 
ENDBRANCH  56  77
BRANCH  68  85
ATOM     85  C   UNL A   1      39.639  32.656  35.580  1.00  0.00     0.057 A 
ATOM     86  C   UNL A   1      40.133  33.962  35.688  1.00  0.00     0.134 A 
ATOM     87  C   UNL A   1      38.691  32.244  36.526  1.00  0.00     0.134 A 
ATOM     88  F   UNL A   1      41.054  34.414  34.823  1.00  0.00    -0.206 F 
ATOM     89  C   UNL A   1      39.717  34.818  36.709  1.00  0.00     0.040 A 
ATOM     90  C   UNL A   1      38.245  33.100  37.533  1.00  0.00     0.040 A 
ATOM     91  F   UNL A   1      38.169  31.009  36.476  1.00  0.00    -0.206 F 
ATOM     92  C   UNL A   1      38.764  34.390  37.631  1.00  0.00     0.006 A 
ENDBRANCH  68  85
ENDBRANCH  42  43
ENDBRANCH  35  37
ENDBRANCH  34  35
ENDBRANCH  33  34
ENDBRANCH  32  33
ENDBRANCH  31  32
ENDBRANCH   1  31
TORSDOF 18
ENDMDL
MODEL 2
REMARK VINA RESULT:     -11.9      2.796      8.882
REMARK SMILES CC(C)Cc1ccc(-c2cc(Cl)cc3c2O[C@@H](C(F)(F)F)C(C(=O)OCCOCCOC(=O)c2ccc(-c4c5nc(c(-c6c(F)cccc6F)c6ccc([nH]6)c(-c6c(F)cccc6F)c6nc(c(-c7c(F)cccc7F)c7ccc4[nH]7)C=C6)C=C5)cc2)=C3)cc1
REMARK SMILES IDX 27 1 26 2 25 3 23 4 24 5 22 6 9 7 10 8 15 9 11 10 14 11
REMARK SMILES IDX 16 12 12 13 13 14 88 15 17 16 8 17 5 18 6 19 90 20 7 21
REMARK SMILES IDX 89 22 4 23 2 24 1 25 3 26 18 27 19 28 20 29 21 30 28 31
REMARK SMILES IDX 29 32 30 33 31 34 32 35 33 36 34 37 35 38 87 39 36 40 86 41
REMARK SMILES IDX 37 42 38 43 39 44 80 45 40 46 85 47 79 48 81 49 41 50 84 51
REMARK SMILES IDX 78 52 77 53 42 55 68 56 51 57 67 58 52 59 55 60 66 61 82 62
REMARK SMILES IDX 53 63 54 64 65 66 83 67 56 68 43 69 44 70 49 71 45 72 46 73
REMARK SMILES IDX 48 74 50 75 47 76 69 77 70 78 75 79 71 80 72 81 74 82 76 83
REMARK SMILES IDX 73 84 57 85 58 86 63 87 59 88 60 89 62 90 64 91 61 92
REMARK H PARENT 81 54 55 65
REMARK Flexibility Score: inf
ROOT
ATOM      1  C   UNL A   1      30.747  30.458  24.844  1.00  0.00     0.202 C 
ENDROOT
BRANCH   1   2
ATOM      2  C   UNL A   1      30.388  29.289  23.913  1.00  0.00     0.261 C 
BRANCH   2   3
ATOM      3  O   UNL A   1      30.290  28.032  24.599  1.00  0.00    -0.460 OA
BRANCH   3   4
ATOM      4  C   UNL A   1      31.065  27.040  24.122  1.00  0.00     0.338 C 
ATOM      5  O   UNL A   1      30.729  26.224  23.274  1.00  0.00    -0.246 OA
BRANCH   4   6
ATOM      6  C   UNL A   1      32.461  27.132  24.615  1.00  0.00     0.087 C 
ATOM      7  C   UNL A   1      34.575  23.547  24.838  1.00  0.00     0.026 A 
ATOM      8  C   UNL A   1      33.549  22.574  24.871  1.00  0.00     0.033 A 
ATOM      9  C   UNL A   1      34.121  24.887  24.896  1.00  0.00     0.135 A 
ATOM     10  C   UNL A   1      32.271  22.891  25.331  1.00  0.00     0.042 A 
ATOM     11  C   UNL A   1      32.930  25.176  25.592  1.00  0.00     0.019 A 
ATOM     12  O   UNL A   1      34.403  25.746  23.796  1.00  0.00    -0.475 OA
ATOM     13  Cl  UNL A   1      31.076  21.663  25.438  1.00  0.00    -0.084 Cl
ATOM     14  C   UNL A   1      31.990  24.171  25.788  1.00  0.00     0.032 A 
ATOM     15  C   UNL A   1      32.565  26.588  25.838  1.00  0.00     0.027 C 
ATOM     16  C   UNL A   1      33.732  27.078  23.792  1.00  0.00     0.316 C 
BRANCH   7  17
ATOM     17  C   UNL A   1      35.841  23.028  25.496  1.00  0.00    -0.015 A 
ATOM     18  C   UNL A   1      38.639  22.348  25.901  1.00  0.00    -0.048 A 
ATOM     19  C   UNL A   1      38.114  23.571  26.323  1.00  0.00     0.004 A 
ATOM     20  C   UNL A   1      37.715  21.422  25.386  1.00  0.00     0.004 A 
ATOM     21  C   UNL A   1      36.751  23.903  26.124  1.00  0.00     0.009 A 
ATOM     22  C   UNL A   1      36.349  21.750  25.192  1.00  0.00     0.009 A 
BRANCH  18  23
ATOM     23  C   UNL A   1      40.105  21.957  26.080  1.00  0.00     0.038 C 
BRANCH  23  24
ATOM     24  C   UNL A   1      40.680  21.597  27.485  1.00  0.00    -0.013 C 
ATOM     25  C   UNL A   1      41.167  20.153  27.626  1.00  0.00     0.008 C 
ATOM     26  C   UNL A   1      41.875  22.520  27.809  1.00  0.00     0.008 C 
ENDBRANCH  23  24
ENDBRANCH  18  23
ENDBRANCH   7  17
BRANCH  16  27
ATOM     27  C   UNL A   1      33.645  27.813  22.434  1.00  0.00     0.430 C 
ATOM     28  F   UNL A   1      34.904  28.128  22.016  1.00  0.00    -0.167 F 
ATOM     29  F   UNL A   1      33.109  27.033  21.468  1.00  0.00    -0.167 F 
ATOM     30  F   UNL A   1      32.948  28.965  22.446  1.00  0.00    -0.167 F 
ENDBRANCH  16  27
ENDBRANCH   4   6
ENDBRANCH   3   4
ENDBRANCH   2   3
ENDBRANCH   1   2
BRANCH   1  31
ATOM     31  O   UNL A   1      31.954  30.386  25.590  1.00  0.00    -0.374 OA
BRANCH  31  32
ATOM     32  C   UNL A   1      31.996  31.023  26.865  1.00  0.00     0.202 C 
BRANCH  32  33
ATOM     33  C   UNL A   1      31.797  32.540  26.929  1.00  0.00     0.261 C 
BRANCH  33  34
ATOM     34  O   UNL A   1      33.028  33.282  26.928  1.00  0.00    -0.460 OA
BRANCH  34  35
ATOM     35  C   UNL A   1      33.207  34.086  28.002  1.00  0.00     0.338 C 
ATOM     36  O   UNL A   1      32.514  35.032  28.356  1.00  0.00    -0.246 OA
BRANCH  35  37
ATOM     37  C   UNL A   1      34.311  33.573  28.824  1.00  0.00     0.060 A 
ATOM     38  C   UNL A   1      35.530  34.263  28.803  1.00  0.00     0.016 A 
ATOM     39  C   UNL A   1      34.174  32.384  29.541  1.00  0.00     0.016 A 
ATOM     40  C   UNL A   1      36.625  33.758  29.499  1.00  0.00     0.010 A 
ATOM     41  C   UNL A   1      35.277  31.874  30.228  1.00  0.00     0.010 A 
ATOM     42  C   UNL A   1      36.510  32.549  30.198  1.00  0.00    -0.014 A 
BRANCH  42  43
ATOM     43  C   UNL A   1      37.699  31.950  30.845  1.00  0.00     0.031 A 
ATOM     44  C   UNL A   1      38.502  30.918  30.111  1.00  0.00     0.074 A 
ATOM     45  C   UNL A   1      38.038  32.315  32.093  1.00  0.00     0.049 A 
ATOM     46  N   UNL A   1      39.521  30.210  30.526  1.00  0.00    -0.248 NA
ATOM     47  C   UNL A   1      38.100  30.643  28.724  1.00  0.00     0.031 C 
ATOM     48  C   UNL A   1      37.342  33.323  32.892  1.00  0.00     0.029 A 
ATOM     49  N   UNL A   1      39.037  31.861  32.914  1.00  0.00    -0.354 N 
ATOM     50  C   UNL A   1      39.872  29.393  29.460  1.00  0.00     0.074 A 
ATOM     51  C   UNL A   1      38.944  29.678  28.387  1.00  0.00     0.031 C 
ATOM     52  C   UNL A   1      37.922  33.394  34.101  1.00  0.00     0.029 A 
ATOM     53  C   UNL A   1      38.999  32.410  34.172  1.00  0.00     0.049 A 
ATOM     54  H   UNL A   1      39.715  31.207  32.630  1.00  0.00     0.167 HD
ATOM     55  C   UNL A   1      40.877  28.488  29.389  1.00  0.00     0.037 A 
ATOM     56  C   UNL A   1      39.727  32.123  35.268  1.00  0.00     0.037 A 
ATOM     57  C   UNL A   1      41.791  28.211  30.467  1.00  0.00     0.049 A 
ATOM     58  C   UNL A   1      40.796  31.070  35.186  1.00  0.00     0.074 A 
ATOM     59  C   UNL A   1      42.877  27.353  30.479  1.00  0.00     0.029 A 
ATOM     60  N   UNL A   1      41.711  28.771  31.735  1.00  0.00    -0.354 N 
ATOM     61  N   UNL A   1      41.158  30.338  34.159  1.00  0.00    -0.248 NA
ATOM     62  C   UNL A   1      41.559  30.802  36.413  1.00  0.00     0.031 C 
ATOM     63  C   UNL A   1      43.411  27.343  31.772  1.00  0.00     0.029 A 
ATOM     64  C   UNL A   1      42.698  28.241  32.551  1.00  0.00     0.049 A 
ATOM     65  H   UNL A   1      41.050  29.445  32.013  1.00  0.00     0.167 HD
ATOM     66  C   UNL A   1      42.195  29.531  34.610  1.00  0.00     0.074 A 
ATOM     67  C   UNL A   1      42.420  29.881  35.999  1.00  0.00     0.031 C 
ATOM     68  C   UNL A   1      42.897  28.585  33.938  1.00  0.00     0.037 A 
BRANCH  55  69
ATOM     69  C   UNL A   1      41.009  27.699  28.116  1.00  0.00     0.057 A 
ATOM     70  C   UNL A   1      41.798  28.136  27.044  1.00  0.00     0.134 A 
ATOM     71  C   UNL A   1      40.345  26.474  27.970  1.00  0.00     0.134 A 
ATOM     72  F   UNL A   1      42.452  29.306  27.112  1.00  0.00    -0.206 F 
ATOM     73  C   UNL A   1      41.895  27.400  25.860  1.00  0.00     0.040 A 
ATOM     74  C   UNL A   1      40.458  25.715  26.803  1.00  0.00     0.040 A 
ATOM     75  F   UNL A   1      39.578  25.993  28.959  1.00  0.00    -0.206 F 
ATOM     76  C   UNL A   1      41.228  26.183  25.741  1.00  0.00     0.006 A 
ENDBRANCH  55  69
BRANCH  56  77
ATOM     77  C   UNL A   1      39.437  32.828  36.541  1.00  0.00     0.057 A 
ATOM     78  C   UNL A   1      38.482  32.343  37.441  1.00  0.00     0.134 A 
ATOM     79  C   UNL A   1      40.128  33.993  36.900  1.00  0.00     0.134 A 
ATOM     80  F   UNL A   1      37.772  31.245  37.144  1.00  0.00    -0.206 F 
ATOM     81  C   UNL A   1      38.222  32.992  38.649  1.00  0.00     0.040 A 
ATOM     82  C   UNL A   1      39.897  34.637  38.115  1.00  0.00     0.040 A 
ATOM     83  F   UNL A   1      41.059  34.507  36.081  1.00  0.00    -0.206 F 
ATOM     84  C   UNL A   1      38.938  34.138  38.994  1.00  0.00     0.006 A 
ENDBRANCH  56  77
BRANCH  68  85
ATOM     85  C   UNL A   1      43.976  27.863  34.693  1.00  0.00     0.057 A 
ATOM     86  C   UNL A   1      45.270  28.385  34.810  1.00  0.00     0.134 A 
ATOM     87  C   UNL A   1      43.707  26.652  35.346  1.00  0.00     0.134 A 
ATOM     88  F   UNL A   1      45.598  29.533  34.197  1.00  0.00    -0.206 F 
ATOM     89  C   UNL A   1      46.264  27.719  35.530  1.00  0.00     0.040 A 
ATOM     90  C   UNL A   1      44.683  25.993  36.093  1.00  0.00     0.040 A 
ATOM     91  F   UNL A   1      42.486  26.100  35.284  1.00  0.00    -0.206 F 
ATOM     92  C   UNL A   1      45.969  26.524  36.181  1.00  0.00     0.006 A 
ENDBRANCH  68  85
ENDBRANCH  42  43
ENDBRANCH  35  37
ENDBRANCH  34  35
ENDBRANCH  33  34
ENDBRANCH  32  33
ENDBRANCH  31  32
ENDBRANCH   1  31
TORSDOF 18
ENDMDL
MODEL 3
REMARK VINA RESULT:     -11.7      5.466     10.536
REMARK SMILES CC(C)Cc1ccc(-c2cc(Cl)cc3c2O[C@@H](C(F)(F)F)C(C(=O)OCCOCCOC(=O)c2ccc(-c4c5nc(c(-c6c(F)cccc6F)c6ccc([nH]6)c(-c6c(F)cccc6F)c6nc(c(-c7c(F)cccc7F)c7ccc4[nH]7)C=C6)C=C5)cc2)=C3)cc1
REMARK SMILES IDX 27 1 26 2 25 3 23 4 24 5 22 6 9 7 10 8 15 9 11 10 14 11
REMARK SMILES IDX 16 12 12 13 13 14 88 15 17 16 8 17 5 18 6 19 90 20 7 21
REMARK SMILES IDX 89 22 4 23 2 24 1 25 3 26 18 27 19 28 20 29 21 30 28 31
REMARK SMILES IDX 29 32 30 33 31 34 32 35 33 36 34 37 35 38 87 39 36 40 86 41
REMARK SMILES IDX 37 42 38 43 39 44 80 45 40 46 85 47 79 48 81 49 41 50 84 51
REMARK SMILES IDX 78 52 77 53 42 55 68 56 51 57 67 58 52 59 55 60 66 61 82 62
REMARK SMILES IDX 53 63 54 64 65 66 83 67 56 68 43 69 44 70 49 71 45 72 46 73
REMARK SMILES IDX 48 74 50 75 47 76 69 77 70 78 75 79 71 80 72 81 74 82 76 83
REMARK SMILES IDX 73 84 57 85 58 86 63 87 59 88 60 89 62 90 64 91 61 92
REMARK H PARENT 81 54 55 65
REMARK Flexibility Score: inf
ROOT
ATOM      1  C   UNL A   1      44.844  21.948  24.794  1.00  0.00     0.202 C 
ENDROOT
BRANCH   1   2
ATOM      2  C   UNL A   1      45.807  23.102  25.116  1.00  0.00     0.261 C 
BRANCH   2   3
ATOM      3  O   UNL A   1      46.191  23.146  26.499  1.00  0.00    -0.460 OA
BRANCH   3   4
ATOM      4  C   UNL A   1      46.782  24.284  26.910  1.00  0.00     0.338 C 
ATOM      5  O   UNL A   1      47.885  24.358  27.434  1.00  0.00    -0.246 OA
BRANCH   4   6
ATOM      6  C   UNL A   1      46.020  25.490  26.505  1.00  0.00     0.087 C 
ATOM      7  C   UNL A   1      46.026  28.662  29.208  1.00  0.00     0.026 A 
ATOM      8  C   UNL A   1      46.363  28.038  30.432  1.00  0.00     0.033 A 
ATOM      9  C   UNL A   1      45.822  27.772  28.126  1.00  0.00     0.135 A 
ATOM     10  C   UNL A   1      46.112  26.682  30.641  1.00  0.00     0.042 A 
ATOM     11  C   UNL A   1      45.330  26.478  28.389  1.00  0.00     0.019 A 
ATOM     12  O   UNL A   1      46.678  27.876  26.993  1.00  0.00    -0.475 OA
ATOM     13  Cl  UNL A   1      46.456  25.979  32.169  1.00  0.00    -0.084 Cl
ATOM     14  C   UNL A   1      45.499  25.924  29.653  1.00  0.00     0.032 A 
ATOM     15  C   UNL A   1      44.915  25.622  27.257  1.00  0.00     0.027 C 
ATOM     16  C   UNL A   1      46.577  26.794  25.972  1.00  0.00     0.316 C 
BRANCH   7  17
ATOM     17  C   UNL A   1      45.237  29.938  29.446  1.00  0.00    -0.015 A 
ATOM     18  C   UNL A   1      43.002  31.720  29.980  1.00  0.00    -0.048 A 
ATOM     19  C   UNL A   1      43.805  31.224  31.009  1.00  0.00     0.004 A 
ATOM     20  C   UNL A   1      43.412  31.411  28.671  1.00  0.00     0.004 A 
ATOM     21  C   UNL A   1      44.893  30.353  30.749  1.00  0.00     0.009 A 
ATOM     22  C   UNL A   1      44.504  30.546  28.408  1.00  0.00     0.009 A 
BRANCH  18  23
ATOM     23  C   UNL A   1      41.810  32.646  30.217  1.00  0.00     0.038 C 
BRANCH  23  24
ATOM     24  C   UNL A   1      42.003  34.077  30.807  1.00  0.00    -0.013 C 
ATOM     25  C   UNL A   1      41.976  34.148  32.335  1.00  0.00     0.008 C 
ATOM     26  C   UNL A   1      43.360  34.651  30.343  1.00  0.00     0.008 C 
ENDBRANCH  23  24
ENDBRANCH  18  23
ENDBRANCH   7  17
BRANCH  16  27
ATOM     27  C   UNL A   1      47.776  26.628  25.008  1.00  0.00     0.430 C 
ATOM     28  F   UNL A   1      48.924  26.526  25.738  1.00  0.00    -0.167 F 
ATOM     29  F   UNL A   1      47.688  25.493  24.278  1.00  0.00    -0.167 F 
ATOM     30  F   UNL A   1      47.964  27.643  24.143  1.00  0.00    -0.167 F 
ENDBRANCH  16  27
ENDBRANCH   4   6
ENDBRANCH   3   4
ENDBRANCH   2   3
ENDBRANCH   1   2
BRANCH   1  31
ATOM     31  O   UNL A   1      43.465  22.243  24.620  1.00  0.00    -0.374 OA
BRANCH  31  32
ATOM     32  C   UNL A   1      42.575  21.954  25.695  1.00  0.00     0.202 C 
BRANCH  32  33
ATOM     33  C   UNL A   1      42.331  23.037  26.751  1.00  0.00     0.261 C 
BRANCH  33  34
ATOM     34  O   UNL A   1      41.232  23.908  26.438  1.00  0.00    -0.460 OA
BRANCH  34  35
ATOM     35  C   UNL A   1      41.589  25.159  26.062  1.00  0.00     0.338 C 
ATOM     36  O   UNL A   1      42.040  25.518  24.982  1.00  0.00    -0.246 OA
BRANCH  35  37
ATOM     37  C   UNL A   1      41.217  26.114  27.113  1.00  0.00     0.060 A 
ATOM     38  C   UNL A   1      41.926  27.319  27.197  1.00  0.00     0.016 A 
ATOM     39  C   UNL A   1      40.237  25.794  28.053  1.00  0.00     0.016 A 
ATOM     40  C   UNL A   1      41.661  28.211  28.234  1.00  0.00     0.010 A 
ATOM     41  C   UNL A   1      39.981  26.684  29.099  1.00  0.00     0.010 A 
ATOM     42  C   UNL A   1      40.702  27.887  29.202  1.00  0.00    -0.014 A 
BRANCH  42  43
ATOM     43  C   UNL A   1      40.495  28.777  30.367  1.00  0.00     0.031 A 
ATOM     44  C   UNL A   1      39.426  29.829  30.316  1.00  0.00     0.074 A 
ATOM     45  C   UNL A   1      41.278  28.654  31.452  1.00  0.00     0.049 A 
ATOM     46  N   UNL A   1      39.139  30.762  31.186  1.00  0.00    -0.248 NA
ATOM     47  C   UNL A   1      38.571  29.833  29.120  1.00  0.00     0.031 C 
ATOM     48  C   UNL A   1      42.331  27.654  31.619  1.00  0.00     0.029 A 
ATOM     49  N   UNL A   1      41.322  29.392  32.607  1.00  0.00    -0.354 N 
ATOM     50  C   UNL A   1      38.082  31.476  30.638  1.00  0.00     0.074 A 
ATOM     51  C   UNL A   1      37.794  30.882  29.350  1.00  0.00     0.031 C 
ATOM     52  C   UNL A   1      42.938  27.857  32.800  1.00  0.00     0.029 A 
ATOM     53  C   UNL A   1      42.342  29.022  33.449  1.00  0.00     0.049 A 
ATOM     54  H   UNL A   1      40.686  30.115  32.812  1.00  0.00     0.167 HD
ATOM     55  C   UNL A   1      37.416  32.532  31.165  1.00  0.00     0.037 A 
ATOM     56  C   UNL A   1      42.770  29.585  34.595  1.00  0.00     0.037 A 
ATOM     57  C   UNL A   1      37.717  33.116  32.447  1.00  0.00     0.049 A 
ATOM     58  C   UNL A   1      42.058  30.795  35.131  1.00  0.00     0.074 A 
ATOM     59  C   UNL A   1      37.069  34.153  33.096  1.00  0.00     0.029 A 
ATOM     60  N   UNL A   1      38.770  32.730  33.264  1.00  0.00    -0.354 N 
ATOM     61  N   UNL A   1      41.025  31.434  34.634  1.00  0.00    -0.248 NA
ATOM     62  C   UNL A   1      42.568  31.364  36.386  1.00  0.00     0.031 C 
ATOM     63  C   UNL A   1      37.770  34.438  34.273  1.00  0.00     0.029 A 
ATOM     64  C   UNL A   1      38.819  33.538  34.389  1.00  0.00     0.049 A 
ATOM     65  H   UNL A   1      39.391  31.991  33.073  1.00  0.00     0.167 HD
ATOM     66  C   UNL A   1      40.755  32.472  35.517  1.00  0.00     0.074 A 
ATOM     67  C   UNL A   1      41.719  32.362  36.594  1.00  0.00     0.031 C 
ATOM     68  C   UNL A   1      39.797  33.430  35.444  1.00  0.00     0.037 A 
BRANCH  55  69
ATOM     69  C   UNL A   1      36.329  33.150  30.332  1.00  0.00     0.057 A 
ATOM     70  C   UNL A   1      36.604  34.020  29.268  1.00  0.00     0.134 A 
ATOM     71  C   UNL A   1      34.984  32.857  30.592  1.00  0.00     0.134 A 
ATOM     72  F   UNL A   1      37.869  34.353  28.971  1.00  0.00    -0.206 F 
ATOM     73  C   UNL A   1      35.580  34.601  28.516  1.00  0.00     0.040 A 
ATOM     74  C   UNL A   1      33.953  33.408  29.829  1.00  0.00     0.040 A 
ATOM     75  F   UNL A   1      34.649  32.028  31.592  1.00  0.00    -0.206 F 
ATOM     76  C   UNL A   1      34.250  34.290  28.793  1.00  0.00     0.006 A 
ENDBRANCH  55  69
BRANCH  56  77
ATOM     77  C   UNL A   1      43.954  29.020  35.287  1.00  0.00     0.057 A 
ATOM     78  C   UNL A   1      43.819  28.063  36.299  1.00  0.00     0.134 A 
ATOM     79  C   UNL A   1      45.254  29.407  34.935  1.00  0.00     0.134 A 
ATOM     80  F   UNL A   1      42.600  27.669  36.695  1.00  0.00    -0.206 F 
ATOM     81  C   UNL A   1      44.932  27.514  36.936  1.00  0.00     0.040 A 
ATOM     82  C   UNL A   1      46.376  28.847  35.546  1.00  0.00     0.040 A 
ATOM     83  F   UNL A   1      45.451  30.319  33.970  1.00  0.00    -0.206 F 
ATOM     84  C   UNL A   1      46.216  27.899  36.554  1.00  0.00     0.006 A 
ENDBRANCH  56  77
BRANCH  68  85
ATOM     85  C   UNL A   1      39.743  34.434  36.560  1.00  0.00     0.057 A 
ATOM     86  C   UNL A   1      39.001  34.202  37.725  1.00  0.00     0.134 A 
ATOM     87  C   UNL A   1      40.473  35.628  36.486  1.00  0.00     0.134 A 
ATOM     88  F   UNL A   1      38.268  33.086  37.853  1.00  0.00    -0.206 F 
ATOM     89  C   UNL A   1      38.970  35.130  38.767  1.00  0.00     0.040 A 
ATOM     90  C   UNL A   1      40.474  36.549  37.534  1.00  0.00     0.040 A 
ATOM     91  F   UNL A   1      41.213  35.909  35.403  1.00  0.00    -0.206 F 
ATOM     92  C   UNL A   1      39.714  36.304  38.677  1.00  0.00     0.006 A 
ENDBRANCH  68  85
ENDBRANCH  42  43
ENDBRANCH  35  37
ENDBRANCH  34  35
ENDBRANCH  33  34
ENDBRANCH  32  33
ENDBRANCH  31  32
ENDBRANCH   1  31
TORSDOF 18
ENDMDL
