MODEL 1
REMARK VINA RESULT:     -11.1      0.000      0.000
REMARK SMILES O=C(OCCOCCOC(=O)c1cc(NC(=O)c2cccnc2Cl)ccc1O)c1ccc(-c2c3nc(c(-c4c(F)cccc4F)c4ccc([nH]4)c(-c4c(F)cccc4F)c4nc(c(-c5c(F)cccc5F)c5ccc2[nH]5)C=C4)C=C3)cc1
REMARK SMILES IDX 6 1 5 2 4 3 3 4 2 5 1 6 29 7 30 8 82 9 31 10 81 11 32 12
REMARK SMILES IDX 33 13 34 14 75 15 35 16 80 17 74 18 76 19 36 20 79 21 73 22
REMARK SMILES IDX 72 23 37 25 63 26 46 27 62 28 47 29 50 30 61 31 77 32 48 33
REMARK SMILES IDX 49 34 60 36 78 37 51 38 38 39 39 40 44 41 40 42 41 43 43 44
REMARK SMILES IDX 45 45 42 46 64 47 65 48 70 49 66 50 67 51 69 52 71 53 68 54
REMARK SMILES IDX 52 55 53 56 58 57 54 58 55 59 57 60 59 61 56 62 7 63 8 64
REMARK SMILES IDX 9 65 10 66 11 67 12 68 13 69 27 70 14 71 26 72 25 73 28 74
REMARK SMILES IDX 15 76 16 77 17 79 18 80 19 81 23 82 20 83 22 84 24 85 21 86
REMARK H PARENT 76 24 50 35 28 75 15 78
REMARK Flexibility Score: inf
ROOT
ATOM      1  O   UNL A   1      41.388  21.164  26.700  1.00  0.00    -0.374 OA
ENDROOT
BRANCH   1   2
ATOM      2  C   UNL A   1      42.457  20.442  26.087  1.00  0.00     0.202 C 
BRANCH   2   3
ATOM      3  C   UNL A   1      43.487  21.355  25.421  1.00  0.00     0.261 C 
BRANCH   3   4
ATOM      4  O   UNL A   1      42.871  22.600  25.052  1.00  0.00    -0.460 OA
BRANCH   4   5
ATOM      5  C   UNL A   1      43.338  23.848  25.277  1.00  0.00     0.338 C 
ATOM      6  O   UNL A   1      44.262  24.265  24.578  1.00  0.00    -0.246 OA
BRANCH   5   7
ATOM      7  C   UNL A   1      42.809  24.758  26.340  1.00  0.00     0.060 A 
ATOM      8  C   UNL A   1      41.949  24.369  27.368  1.00  0.00     0.016 A 
ATOM      9  C   UNL A   1      43.312  26.069  26.370  1.00  0.00     0.016 A 
ATOM     10  C   UNL A   1      41.573  25.245  28.378  1.00  0.00     0.010 A 
ATOM     11  C   UNL A   1      42.975  26.947  27.404  1.00  0.00     0.010 A 
ATOM     12  C   UNL A   1      42.102  26.531  28.416  1.00  0.00    -0.014 A 
BRANCH  12  13
ATOM     13  C   UNL A   1      41.680  27.427  29.506  1.00  0.00     0.031 A 
ATOM     14  C   UNL A   1      42.496  27.477  30.757  1.00  0.00     0.074 A 
ATOM     15  C   UNL A   1      40.635  28.253  29.314  1.00  0.00     0.049 A 
ATOM     16  N   UNL A   1      42.286  28.150  31.854  1.00  0.00    -0.248 NA
ATOM     17  C   UNL A   1      43.723  26.664  30.768  1.00  0.00     0.031 C 
ATOM     18  C   UNL A   1      39.850  28.347  28.080  1.00  0.00     0.029 A 
ATOM     19  N   UNL A   1      40.073  29.191  30.138  1.00  0.00    -0.354 N 
ATOM     20  C   UNL A   1      43.331  27.814  32.703  1.00  0.00     0.074 A 
ATOM     21  C   UNL A   1      44.176  26.881  31.993  1.00  0.00     0.031 C 
ATOM     22  C   UNL A   1      38.929  29.315  28.218  1.00  0.00     0.029 A 
ATOM     23  C   UNL A   1      39.013  29.855  29.569  1.00  0.00     0.049 A 
ATOM     24  H   UNL A   1      40.396  29.371  31.049  1.00  0.00     0.167 HD
ATOM     25  C   UNL A   1      43.547  28.239  33.969  1.00  0.00     0.037 A 
ATOM     26  C   UNL A   1      38.189  30.777  30.101  1.00  0.00     0.037 A 
ATOM     27  C   UNL A   1      42.686  29.170  34.649  1.00  0.00     0.049 A 
ATOM     28  C   UNL A   1      38.407  31.175  31.535  1.00  0.00     0.074 A 
ATOM     29  C   UNL A   1      42.768  29.641  35.946  1.00  0.00     0.029 A 
ATOM     30  N   UNL A   1      41.578  29.776  34.071  1.00  0.00    -0.354 N 
ATOM     31  N   UNL A   1      39.360  30.805  32.359  1.00  0.00    -0.248 NA
ATOM     32  C   UNL A   1      37.430  32.099  32.119  1.00  0.00     0.031 C 
ATOM     33  C   UNL A   1      41.686  30.503  36.163  1.00  0.00     0.029 A 
ATOM     34  C   UNL A   1      40.957  30.605  34.987  1.00  0.00     0.049 A 
ATOM     35  H   UNL A   1      41.277  29.635  33.143  1.00  0.00     0.167 HD
ATOM     36  C   UNL A   1      39.106  31.461  33.554  1.00  0.00     0.074 A 
ATOM     37  C   UNL A   1      37.921  32.270  33.339  1.00  0.00     0.031 C 
ATOM     38  C   UNL A   1      39.783  31.402  34.727  1.00  0.00     0.037 A 
BRANCH  25  39
ATOM     39  C   UNL A   1      44.707  27.631  34.697  1.00  0.00     0.057 A 
ATOM     40  C   UNL A   1      44.602  26.420  35.395  1.00  0.00     0.134 A 
ATOM     41  C   UNL A   1      45.937  28.299  34.745  1.00  0.00     0.134 A 
ATOM     42  F   UNL A   1      43.443  25.745  35.413  1.00  0.00    -0.206 F 
ATOM     43  C   UNL A   1      45.668  25.915  36.144  1.00  0.00     0.040 A 
ATOM     44  C   UNL A   1      47.016  27.793  35.470  1.00  0.00     0.040 A 
ATOM     45  F   UNL A   1      46.104  29.465  34.104  1.00  0.00    -0.206 F 
ATOM     46  C   UNL A   1      46.880  26.603  36.182  1.00  0.00     0.006 A 
ENDBRANCH  25  39
BRANCH  26  47
ATOM     47  C   UNL A   1      37.077  31.351  29.300  1.00  0.00     0.057 A 
ATOM     48  C   UNL A   1      35.922  30.610  29.027  1.00  0.00     0.134 A 
ATOM     49  C   UNL A   1      37.146  32.649  28.776  1.00  0.00     0.134 A 
ATOM     50  F   UNL A   1      35.802  29.354  29.481  1.00  0.00    -0.206 F 
ATOM     51  C   UNL A   1      34.883  31.132  28.254  1.00  0.00     0.040 A 
ATOM     52  C   UNL A   1      36.103  33.193  28.024  1.00  0.00     0.040 A 
ATOM     53  F   UNL A   1      38.224  33.414  28.998  1.00  0.00    -0.206 F 
ATOM     54  C   UNL A   1      34.969  32.430  27.754  1.00  0.00     0.006 A 
ENDBRANCH  26  47
BRANCH  38  55
ATOM     55  C   UNL A   1      39.274  32.263  35.843  1.00  0.00     0.057 A 
ATOM     56  C   UNL A   1      38.351  31.785  36.782  1.00  0.00     0.134 A 
ATOM     57  C   UNL A   1      39.740  33.574  35.995  1.00  0.00     0.134 A 
ATOM     58  F   UNL A   1      37.856  30.542  36.678  1.00  0.00    -0.206 F 
ATOM     59  C   UNL A   1      37.893  32.592  37.824  1.00  0.00     0.040 A 
ATOM     60  C   UNL A   1      39.309  34.381  37.047  1.00  0.00     0.040 A 
ATOM     61  F   UNL A   1      40.629  34.086  35.130  1.00  0.00    -0.206 F 
ATOM     62  C   UNL A   1      38.379  33.891  37.962  1.00  0.00     0.006 A 
ENDBRANCH  38  55
ENDBRANCH  12  13
ENDBRANCH   5   7
ENDBRANCH   4   5
ENDBRANCH   3   4
ENDBRANCH   2   3
ENDBRANCH   1   2
BRANCH   1  63
ATOM     63  C   UNL A   1      40.090  20.886  26.166  1.00  0.00     0.202 C 
BRANCH  63  64
ATOM     64  C   UNL A   1      39.266  22.172  26.166  1.00  0.00     0.261 C 
BRANCH  64  65
ATOM     65  O   UNL A   1      37.878  21.814  26.087  1.00  0.00    -0.460 OA
BRANCH  65  66
ATOM     66  C   UNL A   1      37.068  22.700  25.448  1.00  0.00     0.342 C 
ATOM     67  O   UNL A   1      37.397  23.572  24.664  1.00  0.00    -0.246 OA
BRANCH  66  68
ATOM     68  C   UNL A   1      35.660  22.290  25.663  1.00  0.00     0.103 A 
ATOM     69  C   UNL A   1      34.736  23.297  26.026  1.00  0.00     0.045 A 
ATOM     70  C   UNL A   1      35.230  20.975  25.465  1.00  0.00     0.130 A 
ATOM     71  C   UNL A   1      33.383  22.992  26.156  1.00  0.00     0.042 A 
ATOM     72  C   UNL A   1      33.883  20.663  25.604  1.00  0.00     0.049 A 
ATOM     73  C   UNL A   1      32.973  21.665  25.948  1.00  0.00     0.030 A 
BRANCH  70  74
ATOM     74  O   UNL A   1      36.118  19.983  25.163  1.00  0.00    -0.507 OA
ATOM     75  H   UNL A   1      36.288  19.303  25.784  1.00  0.00     0.293 HD
ENDBRANCH  70  74
BRANCH  71  76
ATOM     76  N   UNL A   1      32.370  23.889  26.538  1.00  0.00    -0.322 N 
ATOM     77  C   UNL A   1      32.004  25.154  26.156  1.00  0.00     0.258 C 
ATOM     78  H   UNL A   1      31.788  23.524  27.244  1.00  0.00     0.170 HD
ATOM     79  O   UNL A   1      31.184  25.780  26.827  1.00  0.00    -0.269 OA
BRANCH  77  80
ATOM     80  C   UNL A   1      32.474  25.784  24.928  1.00  0.00     0.077 A 
ATOM     81  C   UNL A   1      33.404  26.823  24.997  1.00  0.00     0.018 A 
ATOM     82  C   UNL A   1      31.878  25.517  23.706  1.00  0.00     0.141 A 
ATOM     83  C   UNL A   1      33.740  27.510  23.833  1.00  0.00     0.021 A 
ATOM     84  N   UNL A   1      32.201  26.155  22.554  1.00  0.00    -0.244 NA
ATOM     85  Cl  UNL A   1      30.646  24.335  23.489  1.00  0.00    -0.061 Cl
ATOM     86  C   UNL A   1      33.120  27.143  22.647  1.00  0.00     0.113 A 
ENDBRANCH  77  80
ENDBRANCH  71  76
ENDBRANCH  66  68
ENDBRANCH  65  66
ENDBRANCH  64  65
ENDBRANCH  63  64
ENDBRANCH   1  63
TORSDOF 17
ENDMDL
MODEL 2
REMARK VINA RESULT:     -11.1      4.759      9.685
REMARK SMILES O=C(OCCOCCOC(=O)c1cc(NC(=O)c2cccnc2Cl)ccc1O)c1ccc(-c2c3nc(c(-c4c(F)cccc4F)c4ccc([nH]4)c(-c4c(F)cccc4F)c4nc(c(-c5c(F)cccc5F)c5ccc2[nH]5)C=C4)C=C3)cc1
REMARK SMILES IDX 6 1 5 2 4 3 3 4 2 5 1 6 29 7 30 8 82 9 31 10 81 11 32 12
REMARK SMILES IDX 33 13 34 14 75 15 35 16 80 17 74 18 76 19 36 20 79 21 73 22
REMARK SMILES IDX 72 23 37 25 63 26 46 27 62 28 47 29 50 30 61 31 77 32 48 33
REMARK SMILES IDX 49 34 60 36 78 37 51 38 38 39 39 40 44 41 40 42 41 43 43 44
REMARK SMILES IDX 45 45 42 46 64 47 65 48 70 49 66 50 67 51 69 52 71 53 68 54
REMARK SMILES IDX 52 55 53 56 58 57 54 58 55 59 57 60 59 61 56 62 7 63 8 64
REMARK SMILES IDX 9 65 10 66 11 67 12 68 13 69 27 70 14 71 26 72 25 73 28 74
REMARK SMILES IDX 15 76 16 77 17 79 18 80 19 81 23 82 20 83 22 84 24 85 21 86
REMARK H PARENT 76 24 50 35 28 75 15 78
REMARK Flexibility Score: inf
ROOT
ATOM      1  O   UNL A   1      34.550  32.168  28.971  1.00  0.00    -0.374 OA
ENDROOT
BRANCH   1   2
ATOM      2  C   UNL A   1      34.089  33.443  29.419  1.00  0.00     0.202 C 
BRANCH   2   3
ATOM      3  C   UNL A   1      34.404  33.706  30.892  1.00  0.00     0.261 C 
BRANCH   3   4
ATOM      4  O   UNL A   1      34.677  32.464  31.563  1.00  0.00    -0.460 OA
BRANCH   4   5
ATOM      5  C   UNL A   1      35.826  32.092  32.170  1.00  0.00     0.338 C 
ATOM      6  O   UNL A   1      35.928  32.254  33.386  1.00  0.00    -0.246 OA
BRANCH   5   7
ATOM      7  C   UNL A   1      36.997  31.504  31.449  1.00  0.00     0.060 A 
ATOM      8  C   UNL A   1      37.286  31.703  30.098  1.00  0.00     0.016 A 
ATOM      9  C   UNL A   1      37.936  30.798  32.220  1.00  0.00     0.016 A 
ATOM     10  C   UNL A   1      38.444  31.205  29.516  1.00  0.00     0.010 A 
ATOM     11  C   UNL A   1      39.125  30.328  31.655  1.00  0.00     0.010 A 
ATOM     12  C   UNL A   1      39.382  30.536  30.295  1.00  0.00    -0.014 A 
BRANCH  12  13
ATOM     13  C   UNL A   1      40.598  30.025  29.640  1.00  0.00     0.031 A 
ATOM     14  C   UNL A   1      41.791  30.920  29.536  1.00  0.00     0.074 A 
ATOM     15  C   UNL A   1      40.645  28.741  29.243  1.00  0.00     0.049 A 
ATOM     16  N   UNL A   1      42.941  30.699  28.961  1.00  0.00    -0.248 NA
ATOM     17  C   UNL A   1      41.676  32.239  30.178  1.00  0.00     0.031 C 
ATOM     18  C   UNL A   1      39.562  27.768  29.406  1.00  0.00     0.029 A 
ATOM     19  N   UNL A   1      41.649  28.023  28.651  1.00  0.00    -0.354 N 
ATOM     20  C   UNL A   1      43.674  31.865  29.135  1.00  0.00     0.074 A 
ATOM     21  C   UNL A   1      42.842  32.787  29.874  1.00  0.00     0.031 C 
ATOM     22  C   UNL A   1      39.974  26.571  28.956  1.00  0.00     0.029 A 
ATOM     23  C   UNL A   1      41.317  26.712  28.409  1.00  0.00     0.049 A 
ATOM     24  H   UNL A   1      42.524  28.410  28.420  1.00  0.00     0.167 HD
ATOM     25  C   UNL A   1      44.925  32.136  28.699  1.00  0.00     0.037 A 
ATOM     26  C   UNL A   1      42.018  25.747  27.787  1.00  0.00     0.037 A 
ATOM     27  C   UNL A   1      45.730  31.195  27.966  1.00  0.00     0.049 A 
ATOM     28  C   UNL A   1      43.376  26.099  27.246  1.00  0.00     0.074 A 
ATOM     29  C   UNL A   1      46.991  31.365  27.427  1.00  0.00     0.029 A 
ATOM     30  N   UNL A   1      45.340  29.893  27.675  1.00  0.00    -0.354 N 
ATOM     31  N   UNL A   1      44.043  27.225  27.354  1.00  0.00    -0.248 NA
ATOM     32  C   UNL A   1      44.072  25.059  26.479  1.00  0.00     0.031 C 
ATOM     33  C   UNL A   1      47.347  30.177  26.775  1.00  0.00     0.029 A 
ATOM     34  C   UNL A   1      46.329  29.252  26.950  1.00  0.00     0.049 A 
ATOM     35  H   UNL A   1      44.484  29.486  27.944  1.00  0.00     0.167 HD
ATOM     36  C   UNL A   1      45.241  27.025  26.685  1.00  0.00     0.074 A 
ATOM     37  C   UNL A   1      45.217  25.661  26.191  1.00  0.00     0.031 C 
ATOM     38  C   UNL A   1      46.268  27.888  26.487  1.00  0.00     0.037 A 
BRANCH  25  39
ATOM     39  C   UNL A   1      45.439  33.523  28.941  1.00  0.00     0.057 A 
ATOM     40  C   UNL A   1      46.020  33.905  30.157  1.00  0.00     0.134 A 
ATOM     41  C   UNL A   1      45.298  34.509  27.955  1.00  0.00     0.134 A 
ATOM     42  F   UNL A   1      46.159  33.017  31.152  1.00  0.00    -0.206 F 
ATOM     43  C   UNL A   1      46.409  35.225  30.397  1.00  0.00     0.040 A 
ATOM     44  C   UNL A   1      45.704  35.825  28.175  1.00  0.00     0.040 A 
ATOM     45  F   UNL A   1      44.744  34.212  26.770  1.00  0.00    -0.206 F 
ATOM     46  C   UNL A   1      46.251  36.190  29.403  1.00  0.00     0.006 A 
ENDBRANCH  25  39
BRANCH  26  47
ATOM     47  C   UNL A   1      41.445  24.387  27.612  1.00  0.00     0.057 A 
ATOM     48  C   UNL A   1      41.902  23.304  28.372  1.00  0.00     0.134 A 
ATOM     49  C   UNL A   1      40.437  24.133  26.673  1.00  0.00     0.134 A 
ATOM     50  F   UNL A   1      42.879  23.475  29.273  1.00  0.00    -0.206 F 
ATOM     51  C   UNL A   1      41.387  22.017  28.196  1.00  0.00     0.040 A 
ATOM     52  C   UNL A   1      39.894  22.857  26.506  1.00  0.00     0.040 A 
ATOM     53  F   UNL A   1      39.954  25.125  25.911  1.00  0.00    -0.206 F 
ATOM     54  C   UNL A   1      40.376  21.792  27.264  1.00  0.00     0.006 A 
ENDBRANCH  26  47
BRANCH  38  55
ATOM     55  C   UNL A   1      47.455  27.361  25.740  1.00  0.00     0.057 A 
ATOM     56  C   UNL A   1      48.515  26.722  26.395  1.00  0.00     0.134 A 
ATOM     57  C   UNL A   1      47.519  27.467  24.345  1.00  0.00     0.134 A 
ATOM     58  F   UNL A   1      48.518  26.605  27.732  1.00  0.00    -0.206 F 
ATOM     59  C   UNL A   1      49.610  26.224  25.688  1.00  0.00     0.040 A 
ATOM     60  C   UNL A   1      48.595  26.949  23.626  1.00  0.00     0.040 A 
ATOM     61  F   UNL A   1      46.530  28.063  23.662  1.00  0.00    -0.206 F 
ATOM     62  C   UNL A   1      49.647  26.330  24.299  1.00  0.00     0.006 A 
ENDBRANCH  38  55
ENDBRANCH  12  13
ENDBRANCH   5   7
ENDBRANCH   4   5
ENDBRANCH   3   4
ENDBRANCH   2   3
ENDBRANCH   1   2
BRANCH   1  63
ATOM     63  C   UNL A   1      34.214  31.847  27.618  1.00  0.00     0.202 C 
BRANCH  63  64
ATOM     64  C   UNL A   1      33.578  30.459  27.578  1.00  0.00     0.261 C 
BRANCH  64  65
ATOM     65  O   UNL A   1      33.221  30.169  26.218  1.00  0.00    -0.460 OA
BRANCH  65  66
ATOM     66  C   UNL A   1      31.908  30.324  25.899  1.00  0.00     0.342 C 
ATOM     67  O   UNL A   1      31.279  31.364  25.836  1.00  0.00    -0.246 OA
BRANCH  66  68
ATOM     68  C   UNL A   1      31.392  29.030  25.392  1.00  0.00     0.103 A 
ATOM     69  C   UNL A   1      31.450  27.918  26.263  1.00  0.00     0.045 A 
ATOM     70  C   UNL A   1      30.814  28.906  24.125  1.00  0.00     0.130 A 
ATOM     71  C   UNL A   1      30.901  26.697  25.877  1.00  0.00     0.042 A 
ATOM     72  C   UNL A   1      30.274  27.688  23.731  1.00  0.00     0.049 A 
ATOM     73  C   UNL A   1      30.321  26.597  24.602  1.00  0.00     0.030 A 
BRANCH  70  74
ATOM     74  O   UNL A   1      30.795  29.958  23.255  1.00  0.00    -0.507 OA
ATOM     75  H   UNL A   1      30.607  30.821  23.568  1.00  0.00     0.293 HD
ENDBRANCH  70  74
BRANCH  71  76
ATOM     76  N   UNL A   1      30.918  25.511  26.633  1.00  0.00    -0.322 N 
ATOM     77  C   UNL A   1      31.574  24.311  26.534  1.00  0.00     0.258 C 
ATOM     78  H   UNL A   1      30.320  25.552  27.414  1.00  0.00     0.170 HD
ATOM     79  O   UNL A   1      31.225  23.367  27.241  1.00  0.00    -0.269 OA
BRANCH  77  80
ATOM     80  C   UNL A   1      32.742  24.107  25.686  1.00  0.00     0.077 A 
ATOM     81  C   UNL A   1      33.998  24.524  26.128  1.00  0.00     0.018 A 
ATOM     82  C   UNL A   1      32.614  23.690  24.370  1.00  0.00     0.141 A 
ATOM     83  C   UNL A   1      35.082  24.452  25.256  1.00  0.00     0.021 A 
ATOM     84  N   UNL A   1      33.655  23.591  23.507  1.00  0.00    -0.244 NA
ATOM     85  Cl  UNL A   1      31.113  23.243  23.658  1.00  0.00    -0.061 Cl
ATOM     86  C   UNL A   1      34.864  23.982  23.969  1.00  0.00     0.113 A 
ENDBRANCH  77  80
ENDBRANCH  71  76
ENDBRANCH  66  68
ENDBRANCH  65  66
ENDBRANCH  64  65
ENDBRANCH  63  64
ENDBRANCH   1  63
TORSDOF 17
ENDMDL
MODEL 3
REMARK VINA RESULT:     -11.0      3.085      7.971
REMARK SMILES O=C(OCCOCCOC(=O)c1cc(NC(=O)c2cccnc2Cl)ccc1O)c1ccc(-c2c3nc(c(-c4c(F)cccc4F)c4ccc([nH]4)c(-c4c(F)cccc4F)c4nc(c(-c5c(F)cccc5F)c5ccc2[nH]5)C=C4)C=C3)cc1
REMARK SMILES IDX 6 1 5 2 4 3 3 4 2 5 1 6 29 7 30 8 82 9 31 10 81 11 32 12
REMARK SMILES IDX 33 13 34 14 75 15 35 16 80 17 74 18 76 19 36 20 79 21 73 22
REMARK SMILES IDX 72 23 37 25 63 26 46 27 62 28 47 29 50 30 61 31 77 32 48 33
REMARK SMILES IDX 49 34 60 36 78 37 51 38 38 39 39 40 44 41 40 42 41 43 43 44
REMARK SMILES IDX 45 45 42 46 64 47 65 48 70 49 66 50 67 51 69 52 71 53 68 54
REMARK SMILES IDX 52 55 53 56 58 57 54 58 55 59 57 60 59 61 56 62 7 63 8 64
REMARK SMILES IDX 9 65 10 66 11 67 12 68 13 69 27 70 14 71 26 72 25 73 28 74
REMARK SMILES IDX 15 76 16 77 17 79 18 80 19 81 23 82 20 83 22 84 24 85 21 86
REMARK H PARENT 76 24 50 35 28 75 15 78
REMARK Flexibility Score: inf
ROOT
ATOM      1  O   UNL A   1      33.085  30.989  26.805  1.00  0.00    -0.374 OA
ENDROOT
BRANCH   1   2
ATOM      2  C   UNL A   1      31.815  31.637  26.887  1.00  0.00     0.202 C 
BRANCH   2   3
ATOM      3  C   UNL A   1      31.898  33.145  26.645  1.00  0.00     0.261 C 
BRANCH   3   4
ATOM      4  O   UNL A   1      32.130  33.827  27.889  1.00  0.00    -0.460 OA
BRANCH   4   5
ATOM      5  C   UNL A   1      33.272  34.421  28.300  1.00  0.00     0.338 C 
ATOM      6  O   UNL A   1      33.420  35.625  28.086  1.00  0.00    -0.246 OA
BRANCH   5   7
ATOM      7  C   UNL A   1      34.384  33.700  28.994  1.00  0.00     0.060 A 
ATOM      8  C   UNL A   1      34.249  32.491  29.677  1.00  0.00     0.016 A 
ATOM      9  C   UNL A   1      35.680  34.223  28.842  1.00  0.00     0.016 A 
ATOM     10  C   UNL A   1      35.344  31.828  30.215  1.00  0.00     0.010 A 
ATOM     11  C   UNL A   1      36.794  33.544  29.344  1.00  0.00     0.010 A 
ATOM     12  C   UNL A   1      36.625  32.338  30.032  1.00  0.00    -0.014 A 
BRANCH  12  13
ATOM     13  C   UNL A   1      37.759  31.603  30.618  1.00  0.00     0.031 A 
ATOM     14  C   UNL A   1      38.077  31.799  32.065  1.00  0.00     0.074 A 
ATOM     15  C   UNL A   1      38.416  30.699  29.869  1.00  0.00     0.049 A 
ATOM     16  N   UNL A   1      39.051  31.297  32.772  1.00  0.00    -0.248 NA
ATOM     17  C   UNL A   1      37.164  32.673  32.821  1.00  0.00     0.031 C 
ATOM     18  C   UNL A   1      38.100  30.364  28.478  1.00  0.00     0.029 A 
ATOM     19  N   UNL A   1      39.464  29.872  30.178  1.00  0.00    -0.354 N 
ATOM     20  C   UNL A   1      38.896  31.824  34.046  1.00  0.00     0.074 A 
ATOM     21  C   UNL A   1      37.730  32.679  34.017  1.00  0.00     0.031 C 
ATOM     22  C   UNL A   1      38.915  29.379  28.066  1.00  0.00     0.029 A 
ATOM     23  C   UNL A   1      39.853  29.066  29.136  1.00  0.00     0.049 A 
ATOM     24  H   UNL A   1      39.896  29.858  31.062  1.00  0.00     0.167 HD
ATOM     25  C   UNL A   1      39.673  31.618  35.134  1.00  0.00     0.037 A 
ATOM     26  C   UNL A   1      40.875  28.195  29.057  1.00  0.00     0.037 A 
ATOM     27  C   UNL A   1      40.826  30.759  35.132  1.00  0.00     0.049 A 
ATOM     28  C   UNL A   1      41.767  28.043  30.257  1.00  0.00     0.074 A 
ATOM     29  C   UNL A   1      41.722  30.506  36.154  1.00  0.00     0.029 A 
ATOM     30  N   UNL A   1      41.238  30.006  34.040  1.00  0.00    -0.354 N 
ATOM     31  N   UNL A   1      41.657  28.593  31.444  1.00  0.00    -0.248 NA
ATOM     32  C   UNL A   1      42.935  27.168  30.105  1.00  0.00     0.031 C 
ATOM     33  C   UNL A   1      42.699  29.628  35.665  1.00  0.00     0.029 A 
ATOM     34  C   UNL A   1      42.384  29.299  34.355  1.00  0.00     0.049 A 
ATOM     35  H   UNL A   1      40.782  29.980  33.167  1.00  0.00     0.167 HD
ATOM     36  C   UNL A   1      42.730  28.121  32.185  1.00  0.00     0.074 A 
ATOM     37  C   UNL A   1      43.468  27.222  31.318  1.00  0.00     0.031 C 
ATOM     38  C   UNL A   1      43.082  28.405  33.463  1.00  0.00     0.037 A 
BRANCH  25  39
ATOM     39  C   UNL A   1      39.330  32.400  36.367  1.00  0.00     0.057 A 
ATOM     40  C   UNL A   1      38.355  31.973  37.277  1.00  0.00     0.134 A 
ATOM     41  C   UNL A   1      39.951  33.631  36.615  1.00  0.00     0.134 A 
ATOM     42  F   UNL A   1      37.702  30.818  37.082  1.00  0.00    -0.206 F 
ATOM     43  C   UNL A   1      37.983  32.760  38.371  1.00  0.00     0.040 A 
ATOM     44  C   UNL A   1      39.606  34.414  37.717  1.00  0.00     0.040 A 
ATOM     45  F   UNL A   1      40.889  34.101  35.780  1.00  0.00    -0.206 F 
ATOM     46  C   UNL A   1      38.611  33.985  38.592  1.00  0.00     0.006 A 
ENDBRANCH  25  39
BRANCH  26  47
ATOM     47  C   UNL A   1      41.129  27.438  27.803  1.00  0.00     0.057 A 
ATOM     48  C   UNL A   1      40.580  26.168  27.598  1.00  0.00     0.134 A 
ATOM     49  C   UNL A   1      41.939  27.959  26.785  1.00  0.00     0.134 A 
ATOM     50  F   UNL A   1      39.813  25.604  28.543  1.00  0.00    -0.206 F 
ATOM     51  C   UNL A   1      40.835  25.439  26.435  1.00  0.00     0.040 A 
ATOM     52  C   UNL A   1      42.180  27.253  25.605  1.00  0.00     0.040 A 
ATOM     53  F   UNL A   1      42.499  29.171  26.916  1.00  0.00    -0.206 F 
ATOM     54  C   UNL A   1      41.633  25.983  25.431  1.00  0.00     0.006 A 
ENDBRANCH  26  47
BRANCH  38  55
ATOM     55  C   UNL A   1      44.293  27.704  33.999  1.00  0.00     0.057 A 
ATOM     56  C   UNL A   1      44.208  26.445  34.606  1.00  0.00     0.134 A 
ATOM     57  C   UNL A   1      45.561  28.285  33.875  1.00  0.00     0.134 A 
ATOM     58  F   UNL A   1      43.019  25.846  34.769  1.00  0.00    -0.206 F 
ATOM     59  C   UNL A   1      45.345  25.796  35.090  1.00  0.00     0.040 A 
ATOM     60  C   UNL A   1      46.706  27.634  34.332  1.00  0.00     0.040 A 
ATOM     61  F   UNL A   1      45.705  29.487  33.297  1.00  0.00    -0.206 F 
ATOM     62  C   UNL A   1      46.598  26.388  34.946  1.00  0.00     0.006 A 
ENDBRANCH  38  55
ENDBRANCH  12  13
ENDBRANCH   5   7
ENDBRANCH   4   5
ENDBRANCH   3   4
ENDBRANCH   2   3
ENDBRANCH   1   2
BRANCH   1  63
ATOM     63  C   UNL A   1      33.098  29.631  27.253  1.00  0.00     0.202 C 
BRANCH  63  64
ATOM     64  C   UNL A   1      34.298  28.915  26.637  1.00  0.00     0.261 C 
BRANCH  64  65
ATOM     65  O   UNL A   1      33.808  27.873  25.780  1.00  0.00    -0.460 OA
BRANCH  65  66
ATOM     66  C   UNL A   1      33.224  28.278  24.621  1.00  0.00     0.342 C 
ATOM     67  O   UNL A   1      33.725  28.943  23.733  1.00  0.00    -0.246 OA
BRANCH  66  68
ATOM     68  C   UNL A   1      31.926  27.575  24.477  1.00  0.00     0.103 A 
ATOM     69  C   UNL A   1      31.583  26.630  25.470  1.00  0.00     0.045 A 
ATOM     70  C   UNL A   1      31.037  27.862  23.438  1.00  0.00     0.130 A 
ATOM     71  C   UNL A   1      30.340  26.001  25.439  1.00  0.00     0.042 A 
ATOM     72  C   UNL A   1      29.801  27.230  23.395  1.00  0.00     0.049 A 
ATOM     73  C   UNL A   1      29.461  26.308  24.388  1.00  0.00     0.030 A 
BRANCH  70  74
ATOM     74  O   UNL A   1      31.376  28.736  22.444  1.00  0.00    -0.507 OA
ATOM     75  H   UNL A   1      32.264  29.020  22.353  1.00  0.00     0.293 HD
ENDBRANCH  70  74
BRANCH  71  76
ATOM     76  N   UNL A   1      29.888  25.025  26.345  1.00  0.00    -0.322 N 
ATOM     77  C   UNL A   1      30.301  23.765  26.694  1.00  0.00     0.258 C 
ATOM     78  H   UNL A   1      29.090  25.314  26.844  1.00  0.00     0.170 HD
ATOM     79  O   UNL A   1      29.570  23.055  27.384  1.00  0.00    -0.269 OA
BRANCH  77  80
ATOM     80  C   UNL A   1      31.617  23.236  26.362  1.00  0.00     0.077 A 
ATOM     81  C   UNL A   1      32.607  23.180  27.345  1.00  0.00     0.018 A 
ATOM     82  C   UNL A   1      31.979  22.968  25.052  1.00  0.00     0.141 A 
ATOM     83  C   UNL A   1      33.899  22.805  26.985  1.00  0.00     0.021 A 
ATOM     84  N   UNL A   1      33.223  22.580  24.677  1.00  0.00    -0.244 NA
ATOM     85  Cl  UNL A   1      30.892  23.093  23.723  1.00  0.00    -0.061 Cl
ATOM     86  C   UNL A   1      34.156  22.515  25.653  1.00  0.00     0.113 A 
ENDBRANCH  77  80
ENDBRANCH  71  76
ENDBRANCH  66  68
ENDBRANCH  65  66
ENDBRANCH  64  65
ENDBRANCH  63  64
ENDBRANCH   1  63
TORSDOF 17
ENDMDL
