MODEL 1
REMARK VINA RESULT:      -9.8      0.000      0.000
REMARK SMILES CCCC[C@H](C(=O)OCCOCCOC(=O)c1ccc(-c2c3nc(c(-c4c(F)cccc4F)c4ccc([nH]4)c(-c4c(F)cccc4F)c4nc(c(-c5c(F)cccc5F)c5ccc2[nH]5)C=C4)C=C3)cc1)[C@H](O)c1ccc(C(F)(F)F)cc1
REMARK SMILES IDX 10 1 9 2 8 3 6 4 7 5 5 6 4 7 3 8 2 9 1 10 71 11 73 12 74 13
REMARK SMILES IDX 82 14 75 15 81 16 76 17 77 18 78 19 79 20 80 21 72 22 11 24
REMARK SMILES IDX 12 25 13 26 14 27 15 28 16 29 17 30 18 31 70 32 19 33 69 34
REMARK SMILES IDX 20 35 21 36 22 37 63 38 23 39 68 40 62 41 64 42 24 43 67 44
REMARK SMILES IDX 61 45 60 46 25 48 51 49 34 50 50 51 35 52 38 53 49 54 65 55
REMARK SMILES IDX 36 56 37 57 48 59 66 60 39 61 26 62 27 63 32 64 28 65 29 66
REMARK SMILES IDX 31 67 33 68 30 69 52 70 53 71 58 72 54 73 55 74 57 75 59 76
REMARK SMILES IDX 56 77 40 78 41 79 46 80 42 81 43 82 45 83 47 84 44 85
REMARK H PARENT 72 23 64 47 38 58
REMARK Flexibility Score: inf
ROOT
ATOM      1  C   UNL A   1      36.998  23.330  24.775  1.00  0.00     0.202 C 
ENDROOT
BRANCH   1   2
ATOM      2  C   UNL A   1      35.982  23.853  25.794  1.00  0.00     0.261 C 
BRANCH   2   3
ATOM      3  O   UNL A   1      35.007  24.762  25.243  1.00  0.00    -0.463 OA
BRANCH   3   4
ATOM      4  C   UNL A   1      33.763  24.686  25.797  1.00  0.00     0.312 C 
ATOM      5  O   UNL A   1      33.377  23.764  26.506  1.00  0.00    -0.252 OA
BRANCH   4   6
ATOM      6  C   UNL A   1      32.906  25.888  25.432  1.00  0.00     0.132 C 
BRANCH   6   7
ATOM      7  C   UNL A   1      33.785  27.154  25.580  1.00  0.00     0.018 C 
BRANCH   7   8
ATOM      8  C   UNL A   1      33.235  28.239  26.521  1.00  0.00     0.001 C 
BRANCH   8   9
ATOM      9  C   UNL A   1      31.778  28.670  26.351  1.00  0.00    -0.003 C 
ATOM     10  C   UNL A   1      31.596  29.977  25.597  1.00  0.00     0.004 C 
ENDBRANCH   8   9
ENDBRANCH   7   8
ENDBRANCH   6   7
BRANCH   6  11
ATOM     11  C   UNL A   1      32.377  25.609  23.997  1.00  0.00     0.158 C 
BRANCH  11  12
ATOM     12  C   UNL A   1      31.154  26.443  23.618  1.00  0.00    -0.019 A 
ATOM     13  C   UNL A   1      31.305  27.531  22.746  1.00  0.00     0.007 A 
ATOM     14  C   UNL A   1      29.883  26.216  24.168  1.00  0.00     0.007 A 
ATOM     15  C   UNL A   1      30.245  28.404  22.482  1.00  0.00     0.013 A 
ATOM     16  C   UNL A   1      28.817  27.085  23.902  1.00  0.00     0.013 A 
ATOM     17  C   UNL A   1      28.990  28.196  23.066  1.00  0.00     0.056 A 
BRANCH  17  18
ATOM     18  C   UNL A   1      27.873  29.183  22.831  1.00  0.00     0.416 C 
ATOM     19  F   UNL A   1      27.989  30.288  23.619  1.00  0.00    -0.166 F 
ATOM     20  F   UNL A   1      27.837  29.642  21.548  1.00  0.00    -0.166 F 
ATOM     21  F   UNL A   1      26.635  28.674  23.080  1.00  0.00    -0.166 F 
ENDBRANCH  17  18
ENDBRANCH  11  12
BRANCH  11  22
ATOM     22  O   UNL A   1      33.400  25.756  23.011  1.00  0.00    -0.388 OA
ATOM     23  H   UNL A   1      33.322  26.626  22.590  1.00  0.00     0.211 HD
ENDBRANCH  11  22
ENDBRANCH   6  11
ENDBRANCH   4   6
ENDBRANCH   3   4
ENDBRANCH   2   3
ENDBRANCH   1   2
BRANCH   1  24
ATOM     24  O   UNL A   1      37.797  22.227  25.199  1.00  0.00    -0.374 OA
BRANCH  24  25
ATOM     25  C   UNL A   1      37.507  20.947  24.638  1.00  0.00     0.202 C 
BRANCH  25  26
ATOM     26  C   UNL A   1      38.398  19.812  25.149  1.00  0.00     0.261 C 
BRANCH  26  27
ATOM     27  O   UNL A   1      39.190  20.284  26.250  1.00  0.00    -0.460 OA
BRANCH  27  28
ATOM     28  C   UNL A   1      40.497  19.955  26.176  1.00  0.00     0.338 C 
ATOM     29  O   UNL A   1      40.981  18.945  25.705  1.00  0.00    -0.246 OA
BRANCH  28  30
ATOM     30  C   UNL A   1      41.282  21.099  26.664  1.00  0.00     0.060 A 
ATOM     31  C   UNL A   1      41.236  21.402  28.029  1.00  0.00     0.016 A 
ATOM     32  C   UNL A   1      41.964  21.924  25.770  1.00  0.00     0.016 A 
ATOM     33  C   UNL A   1      41.820  22.580  28.493  1.00  0.00     0.010 A 
ATOM     34  C   UNL A   1      42.566  23.096  26.242  1.00  0.00     0.010 A 
ATOM     35  C   UNL A   1      42.454  23.455  27.597  1.00  0.00    -0.014 A 
BRANCH  35  36
ATOM     36  C   UNL A   1      42.862  24.803  28.063  1.00  0.00     0.031 A 
ATOM     37  C   UNL A   1      41.813  25.864  28.265  1.00  0.00     0.074 A 
ATOM     38  C   UNL A   1      44.147  25.074  28.352  1.00  0.00     0.049 A 
ATOM     39  N   UNL A   1      41.940  27.074  28.747  1.00  0.00    -0.248 NA
ATOM     40  C   UNL A   1      40.438  25.514  27.872  1.00  0.00     0.031 C 
ATOM     41  C   UNL A   1      45.263  24.143  28.200  1.00  0.00     0.029 A 
ATOM     42  N   UNL A   1      44.725  26.218  28.843  1.00  0.00    -0.354 N 
ATOM     43  C   UNL A   1      40.665  27.626  28.723  1.00  0.00     0.074 A 
ATOM     44  C   UNL A   1      39.786  26.636  28.141  1.00  0.00     0.031 C 
ATOM     45  C   UNL A   1      46.394  24.752  28.595  1.00  0.00     0.029 A 
ATOM     46  C   UNL A   1      46.082  26.116  29.020  1.00  0.00     0.049 A 
ATOM     47  H   UNL A   1      44.215  27.035  29.048  1.00  0.00     0.167 HD
ATOM     48  C   UNL A   1      40.258  28.841  29.162  1.00  0.00     0.037 A 
ATOM     49  C   UNL A   1      46.972  27.019  29.475  1.00  0.00     0.037 A 
ATOM     50  C   UNL A   1      41.122  29.833  29.744  1.00  0.00     0.049 A 
ATOM     51  C   UNL A   1      46.501  28.375  29.925  1.00  0.00     0.074 A 
ATOM     52  C   UNL A   1      40.787  31.074  30.260  1.00  0.00     0.029 A 
ATOM     53  N   UNL A   1      42.494  29.701  29.879  1.00  0.00    -0.354 N 
ATOM     54  N   UNL A   1      45.284  28.858  29.960  1.00  0.00    -0.248 NA
ATOM     55  C   UNL A   1      47.531  29.307  30.410  1.00  0.00     0.031 C 
ATOM     56  C   UNL A   1      41.964  31.710  30.670  1.00  0.00     0.029 A 
ATOM     57  C   UNL A   1      43.025  30.850  30.443  1.00  0.00     0.049 A 
ATOM     58  H   UNL A   1      43.014  28.910  29.611  1.00  0.00     0.167 HD
ATOM     59  C   UNL A   1      45.397  30.140  30.486  1.00  0.00     0.074 A 
ATOM     60  C   UNL A   1      46.801  30.353  30.770  1.00  0.00     0.031 C 
ATOM     61  C   UNL A   1      44.424  31.055  30.715  1.00  0.00     0.037 A 
BRANCH  48  62
ATOM     62  C   UNL A   1      38.801  29.165  29.024  1.00  0.00     0.057 A 
ATOM     63  C   UNL A   1      38.249  29.563  27.800  1.00  0.00     0.134 A 
ATOM     64  C   UNL A   1      37.935  29.049  30.119  1.00  0.00     0.134 A 
ATOM     65  F   UNL A   1      39.030  29.706  26.718  1.00  0.00    -0.206 F 
ATOM     66  C   UNL A   1      36.889  29.852  27.673  1.00  0.00     0.040 A 
ATOM     67  C   UNL A   1      36.571  29.316  29.999  1.00  0.00     0.040 A 
ATOM     68  F   UNL A   1      38.401  28.669  31.318  1.00  0.00    -0.206 F 
ATOM     69  C   UNL A   1      36.045  29.723  28.775  1.00  0.00     0.006 A 
ENDBRANCH  48  62
BRANCH  49  70
ATOM     70  C   UNL A   1      48.409  26.663  29.548  1.00  0.00     0.057 A 
ATOM     71  C   UNL A   1      49.289  26.982  28.508  1.00  0.00     0.134 A 
ATOM     72  C   UNL A   1      48.933  25.985  30.655  1.00  0.00     0.134 A 
ATOM     73  F   UNL A   1      48.837  27.612  27.413  1.00  0.00    -0.206 F 
ATOM     74  C   UNL A   1      50.638  26.631  28.560  1.00  0.00     0.040 A 
ATOM     75  C   UNL A   1      50.284  25.644  30.728  1.00  0.00     0.040 A 
ATOM     76  F   UNL A   1      48.139  25.651  31.682  1.00  0.00    -0.206 F 
ATOM     77  C   UNL A   1      51.140  25.963  29.676  1.00  0.00     0.006 A 
ENDBRANCH  49  70
BRANCH  61  78
ATOM     78  C   UNL A   1      44.843  32.366  31.311  1.00  0.00     0.057 A 
ATOM     79  C   UNL A   1      44.898  32.559  32.697  1.00  0.00     0.134 A 
ATOM     80  C   UNL A   1      45.224  33.436  30.491  1.00  0.00     0.134 A 
ATOM     81  F   UNL A   1      44.535  31.578  33.534  1.00  0.00    -0.206 F 
ATOM     82  C   UNL A   1      45.296  33.780  33.247  1.00  0.00     0.040 A 
ATOM     83  C   UNL A   1      45.642  34.654  31.030  1.00  0.00     0.040 A 
ATOM     84  F   UNL A   1      45.200  33.314  29.156  1.00  0.00    -0.206 F 
ATOM     85  C   UNL A   1      45.674  34.829  32.412  1.00  0.00     0.006 A 
ENDBRANCH  61  78
ENDBRANCH  35  36
ENDBRANCH  28  30
ENDBRANCH  27  28
ENDBRANCH  26  27
ENDBRANCH  25  26
ENDBRANCH  24  25
ENDBRANCH   1  24
TORSDOF 21
ENDMDL
MODEL 2
REMARK VINA RESULT:      -9.7      0.767      6.212
REMARK SMILES CCCC[C@H](C(=O)OCCOCCOC(=O)c1ccc(-c2c3nc(c(-c4c(F)cccc4F)c4ccc([nH]4)c(-c4c(F)cccc4F)c4nc(c(-c5c(F)cccc5F)c5ccc2[nH]5)C=C4)C=C3)cc1)[C@H](O)c1ccc(C(F)(F)F)cc1
REMARK SMILES IDX 10 1 9 2 8 3 6 4 7 5 5 6 4 7 3 8 2 9 1 10 71 11 73 12 74 13
REMARK SMILES IDX 82 14 75 15 81 16 76 17 77 18 78 19 79 20 80 21 72 22 11 24
REMARK SMILES IDX 12 25 13 26 14 27 15 28 16 29 17 30 18 31 70 32 19 33 69 34
REMARK SMILES IDX 20 35 21 36 22 37 63 38 23 39 68 40 62 41 64 42 24 43 67 44
REMARK SMILES IDX 61 45 60 46 25 48 51 49 34 50 50 51 35 52 38 53 49 54 65 55
REMARK SMILES IDX 36 56 37 57 48 59 66 60 39 61 26 62 27 63 32 64 28 65 29 66
REMARK SMILES IDX 31 67 33 68 30 69 52 70 53 71 58 72 54 73 55 74 57 75 59 76
REMARK SMILES IDX 56 77 40 78 41 79 46 80 42 81 43 82 45 83 47 84 44 85
REMARK H PARENT 72 23 64 47 38 58
REMARK Flexibility Score: inf
ROOT
ATOM      1  C   UNL A   1      37.440  22.509  24.561  1.00  0.00     0.202 C 
ENDROOT
BRANCH   1   2
ATOM      2  C   UNL A   1      35.913  22.598  24.628  1.00  0.00     0.261 C 
BRANCH   2   3
ATOM      3  O   UNL A   1      35.388  23.920  24.392  1.00  0.00    -0.463 OA
BRANCH   3   4
ATOM      4  C   UNL A   1      34.391  23.992  23.463  1.00  0.00     0.312 C 
ATOM      5  O   UNL A   1      34.370  23.349  22.421  1.00  0.00    -0.252 OA
BRANCH   4   6
ATOM      6  C   UNL A   1      33.302  24.970  23.876  1.00  0.00     0.132 C 
BRANCH   6   7
ATOM      7  C   UNL A   1      33.924  25.969  24.882  1.00  0.00     0.018 C 
BRANCH   7   8
ATOM      8  C   UNL A   1      33.030  26.359  26.072  1.00  0.00     0.001 C 
BRANCH   8   9
ATOM      9  C   UNL A   1      32.695  27.838  26.268  1.00  0.00    -0.003 C 
ATOM     10  C   UNL A   1      33.570  28.788  25.468  1.00  0.00     0.004 C 
ENDBRANCH   8   9
ENDBRANCH   7   8
ENDBRANCH   6   7
BRANCH   6  11
ATOM     11  C   UNL A   1      32.774  25.598  22.556  1.00  0.00     0.158 C 
BRANCH  11  12
ATOM     12  C   UNL A   1      31.650  26.613  22.762  1.00  0.00    -0.019 A 
ATOM     13  C   UNL A   1      30.454  26.203  23.370  1.00  0.00     0.007 A 
ATOM     14  C   UNL A   1      31.728  27.934  22.296  1.00  0.00     0.007 A 
ATOM     15  C   UNL A   1      29.351  27.057  23.452  1.00  0.00     0.013 A 
ATOM     16  C   UNL A   1      30.627  28.795  22.382  1.00  0.00     0.013 A 
ATOM     17  C   UNL A   1      29.422  28.361  22.949  1.00  0.00     0.056 A 
BRANCH  17  18
ATOM     18  C   UNL A   1      28.203  29.251  22.979  1.00  0.00     0.416 C 
ATOM     19  F   UNL A   1      27.839  29.667  21.735  1.00  0.00    -0.166 F 
ATOM     20  F   UNL A   1      27.108  28.627  23.499  1.00  0.00    -0.166 F 
ATOM     21  F   UNL A   1      28.372  30.382  23.718  1.00  0.00    -0.166 F 
ENDBRANCH  17  18
ENDBRANCH  11  12
BRANCH  11  22
ATOM     22  O   UNL A   1      33.825  26.174  21.779  1.00  0.00    -0.388 OA
ATOM     23  H   UNL A   1      33.746  27.140  21.793  1.00  0.00     0.211 HD
ENDBRANCH  11  22
ENDBRANCH   6  11
ENDBRANCH   4   6
ENDBRANCH   3   4
ENDBRANCH   2   3
ENDBRANCH   1   2
BRANCH   1  24
ATOM     24  O   UNL A   1      38.044  21.506  25.376  1.00  0.00    -0.374 OA
BRANCH  24  25
ATOM     25  C   UNL A   1      37.877  20.145  24.978  1.00  0.00     0.202 C 
BRANCH  25  26
ATOM     26  C   UNL A   1      39.052  19.231  25.335  1.00  0.00     0.261 C 
BRANCH  26  27
ATOM     27  O   UNL A   1      39.859  19.859  26.343  1.00  0.00    -0.460 OA
BRANCH  27  28
ATOM     28  C   UNL A   1      41.189  19.753  26.137  1.00  0.00     0.338 C 
ATOM     29  O   UNL A   1      41.780  18.858  25.566  1.00  0.00    -0.246 OA
BRANCH  28  30
ATOM     30  C   UNL A   1      41.824  20.988  26.622  1.00  0.00     0.060 A 
ATOM     31  C   UNL A   1      41.969  21.161  28.002  1.00  0.00     0.016 A 
ATOM     32  C   UNL A   1      42.168  22.005  25.732  1.00  0.00     0.016 A 
ATOM     33  C   UNL A   1      42.400  22.390  28.500  1.00  0.00     0.010 A 
ATOM     34  C   UNL A   1      42.619  23.230  26.234  1.00  0.00     0.010 A 
ATOM     35  C   UNL A   1      42.689  23.446  27.621  1.00  0.00    -0.014 A 
BRANCH  35  36
ATOM     36  C   UNL A   1      42.919  24.806  28.170  1.00  0.00     0.031 A 
ATOM     37  C   UNL A   1      44.321  25.242  28.499  1.00  0.00     0.074 A 
ATOM     38  C   UNL A   1      41.898  25.667  28.330  1.00  0.00     0.049 A 
ATOM     39  N   UNL A   1      44.753  26.410  28.904  1.00  0.00    -0.248 NA
ATOM     40  C   UNL A   1      45.379  24.228  28.355  1.00  0.00     0.031 C 
ATOM     41  C   UNL A   1      40.494  25.374  28.054  1.00  0.00     0.029 A 
ATOM     42  N   UNL A   1      41.895  26.969  28.763  1.00  0.00    -0.354 N 
ATOM     43  C   UNL A   1      46.127  26.275  29.054  1.00  0.00     0.074 A 
ATOM     44  C   UNL A   1      46.453  24.901  28.737  1.00  0.00     0.031 C 
ATOM     45  C   UNL A   1      39.761  26.470  28.319  1.00  0.00     0.029 A 
ATOM     46  C   UNL A   1      40.645  27.536  28.790  1.00  0.00     0.049 A 
ATOM     47  H   UNL A   1      42.710  27.452  29.028  1.00  0.00     0.167 HD
ATOM     48  C   UNL A   1      47.039  27.212  29.404  1.00  0.00     0.037 A 
ATOM     49  C   UNL A   1      40.257  28.775  29.150  1.00  0.00     0.037 A 
ATOM     50  C   UNL A   1      46.727  28.580  29.719  1.00  0.00     0.049 A 
ATOM     51  C   UNL A   1      41.286  29.789  29.570  1.00  0.00     0.074 A 
ATOM     52  C   UNL A   1      47.593  29.612  30.040  1.00  0.00     0.029 A 
ATOM     53  N   UNL A   1      45.447  29.106  29.763  1.00  0.00    -0.354 N 
ATOM     54  N   UNL A   1      42.588  29.667  29.641  1.00  0.00    -0.248 NA
ATOM     55  C   UNL A   1      40.786  31.121  29.949  1.00  0.00     0.031 C 
ATOM     56  C   UNL A   1      46.833  30.753  30.318  1.00  0.00     0.029 A 
ATOM     57  C   UNL A   1      45.497  30.441  30.133  1.00  0.00     0.049 A 
ATOM     58  H   UNL A   1      44.623  28.606  29.562  1.00  0.00     0.167 HD
ATOM     59  C   UNL A   1      43.066  30.905  30.054  1.00  0.00     0.074 A 
ATOM     60  C   UNL A   1      41.914  31.770  30.202  1.00  0.00     0.031 C 
ATOM     61  C   UNL A   1      44.344  31.291  30.285  1.00  0.00     0.037 A 
BRANCH  48  62
ATOM     62  C   UNL A   1      48.473  26.781  29.469  1.00  0.00     0.057 A 
ATOM     63  C   UNL A   1      49.322  26.878  28.358  1.00  0.00     0.134 A 
ATOM     64  C   UNL A   1      49.021  26.293  30.663  1.00  0.00     0.134 A 
ATOM     65  F   UNL A   1      48.852  27.325  27.183  1.00  0.00    -0.206 F 
ATOM     66  C   UNL A   1      50.660  26.487  28.426  1.00  0.00     0.040 A 
ATOM     67  C   UNL A   1      50.362  25.918  30.748  1.00  0.00     0.040 A 
ATOM     68  F   UNL A   1      48.262  26.180  31.763  1.00  0.00    -0.206 F 
ATOM     69  C   UNL A   1      51.184  26.010  29.627  1.00  0.00     0.006 A 
ENDBRANCH  48  62
BRANCH  49  70
ATOM     70  C   UNL A   1      38.820  29.136  29.112  1.00  0.00     0.057 A 
ATOM     71  C   UNL A   1      38.018  29.038  30.254  1.00  0.00     0.134 A 
ATOM     72  C   UNL A   1      38.214  29.576  27.929  1.00  0.00     0.134 A 
ATOM     73  F   UNL A   1      38.540  28.600  31.409  1.00  0.00    -0.206 F 
ATOM     74  C   UNL A   1      36.659  29.355  30.220  1.00  0.00     0.040 A 
ATOM     75  C   UNL A   1      36.861  29.915  27.886  1.00  0.00     0.040 A 
ATOM     76  F   UNL A   1      38.932  29.690  26.803  1.00  0.00    -0.206 F 
ATOM     77  C   UNL A   1      36.079  29.799  29.033  1.00  0.00     0.006 A 
ENDBRANCH  49  70
BRANCH  61  78
ATOM     78  C   UNL A   1      44.565  32.711  30.713  1.00  0.00     0.057 A 
ATOM     79  C   UNL A   1      44.662  33.065  32.064  1.00  0.00     0.134 A 
ATOM     80  C   UNL A   1      44.712  33.730  29.764  1.00  0.00     0.134 A 
ATOM     81  F   UNL A   1      44.520  32.137  33.021  1.00  0.00    -0.206 F 
ATOM     82  C   UNL A   1      44.876  34.388  32.457  1.00  0.00     0.040 A 
ATOM     83  C   UNL A   1      44.945  35.053  30.144  1.00  0.00     0.040 A 
ATOM     84  F   UNL A   1      44.636  33.457  28.453  1.00  0.00    -0.206 F 
ATOM     85  C   UNL A   1      45.022  35.385  31.495  1.00  0.00     0.006 A 
ENDBRANCH  61  78
ENDBRANCH  35  36
ENDBRANCH  28  30
ENDBRANCH  27  28
ENDBRANCH  26  27
ENDBRANCH  25  26
ENDBRANCH  24  25
ENDBRANCH   1  24
TORSDOF 21
ENDMDL
MODEL 3
REMARK VINA RESULT:      -9.6      4.578      7.798
REMARK SMILES CCCC[C@H](C(=O)OCCOCCOC(=O)c1ccc(-c2c3nc(c(-c4c(F)cccc4F)c4ccc([nH]4)c(-c4c(F)cccc4F)c4nc(c(-c5c(F)cccc5F)c5ccc2[nH]5)C=C4)C=C3)cc1)[C@H](O)c1ccc(C(F)(F)F)cc1
REMARK SMILES IDX 10 1 9 2 8 3 6 4 7 5 5 6 4 7 3 8 2 9 1 10 71 11 73 12 74 13
REMARK SMILES IDX 82 14 75 15 81 16 76 17 77 18 78 19 79 20 80 21 72 22 11 24
REMARK SMILES IDX 12 25 13 26 14 27 15 28 16 29 17 30 18 31 70 32 19 33 69 34
REMARK SMILES IDX 20 35 21 36 22 37 63 38 23 39 68 40 62 41 64 42 24 43 67 44
REMARK SMILES IDX 61 45 60 46 25 48 51 49 34 50 50 51 35 52 38 53 49 54 65 55
REMARK SMILES IDX 36 56 37 57 48 59 66 60 39 61 26 62 27 63 32 64 28 65 29 66
REMARK SMILES IDX 31 67 33 68 30 69 52 70 53 71 58 72 54 73 55 74 57 75 59 76
REMARK SMILES IDX 56 77 40 78 41 79 46 80 42 81 43 82 45 83 47 84 44 85
REMARK H PARENT 72 23 64 47 38 58
REMARK Flexibility Score: inf
ROOT
ATOM      1  C   UNL A   1      33.520  27.588  25.770  1.00  0.00     0.202 C 
ENDROOT
BRANCH   1   2
ATOM      2  C   UNL A   1      33.898  26.540  24.720  1.00  0.00     0.261 C 
BRANCH   2   3
ATOM      3  O   UNL A   1      33.844  27.020  23.360  1.00  0.00    -0.463 OA
BRANCH   3   4
ATOM      4  C   UNL A   1      33.436  26.103  22.436  1.00  0.00     0.312 C 
ATOM      5  O   UNL A   1      33.556  26.242  21.225  1.00  0.00    -0.252 OA
BRANCH   4   6
ATOM      6  C   UNL A   1      32.813  24.879  23.090  1.00  0.00     0.132 C 
BRANCH   6   7
ATOM      7  C   UNL A   1      31.278  24.988  22.923  1.00  0.00     0.018 C 
BRANCH   7   8
ATOM      8  C   UNL A   1      30.528  25.660  24.085  1.00  0.00     0.001 C 
BRANCH   8   9
ATOM      9  C   UNL A   1      29.605  26.836  23.764  1.00  0.00    -0.003 C 
ATOM     10  C   UNL A   1      30.185  27.833  22.774  1.00  0.00     0.004 C 
ENDBRANCH   8   9
ENDBRANCH   7   8
ENDBRANCH   6   7
BRANCH   6  11
ATOM     11  C   UNL A   1      33.473  23.651  22.403  1.00  0.00     0.158 C 
BRANCH  11  12
ATOM     12  C   UNL A   1      33.225  22.330  23.132  1.00  0.00    -0.019 A 
ATOM     13  C   UNL A   1      34.035  21.982  24.223  1.00  0.00     0.007 A 
ATOM     14  C   UNL A   1      32.262  21.401  22.708  1.00  0.00     0.007 A 
ATOM     15  C   UNL A   1      33.937  20.727  24.830  1.00  0.00     0.013 A 
ATOM     16  C   UNL A   1      32.158  20.144  23.318  1.00  0.00     0.013 A 
ATOM     17  C   UNL A   1      33.003  19.789  24.376  1.00  0.00     0.056 A 
BRANCH  17  18
ATOM     18  C   UNL A   1      32.955  18.412  24.992  1.00  0.00     0.416 C 
ATOM     19  F   UNL A   1      32.671  18.452  26.323  1.00  0.00    -0.166 F 
ATOM     20  F   UNL A   1      32.000  17.617  24.431  1.00  0.00    -0.166 F 
ATOM     21  F   UNL A   1      34.125  17.724  24.879  1.00  0.00    -0.166 F 
ENDBRANCH  17  18
ENDBRANCH  11  12
BRANCH  11  22
ATOM     22  O   UNL A   1      33.093  23.537  21.031  1.00  0.00    -0.388 OA
ATOM     23  H   UNL A   1      32.662  22.681  20.884  1.00  0.00     0.211 HD
ENDBRANCH  11  22
ENDBRANCH   6  11
ENDBRANCH   4   6
ENDBRANCH   3   4
ENDBRANCH   2   3
ENDBRANCH   1   2
BRANCH   1  24
ATOM     24  O   UNL A   1      32.887  28.767  25.274  1.00  0.00    -0.374 OA
BRANCH  24  25
ATOM     25  C   UNL A   1      31.775  29.277  26.010  1.00  0.00     0.202 C 
BRANCH  25  26
ATOM     26  C   UNL A   1      32.137  30.325  27.065  1.00  0.00     0.261 C 
BRANCH  26  27
ATOM     27  O   UNL A   1      33.206  31.149  26.575  1.00  0.00    -0.460 OA
BRANCH  27  28
ATOM     28  C   UNL A   1      33.705  32.012  27.484  1.00  0.00     0.338 C 
ATOM     29  O   UNL A   1      33.145  32.969  27.982  1.00  0.00    -0.246 OA
BRANCH  28  30
ATOM     30  C   UNL A   1      35.037  31.533  27.883  1.00  0.00     0.060 A 
ATOM     31  C   UNL A   1      35.207  30.165  28.121  1.00  0.00     0.016 A 
ATOM     32  C   UNL A   1      36.072  32.436  28.127  1.00  0.00     0.016 A 
ATOM     33  C   UNL A   1      36.403  29.705  28.672  1.00  0.00     0.010 A 
ATOM     34  C   UNL A   1      37.277  31.969  28.661  1.00  0.00     0.010 A 
ATOM     35  C   UNL A   1      37.431  30.609  28.983  1.00  0.00    -0.014 A 
BRANCH  35  36
ATOM     36  C   UNL A   1      38.594  30.141  29.777  1.00  0.00     0.031 A 
ATOM     37  C   UNL A   1      38.750  30.603  31.201  1.00  0.00     0.074 A 
ATOM     38  C   UNL A   1      39.481  29.274  29.256  1.00  0.00     0.049 A 
ATOM     39  N   UNL A   1      39.639  30.248  32.095  1.00  0.00    -0.248 NA
ATOM     40  C   UNL A   1      37.776  31.595  31.683  1.00  0.00     0.031 C 
ATOM     41  C   UNL A   1      39.451  28.750  27.893  1.00  0.00     0.029 A 
ATOM     42  N   UNL A   1      40.580  28.680  29.825  1.00  0.00    -0.354 N 
ATOM     43  C   UNL A   1      39.328  30.966  33.243  1.00  0.00     0.074 A 
ATOM     44  C   UNL A   1      38.194  31.806  32.922  1.00  0.00     0.031 C 
ATOM     45  C   UNL A   1      40.484  27.904  27.730  1.00  0.00     0.029 A 
ATOM     46  C   UNL A   1      41.249  27.836  28.974  1.00  0.00     0.049 A 
ATOM     47  H   UNL A   1      40.862  28.843  30.753  1.00  0.00     0.167 HD
ATOM     48  C   UNL A   1      39.918  30.917  34.461  1.00  0.00     0.037 A 
ATOM     49  C   UNL A   1      42.352  27.089  29.176  1.00  0.00     0.037 A 
ATOM     50  C   UNL A   1      41.043  30.084  34.792  1.00  0.00     0.049 A 
ATOM     51  C   UNL A   1      43.012  27.079  30.528  1.00  0.00     0.074 A 
ATOM     52  C   UNL A   1      41.678  29.936  36.014  1.00  0.00     0.029 A 
ATOM     53  N   UNL A   1      41.709  29.266  33.895  1.00  0.00    -0.354 N 
ATOM     54  N   UNL A   1      42.666  27.709  31.623  1.00  0.00    -0.248 NA
ATOM     55  C   UNL A   1      44.212  26.239  30.672  1.00  0.00     0.031 C 
ATOM     56  C   UNL A   1      42.754  29.058  35.846  1.00  0.00     0.029 A 
ATOM     57  C   UNL A   1      42.766  28.632  34.528  1.00  0.00     0.049 A 
ATOM     58  H   UNL A   1      41.468  29.154  32.947  1.00  0.00     0.167 HD
ATOM     59  C   UNL A   1      43.591  27.331  32.589  1.00  0.00     0.074 A 
ATOM     60  C   UNL A   1      44.504  26.403  31.955  1.00  0.00     0.031 C 
ATOM     61  C   UNL A   1      43.673  27.716  33.886  1.00  0.00     0.037 A 
BRANCH  48  62
ATOM     62  C   UNL A   1      39.353  31.801  35.531  1.00  0.00     0.057 A 
ATOM     63  C   UNL A   1      39.787  33.122  35.700  1.00  0.00     0.134 A 
ATOM     64  C   UNL A   1      38.342  31.336  36.382  1.00  0.00     0.134 A 
ATOM     65  F   UNL A   1      40.762  33.619  34.925  1.00  0.00    -0.206 F 
ATOM     66  C   UNL A   1      39.249  33.945  36.691  1.00  0.00     0.040 A 
ATOM     67  C   UNL A   1      37.782  32.157  37.362  1.00  0.00     0.040 A 
ATOM     68  F   UNL A   1      37.879  30.082  36.269  1.00  0.00    -0.206 F 
ATOM     69  C   UNL A   1      38.238  33.463  37.522  1.00  0.00     0.006 A 
ENDBRANCH  48  62
BRANCH  49  70
ATOM     70  C   UNL A   1      42.898  26.268  28.069  1.00  0.00     0.057 A 
ATOM     71  C   UNL A   1      42.494  24.942  27.882  1.00  0.00     0.134 A 
ATOM     72  C   UNL A   1      43.845  26.789  27.180  1.00  0.00     0.134 A 
ATOM     73  F   UNL A   1      41.606  24.384  28.718  1.00  0.00    -0.206 F 
ATOM     74  C   UNL A   1      43.020  24.157  26.855  1.00  0.00     0.040 A 
ATOM     75  C   UNL A   1      44.365  26.022  26.137  1.00  0.00     0.040 A 
ATOM     76  F   UNL A   1      44.271  28.054  27.309  1.00  0.00    -0.206 F 
ATOM     77  C   UNL A   1      43.956  24.700  25.976  1.00  0.00     0.006 A 
ENDBRANCH  49  70
BRANCH  61  78
ATOM     78  C   UNL A   1      44.781  27.127  34.708  1.00  0.00     0.057 A 
ATOM     79  C   UNL A   1      44.628  25.912  35.386  1.00  0.00     0.134 A 
ATOM     80  C   UNL A   1      46.024  27.768  34.797  1.00  0.00     0.134 A 
ATOM     81  F   UNL A   1      43.459  25.256  35.348  1.00  0.00    -0.206 F 
ATOM     82  C   UNL A   1      45.666  25.365  36.144  1.00  0.00     0.040 A 
ATOM     83  C   UNL A   1      47.075  27.220  35.535  1.00  0.00     0.040 A 
ATOM     84  F   UNL A   1      46.238  28.931  34.166  1.00  0.00    -0.206 F 
ATOM     85  C   UNL A   1      46.894  26.017  36.215  1.00  0.00     0.006 A 
ENDBRANCH  61  78
ENDBRANCH  35  36
ENDBRANCH  28  30
ENDBRANCH  27  28
ENDBRANCH  26  27
ENDBRANCH  25  26
ENDBRANCH  24  25
ENDBRANCH   1  24
TORSDOF 21
ENDMDL
