MODEL 1
REMARK VINA RESULT:     -10.0      0.000      0.000
REMARK SMILES CS(=O)(=O)c1cc(F)ccc1N1CCC[C@@H](C(=O)OCCOCCOC(=O)c2ccc(-c3c4nc(c(-c5c(F)cccc5F)c5ccc([nH]5)c(-c5c(F)cccc5F)c5nc(c(-c6c(F)cccc6F)c6ccc3[nH]6)C=C5)C=C4)cc2)C1
REMARK SMILES IDX 22 1 21 2 20 3 19 4 17 5 18 6 16 7 12 8 13 9 82 10 14 11
REMARK SMILES IDX 15 12 11 13 5 14 6 15 7 16 10 17 8 18 9 19 2 20 1 21 3 22
REMARK SMILES IDX 4 23 23 24 24 25 25 26 26 27 27 28 28 29 29 30 81 31 30 32
REMARK SMILES IDX 80 33 31 34 32 35 33 36 74 37 34 38 79 39 73 40 75 41 35 42
REMARK SMILES IDX 78 43 72 44 71 45 36 47 62 48 45 49 61 50 46 51 49 52 60 53
REMARK SMILES IDX 76 54 47 55 48 56 59 58 77 59 50 60 37 61 38 62 43 63 39 64
REMARK SMILES IDX 40 65 42 66 44 67 41 68 63 69 64 70 69 71 65 72 66 73 68 74
REMARK SMILES IDX 70 75 67 76 51 77 52 78 57 79 53 80 54 81 56 82 58 83 55 84
REMARK H PARENT 75 46 49 57
REMARK Flexibility Score: inf
ROOT
ATOM      1  O   UNL A   1      32.759  37.193  31.614  1.00  0.00    -0.374 OA
ENDROOT
BRANCH   1   2
ATOM      2  C   UNL A   1      33.167  36.432  32.747  1.00  0.00     0.202 C 
BRANCH   2   3
ATOM      3  C   UNL A   1      34.578  35.831  32.764  1.00  0.00     0.261 C 
BRANCH   3   4
ATOM      4  O   UNL A   1      35.060  35.485  34.074  1.00  0.00    -0.463 OA
BRANCH   4   5
ATOM      5  C   UNL A   1      35.232  34.146  34.242  1.00  0.00     0.310 C 
ATOM      6  O   UNL A   1      34.394  33.305  33.937  1.00  0.00    -0.252 OA
BRANCH   5   7
ATOM      7  C   UNL A   1      36.594  33.799  34.818  1.00  0.00     0.118 C 
ATOM      8  N   UNL A   1      37.419  32.850  36.971  1.00  0.00    -0.370 N 
ATOM      9  C   UNL A   1      38.068  31.706  36.329  1.00  0.00     0.116 C 
ATOM     10  C   UNL A   1      36.295  33.461  36.275  1.00  0.00     0.131 C 
ATOM     11  C   UNL A   1      38.426  32.037  34.882  1.00  0.00     0.022 C 
ATOM     12  C   UNL A   1      37.229  32.595  34.111  1.00  0.00     0.019 C 
BRANCH   8  13
ATOM     13  C   UNL A   1      37.950  33.465  38.085  1.00  0.00     0.056 A 
ATOM     14  C   UNL A   1      37.629  33.172  39.425  1.00  0.00     0.093 A 
ATOM     15  C   UNL A   1      38.166  33.948  40.476  1.00  0.00     0.061 A 
ATOM     16  C   UNL A   1      39.029  34.995  40.212  1.00  0.00     0.124 A 
ATOM     17  C   UNL A   1      38.853  34.535  37.868  1.00  0.00     0.030 A 
ATOM     18  F   UNL A   1      39.522  35.721  41.223  1.00  0.00    -0.207 F 
ATOM     19  C   UNL A   1      39.388  35.293  38.914  1.00  0.00     0.041 A 
BRANCH  14  20
ATOM     20  S   UNL A   1      36.637  31.820  40.036  1.00  0.00     0.177 S 
ATOM     21  C   UNL A   1      36.398  31.839  41.777  1.00  0.00     0.164 C 
ATOM     22  O   UNL A   1      37.381  30.614  39.715  1.00  0.00    -0.224 OA
ATOM     23  O   UNL A   1      35.315  32.032  39.465  1.00  0.00    -0.224 OA
ENDBRANCH  14  20
ENDBRANCH   8  13
ENDBRANCH   5   7
ENDBRANCH   4   5
ENDBRANCH   3   4
ENDBRANCH   2   3
ENDBRANCH   1   2
BRANCH   1  24
ATOM     24  C   UNL A   1      33.506  37.044  30.409  1.00  0.00     0.202 C 
BRANCH  24  25
ATOM     25  C   UNL A   1      32.835  36.331  29.231  1.00  0.00     0.261 C 
BRANCH  25  26
ATOM     26  O   UNL A   1      32.548  34.955  29.534  1.00  0.00    -0.460 OA
BRANCH  26  27
ATOM     27  C   UNL A   1      33.161  34.067  28.718  1.00  0.00     0.338 C 
ATOM     28  O   UNL A   1      32.795  33.707  27.606  1.00  0.00    -0.246 OA
BRANCH  27  29
ATOM     29  C   UNL A   1      34.485  33.712  29.256  1.00  0.00     0.060 A 
ATOM     30  C   UNL A   1      35.600  34.134  28.521  1.00  0.00     0.016 A 
ATOM     31  C   UNL A   1      34.642  32.938  30.408  1.00  0.00     0.016 A 
ATOM     32  C   UNL A   1      36.874  33.728  28.898  1.00  0.00     0.010 A 
ATOM     33  C   UNL A   1      35.925  32.521  30.780  1.00  0.00     0.010 A 
ATOM     34  C   UNL A   1      37.039  32.881  30.002  1.00  0.00    -0.014 A 
BRANCH  34  35
ATOM     35  C   UNL A   1      38.371  32.272  30.226  1.00  0.00     0.031 A 
ATOM     36  C   UNL A   1      39.328  32.939  31.174  1.00  0.00     0.074 A 
ATOM     37  C   UNL A   1      38.679  31.087  29.672  1.00  0.00     0.049 A 
ATOM     38  N   UNL A   1      40.498  32.530  31.593  1.00  0.00    -0.248 NA
ATOM     39  C   UNL A   1      38.910  34.236  31.730  1.00  0.00     0.031 C 
ATOM     40  C   UNL A   1      37.813  30.329  28.772  1.00  0.00     0.029 A 
ATOM     41  N   UNL A   1      39.796  30.305  29.807  1.00  0.00    -0.354 N 
ATOM     42  C   UNL A   1      40.948  33.508  32.469  1.00  0.00     0.074 A 
ATOM     43  C   UNL A   1      39.947  34.552  32.491  1.00  0.00     0.031 C 
ATOM     44  C   UNL A   1      38.425  29.179  28.446  1.00  0.00     0.029 A 
ATOM     45  C   UNL A   1      39.733  29.130  29.100  1.00  0.00     0.049 A 
ATOM     46  H   UNL A   1      40.571  30.561  30.358  1.00  0.00     0.167 HD
ATOM     47  C   UNL A   1      42.086  33.526  33.203  1.00  0.00     0.037 A 
ATOM     48  C   UNL A   1      40.627  28.129  28.993  1.00  0.00     0.037 A 
ATOM     49  C   UNL A   1      43.082  32.488  33.177  1.00  0.00     0.049 A 
ATOM     50  C   UNL A   1      41.916  28.205  29.763  1.00  0.00     0.074 A 
ATOM     51  C   UNL A   1      44.261  32.408  33.896  1.00  0.00     0.029 A 
ATOM     52  N   UNL A   1      43.016  31.351  32.387  1.00  0.00    -0.354 N 
ATOM     53  N   UNL A   1      42.323  29.127  30.603  1.00  0.00    -0.248 NA
ATOM     54  C   UNL A   1      42.870  27.103  29.573  1.00  0.00     0.031 C 
ATOM     55  C   UNL A   1      44.934  31.246  33.504  1.00  0.00     0.029 A 
ATOM     56  C   UNL A   1      44.151  30.578  32.577  1.00  0.00     0.049 A 
ATOM     57  H   UNL A   1      42.275  31.125  31.780  1.00  0.00     0.167 HD
ATOM     58  C   UNL A   1      43.573  28.713  31.047  1.00  0.00     0.074 A 
ATOM     59  C   UNL A   1      43.847  27.445  30.401  1.00  0.00     0.031 C 
ATOM     60  C   UNL A   1      44.418  29.328  31.910  1.00  0.00     0.037 A 
BRANCH  47  61
ATOM     61  C   UNL A   1      42.323  34.714  34.087  1.00  0.00     0.057 A 
ATOM     62  C   UNL A   1      42.944  35.865  33.588  1.00  0.00     0.134 A 
ATOM     63  C   UNL A   1      41.980  34.701  35.446  1.00  0.00     0.134 A 
ATOM     64  F   UNL A   1      43.299  35.941  32.297  1.00  0.00    -0.206 F 
ATOM     65  C   UNL A   1      43.226  36.957  34.411  1.00  0.00     0.040 A 
ATOM     66  C   UNL A   1      42.236  35.795  36.273  1.00  0.00     0.040 A 
ATOM     67  F   UNL A   1      41.369  33.634  35.983  1.00  0.00    -0.206 F 
ATOM     68  C   UNL A   1      42.869  36.924  35.758  1.00  0.00     0.006 A 
ENDBRANCH  47  61
BRANCH  48  69
ATOM     69  C   UNL A   1      40.318  26.962  28.130  1.00  0.00     0.057 A 
ATOM     70  C   UNL A   1      39.517  25.911  28.589  1.00  0.00     0.134 A 
ATOM     71  C   UNL A   1      40.840  26.861  26.835  1.00  0.00     0.134 A 
ATOM     72  F   UNL A   1      38.989  25.950  29.822  1.00  0.00    -0.206 F 
ATOM     73  C   UNL A   1      39.262  24.787  27.801  1.00  0.00     0.040 A 
ATOM     74  C   UNL A   1      40.576  25.753  26.028  1.00  0.00     0.040 A 
ATOM     75  F   UNL A   1      41.597  27.847  26.333  1.00  0.00    -0.206 F 
ATOM     76  C   UNL A   1      39.792  24.708  26.515  1.00  0.00     0.006 A 
ENDBRANCH  48  69
BRANCH  60  77
ATOM     77  C   UNL A   1      45.724  28.647  32.200  1.00  0.00     0.057 A 
ATOM     78  C   UNL A   1      45.839  27.732  33.254  1.00  0.00     0.134 A 
ATOM     79  C   UNL A   1      46.881  28.944  31.470  1.00  0.00     0.134 A 
ATOM     80  F   UNL A   1      44.770  27.414  34.000  1.00  0.00    -0.206 F 
ATOM     81  C   UNL A   1      47.061  27.140  33.575  1.00  0.00     0.040 A 
ATOM     82  C   UNL A   1      48.104  28.340  31.766  1.00  0.00     0.040 A 
ATOM     83  F   UNL A   1      46.835  29.806  30.443  1.00  0.00    -0.206 F 
ATOM     84  C   UNL A   1      48.198  27.441  32.827  1.00  0.00     0.006 A 
ENDBRANCH  60  77
ENDBRANCH  34  35
ENDBRANCH  27  29
ENDBRANCH  26  27
ENDBRANCH  25  26
ENDBRANCH  24  25
ENDBRANCH   1  24
TORSDOF 16
ENDMDL
MODEL 2
REMARK VINA RESULT:      -9.9      0.561      6.240
REMARK SMILES CS(=O)(=O)c1cc(F)ccc1N1CCC[C@@H](C(=O)OCCOCCOC(=O)c2ccc(-c3c4nc(c(-c5c(F)cccc5F)c5ccc([nH]5)c(-c5c(F)cccc5F)c5nc(c(-c6c(F)cccc6F)c6ccc3[nH]6)C=C5)C=C4)cc2)C1
REMARK SMILES IDX 22 1 21 2 20 3 19 4 17 5 18 6 16 7 12 8 13 9 82 10 14 11
REMARK SMILES IDX 15 12 11 13 5 14 6 15 7 16 10 17 8 18 9 19 2 20 1 21 3 22
REMARK SMILES IDX 4 23 23 24 24 25 25 26 26 27 27 28 28 29 29 30 81 31 30 32
REMARK SMILES IDX 80 33 31 34 32 35 33 36 74 37 34 38 79 39 73 40 75 41 35 42
REMARK SMILES IDX 78 43 72 44 71 45 36 47 62 48 45 49 61 50 46 51 49 52 60 53
REMARK SMILES IDX 76 54 47 55 48 56 59 58 77 59 50 60 37 61 38 62 43 63 39 64
REMARK SMILES IDX 40 65 42 66 44 67 41 68 63 69 64 70 69 71 65 72 66 73 68 74
REMARK SMILES IDX 70 75 67 76 51 77 52 78 57 79 53 80 54 81 56 82 58 83 55 84
REMARK H PARENT 75 46 49 57
REMARK Flexibility Score: inf
ROOT
ATOM      1  O   UNL A   1      32.988  37.045  32.809  1.00  0.00    -0.374 OA
ENDROOT
BRANCH   1   2
ATOM      2  C   UNL A   1      33.999  36.459  33.623  1.00  0.00     0.202 C 
BRANCH   2   3
ATOM      3  C   UNL A   1      35.047  35.555  32.963  1.00  0.00     0.261 C 
BRANCH   3   4
ATOM      4  O   UNL A   1      36.122  35.159  33.833  1.00  0.00    -0.463 OA
BRANCH   4   5
ATOM      5  C   UNL A   1      35.979  33.896  34.316  1.00  0.00     0.310 C 
ATOM      6  O   UNL A   1      35.011  33.179  34.084  1.00  0.00    -0.252 OA
BRANCH   5   7
ATOM      7  C   UNL A   1      37.168  33.449  35.148  1.00  0.00     0.118 C 
ATOM      8  N   UNL A   1      37.490  32.613  37.475  1.00  0.00    -0.370 N 
ATOM      9  C   UNL A   1      38.086  31.348  37.041  1.00  0.00     0.116 C 
ATOM     10  C   UNL A   1      36.588  33.281  36.549  1.00  0.00     0.131 C 
ATOM     11  C   UNL A   1      38.723  31.503  35.661  1.00  0.00     0.022 C 
ATOM     12  C   UNL A   1      37.754  32.121  34.651  1.00  0.00     0.019 C 
BRANCH   8  13
ATOM     13  C   UNL A   1      37.900  33.262  38.620  1.00  0.00     0.056 A 
ATOM     14  C   UNL A   1      37.487  32.965  39.933  1.00  0.00     0.093 A 
ATOM     15  C   UNL A   1      37.900  33.775  41.014  1.00  0.00     0.061 A 
ATOM     16  C   UNL A   1      38.731  34.860  40.807  1.00  0.00     0.124 A 
ATOM     17  C   UNL A   1      38.766  34.373  38.463  1.00  0.00     0.030 A 
ATOM     18  F   UNL A   1      39.106  35.619  41.845  1.00  0.00    -0.207 F 
ATOM     19  C   UNL A   1      39.178  35.165  39.538  1.00  0.00     0.041 A 
BRANCH  14  20
ATOM     20  S   UNL A   1      36.515  31.572  40.480  1.00  0.00     0.177 S 
ATOM     21  C   UNL A   1      36.002  31.673  42.157  1.00  0.00     0.164 C 
ATOM     22  O   UNL A   1      37.390  30.417  40.365  1.00  0.00    -0.224 OA
ATOM     23  O   UNL A   1      35.289  31.635  39.699  1.00  0.00    -0.224 OA
ENDBRANCH  14  20
ENDBRANCH   8  13
ENDBRANCH   5   7
ENDBRANCH   4   5
ENDBRANCH   3   4
ENDBRANCH   2   3
ENDBRANCH   1   2
BRANCH   1  24
ATOM     24  C   UNL A   1      33.314  37.339  31.453  1.00  0.00     0.202 C 
BRANCH  24  25
ATOM     25  C   UNL A   1      32.566  36.579  30.353  1.00  0.00     0.261 C 
BRANCH  25  26
ATOM     26  O   UNL A   1      32.822  35.165  30.413  1.00  0.00    -0.460 OA
BRANCH  26  27
ATOM     27  C   UNL A   1      33.147  34.608  29.225  1.00  0.00     0.338 C 
ATOM     28  O   UNL A   1      32.610  34.806  28.142  1.00  0.00    -0.246 OA
BRANCH  27  29
ATOM     29  C   UNL A   1      34.403  33.849  29.345  1.00  0.00     0.060 A 
ATOM     30  C   UNL A   1      34.482  32.916  30.387  1.00  0.00     0.016 A 
ATOM     31  C   UNL A   1      35.499  34.080  28.509  1.00  0.00     0.016 A 
ATOM     32  C   UNL A   1      35.679  32.258  30.639  1.00  0.00     0.010 A 
ATOM     33  C   UNL A   1      36.707  33.422  28.772  1.00  0.00     0.010 A 
ATOM     34  C   UNL A   1      36.810  32.541  29.862  1.00  0.00    -0.014 A 
BRANCH  34  35
ATOM     35  C   UNL A   1      38.119  32.012  30.309  1.00  0.00     0.031 A 
ATOM     36  C   UNL A   1      38.608  30.705  29.750  1.00  0.00     0.074 A 
ATOM     37  C   UNL A   1      38.905  32.739  31.123  1.00  0.00     0.049 A 
ATOM     38  N   UNL A   1      39.760  30.110  29.925  1.00  0.00    -0.248 NA
ATOM     39  C   UNL A   1      37.680  29.976  28.871  1.00  0.00     0.031 C 
ATOM     40  C   UNL A   1      38.552  34.037  31.692  1.00  0.00     0.029 A 
ATOM     41  N   UNL A   1      40.170  32.495  31.590  1.00  0.00    -0.354 N 
ATOM     42  C   UNL A   1      39.701  28.946  29.169  1.00  0.00     0.074 A 
ATOM     43  C   UNL A   1      38.385  28.896  28.568  1.00  0.00     0.031 C 
ATOM     44  C   UNL A   1      39.587  34.487  32.421  1.00  0.00     0.029 A 
ATOM     45  C   UNL A   1      40.664  33.499  32.385  1.00  0.00     0.049 A 
ATOM     46  H   UNL A   1      40.676  31.678  31.376  1.00  0.00     0.167 HD
ATOM     47  C   UNL A   1      40.662  28.012  28.980  1.00  0.00     0.037 A 
ATOM     48  C   UNL A   1      41.852  33.609  33.010  1.00  0.00     0.037 A 
ATOM     49  C   UNL A   1      41.969  28.063  29.581  1.00  0.00     0.049 A 
ATOM     50  C   UNL A   1      42.879  32.523  32.842  1.00  0.00     0.074 A 
ATOM     51  C   UNL A   1      43.017  27.172  29.438  1.00  0.00     0.029 A 
ATOM     52  N   UNL A   1      42.403  29.058  30.444  1.00  0.00    -0.354 N 
ATOM     53  N   UNL A   1      42.818  31.436  32.111  1.00  0.00    -0.248 NA
ATOM     54  C   UNL A   1      44.138  32.679  33.584  1.00  0.00     0.031 C 
ATOM     55  C   UNL A   1      44.070  27.601  30.253  1.00  0.00     0.029 A 
ATOM     56  C   UNL A   1      43.694  28.785  30.866  1.00  0.00     0.049 A 
ATOM     57  H   UNL A   1      41.873  29.841  30.717  1.00  0.00     0.167 HD
ATOM     58  C   UNL A   1      44.031  30.784  32.296  1.00  0.00     0.074 A 
ATOM     59  C   UNL A   1      44.816  31.610  33.191  1.00  0.00     0.031 C 
ATOM     60  C   UNL A   1      44.454  29.607  31.774  1.00  0.00     0.037 A 
BRANCH  47  61
ATOM     61  C   UNL A   1      40.333  26.847  28.095  1.00  0.00     0.057 A 
ATOM     62  C   UNL A   1      39.533  25.798  28.563  1.00  0.00     0.134 A 
ATOM     63  C   UNL A   1      40.849  26.738  26.797  1.00  0.00     0.134 A 
ATOM     64  F   UNL A   1      39.010  25.839  29.797  1.00  0.00    -0.206 F 
ATOM     65  C   UNL A   1      39.265  24.677  27.775  1.00  0.00     0.040 A 
ATOM     66  C   UNL A   1      40.570  25.634  25.991  1.00  0.00     0.040 A 
ATOM     67  F   UNL A   1      41.611  27.716  26.284  1.00  0.00    -0.206 F 
ATOM     68  C   UNL A   1      39.783  24.594  26.484  1.00  0.00     0.006 A 
ENDBRANCH  47  61
BRANCH  48  69
ATOM     69  C   UNL A   1      42.132  34.805  33.843  1.00  0.00     0.057 A 
ATOM     70  C   UNL A   1      41.736  34.864  35.185  1.00  0.00     0.134 A 
ATOM     71  C   UNL A   1      42.777  35.925  33.308  1.00  0.00     0.134 A 
ATOM     72  F   UNL A   1      41.112  33.822  35.754  1.00  0.00    -0.206 F 
ATOM     73  C   UNL A   1      41.953  36.004  35.961  1.00  0.00     0.040 A 
ATOM     74  C   UNL A   1      43.019  37.064  34.079  1.00  0.00     0.040 A 
ATOM     75  F   UNL A   1      43.198  35.919  32.035  1.00  0.00    -0.206 F 
ATOM     76  C   UNL A   1      42.598  37.108  35.407  1.00  0.00     0.006 A 
ENDBRANCH  48  69
BRANCH  60  77
ATOM     77  C   UNL A   1      45.825  29.133  32.163  1.00  0.00     0.057 A 
ATOM     78  C   UNL A   1      46.949  29.478  31.403  1.00  0.00     0.134 A 
ATOM     79  C   UNL A   1      46.022  28.287  33.261  1.00  0.00     0.134 A 
ATOM     80  F   UNL A   1      46.826  30.277  30.331  1.00  0.00    -0.206 F 
ATOM     81  C   UNL A   1      48.218  28.993  31.716  1.00  0.00     0.040 A 
ATOM     82  C   UNL A   1      47.291  27.814  33.599  1.00  0.00     0.040 A 
ATOM     83  F   UNL A   1      44.987  27.926  34.036  1.00  0.00    -0.206 F 
ATOM     84  C   UNL A   1      48.392  28.161  32.820  1.00  0.00     0.006 A 
ENDBRANCH  60  77
ENDBRANCH  34  35
ENDBRANCH  27  29
ENDBRANCH  26  27
ENDBRANCH  25  26
ENDBRANCH  24  25
ENDBRANCH   1  24
TORSDOF 16
ENDMDL
MODEL 3
REMARK VINA RESULT:      -9.8      6.295     12.020
REMARK SMILES CS(=O)(=O)c1cc(F)ccc1N1CCC[C@@H](C(=O)OCCOCCOC(=O)c2ccc(-c3c4nc(c(-c5c(F)cccc5F)c5ccc([nH]5)c(-c5c(F)cccc5F)c5nc(c(-c6c(F)cccc6F)c6ccc3[nH]6)C=C5)C=C4)cc2)C1
REMARK SMILES IDX 22 1 21 2 20 3 19 4 17 5 18 6 16 7 12 8 13 9 82 10 14 11
REMARK SMILES IDX 15 12 11 13 5 14 6 15 7 16 10 17 8 18 9 19 2 20 1 21 3 22
REMARK SMILES IDX 4 23 23 24 24 25 25 26 26 27 27 28 28 29 29 30 81 31 30 32
REMARK SMILES IDX 80 33 31 34 32 35 33 36 74 37 34 38 79 39 73 40 75 41 35 42
REMARK SMILES IDX 78 43 72 44 71 45 36 47 62 48 45 49 61 50 46 51 49 52 60 53
REMARK SMILES IDX 76 54 47 55 48 56 59 58 77 59 50 60 37 61 38 62 43 63 39 64
REMARK SMILES IDX 40 65 42 66 44 67 41 68 63 69 64 70 69 71 65 72 66 73 68 74
REMARK SMILES IDX 70 75 67 76 51 77 52 78 57 79 53 80 54 81 56 82 58 83 55 84
REMARK H PARENT 75 46 49 57
REMARK Flexibility Score: inf
ROOT
ATOM      1  O   UNL A   1      35.194  21.696  24.156  1.00  0.00    -0.374 OA
ENDROOT
BRANCH   1   2
ATOM      2  C   UNL A   1      34.630  22.897  24.672  1.00  0.00     0.202 C 
BRANCH   2   3
ATOM      3  C   UNL A   1      34.760  24.186  23.850  1.00  0.00     0.261 C 
BRANCH   3   4
ATOM      4  O   UNL A   1      34.045  24.170  22.602  1.00  0.00    -0.463 OA
BRANCH   4   5
ATOM      5  C   UNL A   1      33.434  25.352  22.323  1.00  0.00     0.310 C 
ATOM      6  O   UNL A   1      33.652  26.015  21.315  1.00  0.00    -0.252 OA
BRANCH   5   7
ATOM      7  C   UNL A   1      32.419  25.749  23.381  1.00  0.00     0.118 C 
ATOM      8  N   UNL A   1      30.713  27.553  23.614  1.00  0.00    -0.370 N 
ATOM      9  C   UNL A   1      29.600  26.614  23.761  1.00  0.00     0.116 C 
ATOM     10  C   UNL A   1      31.888  27.091  22.888  1.00  0.00     0.131 C 
ATOM     11  C   UNL A   1      30.097  25.276  24.305  1.00  0.00     0.022 C 
ATOM     12  C   UNL A   1      31.276  24.733  23.495  1.00  0.00     0.019 C 
BRANCH   8  13
ATOM     13  C   UNL A   1      30.754  28.754  24.289  1.00  0.00     0.056 A 
ATOM     14  C   UNL A   1      30.118  29.947  23.896  1.00  0.00     0.093 A 
ATOM     15  C   UNL A   1      30.324  31.142  24.622  1.00  0.00     0.061 A 
ATOM     16  C   UNL A   1      31.137  31.157  25.740  1.00  0.00     0.124 A 
ATOM     17  C   UNL A   1      31.561  28.818  25.452  1.00  0.00     0.030 A 
ATOM     18  F   UNL A   1      31.324  32.301  26.410  1.00  0.00    -0.207 F 
ATOM     19  C   UNL A   1      31.754  30.001  26.171  1.00  0.00     0.041 A 
BRANCH  14  20
ATOM     20  S   UNL A   1      28.945  30.170  22.570  1.00  0.00     0.177 S 
ATOM     21  C   UNL A   1      28.555  31.850  22.235  1.00  0.00     0.164 C 
ATOM     22  O   UNL A   1      27.722  29.524  23.018  1.00  0.00    -0.224 OA
ATOM     23  O   UNL A   1      29.625  29.689  21.377  1.00  0.00    -0.224 OA
ENDBRANCH  14  20
ENDBRANCH   8  13
ENDBRANCH   5   7
ENDBRANCH   4   5
ENDBRANCH   3   4
ENDBRANCH   2   3
ENDBRANCH   1   2
BRANCH   1  24
ATOM     24  C   UNL A   1      35.678  20.734  25.091  1.00  0.00     0.202 C 
BRANCH  24  25
ATOM     25  C   UNL A   1      37.144  20.302  24.984  1.00  0.00     0.261 C 
BRANCH  25  26
ATOM     26  O   UNL A   1      38.041  21.408  25.179  1.00  0.00    -0.460 OA
BRANCH  26  27
ATOM     27  C   UNL A   1      39.138  21.111  25.912  1.00  0.00     0.338 C 
ATOM     28  O   UNL A   1      39.775  20.064  25.903  1.00  0.00    -0.246 OA
BRANCH  27  29
ATOM     29  C   UNL A   1      39.624  22.312  26.612  1.00  0.00     0.060 A 
ATOM     30  C   UNL A   1      39.065  23.537  26.228  1.00  0.00     0.016 A 
ATOM     31  C   UNL A   1      40.639  22.260  27.571  1.00  0.00     0.016 A 
ATOM     32  C   UNL A   1      39.564  24.723  26.753  1.00  0.00     0.010 A 
ATOM     33  C   UNL A   1      41.147  23.457  28.091  1.00  0.00     0.010 A 
ATOM     34  C   UNL A   1      40.639  24.691  27.652  1.00  0.00    -0.014 A 
BRANCH  34  35
ATOM     35  C   UNL A   1      41.301  25.970  27.999  1.00  0.00     0.031 A 
ATOM     36  C   UNL A   1      42.692  26.232  27.493  1.00  0.00     0.074 A 
ATOM     37  C   UNL A   1      40.630  26.924  28.667  1.00  0.00     0.049 A 
ATOM     38  N   UNL A   1      43.418  27.317  27.590  1.00  0.00    -0.248 NA
ATOM     39  C   UNL A   1      43.351  25.129  26.775  1.00  0.00     0.031 C 
ATOM     40  C   UNL A   1      39.264  26.797  29.169  1.00  0.00     0.029 A 
ATOM     41  N   UNL A   1      41.004  28.196  29.016  1.00  0.00    -0.354 N 
ATOM     42  C   UNL A   1      44.609  27.033  26.936  1.00  0.00     0.074 A 
ATOM     43  C   UNL A   1      44.529  25.661  26.483  1.00  0.00     0.031 C 
ATOM     44  C   UNL A   1      38.905  27.954  29.749  1.00  0.00     0.029 A 
ATOM     45  C   UNL A   1      40.023  28.894  29.675  1.00  0.00     0.049 A 
ATOM     46  H   UNL A   1      41.890  28.573  28.813  1.00  0.00     0.167 HD
ATOM     47  C   UNL A   1      45.668  27.848  26.719  1.00  0.00     0.037 A 
ATOM     48  C   UNL A   1      40.026  30.149  30.162  1.00  0.00     0.037 A 
ATOM     49  C   UNL A   1      45.746  29.211  27.174  1.00  0.00     0.049 A 
ATOM     50  C   UNL A   1      41.242  31.013  29.971  1.00  0.00     0.074 A 
ATOM     51  C   UNL A   1      46.771  30.122  26.990  1.00  0.00     0.029 A 
ATOM     52  N   UNL A   1      44.763  29.856  27.908  1.00  0.00    -0.354 N 
ATOM     53  N   UNL A   1      42.357  30.741  29.335  1.00  0.00    -0.248 NA
ATOM     54  C   UNL A   1      41.202  32.358  30.562  1.00  0.00     0.031 C 
ATOM     55  C   UNL A   1      46.429  31.304  27.655  1.00  0.00     0.029 A 
ATOM     56  C   UNL A   1      45.170  31.145  28.212  1.00  0.00     0.049 A 
ATOM     57  H   UNL A   1      43.902  29.458  28.174  1.00  0.00     0.167 HD
ATOM     58  C   UNL A   1      43.145  31.880  29.441  1.00  0.00     0.074 A 
ATOM     59  C   UNL A   1      42.371  32.855  30.183  1.00  0.00     0.031 C 
ATOM     60  C   UNL A   1      44.397  32.097  28.969  1.00  0.00     0.037 A 
BRANCH  47  61
ATOM     61  C   UNL A   1      46.835  27.283  25.966  1.00  0.00     0.057 A 
ATOM     62  C   UNL A   1      47.852  26.593  26.636  1.00  0.00     0.134 A 
ATOM     63  C   UNL A   1      46.978  27.466  24.583  1.00  0.00     0.134 A 
ATOM     64  F   UNL A   1      47.777  26.387  27.959  1.00  0.00    -0.206 F 
ATOM     65  C   UNL A   1      48.976  26.113  25.960  1.00  0.00     0.040 A 
ATOM     66  C   UNL A   1      48.085  26.970  23.894  1.00  0.00     0.040 A 
ATOM     67  F   UNL A   1      46.032  28.106  23.881  1.00  0.00    -0.206 F 
ATOM     68  C   UNL A   1      49.093  26.299  24.584  1.00  0.00     0.006 A 
ENDBRANCH  47  61
BRANCH  48  69
ATOM     69  C   UNL A   1      38.826  30.663  30.867  1.00  0.00     0.057 A 
ATOM     70  C   UNL A   1      37.847  31.401  30.190  1.00  0.00     0.134 A 
ATOM     71  C   UNL A   1      38.644  30.452  32.238  1.00  0.00     0.134 A 
ATOM     72  F   UNL A   1      37.966  31.638  28.875  1.00  0.00    -0.206 F 
ATOM     73  C   UNL A   1      36.739  31.929  30.855  1.00  0.00     0.040 A 
ATOM     74  C   UNL A   1      37.530  30.956  32.912  1.00  0.00     0.040 A 
ATOM     75  F   UNL A   1      39.537  29.735  32.935  1.00  0.00    -0.206 F 
ATOM     76  C   UNL A   1      36.578  31.705  32.221  1.00  0.00     0.006 A 
ENDBRANCH  48  69
BRANCH  60  77
ATOM     77  C   UNL A   1      45.016  33.436  29.247  1.00  0.00     0.057 A 
ATOM     78  C   UNL A   1      44.850  34.504  28.357  1.00  0.00     0.134 A 
ATOM     79  C   UNL A   1      45.824  33.649  30.371  1.00  0.00     0.134 A 
ATOM     80  F   UNL A   1      44.098  34.362  27.255  1.00  0.00    -0.206 F 
ATOM     81  C   UNL A   1      45.473  35.734  28.570  1.00  0.00     0.040 A 
ATOM     82  C   UNL A   1      46.432  34.883  30.608  1.00  0.00     0.040 A 
ATOM     83  F   UNL A   1      46.015  32.669  31.267  1.00  0.00    -0.206 F 
ATOM     84  C   UNL A   1      46.263  35.927  29.702  1.00  0.00     0.006 A 
ENDBRANCH  60  77
ENDBRANCH  34  35
ENDBRANCH  27  29
ENDBRANCH  26  27
ENDBRANCH  25  26
ENDBRANCH  24  25
ENDBRANCH   1  24
TORSDOF 16
ENDMDL
