MODEL 1
REMARK VINA RESULT:     -10.7      0.000      0.000
REMARK SMILES C[C@@H](C(=O)OCCOCCOC(=O)c1ccc(-c2c3nc(c(-c4c(F)cccc4F)c4ccc([nH]4)c(-c4c(F)cccc4F)c4nc(c(-c5c(F)cccc5F)c5ccc2[nH]5)C=C4)C=C3)cc1)c1ccc(C[C@H]2CCC[C@@H]2O)cc1Br
REMARK SMILES IDX 7 1 6 2 5 3 3 4 4 5 2 6 1 7 68 8 69 9 80 10 70 11 79 12
REMARK SMILES IDX 81 13 71 14 72 15 73 16 74 17 77 18 75 19 76 20 78 21 8 23
REMARK SMILES IDX 9 24 10 25 11 26 12 27 13 28 14 29 15 30 67 31 16 32 66 33
REMARK SMILES IDX 17 34 18 35 19 36 60 37 20 38 65 39 59 40 61 41 21 42 64 43
REMARK SMILES IDX 58 44 57 45 22 47 48 48 31 49 47 50 32 51 35 52 46 53 62 54
REMARK SMILES IDX 33 55 34 56 45 58 63 59 36 60 23 61 24 62 29 63 25 64 26 65
REMARK SMILES IDX 28 66 30 67 27 68 49 69 50 70 55 71 51 72 52 73 54 74 56 75
REMARK SMILES IDX 53 76 37 77 38 78 43 79 39 80 40 81 42 82 44 83 41 84
REMARK H PARENT 78 22 61 46 35 57
REMARK Flexibility Score: inf
ROOT
ATOM      1  C   UNL A   1      40.962  21.418  26.219  1.00  0.00     0.202 C 
ENDROOT
BRANCH   1   2
ATOM      2  C   UNL A   1      39.552  21.948  26.505  1.00  0.00     0.261 C 
BRANCH   2   3
ATOM      3  O   UNL A   1      38.640  21.813  25.404  1.00  0.00    -0.463 OA
BRANCH   3   4
ATOM      4  C   UNL A   1      37.475  22.506  25.567  1.00  0.00     0.313 C 
ATOM      5  O   UNL A   1      37.446  23.727  25.658  1.00  0.00    -0.252 OA
BRANCH   4   6
ATOM      6  C   UNL A   1      36.234  21.585  25.631  1.00  0.00     0.127 C 
ATOM      7  C   UNL A   1      36.534  20.206  25.008  1.00  0.00     0.025 C 
BRANCH   6   8
ATOM      8  C   UNL A   1      35.014  22.293  25.015  1.00  0.00    -0.020 A 
ATOM      9  C   UNL A   1      34.934  22.543  23.634  1.00  0.00     0.006 A 
ATOM     10  C   UNL A   1      33.958  22.787  25.806  1.00  0.00     0.022 A 
ATOM     11  C   UNL A   1      33.926  23.350  23.095  1.00  0.00     0.004 A 
ATOM     12  C   UNL A   1      33.020  23.687  25.277  1.00  0.00     0.019 A 
ATOM     13  Br  UNL A   1      33.660  22.222  27.605  1.00  0.00    -0.050 Br
ATOM     14  C   UNL A   1      33.025  24.022  23.919  1.00  0.00    -0.047 A 
BRANCH  14  15
ATOM     15  C   UNL A   1      32.020  25.009  23.372  1.00  0.00     0.041 C 
BRANCH  15  16
ATOM     16  C   UNL A   1      32.466  26.468  23.141  1.00  0.00     0.022 C 
ATOM     17  C   UNL A   1      32.847  27.277  24.391  1.00  0.00     0.007 C 
ATOM     18  C   UNL A   1      33.635  26.697  22.182  1.00  0.00     0.117 C 
ATOM     19  C   UNL A   1      33.915  28.282  23.931  1.00  0.00     0.003 C 
ATOM     20  C   UNL A   1      33.975  28.161  22.414  1.00  0.00     0.032 C 
BRANCH  18  21
ATOM     21  O   UNL A   1      33.291  26.428  20.838  1.00  0.00    -0.393 OA
ATOM     22  H   UNL A   1      32.771  27.166  20.484  1.00  0.00     0.210 HD
ENDBRANCH  18  21
ENDBRANCH  15  16
ENDBRANCH  14  15
ENDBRANCH   6   8
ENDBRANCH   4   6
ENDBRANCH   3   4
ENDBRANCH   2   3
ENDBRANCH   1   2
BRANCH   1  23
ATOM     23  O   UNL A   1      41.832  22.215  25.422  1.00  0.00    -0.374 OA
BRANCH  23  24
ATOM     24  C   UNL A   1      43.222  21.885  25.420  1.00  0.00     0.202 C 
BRANCH  24  25
ATOM     25  C   UNL A   1      44.142  22.809  24.614  1.00  0.00     0.261 C 
BRANCH  25  26
ATOM     26  O   UNL A   1      43.641  24.159  24.596  1.00  0.00    -0.460 OA
BRANCH  26  27
ATOM     27  C   UNL A   1      44.414  25.062  25.241  1.00  0.00     0.338 C 
ATOM     28  O   UNL A   1      45.569  25.371  24.980  1.00  0.00    -0.246 OA
BRANCH  27  29
ATOM     29  C   UNL A   1      43.605  25.809  26.220  1.00  0.00     0.060 A 
ATOM     30  C   UNL A   1      43.850  27.184  26.343  1.00  0.00     0.016 A 
ATOM     31  C   UNL A   1      42.676  25.177  27.049  1.00  0.00     0.016 A 
ATOM     32  C   UNL A   1      43.212  27.922  27.335  1.00  0.00     0.010 A 
ATOM     33  C   UNL A   1      42.044  25.918  28.054  1.00  0.00     0.010 A 
ATOM     34  C   UNL A   1      42.342  27.282  28.227  1.00  0.00    -0.014 A 
BRANCH  34  35
ATOM     35  C   UNL A   1      41.887  28.006  29.438  1.00  0.00     0.031 A 
ATOM     36  C   UNL A   1      40.644  28.849  29.354  1.00  0.00     0.074 A 
ATOM     37  C   UNL A   1      42.543  27.883  30.605  1.00  0.00     0.049 A 
ATOM     38  N   UNL A   1      40.074  29.583  30.274  1.00  0.00    -0.248 NA
ATOM     39  C   UNL A   1      39.951  28.864  28.055  1.00  0.00     0.031 C 
ATOM     40  C   UNL A   1      43.732  27.063  30.824  1.00  0.00     0.029 A 
ATOM     41  N   UNL A   1      42.295  28.456  31.827  1.00  0.00    -0.354 N 
ATOM     42  C   UNL A   1      38.958  30.146  29.668  1.00  0.00     0.074 A 
ATOM     43  C   UNL A   1      38.950  29.697  28.291  1.00  0.00     0.031 C 
ATOM     44  C   UNL A   1      44.121  27.196  32.104  1.00  0.00     0.029 A 
ATOM     45  C   UNL A   1      43.225  28.129  32.783  1.00  0.00     0.049 A 
ATOM     46  H   UNL A   1      41.526  29.044  32.001  1.00  0.00     0.167 HD
ATOM     47  C   UNL A   1      38.019  30.957  30.209  1.00  0.00     0.037 A 
ATOM     48  C   UNL A   1      43.346  28.553  34.056  1.00  0.00     0.037 A 
ATOM     49  C   UNL A   1      38.028  31.406  31.576  1.00  0.00     0.049 A 
ATOM     50  C   UNL A   1      42.330  29.513  34.618  1.00  0.00     0.074 A 
ATOM     51  C   UNL A   1      37.118  32.223  32.223  1.00  0.00     0.029 A 
ATOM     52  N   UNL A   1      39.004  31.079  32.506  1.00  0.00    -0.354 N 
ATOM     53  N   UNL A   1      41.270  30.026  34.041  1.00  0.00    -0.248 NA
ATOM     54  C   UNL A   1      42.525  29.947  36.009  1.00  0.00     0.031 C 
ATOM     55  C   UNL A   1      37.566  32.426  33.533  1.00  0.00     0.029 A 
ATOM     56  C   UNL A   1      38.730  31.697  33.715  1.00  0.00     0.049 A 
ATOM     57  H   UNL A   1      39.777  30.495  32.332  1.00  0.00     0.167 HD
ATOM     58  C   UNL A   1      40.660  30.822  35.003  1.00  0.00     0.074 A 
ATOM     59  C   UNL A   1      41.462  30.714  36.205  1.00  0.00     0.031 C 
ATOM     60  C   UNL A   1      39.536  31.575  34.903  1.00  0.00     0.037 A 
BRANCH  47  61
ATOM     61  C   UNL A   1      36.914  31.428  29.311  1.00  0.00     0.057 A 
ATOM     62  C   UNL A   1      36.895  32.722  28.778  1.00  0.00     0.134 A 
ATOM     63  C   UNL A   1      35.865  30.568  28.959  1.00  0.00     0.134 A 
ATOM     64  F   UNL A   1      37.861  33.600  29.090  1.00  0.00    -0.206 F 
ATOM     65  C   UNL A   1      35.862  33.154  27.943  1.00  0.00     0.040 A 
ATOM     66  C   UNL A   1      34.840  30.979  28.105  1.00  0.00     0.040 A 
ATOM     67  F   UNL A   1      35.824  29.314  29.434  1.00  0.00    -0.206 F 
ATOM     68  C   UNL A   1      34.834  32.278  27.600  1.00  0.00     0.006 A 
ENDBRANCH  47  61
BRANCH  48  69
ATOM     69  C   UNL A   1      44.486  28.088  34.886  1.00  0.00     0.057 A 
ATOM     70  C   UNL A   1      45.703  28.776  34.901  1.00  0.00     0.134 A 
ATOM     71  C   UNL A   1      44.385  26.933  35.671  1.00  0.00     0.134 A 
ATOM     72  F   UNL A   1      45.867  29.875  34.151  1.00  0.00    -0.206 F 
ATOM     73  C   UNL A   1      46.787  28.324  35.658  1.00  0.00     0.040 A 
ATOM     74  C   UNL A   1      45.453  26.484  36.450  1.00  0.00     0.040 A 
ATOM     75  F   UNL A   1      43.244  26.228  35.699  1.00  0.00    -0.206 F 
ATOM     76  C   UNL A   1      46.661  27.177  36.439  1.00  0.00     0.006 A 
ENDBRANCH  48  69
BRANCH  60  77
ATOM     77  C   UNL A   1      39.090  32.313  36.130  1.00  0.00     0.057 A 
ATOM     78  C   UNL A   1      39.487  33.632  36.384  1.00  0.00     0.134 A 
ATOM     79  C   UNL A   1      38.217  31.711  37.045  1.00  0.00     0.134 A 
ATOM     80  F   UNL A   1      40.331  34.261  35.553  1.00  0.00    -0.206 F 
ATOM     81  C   UNL A   1      39.047  34.319  37.518  1.00  0.00     0.040 A 
ATOM     82  C   UNL A   1      37.750  32.396  38.168  1.00  0.00     0.040 A 
ATOM     83  F   UNL A   1      37.790  30.454  36.854  1.00  0.00    -0.206 F 
ATOM     84  C   UNL A   1      38.171  33.702  38.410  1.00  0.00     0.006 A 
ENDBRANCH  60  77
ENDBRANCH  34  35
ENDBRANCH  27  29
ENDBRANCH  26  27
ENDBRANCH  25  26
ENDBRANCH  24  25
ENDBRANCH  23  24
ENDBRANCH   1  23
TORSDOF 18
ENDMDL
MODEL 2
REMARK VINA RESULT:     -10.7      1.164      6.244
REMARK SMILES C[C@@H](C(=O)OCCOCCOC(=O)c1ccc(-c2c3nc(c(-c4c(F)cccc4F)c4ccc([nH]4)c(-c4c(F)cccc4F)c4nc(c(-c5c(F)cccc5F)c5ccc2[nH]5)C=C4)C=C3)cc1)c1ccc(C[C@H]2CCC[C@@H]2O)cc1Br
REMARK SMILES IDX 7 1 6 2 5 3 3 4 4 5 2 6 1 7 68 8 69 9 80 10 70 11 79 12
REMARK SMILES IDX 81 13 71 14 72 15 73 16 74 17 77 18 75 19 76 20 78 21 8 23
REMARK SMILES IDX 9 24 10 25 11 26 12 27 13 28 14 29 15 30 67 31 16 32 66 33
REMARK SMILES IDX 17 34 18 35 19 36 60 37 20 38 65 39 59 40 61 41 21 42 64 43
REMARK SMILES IDX 58 44 57 45 22 47 48 48 31 49 47 50 32 51 35 52 46 53 62 54
REMARK SMILES IDX 33 55 34 56 45 58 63 59 36 60 23 61 24 62 29 63 25 64 26 65
REMARK SMILES IDX 28 66 30 67 27 68 49 69 50 70 55 71 51 72 52 73 54 74 56 75
REMARK SMILES IDX 53 76 37 77 38 78 43 79 39 80 40 81 42 82 44 83 41 84
REMARK H PARENT 78 22 61 46 35 57
REMARK Flexibility Score: inf
ROOT
ATOM      1  C   UNL A   1      39.546  21.240  26.063  1.00  0.00     0.202 C 
ENDROOT
BRANCH   1   2
ATOM      2  C   UNL A   1      38.347  21.950  25.421  1.00  0.00     0.261 C 
BRANCH   2   3
ATOM      3  O   UNL A   1      37.081  21.606  26.005  1.00  0.00    -0.463 OA
BRANCH   3   4
ATOM      4  C   UNL A   1      36.346  20.738  25.248  1.00  0.00     0.313 C 
ATOM      5  O   UNL A   1      36.865  19.912  24.508  1.00  0.00    -0.252 OA
BRANCH   4   6
ATOM      6  C   UNL A   1      34.821  20.928  25.429  1.00  0.00     0.127 C 
ATOM      7  C   UNL A   1      34.033  19.852  24.653  1.00  0.00     0.025 C 
BRANCH   6   8
ATOM      8  C   UNL A   1      34.418  22.370  25.075  1.00  0.00    -0.020 A 
ATOM      9  C   UNL A   1      34.682  22.912  23.806  1.00  0.00     0.006 A 
ATOM     10  C   UNL A   1      33.835  23.237  26.020  1.00  0.00     0.022 A 
ATOM     11  C   UNL A   1      34.495  24.272  23.539  1.00  0.00     0.004 A 
ATOM     12  C   UNL A   1      33.758  24.618  25.782  1.00  0.00     0.019 A 
ATOM     13  Br  UNL A   1      33.032  22.617  27.637  1.00  0.00    -0.050 Br
ATOM     14  C   UNL A   1      34.139  25.162  24.550  1.00  0.00    -0.047 A 
BRANCH  14  15
ATOM     15  C   UNL A   1      34.069  26.653  24.320  1.00  0.00     0.041 C 
BRANCH  15  16
ATOM     16  C   UNL A   1      32.735  27.267  23.845  1.00  0.00     0.022 C 
ATOM     17  C   UNL A   1      31.514  26.335  23.834  1.00  0.00     0.007 C 
ATOM     18  C   UNL A   1      32.241  28.515  24.579  1.00  0.00     0.117 C 
ATOM     19  C   UNL A   1      30.297  27.234  24.102  1.00  0.00     0.003 C 
ATOM     20  C   UNL A   1      30.819  28.664  24.063  1.00  0.00     0.032 C 
BRANCH  18  21
ATOM     21  O   UNL A   1      33.037  29.651  24.308  1.00  0.00    -0.393 OA
ATOM     22  H   UNL A   1      33.838  29.621  24.853  1.00  0.00     0.210 HD
ENDBRANCH  18  21
ENDBRANCH  15  16
ENDBRANCH  14  15
ENDBRANCH   6   8
ENDBRANCH   4   6
ENDBRANCH   3   4
ENDBRANCH   2   3
ENDBRANCH   1   2
BRANCH   1  23
ATOM     23  O   UNL A   1      40.798  21.916  26.080  1.00  0.00    -0.374 OA
BRANCH  23  24
ATOM     24  C   UNL A   1      41.984  21.119  26.090  1.00  0.00     0.202 C 
BRANCH  24  25
ATOM     25  C   UNL A   1      43.221  21.727  25.418  1.00  0.00     0.261 C 
BRANCH  25  26
ATOM     26  O   UNL A   1      42.893  22.946  24.724  1.00  0.00    -0.460 OA
BRANCH  26  27
ATOM     27  C   UNL A   1      43.713  23.988  24.987  1.00  0.00     0.338 C 
ATOM     28  O   UNL A   1      44.805  24.219  24.483  1.00  0.00    -0.246 OA
BRANCH  27  29
ATOM     29  C   UNL A   1      43.024  24.967  25.847  1.00  0.00     0.060 A 
ATOM     30  C   UNL A   1      43.703  26.158  26.138  1.00  0.00     0.016 A 
ATOM     31  C   UNL A   1      41.776  24.704  26.414  1.00  0.00     0.016 A 
ATOM     32  C   UNL A   1      43.163  27.066  27.045  1.00  0.00     0.010 A 
ATOM     33  C   UNL A   1      41.241  25.612  27.335  1.00  0.00     0.010 A 
ATOM     34  C   UNL A   1      41.952  26.775  27.684  1.00  0.00    -0.014 A 
BRANCH  34  35
ATOM     35  C   UNL A   1      41.527  27.600  28.840  1.00  0.00     0.031 A 
ATOM     36  C   UNL A   1      42.290  27.485  30.130  1.00  0.00     0.074 A 
ATOM     37  C   UNL A   1      40.508  28.470  28.732  1.00  0.00     0.049 A 
ATOM     38  N   UNL A   1      42.088  28.091  31.272  1.00  0.00    -0.248 NA
ATOM     39  C   UNL A   1      43.438  26.562  30.132  1.00  0.00     0.031 C 
ATOM     40  C   UNL A   1      39.720  28.704  27.523  1.00  0.00     0.029 A 
ATOM     41  N   UNL A   1      39.962  29.317  29.663  1.00  0.00    -0.354 N 
ATOM     42  C   UNL A   1      43.080  27.624  32.127  1.00  0.00     0.074 A 
ATOM     43  C   UNL A   1      43.862  26.659  31.383  1.00  0.00     0.031 C 
ATOM     44  C   UNL A   1      38.780  29.626  27.791  1.00  0.00     0.029 A 
ATOM     45  C   UNL A   1      38.883  30.025  29.193  1.00  0.00     0.049 A 
ATOM     46  H   UNL A   1      40.309  29.408  30.579  1.00  0.00     0.167 HD
ATOM     47  C   UNL A   1      43.323  27.973  33.411  1.00  0.00     0.037 A 
ATOM     48  C   UNL A   1      38.063  30.883  29.831  1.00  0.00     0.037 A 
ATOM     49  C   UNL A   1      42.544  28.929  34.152  1.00  0.00     0.049 A 
ATOM     50  C   UNL A   1      38.309  31.202  31.282  1.00  0.00     0.074 A 
ATOM     51  C   UNL A   1      42.715  29.357  35.456  1.00  0.00     0.029 A 
ATOM     52  N   UNL A   1      41.440  29.603  33.651  1.00  0.00    -0.354 N 
ATOM     53  N   UNL A   1      39.258  30.768  32.075  1.00  0.00    -0.248 NA
ATOM     54  C   UNL A   1      37.372  32.135  31.924  1.00  0.00     0.031 C 
ATOM     55  C   UNL A   1      41.688  30.257  35.760  1.00  0.00     0.029 A 
ATOM     56  C   UNL A   1      40.905  30.426  34.628  1.00  0.00     0.049 A 
ATOM     57  H   UNL A   1      41.088  29.509  32.737  1.00  0.00     0.167 HD
ATOM     58  C   UNL A   1      39.048  31.391  33.299  1.00  0.00     0.074 A 
ATOM     59  C   UNL A   1      37.888  32.244  33.140  1.00  0.00     0.031 C 
ATOM     60  C   UNL A   1      39.753  31.271  34.452  1.00  0.00     0.037 A 
BRANCH  47  61
ATOM     61  C   UNL A   1      44.469  27.296  34.103  1.00  0.00     0.057 A 
ATOM     62  C   UNL A   1      45.751  27.859  34.134  1.00  0.00     0.134 A 
ATOM     63  C   UNL A   1      44.283  26.075  34.763  1.00  0.00     0.134 A 
ATOM     64  F   UNL A   1      45.999  29.019  33.506  1.00  0.00    -0.206 F 
ATOM     65  C   UNL A   1      46.813  27.222  34.779  1.00  0.00     0.040 A 
ATOM     66  C   UNL A   1      45.331  25.441  35.433  1.00  0.00     0.040 A 
ATOM     67  F   UNL A   1      43.079  25.483  34.774  1.00  0.00    -0.206 F 
ATOM     68  C   UNL A   1      46.602  26.012  35.437  1.00  0.00     0.006 A 
ENDBRANCH  47  61
BRANCH  48  69
ATOM     69  C   UNL A   1      36.918  31.489  29.107  1.00  0.00     0.057 A 
ATOM     70  C   UNL A   1      36.963  32.811  28.651  1.00  0.00     0.134 A 
ATOM     71  C   UNL A   1      35.745  30.763  28.870  1.00  0.00     0.134 A 
ATOM     72  F   UNL A   1      38.051  33.564  28.869  1.00  0.00    -0.206 F 
ATOM     73  C   UNL A   1      35.877  33.394  27.996  1.00  0.00     0.040 A 
ATOM     74  C   UNL A   1      34.660  31.327  28.195  1.00  0.00     0.040 A 
ATOM     75  F   UNL A   1      35.639  29.492  29.283  1.00  0.00    -0.206 F 
ATOM     76  C   UNL A   1      34.723  32.649  27.762  1.00  0.00     0.006 A 
ENDBRANCH  48  69
BRANCH  60  77
ATOM     77  C   UNL A   1      39.309  32.101  35.620  1.00  0.00     0.057 A 
ATOM     78  C   UNL A   1      39.752  33.418  35.803  1.00  0.00     0.134 A 
ATOM     79  C   UNL A   1      38.392  31.592  36.549  1.00  0.00     0.134 A 
ATOM     80  F   UNL A   1      40.639  33.960  34.955  1.00  0.00    -0.206 F 
ATOM     81  C   UNL A   1      39.315  34.190  36.880  1.00  0.00     0.040 A 
ATOM     82  C   UNL A   1      37.928  32.363  37.616  1.00  0.00     0.040 A 
ATOM     83  F   UNL A   1      37.920  30.342  36.425  1.00  0.00    -0.206 F 
ATOM     84  C   UNL A   1      38.395  33.665  37.787  1.00  0.00     0.006 A 
ENDBRANCH  60  77
ENDBRANCH  34  35
ENDBRANCH  27  29
ENDBRANCH  26  27
ENDBRANCH  25  26
ENDBRANCH  24  25
ENDBRANCH  23  24
ENDBRANCH   1  23
TORSDOF 18
ENDMDL
MODEL 3
REMARK VINA RESULT:     -10.5      4.115      8.074
REMARK SMILES C[C@@H](C(=O)OCCOCCOC(=O)c1ccc(-c2c3nc(c(-c4c(F)cccc4F)c4ccc([nH]4)c(-c4c(F)cccc4F)c4nc(c(-c5c(F)cccc5F)c5ccc2[nH]5)C=C4)C=C3)cc1)c1ccc(C[C@H]2CCC[C@@H]2O)cc1Br
REMARK SMILES IDX 7 1 6 2 5 3 3 4 4 5 2 6 1 7 68 8 69 9 80 10 70 11 79 12
REMARK SMILES IDX 81 13 71 14 72 15 73 16 74 17 77 18 75 19 76 20 78 21 8 23
REMARK SMILES IDX 9 24 10 25 11 26 12 27 13 28 14 29 15 30 67 31 16 32 66 33
REMARK SMILES IDX 17 34 18 35 19 36 60 37 20 38 65 39 59 40 61 41 21 42 64 43
REMARK SMILES IDX 58 44 57 45 22 47 48 48 31 49 47 50 32 51 35 52 46 53 62 54
REMARK SMILES IDX 33 55 34 56 45 58 63 59 36 60 23 61 24 62 29 63 25 64 26 65
REMARK SMILES IDX 28 66 30 67 27 68 49 69 50 70 55 71 51 72 52 73 54 74 56 75
REMARK SMILES IDX 53 76 37 77 38 78 43 79 39 80 40 81 42 82 44 83 41 84
REMARK H PARENT 78 22 61 46 35 57
REMARK Flexibility Score: inf
ROOT
ATOM      1  C   UNL A   1      36.696  22.116  24.386  1.00  0.00     0.202 C 
ENDROOT
BRANCH   1   2
ATOM      2  C   UNL A   1      36.338  23.477  24.996  1.00  0.00     0.261 C 
BRANCH   2   3
ATOM      3  O   UNL A   1      35.118  23.476  25.753  1.00  0.00    -0.463 OA
BRANCH   3   4
ATOM      4  C   UNL A   1      34.116  24.207  25.180  1.00  0.00     0.313 C 
ATOM      5  O   UNL A   1      34.109  24.487  23.988  1.00  0.00    -0.252 OA
BRANCH   4   6
ATOM      6  C   UNL A   1      33.029  24.634  26.195  1.00  0.00     0.127 C 
ATOM      7  C   UNL A   1      32.386  23.403  26.868  1.00  0.00     0.025 C 
BRANCH   6   8
ATOM      8  C   UNL A   1      32.015  25.575  25.523  1.00  0.00    -0.020 A 
ATOM      9  C   UNL A   1      30.876  25.076  24.867  1.00  0.00     0.006 A 
ATOM     10  C   UNL A   1      32.211  26.969  25.468  1.00  0.00     0.022 A 
ATOM     11  C   UNL A   1      30.056  25.905  24.094  1.00  0.00     0.004 A 
ATOM     12  C   UNL A   1      31.453  27.772  24.600  1.00  0.00     0.019 A 
ATOM     13  Br  UNL A   1      33.436  27.888  26.607  1.00  0.00    -0.050 Br
ATOM     14  C   UNL A   1      30.395  27.236  23.859  1.00  0.00    -0.047 A 
BRANCH  14  15
ATOM     15  C   UNL A   1      29.604  28.111  22.915  1.00  0.00     0.041 C 
BRANCH  15  16
ATOM     16  C   UNL A   1      28.821  29.307  23.496  1.00  0.00     0.022 C 
ATOM     17  C   UNL A   1      29.594  30.626  23.651  1.00  0.00     0.007 C 
ATOM     18  C   UNL A   1      27.535  29.715  22.774  1.00  0.00     0.117 C 
ATOM     19  C   UNL A   1      28.555  31.744  23.473  1.00  0.00     0.003 C 
ATOM     20  C   UNL A   1      27.201  31.051  23.419  1.00  0.00     0.032 C 
BRANCH  18  21
ATOM     21  O   UNL A   1      26.502  28.764  22.933  1.00  0.00    -0.393 OA
ATOM     22  H   UNL A   1      26.669  28.006  22.352  1.00  0.00     0.210 HD
ENDBRANCH  18  21
ENDBRANCH  15  16
ENDBRANCH  14  15
ENDBRANCH   6   8
ENDBRANCH   4   6
ENDBRANCH   3   4
ENDBRANCH   2   3
ENDBRANCH   1   2
BRANCH   1  23
ATOM     23  O   UNL A   1      37.777  21.386  24.956  1.00  0.00    -0.374 OA
BRANCH  23  24
ATOM     24  C   UNL A   1      37.712  19.959  24.914  1.00  0.00     0.202 C 
BRANCH  24  25
ATOM     25  C   UNL A   1      39.001  19.207  25.263  1.00  0.00     0.261 C 
BRANCH  25  26
ATOM     26  O   UNL A   1      39.732  19.877  26.308  1.00  0.00    -0.460 OA
BRANCH  26  27
ATOM     27  C   UNL A   1      41.075  19.735  26.244  1.00  0.00     0.338 C 
ATOM     28  O   UNL A   1      41.701  18.794  25.774  1.00  0.00    -0.246 OA
BRANCH  27  29
ATOM     29  C   UNL A   1      41.734  20.991  26.646  1.00  0.00     0.060 A 
ATOM     30  C   UNL A   1      41.829  21.257  28.018  1.00  0.00     0.016 A 
ATOM     31  C   UNL A   1      42.187  21.922  25.709  1.00  0.00     0.016 A 
ATOM     32  C   UNL A   1      42.324  22.481  28.460  1.00  0.00     0.010 A 
ATOM     33  C   UNL A   1      42.672  23.157  26.154  1.00  0.00     0.010 A 
ATOM     34  C   UNL A   1      42.703  23.456  27.528  1.00  0.00    -0.014 A 
BRANCH  34  35
ATOM     35  C   UNL A   1      42.962  24.839  27.994  1.00  0.00     0.031 A 
ATOM     36  C   UNL A   1      44.384  25.273  28.220  1.00  0.00     0.074 A 
ATOM     37  C   UNL A   1      41.953  25.710  28.172  1.00  0.00     0.049 A 
ATOM     38  N   UNL A   1      44.845  26.421  28.643  1.00  0.00    -0.248 NA
ATOM     39  C   UNL A   1      45.426  24.275  27.928  1.00  0.00     0.031 C 
ATOM     40  C   UNL A   1      40.538  25.423  27.944  1.00  0.00     0.029 A 
ATOM     41  N   UNL A   1      41.972  27.016  28.590  1.00  0.00    -0.354 N 
ATOM     42  C   UNL A   1      46.228  26.285  28.668  1.00  0.00     0.074 A 
ATOM     43  C   UNL A   1      46.530  24.932  28.251  1.00  0.00     0.031 C 
ATOM     44  C   UNL A   1      39.821  26.520  28.239  1.00  0.00     0.029 A 
ATOM     45  C   UNL A   1      40.721  27.574  28.700  1.00  0.00     0.049 A 
ATOM     46  H   UNL A   1      42.801  27.507  28.791  1.00  0.00     0.167 HD
ATOM     47  C   UNL A   1      47.164  27.206  29.000  1.00  0.00     0.037 A 
ATOM     48  C   UNL A   1      40.350  28.791  29.143  1.00  0.00     0.037 A 
ATOM     49  C   UNL A   1      46.864  28.550  29.417  1.00  0.00     0.049 A 
ATOM     50  C   UNL A   1      41.404  29.775  29.576  1.00  0.00     0.074 A 
ATOM     51  C   UNL A   1      47.741  29.561  29.767  1.00  0.00     0.029 A 
ATOM     52  N   UNL A   1      45.584  29.068  29.547  1.00  0.00    -0.354 N 
ATOM     53  N   UNL A   1      42.708  29.642  29.580  1.00  0.00    -0.248 NA
ATOM     54  C   UNL A   1      40.933  31.081  30.060  1.00  0.00     0.031 C 
ATOM     55  C   UNL A   1      46.991  30.677  30.151  1.00  0.00     0.029 A 
ATOM     56  C   UNL A   1      45.647  30.377  29.995  1.00  0.00     0.049 A 
ATOM     57  H   UNL A   1      44.754  28.577  29.351  1.00  0.00     0.167 HD
ATOM     58  C   UNL A   1      43.214  30.851  30.043  1.00  0.00     0.074 A 
ATOM     59  C   UNL A   1      42.075  31.710  30.297  1.00  0.00     0.031 C 
ATOM     60  C   UNL A   1      44.505  31.219  30.238  1.00  0.00     0.037 A 
BRANCH  47  61
ATOM     61  C   UNL A   1      48.600  26.779  28.944  1.00  0.00     0.057 A 
ATOM     62  C   UNL A   1      49.380  26.956  27.796  1.00  0.00     0.134 A 
ATOM     63  C   UNL A   1      49.216  26.199  30.062  1.00  0.00     0.134 A 
ATOM     64  F   UNL A   1      48.845  27.488  26.686  1.00  0.00    -0.206 F 
ATOM     65  C   UNL A   1      50.717  26.554  27.751  1.00  0.00     0.040 A 
ATOM     66  C   UNL A   1      50.558  25.817  30.038  1.00  0.00     0.040 A 
ATOM     67  F   UNL A   1      48.525  26.004  31.195  1.00  0.00    -0.206 F 
ATOM     68  C   UNL A   1      51.311  25.988  28.878  1.00  0.00     0.006 A 
ENDBRANCH  47  61
BRANCH  48  69
ATOM     69  C   UNL A   1      38.910  29.143  29.217  1.00  0.00     0.057 A 
ATOM     70  C   UNL A   1      38.192  29.023  30.412  1.00  0.00     0.134 A 
ATOM     71  C   UNL A   1      38.215  29.594  28.088  1.00  0.00     0.134 A 
ATOM     72  F   UNL A   1      38.798  28.573  31.521  1.00  0.00    -0.206 F 
ATOM     73  C   UNL A   1      36.831  29.325  30.479  1.00  0.00     0.040 A 
ATOM     74  C   UNL A   1      36.859  29.922  28.147  1.00  0.00     0.040 A 
ATOM     75  F   UNL A   1      38.847  29.730  26.913  1.00  0.00    -0.206 F 
ATOM     76  C   UNL A   1      36.162  29.782  29.345  1.00  0.00     0.006 A 
ENDBRANCH  48  69
BRANCH  60  77
ATOM     77  C   UNL A   1      44.757  32.617  30.720  1.00  0.00     0.057 A 
ATOM     78  C   UNL A   1      44.887  33.693  29.834  1.00  0.00     0.134 A 
ATOM     79  C   UNL A   1      44.825  32.896  32.092  1.00  0.00     0.134 A 
ATOM     80  F   UNL A   1      44.843  33.492  28.508  1.00  0.00    -0.206 F 
ATOM     81  C   UNL A   1      45.098  34.995  30.294  1.00  0.00     0.040 A 
ATOM     82  C   UNL A   1      45.010  34.195  32.565  1.00  0.00     0.040 A 
ATOM     83  F   UNL A   1      44.697  31.912  32.995  1.00  0.00    -0.206 F 
ATOM     84  C   UNL A   1      45.153  35.249  31.664  1.00  0.00     0.006 A 
ENDBRANCH  60  77
ENDBRANCH  34  35
ENDBRANCH  27  29
ENDBRANCH  26  27
ENDBRANCH  25  26
ENDBRANCH  24  25
ENDBRANCH  23  24
ENDBRANCH   1  23
TORSDOF 18
ENDMDL
