MODEL 1
REMARK VINA RESULT:     -11.8      0.000      0.000
REMARK SMILES O=C(OCCOCCOC(=O)[C@@H]1[C@@H](C(=O)Nc2ccc(F)c(F)c2)[C@H]2CC[C@@H]1O2)c1ccc(-c2c3nc(c(-c4c(F)cccc4F)c4ccc([nH]4)c(-c4c(F)cccc4F)c4nc(c(-c5c(F)cccc5F)c5ccc2[nH]5)C=C4)C=C3)cc1
REMARK SMILES IDX 6 1 5 2 4 3 3 4 2 5 1 6 30 7 31 8 83 9 32 10 82 11 33 12
REMARK SMILES IDX 34 13 35 14 76 15 36 16 81 17 75 18 77 19 37 20 80 21 74 22
REMARK SMILES IDX 73 23 38 25 64 26 47 27 63 28 48 29 51 30 62 31 78 32 49 33
REMARK SMILES IDX 50 34 61 36 79 37 52 38 39 39 40 40 45 41 41 42 42 43 44 44
REMARK SMILES IDX 46 45 43 46 65 47 66 48 71 49 67 50 68 51 70 52 72 53 69 54
REMARK SMILES IDX 53 55 54 56 59 57 55 58 56 59 58 60 60 61 57 62 7 63 8 64
REMARK SMILES IDX 9 65 10 66 11 67 12 68 13 69 28 70 25 71 27 72 29 73 26 74
REMARK SMILES IDX 14 75 15 76 16 77 17 79 18 80 24 81 19 82 22 83 20 84 23 85
REMARK SMILES IDX 21 86
REMARK H PARENT 77 24 51 35 16 78
REMARK Flexibility Score: inf
ROOT
ATOM      1  O   UNL A   1      33.003  30.489  26.378  1.00  0.00    -0.374 OA
ENDROOT
BRANCH   1   2
ATOM      2  C   UNL A   1      31.787  31.238  26.228  1.00  0.00     0.202 C 
BRANCH   2   3
ATOM      3  C   UNL A   1      31.422  32.335  27.249  1.00  0.00     0.261 C 
BRANCH   3   4
ATOM      4  O   UNL A   1      32.317  33.458  27.224  1.00  0.00    -0.460 OA
BRANCH   4   5
ATOM      5  C   UNL A   1      33.144  33.880  28.213  1.00  0.00     0.338 C 
ATOM      6  O   UNL A   1      32.853  34.891  28.847  1.00  0.00    -0.246 OA
BRANCH   5   7
ATOM      7  C   UNL A   1      34.412  33.172  28.556  1.00  0.00     0.060 A 
ATOM      8  C   UNL A   1      34.479  31.838  28.951  1.00  0.00     0.016 A 
ATOM      9  C   UNL A   1      35.616  33.879  28.426  1.00  0.00     0.016 A 
ATOM     10  C   UNL A   1      35.652  31.248  29.344  1.00  0.00     0.010 A 
ATOM     11  C   UNL A   1      36.830  33.275  28.765  1.00  0.00     0.010 A 
ATOM     12  C   UNL A   1      36.830  31.970  29.267  1.00  0.00    -0.014 A 
BRANCH  12  13
ATOM     13  C   UNL A   1      37.975  31.348  29.933  1.00  0.00     0.031 A 
ATOM     14  C   UNL A   1      38.112  31.570  31.405  1.00  0.00     0.074 A 
ATOM     15  C   UNL A   1      38.675  30.410  29.272  1.00  0.00     0.049 A 
ATOM     16  N   UNL A   1      39.006  31.107  32.231  1.00  0.00    -0.248 NA
ATOM     17  C   UNL A   1      37.081  32.412  32.041  1.00  0.00     0.031 C 
ATOM     18  C   UNL A   1      38.434  29.998  27.882  1.00  0.00     0.029 A 
ATOM     19  N   UNL A   1      39.677  29.587  29.692  1.00  0.00    -0.354 N 
ATOM     20  C   UNL A   1      38.680  31.644  33.468  1.00  0.00     0.074 A 
ATOM     21  C   UNL A   1      37.499  32.456  33.295  1.00  0.00     0.031 C 
ATOM     22  C   UNL A   1      39.249  28.976  27.580  1.00  0.00     0.029 A 
ATOM     23  C   UNL A   1      40.122  28.727  28.718  1.00  0.00     0.049 A 
ATOM     24  H   UNL A   1      40.045  29.606  30.606  1.00  0.00     0.167 HD
ATOM     25  C   UNL A   1      39.336  31.477  34.636  1.00  0.00     0.037 A 
ATOM     26  C   UNL A   1      41.156  27.870  28.751  1.00  0.00     0.037 A 
ATOM     27  C   UNL A   1      40.502  30.648  34.753  1.00  0.00     0.049 A 
ATOM     28  C   UNL A   1      41.946  27.801  30.028  1.00  0.00     0.074 A 
ATOM     29  C   UNL A   1      41.315  30.440  35.849  1.00  0.00     0.029 A 
ATOM     30  N   UNL A   1      41.018  29.881  33.713  1.00  0.00    -0.354 N 
ATOM     31  N   UNL A   1      41.709  28.392  31.178  1.00  0.00    -0.248 NA
ATOM     32  C   UNL A   1      43.151  26.969  30.011  1.00  0.00     0.031 C 
ATOM     33  C   UNL A   1      42.358  29.595  35.454  1.00  0.00     0.029 A 
ATOM     34  C   UNL A   1      42.156  29.219  34.133  1.00  0.00     0.049 A 
ATOM     35  H   UNL A   1      40.630  29.819  32.810  1.00  0.00     0.167 HD
ATOM     36  C   UNL A   1      42.723  27.983  32.032  1.00  0.00     0.074 A 
ATOM     37  C   UNL A   1      43.563  27.079  31.266  1.00  0.00     0.031 C 
ATOM     38  C   UNL A   1      42.948  28.319  33.327  1.00  0.00     0.037 A 
BRANCH  25  39
ATOM     39  C   UNL A   1      38.867  32.297  35.802  1.00  0.00     0.057 A 
ATOM     40  C   UNL A   1      39.219  33.642  35.976  1.00  0.00     0.134 A 
ATOM     41  C   UNL A   1      38.103  31.696  36.811  1.00  0.00     0.134 A 
ATOM     42  F   UNL A   1      39.984  34.269  35.068  1.00  0.00    -0.206 F 
ATOM     43  C   UNL A   1      38.855  34.349  37.125  1.00  0.00     0.040 A 
ATOM     44  C   UNL A   1      37.710  32.401  37.951  1.00  0.00     0.040 A 
ATOM     45  F   UNL A   1      37.745  30.407  36.718  1.00  0.00    -0.206 F 
ATOM     46  C   UNL A   1      38.097  33.728  38.115  1.00  0.00     0.006 A 
ENDBRANCH  25  39
BRANCH  26  47
ATOM     47  C   UNL A   1      41.533  27.088  27.546  1.00  0.00     0.057 A 
ATOM     48  C   UNL A   1      41.115  25.765  27.372  1.00  0.00     0.134 A 
ATOM     49  C   UNL A   1      42.345  27.639  26.543  1.00  0.00     0.134 A 
ATOM     50  F   UNL A   1      40.349  25.172  28.300  1.00  0.00    -0.206 F 
ATOM     51  C   UNL A   1      41.503  25.013  26.261  1.00  0.00     0.040 A 
ATOM     52  C   UNL A   1      42.715  26.910  25.412  1.00  0.00     0.040 A 
ATOM     53  F   UNL A   1      42.782  28.903  26.642  1.00  0.00    -0.206 F 
ATOM     54  C   UNL A   1      42.302  25.587  25.274  1.00  0.00     0.006 A 
ENDBRANCH  26  47
BRANCH  38  55
ATOM     55  C   UNL A   1      44.113  27.656  33.996  1.00  0.00     0.057 A 
ATOM     56  C   UNL A   1      45.381  28.245  34.036  1.00  0.00     0.134 A 
ATOM     57  C   UNL A   1      43.944  26.423  34.639  1.00  0.00     0.134 A 
ATOM     58  F   UNL A   1      45.606  29.419  33.425  1.00  0.00    -0.206 F 
ATOM     59  C   UNL A   1      46.452  27.616  34.669  1.00  0.00     0.040 A 
ATOM     60  C   UNL A   1      44.997  25.802  35.305  1.00  0.00     0.040 A 
ATOM     61  F   UNL A   1      42.748  25.814  34.644  1.00  0.00    -0.206 F 
ATOM     62  C   UNL A   1      46.258  26.395  35.313  1.00  0.00     0.006 A 
ENDBRANCH  38  55
ENDBRANCH  12  13
ENDBRANCH   5   7
ENDBRANCH   4   5
ENDBRANCH   3   4
ENDBRANCH   2   3
ENDBRANCH   1   2
BRANCH   1  63
ATOM     63  C   UNL A   1      33.367  29.582  25.326  1.00  0.00     0.202 C 
BRANCH  63  64
ATOM     64  C   UNL A   1      33.858  28.242  25.858  1.00  0.00     0.261 C 
BRANCH  64  65
ATOM     65  O   UNL A   1      33.191  28.058  27.106  1.00  0.00    -0.463 OA
BRANCH  65  66
ATOM     66  C   UNL A   1      31.991  27.453  26.971  1.00  0.00     0.312 C 
ATOM     67  O   UNL A   1      30.999  27.785  27.597  1.00  0.00    -0.252 OA
BRANCH  66  68
ATOM     68  C   UNL A   1      31.995  26.353  25.929  1.00  0.00     0.143 C 
ATOM     69  C   UNL A   1      30.931  26.668  24.883  1.00  0.00     0.124 C 
ATOM     70  C   UNL A   1      31.525  25.002  26.490  1.00  0.00     0.133 C 
ATOM     71  C   UNL A   1      30.004  25.432  25.018  1.00  0.00     0.132 C 
ATOM     72  C   UNL A   1      31.765  23.896  25.461  1.00  0.00     0.036 C 
ATOM     73  O   UNL A   1      30.093  25.165  26.441  1.00  0.00    -0.373 OA
ATOM     74  C   UNL A   1      30.585  24.107  24.519  1.00  0.00     0.035 C 
BRANCH  69  75
ATOM     75  C   UNL A   1      31.396  26.919  23.457  1.00  0.00     0.231 C 
ATOM     76  O   UNL A   1      32.251  26.192  22.938  1.00  0.00    -0.274 OA
ATOM     77  N   UNL A   1      30.815  27.843  22.633  1.00  0.00    -0.326 N 
ATOM     78  H   UNL A   1      31.185  27.862  21.720  1.00  0.00     0.169 HD
BRANCH  77  79
ATOM     79  C   UNL A   1      29.791  28.764  22.860  1.00  0.00     0.044 A 
ATOM     80  C   UNL A   1      28.451  28.353  22.825  1.00  0.00     0.029 A 
ATOM     81  C   UNL A   1      30.112  30.046  23.313  1.00  0.00     0.068 A 
ATOM     82  C   UNL A   1      27.429  29.259  23.139  1.00  0.00     0.044 A 
ATOM     83  C   UNL A   1      29.088  30.941  23.618  1.00  0.00     0.160 A 
ATOM     84  C   UNL A   1      27.756  30.557  23.519  1.00  0.00     0.158 A 
ATOM     85  F   UNL A   1      29.401  32.181  24.025  1.00  0.00    -0.204 F 
ATOM     86  F   UNL A   1      26.776  31.426  23.808  1.00  0.00    -0.204 F 
ENDBRANCH  77  79
ENDBRANCH  69  75
ENDBRANCH  66  68
ENDBRANCH  65  66
ENDBRANCH  64  65
ENDBRANCH  63  64
ENDBRANCH   1  63
TORSDOF 16
ENDMDL
MODEL 2
REMARK VINA RESULT:     -11.7      2.427      3.781
REMARK SMILES O=C(OCCOCCOC(=O)[C@@H]1[C@@H](C(=O)Nc2ccc(F)c(F)c2)[C@H]2CC[C@@H]1O2)c1ccc(-c2c3nc(c(-c4c(F)cccc4F)c4ccc([nH]4)c(-c4c(F)cccc4F)c4nc(c(-c5c(F)cccc5F)c5ccc2[nH]5)C=C4)C=C3)cc1
REMARK SMILES IDX 6 1 5 2 4 3 3 4 2 5 1 6 30 7 31 8 83 9 32 10 82 11 33 12
REMARK SMILES IDX 34 13 35 14 76 15 36 16 81 17 75 18 77 19 37 20 80 21 74 22
REMARK SMILES IDX 73 23 38 25 64 26 47 27 63 28 48 29 51 30 62 31 78 32 49 33
REMARK SMILES IDX 50 34 61 36 79 37 52 38 39 39 40 40 45 41 41 42 42 43 44 44
REMARK SMILES IDX 46 45 43 46 65 47 66 48 71 49 67 50 68 51 70 52 72 53 69 54
REMARK SMILES IDX 53 55 54 56 59 57 55 58 56 59 58 60 60 61 57 62 7 63 8 64
REMARK SMILES IDX 9 65 10 66 11 67 12 68 13 69 28 70 25 71 27 72 29 73 26 74
REMARK SMILES IDX 14 75 15 76 16 77 17 79 18 80 24 81 19 82 22 83 20 84 23 85
REMARK SMILES IDX 21 86
REMARK H PARENT 77 24 51 35 16 78
REMARK Flexibility Score: inf
ROOT
ATOM      1  O   UNL A   1      31.148  31.196  25.672  1.00  0.00    -0.374 OA
ENDROOT
BRANCH   1   2
ATOM      2  C   UNL A   1      31.410  31.941  26.871  1.00  0.00     0.202 C 
BRANCH   2   3
ATOM      3  C   UNL A   1      32.237  33.242  26.808  1.00  0.00     0.261 C 
BRANCH   3   4
ATOM      4  O   UNL A   1      32.210  33.995  28.031  1.00  0.00    -0.460 OA
BRANCH   4   5
ATOM      5  C   UNL A   1      33.268  34.494  28.719  1.00  0.00     0.338 C 
ATOM      6  O   UNL A   1      33.239  35.661  29.100  1.00  0.00    -0.246 OA
BRANCH   5   7
ATOM      7  C   UNL A   1      34.483  33.681  29.022  1.00  0.00     0.060 A 
ATOM      8  C   UNL A   1      34.449  32.397  29.559  1.00  0.00     0.016 A 
ATOM      9  C   UNL A   1      35.734  34.226  28.702  1.00  0.00     0.016 A 
ATOM     10  C   UNL A   1      35.589  31.718  29.906  1.00  0.00     0.010 A 
ATOM     11  C   UNL A   1      36.907  33.524  28.994  1.00  0.00     0.010 A 
ATOM     12  C   UNL A   1      36.822  32.286  29.639  1.00  0.00    -0.014 A 
BRANCH  12  13
ATOM     13  C   UNL A   1      37.958  31.607  30.263  1.00  0.00     0.031 A 
ATOM     14  C   UNL A   1      38.140  31.792  31.735  1.00  0.00     0.074 A 
ATOM     15  C   UNL A   1      38.604  30.657  29.565  1.00  0.00     0.049 A 
ATOM     16  N   UNL A   1      39.035  31.279  32.528  1.00  0.00    -0.248 NA
ATOM     17  C   UNL A   1      37.158  32.660  32.414  1.00  0.00     0.031 C 
ATOM     18  C   UNL A   1      38.314  30.285  28.174  1.00  0.00     0.029 A 
ATOM     19  N   UNL A   1      39.584  29.788  29.943  1.00  0.00    -0.354 N 
ATOM     20  C   UNL A   1      38.761  31.801  33.784  1.00  0.00     0.074 A 
ATOM     21  C   UNL A   1      37.609  32.661  33.657  1.00  0.00     0.031 C 
ATOM     22  C   UNL A   1      39.081  29.239  27.831  1.00  0.00     0.029 A 
ATOM     23  C   UNL A   1      39.971  28.933  28.941  1.00  0.00     0.049 A 
ATOM     24  H   UNL A   1      39.976  29.774  30.847  1.00  0.00     0.167 HD
ATOM     25  C   UNL A   1      39.438  31.585  34.932  1.00  0.00     0.037 A 
ATOM     26  C   UNL A   1      40.972  28.037  28.930  1.00  0.00     0.037 A 
ATOM     27  C   UNL A   1      40.574  30.709  35.002  1.00  0.00     0.049 A 
ATOM     28  C   UNL A   1      41.790  27.910  30.185  1.00  0.00     0.074 A 
ATOM     29  C   UNL A   1      41.406  30.448  36.072  1.00  0.00     0.029 A 
ATOM     30  N   UNL A   1      41.035  29.946  33.934  1.00  0.00    -0.354 N 
ATOM     31  N   UNL A   1      41.605  28.485  31.352  1.00  0.00    -0.248 NA
ATOM     32  C   UNL A   1      42.961  27.034  30.120  1.00  0.00     0.031 C 
ATOM     33  C   UNL A   1      42.405  29.572  35.634  1.00  0.00     0.029 A 
ATOM     34  C   UNL A   1      42.156  29.232  34.311  1.00  0.00     0.049 A 
ATOM     35  H   UNL A   1      40.622  29.918  33.040  1.00  0.00     0.167 HD
ATOM     36  C   UNL A   1      42.622  28.020  32.171  1.00  0.00     0.074 A 
ATOM     37  C   UNL A   1      43.408  27.101  31.366  1.00  0.00     0.031 C 
ATOM     38  C   UNL A   1      42.892  28.320  33.467  1.00  0.00     0.037 A 
BRANCH  25  39
ATOM     39  C   UNL A   1      39.030  32.397  36.125  1.00  0.00     0.057 A 
ATOM     40  C   UNL A   1      39.527  33.684  36.375  1.00  0.00     0.134 A 
ATOM     41  C   UNL A   1      38.174  31.841  37.084  1.00  0.00     0.134 A 
ATOM     42  F   UNL A   1      40.385  34.261  35.519  1.00  0.00    -0.206 F 
ATOM     43  C   UNL A   1      39.211  34.373  37.549  1.00  0.00     0.040 A 
ATOM     44  C   UNL A   1      37.829  32.531  38.247  1.00  0.00     0.040 A 
ATOM     45  F   UNL A   1      37.675  30.607  36.917  1.00  0.00    -0.206 F 
ATOM     46  C   UNL A   1      38.358  33.796  38.488  1.00  0.00     0.006 A 
ENDBRANCH  25  39
BRANCH  26  47
ATOM     47  C   UNL A   1      41.289  27.266  27.700  1.00  0.00     0.057 A 
ATOM     48  C   UNL A   1      40.807  25.967  27.506  1.00  0.00     0.134 A 
ATOM     49  C   UNL A   1      42.104  27.803  26.693  1.00  0.00     0.134 A 
ATOM     50  F   UNL A   1      40.034  25.388  28.436  1.00  0.00    -0.206 F 
ATOM     51  C   UNL A   1      41.138  25.224  26.371  1.00  0.00     0.040 A 
ATOM     52  C   UNL A   1      42.419  27.084  25.539  1.00  0.00     0.040 A 
ATOM     53  F   UNL A   1      42.601  29.043  26.811  1.00  0.00    -0.206 F 
ATOM     54  C   UNL A   1      41.942  25.785  25.380  1.00  0.00     0.006 A 
ENDBRANCH  26  47
BRANCH  38  55
ATOM     55  C   UNL A   1      44.047  27.598  34.092  1.00  0.00     0.057 A 
ATOM     56  C   UNL A   1      45.337  28.141  34.117  1.00  0.00     0.134 A 
ATOM     57  C   UNL A   1      43.848  26.358  34.710  1.00  0.00     0.134 A 
ATOM     58  F   UNL A   1      45.591  29.320  33.529  1.00  0.00    -0.206 F 
ATOM     59  C   UNL A   1      46.397  27.458  34.710  1.00  0.00     0.040 A 
ATOM     60  C   UNL A   1      44.892  25.683  35.337  1.00  0.00     0.040 A 
ATOM     61  F   UNL A   1      42.630  25.792  34.729  1.00  0.00    -0.206 F 
ATOM     62  C   UNL A   1      46.174  26.229  35.328  1.00  0.00     0.006 A 
ENDBRANCH  38  55
ENDBRANCH  12  13
ENDBRANCH   5   7
ENDBRANCH   4   5
ENDBRANCH   3   4
ENDBRANCH   2   3
ENDBRANCH   1   2
BRANCH   1  63
ATOM     63  C   UNL A   1      31.735  29.890  25.552  1.00  0.00     0.202 C 
BRANCH  63  64
ATOM     64  C   UNL A   1      32.310  29.389  26.869  1.00  0.00     0.261 C 
BRANCH  64  65
ATOM     65  O   UNL A   1      31.661  28.144  27.122  1.00  0.00    -0.463 OA
BRANCH  65  66
ATOM     66  C   UNL A   1      32.274  27.104  26.515  1.00  0.00     0.312 C 
ATOM     67  O   UNL A   1      33.484  26.957  26.499  1.00  0.00    -0.252 OA
BRANCH  66  68
ATOM     68  C   UNL A   1      31.301  26.119  25.901  1.00  0.00     0.143 C 
ATOM     69  C   UNL A   1      31.958  24.744  25.862  1.00  0.00     0.124 C 
ATOM     70  C   UNL A   1      31.029  26.402  24.415  1.00  0.00     0.133 C 
ATOM     71  C   UNL A   1      31.963  24.456  24.338  1.00  0.00     0.132 C 
ATOM     72  C   UNL A   1      29.880  25.523  23.916  1.00  0.00     0.036 C 
ATOM     73  O   UNL A   1      32.179  25.786  23.800  1.00  0.00    -0.373 OA
ATOM     74  C   UNL A   1      30.595  24.193  23.706  1.00  0.00     0.035 C 
BRANCH  69  75
ATOM     75  C   UNL A   1      31.319  23.634  26.682  1.00  0.00     0.231 C 
ATOM     76  O   UNL A   1      30.193  23.781  27.168  1.00  0.00    -0.274 OA
ATOM     77  N   UNL A   1      31.868  22.388  26.809  1.00  0.00    -0.326 N 
ATOM     78  H   UNL A   1      31.320  21.753  27.327  1.00  0.00     0.169 HD
BRANCH  77  79
ATOM     79  C   UNL A   1      33.070  21.858  26.335  1.00  0.00     0.044 A 
ATOM     80  C   UNL A   1      33.063  20.751  25.475  1.00  0.00     0.029 A 
ATOM     81  C   UNL A   1      34.260  22.553  26.562  1.00  0.00     0.068 A 
ATOM     82  C   UNL A   1      34.263  20.275  24.931  1.00  0.00     0.044 A 
ATOM     83  C   UNL A   1      35.450  22.069  26.020  1.00  0.00     0.160 A 
ATOM     84  C   UNL A   1      35.455  20.931  25.221  1.00  0.00     0.158 A 
ATOM     85  F   UNL A   1      36.596  22.722  26.265  1.00  0.00    -0.204 F 
ATOM     86  F   UNL A   1      36.605  20.467  24.709  1.00  0.00    -0.204 F 
ENDBRANCH  77  79
ENDBRANCH  69  75
ENDBRANCH  66  68
ENDBRANCH  65  66
ENDBRANCH  64  65
ENDBRANCH  63  64
ENDBRANCH   1  63
TORSDOF 16
ENDMDL
MODEL 3
REMARK VINA RESULT:     -11.5      1.459      2.131
REMARK SMILES O=C(OCCOCCOC(=O)[C@@H]1[C@@H](C(=O)Nc2ccc(F)c(F)c2)[C@H]2CC[C@@H]1O2)c1ccc(-c2c3nc(c(-c4c(F)cccc4F)c4ccc([nH]4)c(-c4c(F)cccc4F)c4nc(c(-c5c(F)cccc5F)c5ccc2[nH]5)C=C4)C=C3)cc1
REMARK SMILES IDX 6 1 5 2 4 3 3 4 2 5 1 6 30 7 31 8 83 9 32 10 82 11 33 12
REMARK SMILES IDX 34 13 35 14 76 15 36 16 81 17 75 18 77 19 37 20 80 21 74 22
REMARK SMILES IDX 73 23 38 25 64 26 47 27 63 28 48 29 51 30 62 31 78 32 49 33
REMARK SMILES IDX 50 34 61 36 79 37 52 38 39 39 40 40 45 41 41 42 42 43 44 44
REMARK SMILES IDX 46 45 43 46 65 47 66 48 71 49 67 50 68 51 70 52 72 53 69 54
REMARK SMILES IDX 53 55 54 56 59 57 55 58 56 59 58 60 60 61 57 62 7 63 8 64
REMARK SMILES IDX 9 65 10 66 11 67 12 68 13 69 28 70 25 71 27 72 29 73 26 74
REMARK SMILES IDX 14 75 15 76 16 77 17 79 18 80 24 81 19 82 22 83 20 84 23 85
REMARK SMILES IDX 21 86
REMARK H PARENT 77 24 51 35 16 78
REMARK Flexibility Score: inf
ROOT
ATOM      1  O   UNL A   1      32.976  30.425  25.942  1.00  0.00    -0.374 OA
ENDROOT
BRANCH   1   2
ATOM      2  C   UNL A   1      31.772  30.782  26.640  1.00  0.00     0.202 C 
BRANCH   2   3
ATOM      3  C   UNL A   1      31.434  32.267  26.889  1.00  0.00     0.261 C 
BRANCH   3   4
ATOM      4  O   UNL A   1      32.590  33.117  26.925  1.00  0.00    -0.460 OA
BRANCH   4   5
ATOM      5  C   UNL A   1      33.314  33.484  28.012  1.00  0.00     0.338 C 
ATOM      6  O   UNL A   1      32.915  34.410  28.713  1.00  0.00    -0.246 OA
BRANCH   5   7
ATOM      7  C   UNL A   1      34.595  32.815  28.386  1.00  0.00     0.060 A 
ATOM      8  C   UNL A   1      34.698  31.476  28.754  1.00  0.00     0.016 A 
ATOM      9  C   UNL A   1      35.775  33.569  28.317  1.00  0.00     0.016 A 
ATOM     10  C   UNL A   1      35.878  30.920  29.177  1.00  0.00     0.010 A 
ATOM     11  C   UNL A   1      36.998  33.003  28.688  1.00  0.00     0.010 A 
ATOM     12  C   UNL A   1      37.030  31.687  29.161  1.00  0.00    -0.014 A 
BRANCH  12  13
ATOM     13  C   UNL A   1      38.172  31.092  29.855  1.00  0.00     0.031 A 
ATOM     14  C   UNL A   1      38.286  31.347  31.323  1.00  0.00     0.074 A 
ATOM     15  C   UNL A   1      38.891  30.148  29.223  1.00  0.00     0.049 A 
ATOM     16  N   UNL A   1      39.174  30.912  32.170  1.00  0.00    -0.248 NA
ATOM     17  C   UNL A   1      37.237  32.191  31.928  1.00  0.00     0.031 C 
ATOM     18  C   UNL A   1      38.674  29.705  27.839  1.00  0.00     0.029 A 
ATOM     19  N   UNL A   1      39.896  29.346  29.674  1.00  0.00    -0.354 N 
ATOM     20  C   UNL A   1      38.825  31.470  33.392  1.00  0.00     0.074 A 
ATOM     21  C   UNL A   1      37.638  32.265  33.186  1.00  0.00     0.031 C 
ATOM     22  C   UNL A   1      39.504  28.686  27.570  1.00  0.00     0.029 A 
ATOM     23  C   UNL A   1      40.364  28.472  28.724  1.00  0.00     0.049 A 
ATOM     24  H   UNL A   1      40.252  29.389  30.592  1.00  0.00     0.167 HD
ATOM     25  C   UNL A   1      39.467  31.336  34.572  1.00  0.00     0.037 A 
ATOM     26  C   UNL A   1      41.408  27.627  28.789  1.00  0.00     0.037 A 
ATOM     27  C   UNL A   1      40.641  30.523  34.722  1.00  0.00     0.049 A 
ATOM     28  C   UNL A   1      42.180  27.594  30.078  1.00  0.00     0.074 A 
ATOM     29  C   UNL A   1      41.441  30.348  35.833  1.00  0.00     0.029 A 
ATOM     30  N   UNL A   1      41.179  29.740  33.706  1.00  0.00    -0.354 N 
ATOM     31  N   UNL A   1      41.922  28.206  31.212  1.00  0.00    -0.248 NA
ATOM     32  C   UNL A   1      43.395  26.776  30.094  1.00  0.00     0.031 C 
ATOM     33  C   UNL A   1      42.498  29.506  35.470  1.00  0.00     0.029 A 
ATOM     34  C   UNL A   1      42.319  29.100  34.154  1.00  0.00     0.049 A 
ATOM     35  H   UNL A   1      40.804  29.655  32.799  1.00  0.00     0.167 HD
ATOM     36  C   UNL A   1      42.928  27.827  32.087  1.00  0.00     0.074 A 
ATOM     37  C   UNL A   1      43.788  26.917  31.352  1.00  0.00     0.031 C 
ATOM     38  C   UNL A   1      43.131  28.192  33.378  1.00  0.00     0.037 A 
BRANCH  25  39
ATOM     39  C   UNL A   1      38.973  32.174  35.713  1.00  0.00     0.057 A 
ATOM     40  C   UNL A   1      39.348  33.514  35.891  1.00  0.00     0.134 A 
ATOM     41  C   UNL A   1      38.159  31.599  36.698  1.00  0.00     0.134 A 
ATOM     42  F   UNL A   1      40.159  34.117  35.008  1.00  0.00    -0.206 F 
ATOM     43  C   UNL A   1      38.957  34.237  37.021  1.00  0.00     0.040 A 
ATOM     44  C   UNL A   1      37.740  32.320  37.817  1.00  0.00     0.040 A 
ATOM     45  F   UNL A   1      37.777  30.317  36.600  1.00  0.00    -0.206 F 
ATOM     46  C   UNL A   1      38.149  33.640  37.986  1.00  0.00     0.006 A 
ENDBRANCH  25  39
BRANCH  26  47
ATOM     47  C   UNL A   1      41.810  26.824  27.606  1.00  0.00     0.057 A 
ATOM     48  C   UNL A   1      41.405  25.494  27.453  1.00  0.00     0.134 A 
ATOM     49  C   UNL A   1      42.631  27.362  26.605  1.00  0.00     0.134 A 
ATOM     50  F   UNL A   1      40.631  24.913  28.381  1.00  0.00    -0.206 F 
ATOM     51  C   UNL A   1      41.817  24.723  26.364  1.00  0.00     0.040 A 
ATOM     52  C   UNL A   1      43.026  26.614  25.494  1.00  0.00     0.040 A 
ATOM     53  F   UNL A   1      43.056  28.632  26.684  1.00  0.00    -0.206 F 
ATOM     54  C   UNL A   1      42.626  25.284  25.377  1.00  0.00     0.006 A 
ENDBRANCH  26  47
BRANCH  38  55
ATOM     55  C   UNL A   1      44.294  27.557  34.076  1.00  0.00     0.057 A 
ATOM     56  C   UNL A   1      44.188  26.319  34.721  1.00  0.00     0.134 A 
ATOM     57  C   UNL A   1      45.547  28.183  34.066  1.00  0.00     0.134 A 
ATOM     58  F   UNL A   1      43.011  25.679  34.777  1.00  0.00    -0.206 F 
ATOM     59  C   UNL A   1      45.284  25.740  35.360  1.00  0.00     0.040 A 
ATOM     60  C   UNL A   1      46.656  27.597  34.669  1.00  0.00     0.040 A 
ATOM     61  F   UNL A   1      45.713  29.366  33.453  1.00  0.00    -0.206 F 
ATOM     62  C   UNL A   1      46.523  26.376  35.327  1.00  0.00     0.006 A 
ENDBRANCH  38  55
ENDBRANCH  12  13
ENDBRANCH   5   7
ENDBRANCH   4   5
ENDBRANCH   3   4
ENDBRANCH   2   3
ENDBRANCH   1   2
BRANCH   1  63
ATOM     63  C   UNL A   1      33.678  29.248  26.375  1.00  0.00     0.202 C 
BRANCH  63  64
ATOM     64  C   UNL A   1      32.785  28.015  26.400  1.00  0.00     0.261 C 
BRANCH  64  65
ATOM     65  O   UNL A   1      33.669  26.899  26.313  1.00  0.00    -0.463 OA
BRANCH  65  66
ATOM     66  C   UNL A   1      33.111  25.840  25.687  1.00  0.00     0.312 C 
ATOM     67  O   UNL A   1      31.943  25.521  25.824  1.00  0.00    -0.252 OA
BRANCH  66  68
ATOM     68  C   UNL A   1      34.073  25.124  24.761  1.00  0.00     0.143 C 
ATOM     69  C   UNL A   1      33.287  24.129  23.915  1.00  0.00     0.124 C 
ATOM     70  C   UNL A   1      35.058  24.217  25.516  1.00  0.00     0.133 C 
ATOM     71  C   UNL A   1      33.952  22.791  24.330  1.00  0.00     0.132 C 
ATOM     72  C   UNL A   1      36.136  23.704  24.560  1.00  0.00     0.036 C 
ATOM     73  O   UNL A   1      34.248  23.043  25.728  1.00  0.00    -0.373 OA
ATOM     74  C   UNL A   1      35.389  22.583  23.847  1.00  0.00     0.035 C 
BRANCH  69  75
ATOM     75  C   UNL A   1      33.264  24.348  22.410  1.00  0.00     0.231 C 
ATOM     76  O   UNL A   1      33.648  23.461  21.641  1.00  0.00    -0.274 OA
ATOM     77  N   UNL A   1      32.700  25.447  21.823  1.00  0.00    -0.326 N 
ATOM     78  H   UNL A   1      32.711  25.432  20.838  1.00  0.00     0.169 HD
BRANCH  77  79
ATOM     79  C   UNL A   1      32.112  26.587  22.376  1.00  0.00     0.044 A 
ATOM     80  C   UNL A   1      32.823  27.794  22.425  1.00  0.00     0.029 A 
ATOM     81  C   UNL A   1      30.752  26.568  22.696  1.00  0.00     0.068 A 
ATOM     82  C   UNL A   1      32.201  28.957  22.899  1.00  0.00     0.044 A 
ATOM     83  C   UNL A   1      30.145  27.729  23.171  1.00  0.00     0.160 A 
ATOM     84  C   UNL A   1      30.866  28.912  23.285  1.00  0.00     0.158 A 
ATOM     85  F   UNL A   1      28.846  27.700  23.506  1.00  0.00    -0.204 F 
ATOM     86  F   UNL A   1      30.276  30.023  23.750  1.00  0.00    -0.204 F 
ENDBRANCH  77  79
ENDBRANCH  69  75
ENDBRANCH  66  68
ENDBRANCH  65  66
ENDBRANCH  64  65
ENDBRANCH  63  64
ENDBRANCH   1  63
TORSDOF 16
ENDMDL
