MODEL 1
REMARK VINA RESULT:     -11.5      0.000      0.000
REMARK SMILES Cc1nc2scc(C)n2c1CNc1ccc(C(=O)OCCOCCOC(=O)c2ccc(-c3c4nc(c(-c5c(F)cccc5F)c5ccc([nH]5)c(-c5c(F)cccc5F)c5nc(c(-c6c(F)cccc6F)c6ccc3[nH]6)C=C5)C=C4)cc2)cc1
REMARK SMILES IDX 21 1 20 2 19 3 17 4 18 5 16 6 13 7 14 8 83 9 15 10 82 11
REMARK SMILES IDX 12 12 11 14 10 15 1 16 2 17 3 18 4 19 9 20 5 21 7 22 6 23
REMARK SMILES IDX 8 24 22 25 23 26 24 27 25 28 26 29 27 30 28 31 29 32 81 33
REMARK SMILES IDX 30 34 80 35 31 36 32 37 33 38 74 39 34 40 79 41 73 42 75 43
REMARK SMILES IDX 35 44 78 45 72 46 71 47 36 49 62 50 45 51 61 52 46 53 49 54
REMARK SMILES IDX 60 55 76 56 47 57 48 58 59 60 77 61 50 62 37 63 38 64 43 65
REMARK SMILES IDX 39 66 40 67 42 68 44 69 41 70 63 71 64 72 69 73 65 74 66 75
REMARK SMILES IDX 68 76 70 77 67 78 51 79 52 80 57 81 53 82 54 83 56 84 58 85
REMARK SMILES IDX 55 86
REMARK H PARENT 12 13 75 48 49 59
REMARK Flexibility Score: inf
ROOT
ATOM      1  C   UNL A   1      40.545  20.506  26.748  1.00  0.00     0.202 C 
ENDROOT
BRANCH   1   2
ATOM      2  C   UNL A   1      39.762  21.630  26.069  1.00  0.00     0.261 C 
BRANCH   2   3
ATOM      3  O   UNL A   1      38.504  21.183  25.544  1.00  0.00    -0.460 OA
BRANCH   3   4
ATOM      4  C   UNL A   1      37.550  22.143  25.519  1.00  0.00     0.338 C 
ATOM      5  O   UNL A   1      37.687  23.312  25.197  1.00  0.00    -0.246 OA
BRANCH   4   6
ATOM      6  C   UNL A   1      36.223  21.559  25.780  1.00  0.00     0.060 A 
ATOM      7  C   UNL A   1      33.536  20.829  25.822  1.00  0.00     0.034 A 
ATOM      8  C   UNL A   1      34.400  20.241  24.896  1.00  0.00     0.026 A 
ATOM      9  C   UNL A   1      34.076  21.631  26.841  1.00  0.00     0.026 A 
ATOM     10  C   UNL A   1      35.735  20.632  24.851  1.00  0.00     0.018 A 
ATOM     11  C   UNL A   1      35.422  21.995  26.831  1.00  0.00     0.018 A 
BRANCH   7  12
ATOM     12  N   UNL A   1      32.168  20.811  25.561  1.00  0.00    -0.379 N 
ATOM     13  H   UNL A   1      31.589  20.099  25.914  1.00  0.00     0.160 HD
BRANCH  12  14
ATOM     14  C   UNL A   1      31.631  21.891  24.744  1.00  0.00     0.169 C 
BRANCH  14  15
ATOM     15  C   UNL A   1      31.563  23.213  25.417  1.00  0.00     0.066 A 
ATOM     16  C   UNL A   1      29.639  22.887  27.138  1.00  0.00     0.069 C 
ATOM     17  C   UNL A   1      30.711  23.637  26.440  1.00  0.00     0.062 A 
ATOM     18  N   UNL A   1      30.999  24.922  26.843  1.00  0.00    -0.224 NA
ATOM     19  C   UNL A   1      32.010  25.253  26.094  1.00  0.00     0.194 A 
ATOM     20  N   UNL A   1      32.426  24.276  25.228  1.00  0.00    -0.290 N 
ATOM     21  S   UNL A   1      32.996  26.676  26.009  1.00  0.00    -0.105 S 
ATOM     22  C   UNL A   1      33.553  24.627  24.485  1.00  0.00     0.032 A 
ATOM     23  C   UNL A   1      33.975  25.873  24.790  1.00  0.00     0.090 A 
ATOM     24  C   UNL A   1      34.256  23.766  23.504  1.00  0.00     0.066 C 
ENDBRANCH  14  15
ENDBRANCH  12  14
ENDBRANCH   7  12
ENDBRANCH   4   6
ENDBRANCH   3   4
ENDBRANCH   2   3
ENDBRANCH   1   2
BRANCH   1  25
ATOM     25  O   UNL A   1      41.117  19.471  25.948  1.00  0.00    -0.374 OA
BRANCH  25  26
ATOM     26  C   UNL A   1      42.321  18.820  26.338  1.00  0.00     0.202 C 
BRANCH  26  27
ATOM     27  C   UNL A   1      43.460  18.708  25.337  1.00  0.00     0.261 C 
BRANCH  27  28
ATOM     28  O   UNL A   1      44.310  19.837  25.373  1.00  0.00    -0.460 OA
BRANCH  28  29
ATOM     29  C   UNL A   1      44.615  20.316  24.143  1.00  0.00     0.338 C 
ATOM     30  O   UNL A   1      44.674  19.698  23.099  1.00  0.00    -0.246 OA
BRANCH  29  31
ATOM     31  C   UNL A   1      45.035  21.713  24.288  1.00  0.00     0.060 A 
ATOM     32  C   UNL A   1      46.046  21.932  25.225  1.00  0.00     0.016 A 
ATOM     33  C   UNL A   1      44.142  22.715  23.887  1.00  0.00     0.016 A 
ATOM     34  C   UNL A   1      45.957  23.059  26.003  1.00  0.00     0.010 A 
ATOM     35  C   UNL A   1      44.025  23.811  24.693  1.00  0.00     0.010 A 
ATOM     36  C   UNL A   1      44.871  23.911  25.796  1.00  0.00    -0.014 A 
BRANCH  36  37
ATOM     37  C   UNL A   1      44.693  25.028  26.693  1.00  0.00     0.031 A 
ATOM     38  C   UNL A   1      45.836  25.953  26.584  1.00  0.00     0.074 A 
ATOM     39  C   UNL A   1      43.549  25.205  27.381  1.00  0.00     0.049 A 
ATOM     40  N   UNL A   1      46.818  26.091  27.411  1.00  0.00    -0.248 NA
ATOM     41  C   UNL A   1      46.067  26.591  25.273  1.00  0.00     0.031 C 
ATOM     42  C   UNL A   1      42.306  24.436  27.254  1.00  0.00     0.029 A 
ATOM     43  N   UNL A   1      43.215  26.194  28.258  1.00  0.00    -0.354 N 
ATOM     44  C   UNL A   1      47.623  27.064  26.826  1.00  0.00     0.074 A 
ATOM     45  C   UNL A   1      47.302  27.067  25.430  1.00  0.00     0.031 C 
ATOM     46  C   UNL A   1      41.295  25.118  27.840  1.00  0.00     0.029 A 
ATOM     47  C   UNL A   1      41.842  26.295  28.490  1.00  0.00     0.049 A 
ATOM     48  H   UNL A   1      43.879  26.782  28.686  1.00  0.00     0.167 HD
ATOM     49  C   UNL A   1      48.122  28.074  27.588  1.00  0.00     0.037 A 
ATOM     50  C   UNL A   1      41.227  27.333  29.109  1.00  0.00     0.037 A 
ATOM     51  C   UNL A   1      48.030  27.733  28.986  1.00  0.00     0.049 A 
ATOM     52  C   UNL A   1      42.264  28.066  29.873  1.00  0.00     0.074 A 
ATOM     53  C   UNL A   1      48.655  26.858  29.848  1.00  0.00     0.029 A 
ATOM     54  N   UNL A   1      46.832  28.086  29.553  1.00  0.00    -0.354 N 
ATOM     55  N   UNL A   1      42.878  27.566  30.910  1.00  0.00    -0.248 NA
ATOM     56  C   UNL A   1      42.924  29.209  29.251  1.00  0.00     0.031 C 
ATOM     57  C   UNL A   1      47.714  26.584  30.885  1.00  0.00     0.029 A 
ATOM     58  C   UNL A   1      46.560  27.335  30.661  1.00  0.00     0.049 A 
ATOM     59  H   UNL A   1      46.242  28.793  29.206  1.00  0.00     0.167 HD
ATOM     60  C   UNL A   1      44.175  28.037  30.803  1.00  0.00     0.074 A 
ATOM     61  C   UNL A   1      44.103  29.161  29.878  1.00  0.00     0.031 C 
ATOM     62  C   UNL A   1      45.225  27.268  31.213  1.00  0.00     0.037 A 
BRANCH  49  63
ATOM     63  C   UNL A   1      48.153  29.530  27.151  1.00  0.00     0.057 A 
ATOM     64  C   UNL A   1      49.363  30.235  27.282  1.00  0.00     0.134 A 
ATOM     65  C   UNL A   1      47.023  30.344  26.907  1.00  0.00     0.134 A 
ATOM     66  F   UNL A   1      50.512  29.587  27.526  1.00  0.00    -0.206 F 
ATOM     67  C   UNL A   1      49.428  31.634  27.250  1.00  0.00     0.040 A 
ATOM     68  C   UNL A   1      47.085  31.736  26.826  1.00  0.00     0.040 A 
ATOM     69  F   UNL A   1      45.777  29.869  26.828  1.00  0.00    -0.206 F 
ATOM     70  C   UNL A   1      48.285  32.391  27.030  1.00  0.00     0.006 A 
ENDBRANCH  49  63
BRANCH  50  71
ATOM     71  C   UNL A   1      39.886  27.906  28.852  1.00  0.00     0.057 A 
ATOM     72  C   UNL A   1      38.898  27.936  29.846  1.00  0.00     0.134 A 
ATOM     73  C   UNL A   1      39.641  28.691  27.713  1.00  0.00     0.134 A 
ATOM     74  F   UNL A   1      39.061  27.255  30.990  1.00  0.00    -0.206 F 
ATOM     75  C   UNL A   1      37.740  28.717  29.722  1.00  0.00     0.040 A 
ATOM     76  C   UNL A   1      38.490  29.473  27.574  1.00  0.00     0.040 A 
ATOM     77  F   UNL A   1      40.557  28.796  26.738  1.00  0.00    -0.206 F 
ATOM     78  C   UNL A   1      37.539  29.498  28.587  1.00  0.00     0.006 A 
ENDBRANCH  50  71
BRANCH  62  79
ATOM     79  C   UNL A   1      44.937  26.174  32.194  1.00  0.00     0.057 A 
ATOM     80  C   UNL A   1      44.751  26.364  33.570  1.00  0.00     0.134 A 
ATOM     81  C   UNL A   1      44.740  24.883  31.693  1.00  0.00     0.134 A 
ATOM     82  F   UNL A   1      44.847  27.583  34.120  1.00  0.00    -0.206 F 
ATOM     83  C   UNL A   1      44.410  25.302  34.413  1.00  0.00     0.040 A 
ATOM     84  C   UNL A   1      44.367  23.824  32.517  1.00  0.00     0.040 A 
ATOM     85  F   UNL A   1      44.863  24.645  30.378  1.00  0.00    -0.206 F 
ATOM     86  C   UNL A   1      44.210  24.029  33.885  1.00  0.00     0.006 A 
ENDBRANCH  62  79
ENDBRANCH  36  37
ENDBRANCH  29  31
ENDBRANCH  28  29
ENDBRANCH  27  28
ENDBRANCH  26  27
ENDBRANCH  25  26
ENDBRANCH   1  25
TORSDOF 17
ENDMDL
MODEL 2
REMARK VINA RESULT:     -11.3      1.822      2.902
REMARK SMILES Cc1nc2scc(C)n2c1CNc1ccc(C(=O)OCCOCCOC(=O)c2ccc(-c3c4nc(c(-c5c(F)cccc5F)c5ccc([nH]5)c(-c5c(F)cccc5F)c5nc(c(-c6c(F)cccc6F)c6ccc3[nH]6)C=C5)C=C4)cc2)cc1
REMARK SMILES IDX 21 1 20 2 19 3 17 4 18 5 16 6 13 7 14 8 83 9 15 10 82 11
REMARK SMILES IDX 12 12 11 14 10 15 1 16 2 17 3 18 4 19 9 20 5 21 7 22 6 23
REMARK SMILES IDX 8 24 22 25 23 26 24 27 25 28 26 29 27 30 28 31 29 32 81 33
REMARK SMILES IDX 30 34 80 35 31 36 32 37 33 38 74 39 34 40 79 41 73 42 75 43
REMARK SMILES IDX 35 44 78 45 72 46 71 47 36 49 62 50 45 51 61 52 46 53 49 54
REMARK SMILES IDX 60 55 76 56 47 57 48 58 59 60 77 61 50 62 37 63 38 64 43 65
REMARK SMILES IDX 39 66 40 67 42 68 44 69 41 70 63 71 64 72 69 73 65 74 66 75
REMARK SMILES IDX 68 76 70 77 67 78 51 79 52 80 57 81 53 82 54 83 56 84 58 85
REMARK SMILES IDX 55 86
REMARK H PARENT 12 13 75 48 49 59
REMARK Flexibility Score: inf
ROOT
ATOM      1  C   UNL A   1      42.765  18.540  26.094  1.00  0.00     0.202 C 
ENDROOT
BRANCH   1   2
ATOM      2  C   UNL A   1      42.091  19.541  27.033  1.00  0.00     0.261 C 
BRANCH   2   3
ATOM      3  O   UNL A   1      41.183  20.413  26.344  1.00  0.00    -0.460 OA
BRANCH   3   4
ATOM      4  C   UNL A   1      40.555  21.298  27.154  1.00  0.00     0.338 C 
ATOM      5  O   UNL A   1      40.841  21.575  28.307  1.00  0.00    -0.246 OA
BRANCH   4   6
ATOM      6  C   UNL A   1      39.535  22.050  26.404  1.00  0.00     0.060 A 
ATOM      7  C   UNL A   1      37.289  23.433  25.509  1.00  0.00     0.034 A 
ATOM      8  C   UNL A   1      38.274  24.105  26.236  1.00  0.00     0.026 A 
ATOM      9  C   UNL A   1      37.541  22.121  25.076  1.00  0.00     0.026 A 
ATOM     10  C   UNL A   1      39.379  23.406  26.714  1.00  0.00     0.018 A 
ATOM     11  C   UNL A   1      38.667  21.424  25.514  1.00  0.00     0.018 A 
BRANCH   7  12
ATOM     12  N   UNL A   1      36.010  23.981  25.457  1.00  0.00    -0.379 N 
ATOM     13  H   UNL A   1      35.725  24.675  26.092  1.00  0.00     0.160 HD
BRANCH  12  14
ATOM     14  C   UNL A   1      35.113  23.484  24.423  1.00  0.00     0.169 C 
BRANCH  14  15
ATOM     15  C   UNL A   1      33.861  22.863  24.924  1.00  0.00     0.066 A 
ATOM     16  C   UNL A   1      34.348  20.317  24.700  1.00  0.00     0.069 C 
ATOM     17  C   UNL A   1      33.536  21.509  25.042  1.00  0.00     0.062 A 
ATOM     18  N   UNL A   1      32.295  21.332  25.612  1.00  0.00    -0.224 NA
ATOM     19  C   UNL A   1      31.894  22.547  25.847  1.00  0.00     0.194 A 
ATOM     20  N   UNL A   1      32.784  23.524  25.487  1.00  0.00    -0.290 N 
ATOM     21  S   UNL A   1      30.469  23.193  26.593  1.00  0.00    -0.105 S 
ATOM     22  C   UNL A   1      32.365  24.814  25.811  1.00  0.00     0.032 A 
ATOM     23  C   UNL A   1      31.154  24.801  26.407  1.00  0.00     0.090 A 
ATOM     24  C   UNL A   1      33.129  26.064  25.586  1.00  0.00     0.066 C 
ENDBRANCH  14  15
ENDBRANCH  12  14
ENDBRANCH   7  12
ENDBRANCH   4   6
ENDBRANCH   3   4
ENDBRANCH   2   3
ENDBRANCH   1   2
BRANCH   1  25
ATOM     25  O   UNL A   1      43.480  19.022  24.956  1.00  0.00    -0.374 OA
BRANCH  25  26
ATOM     26  C   UNL A   1      44.879  18.802  24.820  1.00  0.00     0.202 C 
BRANCH  26  27
ATOM     27  C   UNL A   1      45.791  19.986  24.536  1.00  0.00     0.261 C 
BRANCH  27  28
ATOM     28  O   UNL A   1      45.477  21.102  25.345  1.00  0.00    -0.460 OA
BRANCH  28  29
ATOM     29  C   UNL A   1      44.791  22.065  24.685  1.00  0.00     0.338 C 
ATOM     30  O   UNL A   1      44.967  22.454  23.548  1.00  0.00    -0.246 OA
BRANCH  29  31
ATOM     31  C   UNL A   1      43.875  22.706  25.633  1.00  0.00     0.060 A 
ATOM     32  C   UNL A   1      42.967  23.601  25.065  1.00  0.00     0.016 A 
ATOM     33  C   UNL A   1      44.254  22.761  26.981  1.00  0.00     0.016 A 
ATOM     34  C   UNL A   1      42.690  24.751  25.761  1.00  0.00     0.010 A 
ATOM     35  C   UNL A   1      44.017  23.927  27.652  1.00  0.00     0.010 A 
ATOM     36  C   UNL A   1      43.325  24.939  26.990  1.00  0.00    -0.014 A 
BRANCH  36  37
ATOM     37  C   UNL A   1      43.147  26.200  27.669  1.00  0.00     0.031 A 
ATOM     38  C   UNL A   1      44.223  27.136  27.293  1.00  0.00     0.074 A 
ATOM     39  C   UNL A   1      42.047  26.457  28.403  1.00  0.00     0.049 A 
ATOM     40  N   UNL A   1      45.252  27.475  27.994  1.00  0.00    -0.248 NA
ATOM     41  C   UNL A   1      44.320  27.516  25.870  1.00  0.00     0.031 C 
ATOM     42  C   UNL A   1      40.845  25.624  28.527  1.00  0.00     0.029 A 
ATOM     43  N   UNL A   1      41.719  27.582  29.099  1.00  0.00    -0.354 N 
ATOM     44  C   UNL A   1      45.954  28.350  27.171  1.00  0.00     0.074 A 
ATOM     45  C   UNL A   1      45.534  28.067  25.832  1.00  0.00     0.031 C 
ATOM     46  C   UNL A   1      39.842  26.362  29.053  1.00  0.00     0.029 A 
ATOM     47  C   UNL A   1      40.363  27.666  29.420  1.00  0.00     0.049 A 
ATOM     48  H   UNL A   1      42.376  28.271  29.352  1.00  0.00     0.167 HD
ATOM     49  C   UNL A   1      46.446  29.510  27.683  1.00  0.00     0.037 A 
ATOM     50  C   UNL A   1      39.734  28.776  29.878  1.00  0.00     0.037 A 
ATOM     51  C   UNL A   1      46.475  29.444  29.124  1.00  0.00     0.049 A 
ATOM     52  C   UNL A   1      40.778  29.689  30.401  1.00  0.00     0.074 A 
ATOM     53  C   UNL A   1      47.211  28.782  30.082  1.00  0.00     0.029 A 
ATOM     54  N   UNL A   1      45.303  29.847  29.709  1.00  0.00    -0.354 N 
ATOM     55  N   UNL A   1      41.494  29.428  31.460  1.00  0.00    -0.248 NA
ATOM     56  C   UNL A   1      41.324  30.717  29.520  1.00  0.00     0.031 C 
ATOM     57  C   UNL A   1      46.365  28.673  31.226  1.00  0.00     0.029 A 
ATOM     58  C   UNL A   1      45.156  29.315  30.958  1.00  0.00     0.049 A 
ATOM     59  H   UNL A   1      44.648  30.447  29.283  1.00  0.00     0.167 HD
ATOM     60  C   UNL A   1      42.750  29.926  31.160  1.00  0.00     0.074 A 
ATOM     61  C   UNL A   1      42.545  30.844  30.046  1.00  0.00     0.031 C 
ATOM     62  C   UNL A   1      43.870  29.298  31.621  1.00  0.00     0.037 A 
BRANCH  49  63
ATOM     63  C   UNL A   1      46.360  30.854  26.976  1.00  0.00     0.057 A 
ATOM     64  C   UNL A   1      47.521  31.643  26.911  1.00  0.00     0.134 A 
ATOM     65  C   UNL A   1      45.168  31.533  26.638  1.00  0.00     0.134 A 
ATOM     66  F   UNL A   1      48.721  31.126  27.216  1.00  0.00    -0.206 F 
ATOM     67  C   UNL A   1      47.488  33.011  26.609  1.00  0.00     0.040 A 
ATOM     68  C   UNL A   1      45.129  32.885  26.290  1.00  0.00     0.040 A 
ATOM     69  F   UNL A   1      43.956  30.977  26.712  1.00  0.00    -0.206 F 
ATOM     70  C   UNL A   1      46.288  33.639  26.305  1.00  0.00     0.006 A 
ENDBRANCH  49  63
BRANCH  50  71
ATOM     71  C   UNL A   1      38.347  29.229  29.628  1.00  0.00     0.057 A 
ATOM     72  C   UNL A   1      37.437  29.424  30.677  1.00  0.00     0.134 A 
ATOM     73  C   UNL A   1      37.970  29.751  28.378  1.00  0.00     0.134 A 
ATOM     74  F   UNL A   1      37.727  29.002  31.916  1.00  0.00    -0.206 F 
ATOM     75  C   UNL A   1      36.230  30.115  30.497  1.00  0.00     0.040 A 
ATOM     76  C   UNL A   1      36.769  30.440  28.184  1.00  0.00     0.040 A 
ATOM     77  F   UNL A   1      38.801  29.689  27.327  1.00  0.00    -0.206 F 
ATOM     78  C   UNL A   1      35.898  30.636  29.249  1.00  0.00     0.006 A 
ENDBRANCH  50  71
BRANCH  62  79
ATOM     79  C   UNL A   1      43.718  28.404  32.812  1.00  0.00     0.057 A 
ATOM     80  C   UNL A   1      43.560  28.851  34.131  1.00  0.00     0.134 A 
ATOM     81  C   UNL A   1      43.628  27.026  32.588  1.00  0.00     0.134 A 
ATOM     82  F   UNL A   1      43.560  30.160  34.423  1.00  0.00    -0.206 F 
ATOM     83  C   UNL A   1      43.349  27.956  35.185  1.00  0.00     0.040 A 
ATOM     84  C   UNL A   1      43.383  26.128  33.623  1.00  0.00     0.040 A 
ATOM     85  F   UNL A   1      43.729  26.539  31.341  1.00  0.00    -0.206 F 
ATOM     86  C   UNL A   1      43.252  26.590  34.930  1.00  0.00     0.006 A 
ENDBRANCH  62  79
ENDBRANCH  36  37
ENDBRANCH  29  31
ENDBRANCH  28  29
ENDBRANCH  27  28
ENDBRANCH  26  27
ENDBRANCH  25  26
ENDBRANCH   1  25
TORSDOF 17
ENDMDL
MODEL 3
REMARK VINA RESULT:     -11.2      1.370      1.750
REMARK SMILES Cc1nc2scc(C)n2c1CNc1ccc(C(=O)OCCOCCOC(=O)c2ccc(-c3c4nc(c(-c5c(F)cccc5F)c5ccc([nH]5)c(-c5c(F)cccc5F)c5nc(c(-c6c(F)cccc6F)c6ccc3[nH]6)C=C5)C=C4)cc2)cc1
REMARK SMILES IDX 21 1 20 2 19 3 17 4 18 5 16 6 13 7 14 8 83 9 15 10 82 11
REMARK SMILES IDX 12 12 11 14 10 15 1 16 2 17 3 18 4 19 9 20 5 21 7 22 6 23
REMARK SMILES IDX 8 24 22 25 23 26 24 27 25 28 26 29 27 30 28 31 29 32 81 33
REMARK SMILES IDX 30 34 80 35 31 36 32 37 33 38 74 39 34 40 79 41 73 42 75 43
REMARK SMILES IDX 35 44 78 45 72 46 71 47 36 49 62 50 45 51 61 52 46 53 49 54
REMARK SMILES IDX 60 55 76 56 47 57 48 58 59 60 77 61 50 62 37 63 38 64 43 65
REMARK SMILES IDX 39 66 40 67 42 68 44 69 41 70 63 71 64 72 69 73 65 74 66 75
REMARK SMILES IDX 68 76 70 77 67 78 51 79 52 80 57 81 53 82 54 83 56 84 58 85
REMARK SMILES IDX 55 86
REMARK H PARENT 12 13 75 48 49 59
REMARK Flexibility Score: inf
ROOT
ATOM      1  C   UNL A   1      40.627  19.920  26.560  1.00  0.00     0.202 C 
ENDROOT
BRANCH   1   2
ATOM      2  C   UNL A   1      40.391  21.298  25.942  1.00  0.00     0.261 C 
BRANCH   2   3
ATOM      3  O   UNL A   1      39.042  21.470  25.484  1.00  0.00    -0.460 OA
BRANCH   3   4
ATOM      4  C   UNL A   1      38.395  22.507  26.066  1.00  0.00     0.338 C 
ATOM      5  O   UNL A   1      38.839  23.281  26.899  1.00  0.00    -0.246 OA
BRANCH   4   6
ATOM      6  C   UNL A   1      37.080  22.714  25.436  1.00  0.00     0.060 A 
ATOM      7  C   UNL A   1      34.857  23.609  24.018  1.00  0.00     0.034 A 
ATOM      8  C   UNL A   1      35.851  22.881  23.362  1.00  0.00     0.026 A 
ATOM      9  C   UNL A   1      34.901  23.710  25.418  1.00  0.00     0.026 A 
ATOM     10  C   UNL A   1      36.979  22.464  24.062  1.00  0.00     0.018 A 
ATOM     11  C   UNL A   1      36.007  23.257  26.136  1.00  0.00     0.018 A 
BRANCH   7  12
ATOM     12  N   UNL A   1      34.011  24.415  23.259  1.00  0.00    -0.379 N 
ATOM     13  H   UNL A   1      33.730  24.152  22.354  1.00  0.00     0.160 HD
BRANCH  12  14
ATOM     14  C   UNL A   1      33.561  25.662  23.860  1.00  0.00     0.169 C 
BRANCH  14  15
ATOM     15  C   UNL A   1      32.110  25.941  23.714  1.00  0.00     0.066 A 
ATOM     16  C   UNL A   1      31.009  23.754  24.594  1.00  0.00     0.069 C 
ATOM     17  C   UNL A   1      31.020  25.125  24.029  1.00  0.00     0.062 A 
ATOM     18  N   UNL A   1      29.822  25.767  23.807  1.00  0.00    -0.224 NA
ATOM     19  C   UNL A   1      30.184  26.944  23.388  1.00  0.00     0.194 A 
ATOM     20  N   UNL A   1      31.539  27.140  23.327  1.00  0.00    -0.290 N 
ATOM     21  S   UNL A   1      29.291  28.362  22.946  1.00  0.00    -0.105 S 
ATOM     22  C   UNL A   1      31.904  28.429  22.943  1.00  0.00     0.032 A 
ATOM     23  C   UNL A   1      30.818  29.198  22.708  1.00  0.00     0.090 A 
ATOM     24  C   UNL A   1      33.288  28.949  22.829  1.00  0.00     0.066 C 
ENDBRANCH  14  15
ENDBRANCH  12  14
ENDBRANCH   7  12
ENDBRANCH   4   6
ENDBRANCH   3   4
ENDBRANCH   2   3
ENDBRANCH   1   2
BRANCH   1  25
ATOM     25  O   UNL A   1      41.381  18.949  25.835  1.00  0.00    -0.374 OA
BRANCH  25  26
ATOM     26  C   UNL A   1      42.657  18.516  26.293  1.00  0.00     0.202 C 
BRANCH  26  27
ATOM     27  C   UNL A   1      43.837  18.542  25.334  1.00  0.00     0.261 C 
BRANCH  27  28
ATOM     28  O   UNL A   1      44.508  19.787  25.354  1.00  0.00    -0.460 OA
BRANCH  28  29
ATOM     29  C   UNL A   1      44.631  20.347  24.128  1.00  0.00     0.338 C 
ATOM     30  O   UNL A   1      44.522  19.802  23.047  1.00  0.00    -0.246 OA
BRANCH  29  31
ATOM     31  C   UNL A   1      45.091  21.728  24.300  1.00  0.00     0.060 A 
ATOM     32  C   UNL A   1      46.072  21.907  25.278  1.00  0.00     0.016 A 
ATOM     33  C   UNL A   1      44.247  22.762  23.873  1.00  0.00     0.016 A 
ATOM     34  C   UNL A   1      45.989  23.031  26.061  1.00  0.00     0.010 A 
ATOM     35  C   UNL A   1      44.135  23.856  24.683  1.00  0.00     0.010 A 
ATOM     36  C   UNL A   1      44.940  23.920  25.819  1.00  0.00    -0.014 A 
BRANCH  36  37
ATOM     37  C   UNL A   1      44.764  25.035  26.717  1.00  0.00     0.031 A 
ATOM     38  C   UNL A   1      45.915  25.953  26.618  1.00  0.00     0.074 A 
ATOM     39  C   UNL A   1      43.618  25.219  27.399  1.00  0.00     0.049 A 
ATOM     40  N   UNL A   1      46.892  26.083  27.451  1.00  0.00    -0.248 NA
ATOM     41  C   UNL A   1      46.157  26.593  25.310  1.00  0.00     0.031 C 
ATOM     42  C   UNL A   1      42.370  24.458  27.263  1.00  0.00     0.029 A 
ATOM     43  N   UNL A   1      43.285  26.208  28.276  1.00  0.00    -0.354 N 
ATOM     44  C   UNL A   1      47.707  27.052  26.874  1.00  0.00     0.074 A 
ATOM     45  C   UNL A   1      47.395  27.060  25.476  1.00  0.00     0.031 C 
ATOM     46  C   UNL A   1      41.361  25.145  27.845  1.00  0.00     0.029 A 
ATOM     47  C   UNL A   1      41.911  26.317  28.501  1.00  0.00     0.049 A 
ATOM     48  H   UNL A   1      43.950  26.790  28.710  1.00  0.00     0.167 HD
ATOM     49  C   UNL A   1      48.208  28.057  27.641  1.00  0.00     0.037 A 
ATOM     50  C   UNL A   1      41.300  27.357  29.119  1.00  0.00     0.037 A 
ATOM     51  C   UNL A   1      48.105  27.713  29.038  1.00  0.00     0.049 A 
ATOM     52  C   UNL A   1      42.337  28.082  29.891  1.00  0.00     0.074 A 
ATOM     53  C   UNL A   1      48.719  26.832  29.901  1.00  0.00     0.029 A 
ATOM     54  N   UNL A   1      46.907  28.072  29.598  1.00  0.00    -0.354 N 
ATOM     55  N   UNL A   1      42.941  27.575  30.930  1.00  0.00    -0.248 NA
ATOM     56  C   UNL A   1      43.008  29.222  29.275  1.00  0.00     0.031 C 
ATOM     57  C   UNL A   1      47.770  26.561  30.931  1.00  0.00     0.029 A 
ATOM     58  C   UNL A   1      46.623  27.321  30.703  1.00  0.00     0.049 A 
ATOM     59  H   UNL A   1      46.323  28.784  29.249  1.00  0.00     0.167 HD
ATOM     60  C   UNL A   1      44.242  28.038  30.832  1.00  0.00     0.074 A 
ATOM     61  C   UNL A   1      44.183  29.164  29.910  1.00  0.00     0.031 C 
ATOM     62  C   UNL A   1      45.284  27.261  31.246  1.00  0.00     0.037 A 
BRANCH  49  63
ATOM     63  C   UNL A   1      48.252  29.514  27.208  1.00  0.00     0.057 A 
ATOM     64  C   UNL A   1      49.467  30.208  27.343  1.00  0.00     0.134 A 
ATOM     65  C   UNL A   1      47.129  30.337  26.965  1.00  0.00     0.134 A 
ATOM     66  F   UNL A   1      50.611  29.550  27.586  1.00  0.00    -0.206 F 
ATOM     67  C   UNL A   1      49.544  31.607  27.314  1.00  0.00     0.040 A 
ATOM     68  C   UNL A   1      47.202  31.729  26.888  1.00  0.00     0.040 A 
ATOM     69  F   UNL A   1      45.879  29.872  26.883  1.00  0.00    -0.206 F 
ATOM     70  C   UNL A   1      48.407  32.373  27.094  1.00  0.00     0.006 A 
ENDBRANCH  49  63
BRANCH  50  71
ATOM     71  C   UNL A   1      39.964  27.940  28.855  1.00  0.00     0.057 A 
ATOM     72  C   UNL A   1      38.976  27.992  29.849  1.00  0.00     0.134 A 
ATOM     73  C   UNL A   1      39.725  28.713  27.705  1.00  0.00     0.134 A 
ATOM     74  F   UNL A   1      39.135  27.325  31.001  1.00  0.00    -0.206 F 
ATOM     75  C   UNL A   1      37.826  28.784  29.715  1.00  0.00     0.040 A 
ATOM     76  C   UNL A   1      38.582  29.504  27.557  1.00  0.00     0.040 A 
ATOM     77  F   UNL A   1      40.642  28.796  26.729  1.00  0.00    -0.206 F 
ATOM     78  C   UNL A   1      37.632  29.552  28.571  1.00  0.00     0.006 A 
ENDBRANCH  50  71
BRANCH  62  79
ATOM     79  C   UNL A   1      44.983  26.167  32.223  1.00  0.00     0.057 A 
ATOM     80  C   UNL A   1      44.823  26.349  33.603  1.00  0.00     0.134 A 
ATOM     81  C   UNL A   1      44.744  24.885  31.715  1.00  0.00     0.134 A 
ATOM     82  F   UNL A   1      44.961  27.560  34.161  1.00  0.00    -0.206 F 
ATOM     83  C   UNL A   1      44.468  25.289  34.443  1.00  0.00     0.040 A 
ATOM     84  C   UNL A   1      44.356  23.829  32.536  1.00  0.00     0.040 A 
ATOM     85  F   UNL A   1      44.840  24.655  30.396  1.00  0.00    -0.206 F 
ATOM     86  C   UNL A   1      44.226  24.026  33.908  1.00  0.00     0.006 A 
ENDBRANCH  62  79
ENDBRANCH  36  37
ENDBRANCH  29  31
ENDBRANCH  28  29
ENDBRANCH  27  28
ENDBRANCH  26  27
ENDBRANCH  25  26
ENDBRANCH   1  25
TORSDOF 17
ENDMDL
