MODEL 1
REMARK VINA RESULT:     -12.5      0.000      0.000
REMARK SMILES O=C(OCCOCCOC(=O)c1ccc(-c2c3nc(c(-c4c(F)cccc4F)c4ccc([nH]4)c(-c4c(F)cccc4F)c4nc(c(-c5c(F)cccc5F)c5ccc2[nH]5)C=C4)C=C3)cc1)c1ccc(NC(=O)[C@@H]2CC=CC[C@H]2C(=O)Nc2cccc([N+](=O)[O-])c2)cc1
REMARK SMILES IDX 4 1 3 2 2 3 1 4 66 5 67 6 92 7 68 8 91 9 69 10 70 11 71 12
REMARK SMILES IDX 72 14 73 15 74 16 78 17 75 18 77 19 76 20 79 21 80 22 81 23
REMARK SMILES IDX 82 25 83 26 90 27 84 28 86 29 85 30 87 31 88 32 89 33 5 34
REMARK SMILES IDX 6 35 7 36 8 37 9 38 10 39 11 40 12 41 13 42 65 43 14 44
REMARK SMILES IDX 64 45 15 46 16 47 17 48 58 49 18 50 63 51 57 52 59 53 19 54
REMARK SMILES IDX 62 55 56 56 55 57 20 59 46 60 29 61 45 62 30 63 33 64 44 65
REMARK SMILES IDX 60 66 31 67 32 68 43 70 61 71 34 72 21 73 22 74 27 75 23 76
REMARK SMILES IDX 24 77 26 78 28 79 25 80 47 81 48 82 53 83 49 84 50 85 52 86
REMARK SMILES IDX 54 87 51 88 35 89 36 90 41 91 37 92 38 93 40 94 42 95 39 96
REMARK H PARENT 70 13 81 24 59 58 33 69
REMARK Flexibility Score: inf
ROOT
ATOM      1  C   UNL A   1      39.735  22.633  26.408  1.00  0.00     0.261 C 
ENDROOT
BRANCH   1   2
ATOM      2  O   UNL A   1      38.384  22.141  26.362  1.00  0.00    -0.460 OA
BRANCH   2   3
ATOM      3  C   UNL A   1      37.513  21.918  25.351  1.00  0.00     0.338 C 
ATOM      4  O   UNL A   1      37.735  20.934  24.640  1.00  0.00    -0.246 OA
BRANCH   3   5
ATOM      5  C   UNL A   1      36.335  22.776  24.971  1.00  0.00     0.060 A 
ATOM      6  C   UNL A   1      35.928  23.981  25.542  1.00  0.00     0.018 A 
ATOM      7  C   UNL A   1      35.535  22.293  23.919  1.00  0.00     0.018 A 
ATOM      8  C   UNL A   1      34.930  24.783  24.928  1.00  0.00     0.027 A 
ATOM      9  C   UNL A   1      34.539  23.081  23.326  1.00  0.00     0.027 A 
ATOM     10  C   UNL A   1      34.345  24.401  23.733  1.00  0.00     0.041 A 
BRANCH  10  11
ATOM     11  N   UNL A   1      33.575  25.207  22.881  1.00  0.00    -0.326 N 
ATOM     12  C   UNL A   1      32.741  26.280  22.971  1.00  0.00     0.228 C 
ATOM     13  H   UNL A   1      33.660  24.909  21.947  1.00  0.00     0.169 HD
ATOM     14  O   UNL A   1      32.257  26.606  21.874  1.00  0.00    -0.274 OA
BRANCH  12  15
ATOM     15  C   UNL A   1      32.336  27.081  24.232  1.00  0.00     0.095 C 
ATOM     16  C   UNL A   1      33.446  28.139  24.513  1.00  0.00     0.041 C 
ATOM     17  C   UNL A   1      32.026  26.302  25.519  1.00  0.00     0.095 C 
ATOM     18  C   UNL A   1      33.353  28.869  25.819  1.00  0.00    -0.030 C 
ATOM     19  C   UNL A   1      32.060  27.045  26.879  1.00  0.00     0.041 C 
ATOM     20  C   UNL A   1      32.734  28.368  26.889  1.00  0.00    -0.030 C 
BRANCH  17  21
ATOM     21  C   UNL A   1      30.752  25.493  25.556  1.00  0.00     0.228 C 
ATOM     22  O   UNL A   1      29.698  26.132  25.423  1.00  0.00    -0.274 OA
ATOM     23  N   UNL A   1      30.689  24.117  25.581  1.00  0.00    -0.326 N 
ATOM     24  H   UNL A   1      29.791  23.778  25.356  1.00  0.00     0.169 HD
BRANCH  23  25
ATOM     25  C   UNL A   1      31.606  23.076  25.854  1.00  0.00     0.048 A 
ATOM     26  C   UNL A   1      32.462  23.204  26.947  1.00  0.00     0.026 A 
ATOM     27  C   UNL A   1      31.769  21.939  25.076  1.00  0.00     0.111 A 
ATOM     28  C   UNL A   1      33.291  22.142  27.352  1.00  0.00     0.009 A 
ATOM     29  C   UNL A   1      32.521  20.840  25.507  1.00  0.00     0.271 A 
ATOM     30  C   UNL A   1      33.281  20.929  26.664  1.00  0.00     0.086 A 
BRANCH  29  31
ATOM     31  N   UNL A   1      32.480  19.597  24.725  1.00  0.00     0.062 N 
ATOM     32  O   UNL A   1      32.590  19.687  23.495  1.00  0.00    -0.258 OA
ATOM     33  O   UNL A   1      32.354  18.530  25.346  1.00  0.00    -0.258 OA
ENDBRANCH  29  31
ENDBRANCH  23  25
ENDBRANCH  17  21
ENDBRANCH  12  15
ENDBRANCH  10  11
ENDBRANCH   3   5
ENDBRANCH   2   3
ENDBRANCH   1   2
BRANCH   1  34
ATOM     34  C   UNL A   1      40.775  21.522  26.450  1.00  0.00     0.202 C 
BRANCH  34  35
ATOM     35  O   UNL A   1      41.727  21.679  25.410  1.00  0.00    -0.374 OA
BRANCH  35  36
ATOM     36  C   UNL A   1      43.093  21.498  25.827  1.00  0.00     0.202 C 
BRANCH  36  37
ATOM     37  C   UNL A   1      44.052  22.298  24.938  1.00  0.00     0.261 C 
BRANCH  37  38
ATOM     38  O   UNL A   1      43.466  23.576  24.644  1.00  0.00    -0.460 OA
BRANCH  38  39
ATOM     39  C   UNL A   1      44.207  24.637  25.052  1.00  0.00     0.338 C 
ATOM     40  O   UNL A   1      45.286  24.999  24.629  1.00  0.00    -0.246 OA
BRANCH  39  41
ATOM     41  C   UNL A   1      43.407  25.442  26.002  1.00  0.00     0.060 A 
ATOM     42  C   UNL A   1      43.758  26.789  26.151  1.00  0.00     0.016 A 
ATOM     43  C   UNL A   1      42.334  24.910  26.723  1.00  0.00     0.016 A 
ATOM     44  C   UNL A   1      43.066  27.601  27.040  1.00  0.00     0.010 A 
ATOM     45  C   UNL A   1      41.641  25.721  27.620  1.00  0.00     0.010 A 
ATOM     46  C   UNL A   1      42.032  27.057  27.809  1.00  0.00    -0.014 A 
BRANCH  46  47
ATOM     47  C   UNL A   1      41.517  27.825  28.961  1.00  0.00     0.031 A 
ATOM     48  C   UNL A   1      42.251  27.719  30.268  1.00  0.00     0.074 A 
ATOM     49  C   UNL A   1      40.451  28.632  28.829  1.00  0.00     0.049 A 
ATOM     50  N   UNL A   1      42.000  28.298  31.412  1.00  0.00    -0.248 NA
ATOM     51  C   UNL A   1      43.427  26.832  30.287  1.00  0.00     0.031 C 
ATOM     52  C   UNL A   1      39.689  28.834  27.598  1.00  0.00     0.029 A 
ATOM     53  N   UNL A   1      39.828  29.434  29.748  1.00  0.00    -0.354 N 
ATOM     54  C   UNL A   1      42.975  27.835  32.287  1.00  0.00     0.074 A 
ATOM     55  C   UNL A   1      43.799  26.901  31.554  1.00  0.00     0.031 C 
ATOM     56  C   UNL A   1      38.699  29.710  27.838  1.00  0.00     0.029 A 
ATOM     57  C   UNL A   1      38.741  30.105  29.245  1.00  0.00     0.049 A 
ATOM     58  H   UNL A   1      40.130  29.521  30.682  1.00  0.00     0.167 HD
ATOM     59  C   UNL A   1      43.170  28.169  33.584  1.00  0.00     0.037 A 
ATOM     60  C   UNL A   1      37.879  30.934  29.862  1.00  0.00     0.037 A 
ATOM     61  C   UNL A   1      42.343  29.102  34.300  1.00  0.00     0.049 A 
ATOM     62  C   UNL A   1      38.084  31.245  31.322  1.00  0.00     0.074 A 
ATOM     63  C   UNL A   1      42.464  29.535  35.608  1.00  0.00     0.029 A 
ATOM     64  N   UNL A   1      41.232  29.739  33.767  1.00  0.00    -0.354 N 
ATOM     65  N   UNL A   1      39.030  30.835  32.133  1.00  0.00    -0.248 NA
ATOM     66  C   UNL A   1      37.106  32.143  31.948  1.00  0.00     0.031 C 
ATOM     67  C   UNL A   1      41.389  30.387  35.885  1.00  0.00     0.029 A 
ATOM     68  C   UNL A   1      40.640  30.540  34.728  1.00  0.00     0.049 A 
ATOM     69  H   UNL A   1      40.911  29.636  32.842  1.00  0.00     0.167 HD
ATOM     70  C   UNL A   1      38.785  31.455  33.352  1.00  0.00     0.074 A 
ATOM     71  C   UNL A   1      37.607  32.278  33.168  1.00  0.00     0.031 C 
ATOM     72  C   UNL A   1      39.471  31.358  34.518  1.00  0.00     0.037 A 
BRANCH  59  73
ATOM     73  C   UNL A   1      44.295  27.490  34.310  1.00  0.00     0.057 A 
ATOM     74  C   UNL A   1      45.595  28.015  34.337  1.00  0.00     0.134 A 
ATOM     75  C   UNL A   1      44.073  26.290  34.999  1.00  0.00     0.134 A 
ATOM     76  F   UNL A   1      45.883  29.150  33.681  1.00  0.00    -0.206 F 
ATOM     77  C   UNL A   1      46.636  27.358  34.996  1.00  0.00     0.040 A 
ATOM     78  C   UNL A   1      45.099  25.640  35.687  1.00  0.00     0.040 A 
ATOM     79  F   UNL A   1      42.855  25.729  35.013  1.00  0.00    -0.206 F 
ATOM     80  C   UNL A   1      46.387  26.170  35.679  1.00  0.00     0.006 A 
ENDBRANCH  59  73
BRANCH  60  81
ATOM     81  C   UNL A   1      36.752  31.540  29.107  1.00  0.00     0.057 A 
ATOM     82  C   UNL A   1      36.777  32.886  28.725  1.00  0.00     0.134 A 
ATOM     83  C   UNL A   1      35.615  30.797  28.766  1.00  0.00     0.134 A 
ATOM     84  F   UNL A   1      37.830  33.656  29.036  1.00  0.00    -0.206 F 
ATOM     85  C   UNL A   1      35.705  33.479  28.055  1.00  0.00     0.040 A 
ATOM     86  C   UNL A   1      34.548  31.368  28.072  1.00  0.00     0.040 A 
ATOM     87  F   UNL A   1      35.530  29.500  29.097  1.00  0.00    -0.206 F 
ATOM     88  C   UNL A   1      34.587  32.716  27.722  1.00  0.00     0.006 A 
ENDBRANCH  60  81
BRANCH  72  89
ATOM     89  C   UNL A   1      38.999  32.207  35.664  1.00  0.00     0.057 A 
ATOM     90  C   UNL A   1      38.185  31.700  36.684  1.00  0.00     0.134 A 
ATOM     91  C   UNL A   1      39.390  33.551  35.757  1.00  0.00     0.134 A 
ATOM     92  F   UNL A   1      37.768  30.426  36.651  1.00  0.00    -0.206 F 
ATOM     93  C   UNL A   1      37.747  32.507  37.736  1.00  0.00     0.040 A 
ATOM     94  C   UNL A   1      38.987  34.357  36.821  1.00  0.00     0.040 A 
ATOM     95  F   UNL A   1      40.179  34.097  34.820  1.00  0.00    -0.206 F 
ATOM     96  C   UNL A   1      38.153  33.838  37.809  1.00  0.00     0.006 A 
ENDBRANCH  72  89
ENDBRANCH  46  47
ENDBRANCH  39  41
ENDBRANCH  38  39
ENDBRANCH  37  38
ENDBRANCH  36  37
ENDBRANCH  35  36
ENDBRANCH  34  35
ENDBRANCH   1  34
TORSDOF 19
ENDMDL
MODEL 2
REMARK VINA RESULT:     -11.9      4.228      9.510
REMARK SMILES O=C(OCCOCCOC(=O)c1ccc(-c2c3nc(c(-c4c(F)cccc4F)c4ccc([nH]4)c(-c4c(F)cccc4F)c4nc(c(-c5c(F)cccc5F)c5ccc2[nH]5)C=C4)C=C3)cc1)c1ccc(NC(=O)[C@@H]2CC=CC[C@H]2C(=O)Nc2cccc([N+](=O)[O-])c2)cc1
REMARK SMILES IDX 4 1 3 2 2 3 1 4 66 5 67 6 92 7 68 8 91 9 69 10 70 11 71 12
REMARK SMILES IDX 72 14 73 15 74 16 78 17 75 18 77 19 76 20 79 21 80 22 81 23
REMARK SMILES IDX 82 25 83 26 90 27 84 28 86 29 85 30 87 31 88 32 89 33 5 34
REMARK SMILES IDX 6 35 7 36 8 37 9 38 10 39 11 40 12 41 13 42 65 43 14 44
REMARK SMILES IDX 64 45 15 46 16 47 17 48 58 49 18 50 63 51 57 52 59 53 19 54
REMARK SMILES IDX 62 55 56 56 55 57 20 59 46 60 29 61 45 62 30 63 33 64 44 65
REMARK SMILES IDX 60 66 31 67 32 68 43 70 61 71 34 72 21 73 22 74 27 75 23 76
REMARK SMILES IDX 24 77 26 78 28 79 25 80 47 81 48 82 53 83 49 84 50 85 52 86
REMARK SMILES IDX 54 87 51 88 35 89 36 90 41 91 37 92 38 93 40 94 42 95 39 96
REMARK H PARENT 70 13 81 24 59 58 33 69
REMARK Flexibility Score: inf
ROOT
ATOM      1  C   UNL A   1      33.588  31.852  27.960  1.00  0.00     0.261 C 
ENDROOT
BRANCH   1   2
ATOM      2  O   UNL A   1      33.803  30.866  26.933  1.00  0.00    -0.460 OA
BRANCH   2   3
ATOM      3  C   UNL A   1      34.269  29.597  26.951  1.00  0.00     0.338 C 
ATOM      4  O   UNL A   1      35.451  29.449  27.271  1.00  0.00    -0.246 OA
BRANCH   3   5
ATOM      5  C   UNL A   1      33.512  28.353  26.564  1.00  0.00     0.060 A 
ATOM      6  C   UNL A   1      34.027  27.132  26.130  1.00  0.00     0.018 A 
ATOM      7  C   UNL A   1      32.110  28.440  26.634  1.00  0.00     0.018 A 
ATOM      8  C   UNL A   1      33.197  25.985  26.019  1.00  0.00     0.027 A 
ATOM      9  C   UNL A   1      31.292  27.307  26.507  1.00  0.00     0.027 A 
ATOM     10  C   UNL A   1      31.856  26.041  26.357  1.00  0.00     0.041 A 
BRANCH  10  11
ATOM     11  N   UNL A   1      30.999  24.951  26.568  1.00  0.00    -0.326 N 
ATOM     12  C   UNL A   1      31.000  23.602  26.382  1.00  0.00     0.228 C 
ATOM     13  H   UNL A   1      30.148  25.247  26.965  1.00  0.00     0.169 HD
ATOM     14  O   UNL A   1      29.927  23.069  26.715  1.00  0.00    -0.274 OA
BRANCH  12  15
ATOM     15  C   UNL A   1      32.128  22.710  25.810  1.00  0.00     0.095 C 
ATOM     16  C   UNL A   1      33.152  22.429  26.951  1.00  0.00     0.041 C 
ATOM     17  C   UNL A   1      32.872  23.195  24.556  1.00  0.00     0.095 C 
ATOM     18  C   UNL A   1      34.434  21.767  26.545  1.00  0.00    -0.030 C 
ATOM     19  C   UNL A   1      34.259  22.592  24.220  1.00  0.00     0.041 C 
ATOM     20  C   UNL A   1      34.937  21.851  25.312  1.00  0.00    -0.030 C 
BRANCH  17  21
ATOM     21  C   UNL A   1      32.119  23.179  23.248  1.00  0.00     0.228 C 
ATOM     22  O   UNL A   1      31.759  22.065  22.841  1.00  0.00    -0.274 OA
ATOM     23  N   UNL A   1      31.691  24.297  22.567  1.00  0.00    -0.326 N 
ATOM     24  H   UNL A   1      31.017  24.084  21.880  1.00  0.00     0.169 HD
BRANCH  23  25
ATOM     25  C   UNL A   1      31.988  25.679  22.621  1.00  0.00     0.048 A 
ATOM     26  C   UNL A   1      33.316  26.085  22.491  1.00  0.00     0.026 A 
ATOM     27  C   UNL A   1      31.059  26.682  22.852  1.00  0.00     0.111 A 
ATOM     28  C   UNL A   1      33.656  27.446  22.390  1.00  0.00     0.009 A 
ATOM     29  C   UNL A   1      31.360  28.037  22.670  1.00  0.00     0.271 A 
ATOM     30  C   UNL A   1      32.668  28.430  22.421  1.00  0.00     0.086 A 
BRANCH  29  31
ATOM     31  N   UNL A   1      30.275  29.024  22.734  1.00  0.00     0.062 N 
ATOM     32  O   UNL A   1      29.895  29.391  23.854  1.00  0.00    -0.258 OA
ATOM     33  O   UNL A   1      29.814  29.444  21.661  1.00  0.00    -0.258 OA
ENDBRANCH  29  31
ENDBRANCH  23  25
ENDBRANCH  17  21
ENDBRANCH  12  15
ENDBRANCH  10  11
ENDBRANCH   3   5
ENDBRANCH   2   3
ENDBRANCH   1   2
BRANCH   1  34
ATOM     34  C   UNL A   1      34.772  32.790  28.145  1.00  0.00     0.202 C 
BRANCH  34  35
ATOM     35  O   UNL A   1      34.339  34.079  28.551  1.00  0.00    -0.374 OA
BRANCH  35  36
ATOM     36  C   UNL A   1      33.981  34.170  29.943  1.00  0.00     0.202 C 
BRANCH  36  37
ATOM     37  C   UNL A   1      35.165  33.797  30.843  1.00  0.00     0.261 C 
BRANCH  37  38
ATOM     38  O   UNL A   1      34.851  32.593  31.560  1.00  0.00    -0.460 OA
BRANCH  38  39
ATOM     39  C   UNL A   1      35.797  32.214  32.456  1.00  0.00     0.338 C 
ATOM     40  O   UNL A   1      35.767  32.328  33.664  1.00  0.00    -0.246 OA
BRANCH  39  41
ATOM     41  C   UNL A   1      36.842  31.440  31.749  1.00  0.00     0.060 A 
ATOM     42  C   UNL A   1      38.011  31.147  32.462  1.00  0.00     0.016 A 
ATOM     43  C   UNL A   1      36.691  30.997  30.432  1.00  0.00     0.016 A 
ATOM     44  C   UNL A   1      39.044  30.442  31.858  1.00  0.00     0.010 A 
ATOM     45  C   UNL A   1      37.729  30.296  29.821  1.00  0.00     0.010 A 
ATOM     46  C   UNL A   1      38.923  30.052  30.520  1.00  0.00    -0.014 A 
BRANCH  46  47
ATOM     47  C   UNL A   1      40.125  29.592  29.797  1.00  0.00     0.031 A 
ATOM     48  C   UNL A   1      41.257  30.564  29.615  1.00  0.00     0.074 A 
ATOM     49  C   UNL A   1      40.222  28.326  29.358  1.00  0.00     0.049 A 
ATOM     50  N   UNL A   1      42.411  30.395  29.026  1.00  0.00    -0.248 NA
ATOM     51  C   UNL A   1      41.055  31.913  30.168  1.00  0.00     0.031 C 
ATOM     52  C   UNL A   1      39.198  27.295  29.513  1.00  0.00     0.029 A 
ATOM     53  N   UNL A   1      41.238  27.695  28.689  1.00  0.00    -0.354 N 
ATOM     54  C   UNL A   1      43.064  31.617  29.125  1.00  0.00     0.074 A 
ATOM     55  C   UNL A   1      42.165  32.528  29.797  1.00  0.00     0.031 C 
ATOM     56  C   UNL A   1      39.641  26.154  28.958  1.00  0.00     0.029 A 
ATOM     57  C   UNL A   1      40.964  26.385  28.383  1.00  0.00     0.049 A 
ATOM     58  H   UNL A   1      42.085  28.139  28.451  1.00  0.00     0.167 HD
ATOM     59  C   UNL A   1      44.306  31.946  28.703  1.00  0.00     0.037 A 
ATOM     60  C   UNL A   1      41.703  25.486  27.705  1.00  0.00     0.037 A 
ATOM     61  C   UNL A   1      45.191  31.027  28.037  1.00  0.00     0.049 A 
ATOM     62  C   UNL A   1      43.060  25.894  27.195  1.00  0.00     0.074 A 
ATOM     63  C   UNL A   1      46.481  31.244  27.589  1.00  0.00     0.029 A 
ATOM     64  N   UNL A   1      44.868  29.717  27.715  1.00  0.00    -0.354 N 
ATOM     65  N   UNL A   1      43.686  27.040  27.326  1.00  0.00    -0.248 NA
ATOM     66  C   UNL A   1      43.816  24.879  26.450  1.00  0.00     0.031 C 
ATOM     67  C   UNL A   1      46.916  30.083  26.941  1.00  0.00     0.029 A 
ATOM     68  C   UNL A   1      45.924  29.121  27.048  1.00  0.00     0.049 A 
ATOM     69  H   UNL A   1      44.014  29.277  27.929  1.00  0.00     0.167 HD
ATOM     70  C   UNL A   1      44.924  26.871  26.717  1.00  0.00     0.074 A 
ATOM     71  C   UNL A   1      44.961  25.507  26.226  1.00  0.00     0.031 C 
ATOM     72  C   UNL A   1      45.941  27.758  26.577  1.00  0.00     0.037 A 
BRANCH  59  73
ATOM     73  C   UNL A   1      44.757  33.362  28.916  1.00  0.00     0.057 A 
ATOM     74  C   UNL A   1      44.476  34.384  27.997  1.00  0.00     0.134 A 
ATOM     75  C   UNL A   1      45.480  33.711  30.064  1.00  0.00     0.134 A 
ATOM     76  F   UNL A   1      43.806  34.115  26.865  1.00  0.00    -0.206 F 
ATOM     77  C   UNL A   1      44.924  35.691  28.198  1.00  0.00     0.040 A 
ATOM     78  C   UNL A   1      45.906  35.021  30.291  1.00  0.00     0.040 A 
ATOM     79  F   UNL A   1      45.785  32.785  30.984  1.00  0.00    -0.206 F 
ATOM     80  C   UNL A   1      45.635  36.014  29.351  1.00  0.00     0.006 A 
ENDBRANCH  59  73
BRANCH  60  81
ATOM     81  C   UNL A   1      41.187  24.112  27.480  1.00  0.00     0.057 A 
ATOM     82  C   UNL A   1      40.169  23.864  26.552  1.00  0.00     0.134 A 
ATOM     83  C   UNL A   1      41.680  23.016  28.199  1.00  0.00     0.134 A 
ATOM     84  F   UNL A   1      39.641  24.873  25.843  1.00  0.00    -0.206 F 
ATOM     85  C   UNL A   1      39.644  22.584  26.363  1.00  0.00     0.040 A 
ATOM     86  C   UNL A   1      41.185  21.727  28.002  1.00  0.00     0.040 A 
ATOM     87  F   UNL A   1      42.660  23.184  29.099  1.00  0.00    -0.206 F 
ATOM     88  C   UNL A   1      40.157  21.509  27.088  1.00  0.00     0.006 A 
ENDBRANCH  60  81
BRANCH  72  89
ATOM     89  C   UNL A   1      47.197  27.262  25.920  1.00  0.00     0.057 A 
ATOM     90  C   UNL A   1      48.220  26.633  26.640  1.00  0.00     0.134 A 
ATOM     91  C   UNL A   1      47.371  27.396  24.534  1.00  0.00     0.134 A 
ATOM     92  F   UNL A   1      48.121  26.481  27.969  1.00  0.00    -0.206 F 
ATOM     93  C   UNL A   1      49.385  26.188  26.013  1.00  0.00     0.040 A 
ATOM     94  C   UNL A   1      48.515  26.924  23.893  1.00  0.00     0.040 A 
ATOM     95  F   UNL A   1      46.425  27.977  23.782  1.00  0.00    -0.206 F 
ATOM     96  C   UNL A   1      49.532  26.327  24.635  1.00  0.00     0.006 A 
ENDBRANCH  72  89
ENDBRANCH  46  47
ENDBRANCH  39  41
ENDBRANCH  38  39
ENDBRANCH  37  38
ENDBRANCH  36  37
ENDBRANCH  35  36
ENDBRANCH  34  35
ENDBRANCH   1  34
TORSDOF 19
ENDMDL
MODEL 3
REMARK VINA RESULT:     -11.8      4.528      9.675
REMARK SMILES O=C(OCCOCCOC(=O)c1ccc(-c2c3nc(c(-c4c(F)cccc4F)c4ccc([nH]4)c(-c4c(F)cccc4F)c4nc(c(-c5c(F)cccc5F)c5ccc2[nH]5)C=C4)C=C3)cc1)c1ccc(NC(=O)[C@@H]2CC=CC[C@H]2C(=O)Nc2cccc([N+](=O)[O-])c2)cc1
REMARK SMILES IDX 4 1 3 2 2 3 1 4 66 5 67 6 92 7 68 8 91 9 69 10 70 11 71 12
REMARK SMILES IDX 72 14 73 15 74 16 78 17 75 18 77 19 76 20 79 21 80 22 81 23
REMARK SMILES IDX 82 25 83 26 90 27 84 28 86 29 85 30 87 31 88 32 89 33 5 34
REMARK SMILES IDX 6 35 7 36 8 37 9 38 10 39 11 40 12 41 13 42 65 43 14 44
REMARK SMILES IDX 64 45 15 46 16 47 17 48 58 49 18 50 63 51 57 52 59 53 19 54
REMARK SMILES IDX 62 55 56 56 55 57 20 59 46 60 29 61 45 62 30 63 33 64 44 65
REMARK SMILES IDX 60 66 31 67 32 68 43 70 61 71 34 72 21 73 22 74 27 75 23 76
REMARK SMILES IDX 24 77 26 78 28 79 25 80 47 81 48 82 53 83 49 84 50 85 52 86
REMARK SMILES IDX 54 87 51 88 35 89 36 90 41 91 37 92 38 93 40 94 42 95 39 96
REMARK H PARENT 70 13 81 24 59 58 33 69
REMARK Flexibility Score: inf
ROOT
ATOM      1  C   UNL A   1      33.327  35.393  29.900  1.00  0.00     0.261 C 
ENDROOT
BRANCH   1   2
ATOM      2  O   UNL A   1      33.474  34.086  29.315  1.00  0.00    -0.460 OA
BRANCH   2   3
ATOM      3  C   UNL A   1      34.540  33.390  28.858  1.00  0.00     0.338 C 
ATOM      4  O   UNL A   1      35.650  33.892  29.053  1.00  0.00    -0.246 OA
BRANCH   3   5
ATOM      5  C   UNL A   1      34.509  32.095  28.088  1.00  0.00     0.060 A 
ATOM      6  C   UNL A   1      35.580  31.272  27.745  1.00  0.00     0.018 A 
ATOM      7  C   UNL A   1      33.242  31.673  27.645  1.00  0.00     0.018 A 
ATOM      8  C   UNL A   1      35.365  29.973  27.213  1.00  0.00     0.027 A 
ATOM      9  C   UNL A   1      33.036  30.396  27.104  1.00  0.00     0.027 A 
ATOM     10  C   UNL A   1      34.084  29.479  27.037  1.00  0.00     0.041 A 
BRANCH  10  11
ATOM     11  N   UNL A   1      33.726  28.144  26.799  1.00  0.00    -0.326 N 
ATOM     12  C   UNL A   1      33.064  27.418  25.856  1.00  0.00     0.228 C 
ATOM     13  H   UNL A   1      34.046  27.562  27.526  1.00  0.00     0.169 HD
ATOM     14  O   UNL A   1      32.983  26.212  26.146  1.00  0.00    -0.274 OA
BRANCH  12  15
ATOM     15  C   UNL A   1      32.415  27.913  24.541  1.00  0.00     0.095 C 
ATOM     16  C   UNL A   1      31.047  28.574  24.893  1.00  0.00     0.041 C 
ATOM     17  C   UNL A   1      32.223  26.903  23.400  1.00  0.00     0.095 C 
ATOM     18  C   UNL A   1      30.160  28.920  23.735  1.00  0.00    -0.030 C 
ATOM     19  C   UNL A   1      31.204  27.218  22.275  1.00  0.00     0.041 C 
ATOM     20  C   UNL A   1      30.226  28.299  22.557  1.00  0.00    -0.030 C 
BRANCH  17  21
ATOM     21  C   UNL A   1      33.459  26.426  22.676  1.00  0.00     0.228 C 
ATOM     22  O   UNL A   1      34.063  27.279  22.010  1.00  0.00    -0.274 OA
ATOM     23  N   UNL A   1      34.026  25.179  22.815  1.00  0.00    -0.326 N 
ATOM     24  H   UNL A   1      34.945  25.142  22.461  1.00  0.00     0.169 HD
BRANCH  23  25
ATOM     25  C   UNL A   1      33.602  23.938  23.347  1.00  0.00     0.048 A 
ATOM     26  C   UNL A   1      32.623  23.215  22.667  1.00  0.00     0.026 A 
ATOM     27  C   UNL A   1      34.046  23.395  24.543  1.00  0.00     0.111 A 
ATOM     28  C   UNL A   1      32.267  21.914  23.065  1.00  0.00     0.009 A 
ATOM     29  C   UNL A   1      33.772  22.072  24.911  1.00  0.00     0.271 A 
ATOM     30  C   UNL A   1      32.886  21.313  24.161  1.00  0.00     0.086 A 
BRANCH  29  31
ATOM     31  N   UNL A   1      34.444  21.505  26.087  1.00  0.00     0.062 N 
ATOM     32  O   UNL A   1      33.745  20.907  26.916  1.00  0.00    -0.258 OA
ATOM     33  O   UNL A   1      35.674  21.645  26.172  1.00  0.00    -0.258 OA
ENDBRANCH  29  31
ENDBRANCH  23  25
ENDBRANCH  17  21
ENDBRANCH  12  15
ENDBRANCH  10  11
ENDBRANCH   3   5
ENDBRANCH   2   3
ENDBRANCH   1   2
BRANCH   1  34
ATOM     34  C   UNL A   1      32.900  35.348  31.361  1.00  0.00     0.202 C 
BRANCH  34  35
ATOM     35  O   UNL A   1      33.928  35.843  32.205  1.00  0.00    -0.374 OA
BRANCH  35  36
ATOM     36  C   UNL A   1      34.989  34.902  32.455  1.00  0.00     0.202 C 
BRANCH  36  37
ATOM     37  C   UNL A   1      34.449  33.621  33.102  1.00  0.00     0.261 C 
BRANCH  37  38
ATOM     38  O   UNL A   1      35.192  32.495  32.607  1.00  0.00    -0.460 OA
BRANCH  38  39
ATOM     39  C   UNL A   1      36.340  32.242  33.286  1.00  0.00     0.338 C 
ATOM     40  O   UNL A   1      36.563  32.422  34.465  1.00  0.00    -0.246 OA
BRANCH  39  41
ATOM     41  C   UNL A   1      37.271  31.513  32.396  1.00  0.00     0.060 A 
ATOM     42  C   UNL A   1      38.295  30.780  33.006  1.00  0.00     0.016 A 
ATOM     43  C   UNL A   1      37.149  31.529  31.003  1.00  0.00     0.016 A 
ATOM     44  C   UNL A   1      39.220  30.088  32.235  1.00  0.00     0.010 A 
ATOM     45  C   UNL A   1      38.079  30.840  30.226  1.00  0.00     0.010 A 
ATOM     46  C   UNL A   1      39.139  30.152  30.840  1.00  0.00    -0.014 A 
BRANCH  46  47
ATOM     47  C   UNL A   1      40.287  29.686  30.035  1.00  0.00     0.031 A 
ATOM     48  C   UNL A   1      41.418  30.646  29.794  1.00  0.00     0.074 A 
ATOM     49  C   UNL A   1      40.338  28.426  29.573  1.00  0.00     0.049 A 
ATOM     50  N   UNL A   1      42.529  30.471  29.130  1.00  0.00    -0.248 NA
ATOM     51  C   UNL A   1      41.270  31.990  30.378  1.00  0.00     0.031 C 
ATOM     52  C   UNL A   1      39.311  27.406  29.780  1.00  0.00     0.029 A 
ATOM     53  N   UNL A   1      41.300  27.792  28.833  1.00  0.00    -0.354 N 
ATOM     54  C   UNL A   1      43.204  31.683  29.204  1.00  0.00     0.074 A 
ATOM     55  C   UNL A   1      42.363  32.596  29.944  1.00  0.00     0.031 C 
ATOM     56  C   UNL A   1      39.702  26.267  29.182  1.00  0.00     0.029 A 
ATOM     57  C   UNL A   1      40.989  26.490  28.527  1.00  0.00     0.049 A 
ATOM     58  H   UNL A   1      42.136  28.228  28.547  1.00  0.00     0.167 HD
ATOM     59  C   UNL A   1      44.422  32.002  28.707  1.00  0.00     0.037 A 
ATOM     60  C   UNL A   1      41.670  25.591  27.791  1.00  0.00     0.037 A 
ATOM     61  C   UNL A   1      45.249  31.082  27.973  1.00  0.00     0.049 A 
ATOM     62  C   UNL A   1      42.997  25.989  27.200  1.00  0.00     0.074 A 
ATOM     63  C   UNL A   1      46.510  31.288  27.446  1.00  0.00     0.029 A 
ATOM     64  N   UNL A   1      44.888  29.780  27.655  1.00  0.00    -0.354 N 
ATOM     65  N   UNL A   1      43.647  27.124  27.306  1.00  0.00    -0.248 NA
ATOM     66  C   UNL A   1      43.690  24.975  26.394  1.00  0.00     0.031 C 
ATOM     67  C   UNL A   1      46.887  30.131  26.756  1.00  0.00     0.029 A 
ATOM     68  C   UNL A   1      45.890  29.180  26.914  1.00  0.00     0.049 A 
ATOM     69  H   UNL A   1      44.043  29.348  27.918  1.00  0.00     0.167 HD
ATOM     70  C   UNL A   1      44.840  26.948  26.616  1.00  0.00     0.074 A 
ATOM     71  C   UNL A   1      44.827  25.592  26.106  1.00  0.00     0.031 C 
ATOM     72  C   UNL A   1      45.858  27.824  26.424  1.00  0.00     0.037 A 
BRANCH  59  73
ATOM     73  C   UNL A   1      44.904  33.409  28.910  1.00  0.00     0.057 A 
ATOM     74  C   UNL A   1      44.643  34.431  27.987  1.00  0.00     0.134 A 
ATOM     75  C   UNL A   1      45.639  33.748  30.054  1.00  0.00     0.134 A 
ATOM     76  F   UNL A   1      43.963  34.171  26.859  1.00  0.00    -0.206 F 
ATOM     77  C   UNL A   1      45.121  35.729  28.178  1.00  0.00     0.040 A 
ATOM     78  C   UNL A   1      46.095  35.049  30.271  1.00  0.00     0.040 A 
ATOM     79  F   UNL A   1      45.927  32.820  30.978  1.00  0.00    -0.206 F 
ATOM     80  C   UNL A   1      45.843  36.042  29.326  1.00  0.00     0.006 A 
ENDBRANCH  59  73
BRANCH  60  81
ATOM     81  C   UNL A   1      41.121  24.227  27.580  1.00  0.00     0.057 A 
ATOM     82  C   UNL A   1      41.646  23.122  28.260  1.00  0.00     0.134 A 
ATOM     83  C   UNL A   1      40.076  23.989  26.679  1.00  0.00     0.134 A 
ATOM     84  F   UNL A   1      42.660  23.281  29.124  1.00  0.00    -0.206 F 
ATOM     85  C   UNL A   1      41.170  21.829  28.037  1.00  0.00     0.040 A 
ATOM     86  C   UNL A   1      39.570  22.706  26.466  1.00  0.00     0.040 A 
ATOM     87  F   UNL A   1      39.524  25.005  26.000  1.00  0.00    -0.206 F 
ATOM     88  C   UNL A   1      40.125  21.620  27.140  1.00  0.00     0.006 A 
ENDBRANCH  60  81
BRANCH  72  89
ATOM     89  C   UNL A   1      47.063  27.322  25.681  1.00  0.00     0.057 A 
ATOM     90  C   UNL A   1      47.243  27.546  24.310  1.00  0.00     0.134 A 
ATOM     91  C   UNL A   1      48.073  26.623  26.359  1.00  0.00     0.134 A 
ATOM     92  F   UNL A   1      46.311  28.199  23.600  1.00  0.00    -0.206 F 
ATOM     93  C   UNL A   1      48.365  27.063  23.634  1.00  0.00     0.040 A 
ATOM     94  C   UNL A   1      49.214  26.166  25.700  1.00  0.00     0.040 A 
ATOM     95  F   UNL A   1      47.971  26.386  27.675  1.00  0.00    -0.206 F 
ATOM     96  C   UNL A   1      49.357  26.376  24.330  1.00  0.00     0.006 A 
ENDBRANCH  72  89
ENDBRANCH  46  47
ENDBRANCH  39  41
ENDBRANCH  38  39
ENDBRANCH  37  38
ENDBRANCH  36  37
ENDBRANCH  35  36
ENDBRANCH  34  35
ENDBRANCH   1  34
TORSDOF 19
ENDMDL
