MODEL 1
REMARK VINA RESULT:     -11.4      0.000      0.000
REMARK SMILES COc1cccc(-c2cccnc2C(=O)OCCOCCOC(=O)c2ccc(-c3c4nc(c(-c5c(F)cccc5F)c5ccc([nH]5)c(-c5c(F)cccc5F)c5nc(c(-c6c(F)cccc6F)c6ccc3[nH]6)C=C5)C=C4)cc2)c1F
REMARK SMILES IDX 19 1 18 2 17 3 16 4 14 5 15 6 13 7 8 8 9 9 10 10 12 11 11 12
REMARK SMILES IDX 7 13 3 14 4 15 79 16 5 17 80 18 6 19 2 20 1 21 20 22 21 23
REMARK SMILES IDX 22 24 23 25 24 26 25 27 26 28 78 29 27 30 77 31 28 32 29 33
REMARK SMILES IDX 30 34 71 35 31 36 76 37 70 38 72 39 32 40 75 41 69 42 68 43
REMARK SMILES IDX 33 45 59 46 42 47 58 48 43 49 46 50 57 51 73 52 44 53 45 54
REMARK SMILES IDX 56 56 74 57 47 58 34 59 35 60 40 61 36 62 37 63 39 64 41 65
REMARK SMILES IDX 38 66 60 67 61 68 66 69 62 70 63 71 65 72 67 73 64 74 48 75
REMARK SMILES IDX 49 76 54 77 50 78 51 79 53 80 55 81 52 82
REMARK H PARENT 72 44 46 55
REMARK Flexibility Score: inf
ROOT
ATOM      1  O   UNL A   1      40.826  21.920  26.223  1.00  0.00    -0.374 OA
ENDROOT
BRANCH   1   2
ATOM      2  C   UNL A   1      39.536  21.327  26.065  1.00  0.00     0.202 C 
BRANCH   2   3
ATOM      3  C   UNL A   1      38.379  22.317  25.924  1.00  0.00     0.261 C 
BRANCH   3   4
ATOM      4  O   UNL A   1      37.150  21.591  25.766  1.00  0.00    -0.458 OA
BRANCH   4   5
ATOM      5  C   UNL A   1      36.521  21.762  24.578  1.00  0.00     0.357 C 
ATOM      6  O   UNL A   1      37.020  22.233  23.568  1.00  0.00    -0.244 OA
BRANCH   5   7
ATOM      7  C   UNL A   1      35.140  21.188  24.639  1.00  0.00     0.156 A 
ATOM      8  C   UNL A   1      33.967  21.952  24.515  1.00  0.00     0.018 A 
ATOM      9  C   UNL A   1      32.763  21.218  24.554  1.00  0.00     0.013 A 
ATOM     10  C   UNL A   1      32.757  19.837  24.746  1.00  0.00     0.021 A 
ATOM     11  N   UNL A   1      35.151  19.832  24.828  1.00  0.00    -0.249 NA
ATOM     12  C   UNL A   1      33.967  19.195  24.887  1.00  0.00     0.112 A 
BRANCH   8  13
ATOM     13  C   UNL A   1      33.909  23.422  24.355  1.00  0.00     0.024 A 
ATOM     14  C   UNL A   1      33.773  25.393  22.887  1.00  0.00     0.155 A 
ATOM     15  C   UNL A   1      33.803  26.220  24.010  1.00  0.00     0.049 A 
ATOM     16  C   UNL A   1      33.824  24.006  23.071  1.00  0.00     0.172 A 
ATOM     17  C   UNL A   1      33.884  25.674  25.291  1.00  0.00     0.005 A 
ATOM     18  F   UNL A   1      33.804  23.189  22.004  1.00  0.00    -0.202 F 
ATOM     19  C   UNL A   1      33.950  24.289  25.461  1.00  0.00     0.012 A 
BRANCH  14  20
ATOM     20  O   UNL A   1      33.705  26.068  21.698  1.00  0.00    -0.494 OA
ATOM     21  C   UNL A   1      32.602  25.783  20.847  1.00  0.00     0.278 C 
ENDBRANCH  14  20
ENDBRANCH   8  13
ENDBRANCH   5   7
ENDBRANCH   4   5
ENDBRANCH   3   4
ENDBRANCH   2   3
ENDBRANCH   1   2
BRANCH   1  22
ATOM     22  C   UNL A   1      41.959  21.098  25.941  1.00  0.00     0.202 C 
BRANCH  22  23
ATOM     23  C   UNL A   1      43.192  21.829  25.394  1.00  0.00     0.261 C 
BRANCH  23  24
ATOM     24  O   UNL A   1      42.869  23.083  24.767  1.00  0.00    -0.460 OA
BRANCH  24  25
ATOM     25  C   UNL A   1      43.718  24.100  25.045  1.00  0.00     0.338 C 
ATOM     26  O   UNL A   1      44.810  24.321  24.537  1.00  0.00    -0.246 OA
BRANCH  25  27
ATOM     27  C   UNL A   1      43.080  25.033  25.987  1.00  0.00     0.060 A 
ATOM     28  C   UNL A   1      43.645  26.302  26.160  1.00  0.00     0.016 A 
ATOM     29  C   UNL A   1      41.981  24.638  26.751  1.00  0.00     0.016 A 
ATOM     30  C   UNL A   1      43.126  27.171  27.119  1.00  0.00     0.010 A 
ATOM     31  C   UNL A   1      41.452  25.516  27.700  1.00  0.00     0.010 A 
ATOM     32  C   UNL A   1      42.041  26.775  27.914  1.00  0.00    -0.014 A 
BRANCH  32  33
ATOM     33  C   UNL A   1      41.607  27.611  29.061  1.00  0.00     0.031 A 
ATOM     34  C   UNL A   1      42.365  27.526  30.359  1.00  0.00     0.074 A 
ATOM     35  C   UNL A   1      40.563  28.452  28.949  1.00  0.00     0.049 A 
ATOM     36  N   UNL A   1      42.124  28.118  31.501  1.00  0.00    -0.248 NA
ATOM     37  C   UNL A   1      43.548  26.651  30.373  1.00  0.00     0.031 C 
ATOM     38  C   UNL A   1      39.766  28.654  27.741  1.00  0.00     0.029 A 
ATOM     39  N   UNL A   1      39.994  29.294  29.872  1.00  0.00    -0.354 N 
ATOM     40  C   UNL A   1      43.116  27.678  32.370  1.00  0.00     0.074 A 
ATOM     41  C   UNL A   1      43.938  26.742  31.635  1.00  0.00     0.031 C 
ATOM     42  C   UNL A   1      38.816  29.570  27.993  1.00  0.00     0.029 A 
ATOM     43  C   UNL A   1      38.915  29.993  29.390  1.00  0.00     0.049 A 
ATOM     44  H   UNL A   1      40.328  29.388  30.794  1.00  0.00     0.167 HD
ATOM     45  C   UNL A   1      43.334  28.036  33.657  1.00  0.00     0.037 A 
ATOM     46  C   UNL A   1      38.094  30.865  30.007  1.00  0.00     0.037 A 
ATOM     47  C   UNL A   1      42.533  28.985  34.383  1.00  0.00     0.049 A 
ATOM     48  C   UNL A   1      38.321  31.206  31.456  1.00  0.00     0.074 A 
ATOM     49  C   UNL A   1      42.690  29.425  35.685  1.00  0.00     0.029 A 
ATOM     50  N   UNL A   1      41.428  29.643  33.867  1.00  0.00    -0.354 N 
ATOM     51  N   UNL A   1      39.262  30.785  32.266  1.00  0.00    -0.248 NA
ATOM     52  C   UNL A   1      37.370  32.140  32.077  1.00  0.00     0.031 C 
ATOM     53  C   UNL A   1      41.656  30.320  35.971  1.00  0.00     0.029 A 
ATOM     54  C   UNL A   1      40.883  30.474  34.831  1.00  0.00     0.049 A 
ATOM     55  H   UNL A   1      41.082  29.537  32.951  1.00  0.00     0.167 HD
ATOM     56  C   UNL A   1      39.032  31.418  33.481  1.00  0.00     0.074 A 
ATOM     57  C   UNL A   1      37.867  32.259  33.302  1.00  0.00     0.031 C 
ATOM     58  C   UNL A   1      39.728  31.313  34.639  1.00  0.00     0.037 A 
BRANCH  45  59
ATOM     59  C   UNL A   1      44.490  27.396  34.368  1.00  0.00     0.057 A 
ATOM     60  C   UNL A   1      44.320  26.198  35.074  1.00  0.00     0.134 A 
ATOM     61  C   UNL A   1      45.758  27.991  34.396  1.00  0.00     0.134 A 
ATOM     62  F   UNL A   1      43.129  25.581  35.092  1.00  0.00    -0.206 F 
ATOM     63  C   UNL A   1      45.370  25.618  35.787  1.00  0.00     0.040 A 
ATOM     64  C   UNL A   1      46.821  27.406  35.086  1.00  0.00     0.040 A 
ATOM     65  F   UNL A   1      45.989  29.132  33.730  1.00  0.00    -0.206 F 
ATOM     66  C   UNL A   1      46.626  26.221  35.792  1.00  0.00     0.006 A 
ENDBRANCH  45  59
BRANCH  46  67
ATOM     67  C   UNL A   1      36.983  31.492  29.248  1.00  0.00     0.057 A 
ATOM     68  C   UNL A   1      35.806  30.791  28.960  1.00  0.00     0.134 A 
ATOM     69  C   UNL A   1      37.083  32.806  28.779  1.00  0.00     0.134 A 
ATOM     70  F   UNL A   1      35.651  29.526  29.380  1.00  0.00    -0.206 F 
ATOM     71  C   UNL A   1      34.775  31.368  28.218  1.00  0.00     0.040 A 
ATOM     72  C   UNL A   1      36.051  33.404  28.054  1.00  0.00     0.040 A 
ATOM     73  F   UNL A   1      38.177  33.536  29.042  1.00  0.00    -0.206 F 
ATOM     74  C   UNL A   1      34.895  32.680  27.765  1.00  0.00     0.006 A 
ENDBRANCH  46  67
BRANCH  58  75
ATOM     75  C   UNL A   1      39.275  32.139  35.807  1.00  0.00     0.057 A 
ATOM     76  C   UNL A   1      38.322  31.639  36.706  1.00  0.00     0.134 A 
ATOM     77  C   UNL A   1      39.707  33.457  35.990  1.00  0.00     0.134 A 
ATOM     78  F   UNL A   1      37.857  30.387  36.579  1.00  0.00    -0.206 F 
ATOM     79  C   UNL A   1      37.804  32.428  37.734  1.00  0.00     0.040 A 
ATOM     80  C   UNL A   1      39.214  34.248  37.028  1.00  0.00     0.040 A 
ATOM     81  F   UNL A   1      40.624  33.992  35.168  1.00  0.00    -0.206 F 
ATOM     82  C   UNL A   1      38.251  33.737  37.898  1.00  0.00     0.006 A 
ENDBRANCH  58  75
ENDBRANCH  32  33
ENDBRANCH  25  27
ENDBRANCH  24  25
ENDBRANCH  23  24
ENDBRANCH  22  23
ENDBRANCH   1  22
TORSDOF 16
ENDMDL
MODEL 2
REMARK VINA RESULT:     -11.3      3.654      8.318
REMARK SMILES COc1cccc(-c2cccnc2C(=O)OCCOCCOC(=O)c2ccc(-c3c4nc(c(-c5c(F)cccc5F)c5ccc([nH]5)c(-c5c(F)cccc5F)c5nc(c(-c6c(F)cccc6F)c6ccc3[nH]6)C=C5)C=C4)cc2)c1F
REMARK SMILES IDX 19 1 18 2 17 3 16 4 14 5 15 6 13 7 8 8 9 9 10 10 12 11 11 12
REMARK SMILES IDX 7 13 3 14 4 15 79 16 5 17 80 18 6 19 2 20 1 21 20 22 21 23
REMARK SMILES IDX 22 24 23 25 24 26 25 27 26 28 78 29 27 30 77 31 28 32 29 33
REMARK SMILES IDX 30 34 71 35 31 36 76 37 70 38 72 39 32 40 75 41 69 42 68 43
REMARK SMILES IDX 33 45 59 46 42 47 58 48 43 49 46 50 57 51 73 52 44 53 45 54
REMARK SMILES IDX 56 56 74 57 47 58 34 59 35 60 40 61 36 62 37 63 39 64 41 65
REMARK SMILES IDX 38 66 60 67 61 68 66 69 62 70 63 71 65 72 67 73 64 74 48 75
REMARK SMILES IDX 49 76 54 77 50 78 51 79 53 80 55 81 52 82
REMARK H PARENT 72 44 46 55
REMARK Flexibility Score: inf
ROOT
ATOM      1  O   UNL A   1      31.942  31.003  26.257  1.00  0.00    -0.374 OA
ENDROOT
BRANCH   1   2
ATOM      2  C   UNL A   1      32.520  30.155  27.252  1.00  0.00     0.202 C 
BRANCH   2   3
ATOM      3  C   UNL A   1      31.993  28.720  27.267  1.00  0.00     0.261 C 
BRANCH   3   4
ATOM      4  O   UNL A   1      32.118  28.155  25.953  1.00  0.00    -0.458 OA
BRANCH   4   5
ATOM      5  C   UNL A   1      31.315  27.094  25.696  1.00  0.00     0.357 C 
ATOM      6  O   UNL A   1      30.474  26.636  26.454  1.00  0.00    -0.244 OA
BRANCH   5   7
ATOM      7  C   UNL A   1      31.527  26.615  24.294  1.00  0.00     0.156 A 
ATOM      8  C   UNL A   1      30.800  27.084  23.186  1.00  0.00     0.018 A 
ATOM      9  C   UNL A   1      31.181  26.540  21.942  1.00  0.00     0.013 A 
ATOM     10  C   UNL A   1      32.182  25.575  21.843  1.00  0.00     0.021 A 
ATOM     11  N   UNL A   1      32.512  25.667  24.214  1.00  0.00    -0.249 NA
ATOM     12  C   UNL A   1      32.807  25.166  23.001  1.00  0.00     0.112 A 
BRANCH   8  13
ATOM     13  C   UNL A   1      29.699  28.071  23.234  1.00  0.00     0.024 A 
ATOM     14  C   UNL A   1      28.953  30.409  23.425  1.00  0.00     0.155 A 
ATOM     15  C   UNL A   1      27.627  29.984  23.334  1.00  0.00     0.049 A 
ATOM     16  C   UNL A   1      29.972  29.451  23.372  1.00  0.00     0.172 A 
ATOM     17  C   UNL A   1      27.325  28.629  23.196  1.00  0.00     0.005 A 
ATOM     18  F   UNL A   1      31.257  29.837  23.463  1.00  0.00    -0.202 F 
ATOM     19  C   UNL A   1      28.351  27.681  23.159  1.00  0.00     0.012 A 
BRANCH  14  20
ATOM     20  O   UNL A   1      29.096  31.763  23.570  1.00  0.00    -0.494 OA
ATOM     21  C   UNL A   1      28.780  32.577  22.448  1.00  0.00     0.278 C 
ENDBRANCH  14  20
ENDBRANCH   8  13
ENDBRANCH   5   7
ENDBRANCH   4   5
ENDBRANCH   3   4
ENDBRANCH   2   3
ENDBRANCH   1   2
BRANCH   1  22
ATOM     22  C   UNL A   1      31.342  32.218  26.705  1.00  0.00     0.202 C 
BRANCH  22  23
ATOM     23  C   UNL A   1      32.291  33.412  26.859  1.00  0.00     0.261 C 
BRANCH  23  24
ATOM     24  O   UNL A   1      32.244  34.002  28.170  1.00  0.00    -0.460 OA
BRANCH  24  25
ATOM     25  C   UNL A   1      33.322  34.750  28.503  1.00  0.00     0.338 C 
ATOM     26  O   UNL A   1      33.378  35.967  28.628  1.00  0.00    -0.246 OA
BRANCH  25  27
ATOM     27  C   UNL A   1      34.450  33.867  28.844  1.00  0.00     0.060 A 
ATOM     28  C   UNL A   1      34.181  32.657  29.493  1.00  0.00     0.016 A 
ATOM     29  C   UNL A   1      35.766  34.260  28.596  1.00  0.00     0.016 A 
ATOM     30  C   UNL A   1      35.232  31.847  29.920  1.00  0.00     0.010 A 
ATOM     31  C   UNL A   1      36.818  33.440  29.011  1.00  0.00     0.010 A 
ATOM     32  C   UNL A   1      36.559  32.245  29.705  1.00  0.00    -0.014 A 
BRANCH  32  33
ATOM     33  C   UNL A   1      37.678  31.489  30.323  1.00  0.00     0.031 A 
ATOM     34  C   UNL A   1      38.000  31.714  31.777  1.00  0.00     0.074 A 
ATOM     35  C   UNL A   1      38.391  30.599  29.609  1.00  0.00     0.049 A 
ATOM     36  N   UNL A   1      38.968  31.210  32.500  1.00  0.00    -0.248 NA
ATOM     37  C   UNL A   1      37.119  32.636  32.510  1.00  0.00     0.031 C 
ATOM     38  C   UNL A   1      38.161  30.264  28.205  1.00  0.00     0.029 A 
ATOM     39  N   UNL A   1      39.457  29.814  29.973  1.00  0.00    -0.354 N 
ATOM     40  C   UNL A   1      38.818  31.762  33.766  1.00  0.00     0.074 A 
ATOM     41  C   UNL A   1      37.691  32.667  33.704  1.00  0.00     0.031 C 
ATOM     42  C   UNL A   1      39.054  29.333  27.828  1.00  0.00     0.029 A 
ATOM     43  C   UNL A   1      39.940  29.033  28.952  1.00  0.00     0.049 A 
ATOM     44  H   UNL A   1      39.839  29.811  30.880  1.00  0.00     0.167 HD
ATOM     45  C   UNL A   1      39.540  31.522  34.886  1.00  0.00     0.037 A 
ATOM     46  C   UNL A   1      40.983  28.182  28.924  1.00  0.00     0.037 A 
ATOM     47  C   UNL A   1      40.646  30.605  34.957  1.00  0.00     0.049 A 
ATOM     48  C   UNL A   1      41.809  27.974  30.165  1.00  0.00     0.074 A 
ATOM     49  C   UNL A   1      41.426  30.282  36.054  1.00  0.00     0.029 A 
ATOM     50  N   UNL A   1      41.124  29.860  33.891  1.00  0.00    -0.354 N 
ATOM     51  N   UNL A   1      41.657  28.499  31.357  1.00  0.00    -0.248 NA
ATOM     52  C   UNL A   1      42.954  27.056  30.058  1.00  0.00     0.031 C 
ATOM     53  C   UNL A   1      42.402  29.371  35.642  1.00  0.00     0.029 A 
ATOM     54  C   UNL A   1      42.200  29.090  34.300  1.00  0.00     0.049 A 
ATOM     55  H   UNL A   1      40.753  29.875  32.979  1.00  0.00     0.167 HD
ATOM     56  C   UNL A   1      42.667  27.960  32.144  1.00  0.00     0.074 A 
ATOM     57  C   UNL A   1      43.423  27.060  31.300  1.00  0.00     0.031 C 
ATOM     58  C   UNL A   1      42.939  28.191  33.452  1.00  0.00     0.037 A 
BRANCH  45  59
ATOM     59  C   UNL A   1      39.158  32.267  36.131  1.00  0.00     0.057 A 
ATOM     60  C   UNL A   1      38.271  31.703  37.057  1.00  0.00     0.134 A 
ATOM     61  C   UNL A   1      39.627  33.561  36.388  1.00  0.00     0.134 A 
ATOM     62  F   UNL A   1      37.780  30.470  36.867  1.00  0.00    -0.206 F 
ATOM     63  C   UNL A   1      37.861  32.404  38.192  1.00  0.00     0.040 A 
ATOM     64  C   UNL A   1      39.243  34.261  37.533  1.00  0.00     0.040 A 
ATOM     65  F   UNL A   1      40.489  34.152  35.546  1.00  0.00    -0.206 F 
ATOM     66  C   UNL A   1      38.350  33.686  38.434  1.00  0.00     0.006 A 
ENDBRANCH  45  59
BRANCH  46  67
ATOM     67  C   UNL A   1      41.300  27.449  27.673  1.00  0.00     0.057 A 
ATOM     68  C   UNL A   1      40.804  26.162  27.432  1.00  0.00     0.134 A 
ATOM     69  C   UNL A   1      42.124  28.017  26.695  1.00  0.00     0.134 A 
ATOM     70  F   UNL A   1      40.011  25.562  28.332  1.00  0.00    -0.206 F 
ATOM     71  C   UNL A   1      41.128  25.459  26.270  1.00  0.00     0.040 A 
ATOM     72  C   UNL A   1      42.440  27.334  25.519  1.00  0.00     0.040 A 
ATOM     73  F   UNL A   1      42.612  29.255  26.859  1.00  0.00    -0.206 F 
ATOM     74  C   UNL A   1      41.947  26.048  25.308  1.00  0.00     0.006 A 
ENDBRANCH  46  67
BRANCH  58  75
ATOM     75  C   UNL A   1      44.086  27.447  34.071  1.00  0.00     0.057 A 
ATOM     76  C   UNL A   1      43.882  26.201  34.679  1.00  0.00     0.134 A 
ATOM     77  C   UNL A   1      45.369  28.002  34.149  1.00  0.00     0.134 A 
ATOM     78  F   UNL A   1      42.673  25.619  34.651  1.00  0.00    -0.206 F 
ATOM     79  C   UNL A   1      44.908  25.542  35.357  1.00  0.00     0.040 A 
ATOM     80  C   UNL A   1      46.409  27.342  34.803  1.00  0.00     0.040 A 
ATOM     81  F   UNL A   1      45.631  29.189  33.579  1.00  0.00    -0.206 F 
ATOM     82  C   UNL A   1      46.178  26.113  35.419  1.00  0.00     0.006 A 
ENDBRANCH  58  75
ENDBRANCH  32  33
ENDBRANCH  25  27
ENDBRANCH  24  25
ENDBRANCH  23  24
ENDBRANCH  22  23
ENDBRANCH   1  22
TORSDOF 16
ENDMDL
MODEL 3
REMARK VINA RESULT:     -11.3      3.421      8.305
REMARK SMILES COc1cccc(-c2cccnc2C(=O)OCCOCCOC(=O)c2ccc(-c3c4nc(c(-c5c(F)cccc5F)c5ccc([nH]5)c(-c5c(F)cccc5F)c5nc(c(-c6c(F)cccc6F)c6ccc3[nH]6)C=C5)C=C4)cc2)c1F
REMARK SMILES IDX 19 1 18 2 17 3 16 4 14 5 15 6 13 7 8 8 9 9 10 10 12 11 11 12
REMARK SMILES IDX 7 13 3 14 4 15 79 16 5 17 80 18 6 19 2 20 1 21 20 22 21 23
REMARK SMILES IDX 22 24 23 25 24 26 25 27 26 28 78 29 27 30 77 31 28 32 29 33
REMARK SMILES IDX 30 34 71 35 31 36 76 37 70 38 72 39 32 40 75 41 69 42 68 43
REMARK SMILES IDX 33 45 59 46 42 47 58 48 43 49 46 50 57 51 73 52 44 53 45 54
REMARK SMILES IDX 56 56 74 57 47 58 34 59 35 60 40 61 36 62 37 63 39 64 41 65
REMARK SMILES IDX 38 66 60 67 61 68 66 69 62 70 63 71 65 72 67 73 64 74 48 75
REMARK SMILES IDX 49 76 54 77 50 78 51 79 53 80 55 81 52 82
REMARK H PARENT 72 44 46 55
REMARK Flexibility Score: inf
ROOT
ATOM      1  O   UNL A   1      32.233  30.849  26.326  1.00  0.00    -0.374 OA
ENDROOT
BRANCH   1   2
ATOM      2  C   UNL A   1      32.139  29.624  27.055  1.00  0.00     0.202 C 
BRANCH   2   3
ATOM      3  C   UNL A   1      32.518  28.369  26.268  1.00  0.00     0.261 C 
BRANCH   3   4
ATOM      4  O   UNL A   1      33.034  28.753  24.984  1.00  0.00    -0.458 OA
BRANCH   4   5
ATOM      5  C   UNL A   1      32.692  27.943  23.953  1.00  0.00     0.357 C 
ATOM      6  O   UNL A   1      33.416  27.111  23.429  1.00  0.00    -0.244 OA
BRANCH   5   7
ATOM      7  C   UNL A   1      31.249  28.133  23.604  1.00  0.00     0.156 A 
ATOM      8  C   UNL A   1      30.277  27.123  23.705  1.00  0.00     0.018 A 
ATOM      9  C   UNL A   1      28.964  27.515  23.373  1.00  0.00     0.013 A 
ATOM     10  C   UNL A   1      28.676  28.807  22.938  1.00  0.00     0.021 A 
ATOM     11  N   UNL A   1      30.982  29.407  23.179  1.00  0.00    -0.249 NA
ATOM     12  C   UNL A   1      29.714  29.709  22.848  1.00  0.00     0.112 A 
BRANCH   8  13
ATOM     13  C   UNL A   1      30.529  25.724  24.117  1.00  0.00     0.024 A 
ATOM     14  C   UNL A   1      30.625  24.019  25.889  1.00  0.00     0.155 A 
ATOM     15  C   UNL A   1      31.006  23.068  24.941  1.00  0.00     0.049 A 
ATOM     16  C   UNL A   1      30.390  25.332  25.467  1.00  0.00     0.172 A 
ATOM     17  C   UNL A   1      31.150  23.422  23.600  1.00  0.00     0.005 A 
ATOM     18  F   UNL A   1      30.028  26.267  26.364  1.00  0.00    -0.202 F 
ATOM     19  C   UNL A   1      30.926  24.741  23.194  1.00  0.00     0.012 A 
BRANCH  14  20
ATOM     20  O   UNL A   1      30.536  23.530  27.165  1.00  0.00    -0.494 OA
ATOM     21  C   UNL A   1      29.398  22.740  27.484  1.00  0.00     0.278 C 
ENDBRANCH  14  20
ENDBRANCH   8  13
ENDBRANCH   5   7
ENDBRANCH   4   5
ENDBRANCH   3   4
ENDBRANCH   2   3
ENDBRANCH   1   2
BRANCH   1  22
ATOM     22  C   UNL A   1      31.412  31.932  26.763  1.00  0.00     0.202 C 
BRANCH  22  23
ATOM     23  C   UNL A   1      32.104  33.298  26.854  1.00  0.00     0.261 C 
BRANCH  23  24
ATOM     24  O   UNL A   1      32.191  33.794  28.201  1.00  0.00    -0.460 OA
BRANCH  24  25
ATOM     25  C   UNL A   1      33.257  34.589  28.453  1.00  0.00     0.338 C 
ATOM     26  O   UNL A   1      33.280  35.811  28.519  1.00  0.00    -0.246 OA
BRANCH  25  27
ATOM     27  C   UNL A   1      34.425  33.757  28.788  1.00  0.00     0.060 A 
ATOM     28  C   UNL A   1      34.208  32.458  29.262  1.00  0.00     0.016 A 
ATOM     29  C   UNL A   1      35.718  34.274  28.707  1.00  0.00     0.016 A 
ATOM     30  C   UNL A   1      35.287  31.682  29.683  1.00  0.00     0.010 A 
ATOM     31  C   UNL A   1      36.800  33.490  29.114  1.00  0.00     0.010 A 
ATOM     32  C   UNL A   1      36.589  32.201  29.637  1.00  0.00    -0.014 A 
BRANCH  32  33
ATOM     33  C   UNL A   1      37.715  31.460  30.259  1.00  0.00     0.031 A 
ATOM     34  C   UNL A   1      38.047  31.709  31.706  1.00  0.00     0.074 A 
ATOM     35  C   UNL A   1      38.426  30.561  29.554  1.00  0.00     0.049 A 
ATOM     36  N   UNL A   1      39.021  31.221  32.430  1.00  0.00    -0.248 NA
ATOM     37  C   UNL A   1      37.167  32.640  32.430  1.00  0.00     0.031 C 
ATOM     38  C   UNL A   1      38.187  30.202  28.158  1.00  0.00     0.029 A 
ATOM     39  N   UNL A   1      39.497  29.785  29.923  1.00  0.00    -0.354 N 
ATOM     40  C   UNL A   1      38.878  31.793  33.689  1.00  0.00     0.074 A 
ATOM     41  C   UNL A   1      37.748  32.693  33.619  1.00  0.00     0.031 C 
ATOM     42  C   UNL A   1      39.081  29.268  27.789  1.00  0.00     0.029 A 
ATOM     43  C   UNL A   1      39.976  28.990  28.912  1.00  0.00     0.049 A 
ATOM     44  H   UNL A   1      39.886  29.799  30.827  1.00  0.00     0.167 HD
ATOM     45  C   UNL A   1      39.609  31.574  34.807  1.00  0.00     0.037 A 
ATOM     46  C   UNL A   1      41.022  28.142  28.890  1.00  0.00     0.037 A 
ATOM     47  C   UNL A   1      40.719  30.662  34.885  1.00  0.00     0.049 A 
ATOM     48  C   UNL A   1      41.858  27.957  30.128  1.00  0.00     0.074 A 
ATOM     49  C   UNL A   1      41.508  30.359  35.982  1.00  0.00     0.029 A 
ATOM     50  N   UNL A   1      41.192  29.902  33.828  1.00  0.00    -0.354 N 
ATOM     51  N   UNL A   1      41.712  28.501  31.313  1.00  0.00    -0.248 NA
ATOM     52  C   UNL A   1      43.005  27.041  30.028  1.00  0.00     0.031 C 
ATOM     53  C   UNL A   1      42.484  29.446  35.577  1.00  0.00     0.029 A 
ATOM     54  C   UNL A   1      42.274  29.142  34.241  1.00  0.00     0.049 A 
ATOM     55  H   UNL A   1      40.815  29.900  32.918  1.00  0.00     0.167 HD
ATOM     56  C   UNL A   1      42.729  27.979  32.101  1.00  0.00     0.074 A 
ATOM     57  C   UNL A   1      43.483  27.068  31.266  1.00  0.00     0.031 C 
ATOM     58  C   UNL A   1      43.010  28.232  33.403  1.00  0.00     0.037 A 
BRANCH  45  59
ATOM     59  C   UNL A   1      39.233  32.337  36.042  1.00  0.00     0.057 A 
ATOM     60  C   UNL A   1      38.285  31.826  36.937  1.00  0.00     0.134 A 
ATOM     61  C   UNL A   1      39.772  33.600  36.320  1.00  0.00     0.134 A 
ATOM     62  F   UNL A   1      37.726  30.626  36.726  1.00  0.00    -0.206 F 
ATOM     63  C   UNL A   1      37.881  32.548  38.062  1.00  0.00     0.040 A 
ATOM     64  C   UNL A   1      39.394  34.320  37.455  1.00  0.00     0.040 A 
ATOM     65  F   UNL A   1      40.694  34.139  35.508  1.00  0.00    -0.206 F 
ATOM     66  C   UNL A   1      38.439  33.798  38.324  1.00  0.00     0.006 A 
ENDBRANCH  45  59
BRANCH  46  67
ATOM     67  C   UNL A   1      41.333  27.389  27.649  1.00  0.00     0.057 A 
ATOM     68  C   UNL A   1      40.768  26.135  27.391  1.00  0.00     0.134 A 
ATOM     69  C   UNL A   1      42.219  27.906  26.697  1.00  0.00     0.134 A 
ATOM     70  F   UNL A   1      39.912  25.585  28.266  1.00  0.00    -0.206 F 
ATOM     71  C   UNL A   1      41.085  25.412  26.240  1.00  0.00     0.040 A 
ATOM     72  C   UNL A   1      42.530  27.204  25.531  1.00  0.00     0.040 A 
ATOM     73  F   UNL A   1      42.776  29.112  26.878  1.00  0.00    -0.206 F 
ATOM     74  C   UNL A   1      41.967  25.949  25.304  1.00  0.00     0.006 A 
ENDBRANCH  46  67
BRANCH  58  75
ATOM     75  C   UNL A   1      44.165  27.503  34.026  1.00  0.00     0.057 A 
ATOM     76  C   UNL A   1      43.970  26.262  34.648  1.00  0.00     0.134 A 
ATOM     77  C   UNL A   1      45.443  28.067  34.093  1.00  0.00     0.134 A 
ATOM     78  F   UNL A   1      42.765  25.672  34.631  1.00  0.00    -0.206 F 
ATOM     79  C   UNL A   1      45.004  25.617  35.329  1.00  0.00     0.040 A 
ATOM     80  C   UNL A   1      46.491  27.421  34.751  1.00  0.00     0.040 A 
ATOM     81  F   UNL A   1      45.696  29.249  33.510  1.00  0.00    -0.206 F 
ATOM     82  C   UNL A   1      46.270  26.197  35.381  1.00  0.00     0.006 A 
ENDBRANCH  58  75
ENDBRANCH  32  33
ENDBRANCH  25  27
ENDBRANCH  24  25
ENDBRANCH  23  24
ENDBRANCH  22  23
ENDBRANCH   1  22
TORSDOF 16
ENDMDL
