MODEL 1
REMARK VINA RESULT:     -10.7      0.000      0.000
REMARK SMILES CCOc1ccccc1NC(=O)N[C@@](C)(CC)C(=O)OCCOCCOC(=O)c1ccc(-c2c3nc(c(-c4c(F)cccc4F)c4ccc([nH]4)c(-c4c(F)cccc4F)c4nc(c(-c5c(F)cccc5F)c5ccc2[nH]5)C=C4)C=C3)cc1
REMARK SMILES IDX 22 1 21 2 20 3 18 4 19 5 14 6 15 7 13 8 10 9 11 10 12 12
REMARK SMILES IDX 9 14 4 15 5 16 6 17 8 18 7 19 3 20 2 21 1 22 16 23 17 24
REMARK SMILES IDX 23 25 24 26 25 27 26 28 27 29 28 30 29 31 30 32 82 33 31 34
REMARK SMILES IDX 81 35 32 36 33 37 34 38 75 39 35 40 80 41 74 42 76 43 36 44
REMARK SMILES IDX 79 45 73 46 72 47 37 49 63 50 46 51 62 52 47 53 50 54 61 55
REMARK SMILES IDX 77 56 48 57 49 58 60 60 78 61 51 62 38 63 39 64 44 65 40 66
REMARK SMILES IDX 41 67 43 68 45 69 42 70 64 71 65 72 70 73 66 74 67 75 69 76
REMARK SMILES IDX 71 77 68 78 52 79 53 80 58 81 54 82 55 83 57 84 59 85 56 86
REMARK H PARENT 10 11 13 13 76 48 50 59
REMARK Flexibility Score: inf
ROOT
ATOM      1  C   UNL A   1      32.786  29.710  26.207  1.00  0.00     0.202 C 
ENDROOT
BRANCH   1   2
ATOM      2  C   UNL A   1      32.009  28.847  25.206  1.00  0.00     0.261 C 
BRANCH   2   3
ATOM      3  O   UNL A   1      32.154  27.421  25.180  1.00  0.00    -0.462 OA
BRANCH   3   4
ATOM      4  C   UNL A   1      31.136  26.776  25.818  1.00  0.00     0.331 C 
ATOM      5  O   UNL A   1      30.728  27.097  26.931  1.00  0.00    -0.249 OA
BRANCH   4   6
ATOM      6  C   UNL A   1      30.409  25.707  24.966  1.00  0.00     0.136 C 
ATOM      7  C   UNL A   1      31.143  25.095  23.765  1.00  0.00     0.047 C 
BRANCH   6   8
ATOM      8  N   UNL A   1      30.048  24.598  25.905  1.00  0.00    -0.322 N 
ATOM      9  N   UNL A   1      32.072  23.678  26.761  1.00  0.00    -0.305 N 
ATOM     10  C   UNL A   1      30.732  23.690  26.635  1.00  0.00     0.320 C 
ATOM     11  H   UNL A   1      32.346  23.779  27.701  1.00  0.00     0.172 HD
ATOM     12  O   UNL A   1      30.062  23.017  27.426  1.00  0.00    -0.248 OA
ATOM     13  H   UNL A   1      29.075  24.509  26.018  1.00  0.00     0.166 HD
BRANCH   9  14
ATOM     14  C   UNL A   1      33.184  23.562  25.910  1.00  0.00     0.085 A 
ATOM     15  C   UNL A   1      33.277  22.374  25.148  1.00  0.00     0.142 A 
ATOM     16  C   UNL A   1      34.413  22.079  24.386  1.00  0.00     0.048 A 
ATOM     17  C   UNL A   1      35.470  22.984  24.367  1.00  0.00     0.004 A 
ATOM     18  C   UNL A   1      34.193  24.505  25.775  1.00  0.00     0.030 A 
ATOM     19  C   UNL A   1      35.353  24.200  25.046  1.00  0.00     0.002 A 
BRANCH  15  20
ATOM     20  O   UNL A   1      32.398  21.363  25.445  1.00  0.00    -0.492 OA
BRANCH  20  21
ATOM     21  C   UNL A   1      32.469  20.245  24.566  1.00  0.00     0.226 C 
ATOM     22  C   UNL A   1      32.839  19.052  25.430  1.00  0.00     0.049 C 
ENDBRANCH  20  21
ENDBRANCH  15  20
ENDBRANCH   9  14
ENDBRANCH   6   8
BRANCH   6  23
ATOM     23  C   UNL A   1      29.098  26.357  24.389  1.00  0.00     0.037 C 
ATOM     24  C   UNL A   1      29.241  27.564  23.469  1.00  0.00     0.007 C 
ENDBRANCH   6  23
ENDBRANCH   4   6
ENDBRANCH   3   4
ENDBRANCH   2   3
ENDBRANCH   1   2
BRANCH   1  25
ATOM     25  O   UNL A   1      31.958  30.474  27.049  1.00  0.00    -0.374 OA
BRANCH  25  26
ATOM     26  C   UNL A   1      31.401  31.684  26.551  1.00  0.00     0.202 C 
BRANCH  26  27
ATOM     27  C   UNL A   1      32.007  33.068  26.878  1.00  0.00     0.261 C 
BRANCH  27  28
ATOM     28  O   UNL A   1      32.284  33.362  28.257  1.00  0.00    -0.460 OA
BRANCH  28  29
ATOM     29  C   UNL A   1      33.339  34.170  28.500  1.00  0.00     0.338 C 
ATOM     30  O   UNL A   1      33.311  35.348  28.801  1.00  0.00    -0.246 OA
BRANCH  29  31
ATOM     31  C   UNL A   1      34.564  33.336  28.562  1.00  0.00     0.060 A 
ATOM     32  C   UNL A   1      34.433  32.012  29.002  1.00  0.00     0.016 A 
ATOM     33  C   UNL A   1      35.824  33.856  28.256  1.00  0.00     0.016 A 
ATOM     34  C   UNL A   1      35.566  31.230  29.219  1.00  0.00     0.010 A 
ATOM     35  C   UNL A   1      36.964  33.080  28.499  1.00  0.00     0.010 A 
ATOM     36  C   UNL A   1      36.839  31.787  29.039  1.00  0.00    -0.014 A 
BRANCH  36  37
ATOM     37  C   UNL A   1      37.994  31.128  29.697  1.00  0.00     0.031 A 
ATOM     38  C   UNL A   1      38.253  31.453  31.146  1.00  0.00     0.074 A 
ATOM     39  C   UNL A   1      38.739  30.201  29.073  1.00  0.00     0.049 A 
ATOM     40  N   UNL A   1      39.167  30.984  31.957  1.00  0.00    -0.248 NA
ATOM     41  C   UNL A   1      37.349  32.437  31.764  1.00  0.00     0.031 C 
ATOM     42  C   UNL A   1      38.550  29.743  27.700  1.00  0.00     0.029 A 
ATOM     43  N   UNL A   1      39.805  29.467  29.533  1.00  0.00    -0.354 N 
ATOM     44  C   UNL A   1      38.941  31.607  33.178  1.00  0.00     0.074 A 
ATOM     45  C   UNL A   1      37.832  32.516  32.994  1.00  0.00     0.031 C 
ATOM     46  C   UNL A   1      39.469  28.798  27.427  1.00  0.00     0.029 A 
ATOM     47  C   UNL A   1      40.323  28.606  28.599  1.00  0.00     0.049 A 
ATOM     48  H   UNL A   1      40.163  29.551  30.445  1.00  0.00     0.167 HD
ATOM     49  C   UNL A   1      39.588  31.434  34.354  1.00  0.00     0.037 A 
ATOM     50  C   UNL A   1      41.372  27.764  28.684  1.00  0.00     0.037 A 
ATOM     51  C   UNL A   1      40.700  30.544  34.543  1.00  0.00     0.049 A 
ATOM     52  C   UNL A   1      42.147  27.667  29.972  1.00  0.00     0.074 A 
ATOM     53  C   UNL A   1      41.433  30.307  35.693  1.00  0.00     0.029 A 
ATOM     54  N   UNL A   1      41.245  29.746  33.549  1.00  0.00    -0.354 N 
ATOM     55  N   UNL A   1      41.926  28.260  31.121  1.00  0.00    -0.248 NA
ATOM     56  C   UNL A   1      43.320  26.780  29.973  1.00  0.00     0.031 C 
ATOM     57  C   UNL A   1      42.450  29.398  35.382  1.00  0.00     0.029 A 
ATOM     58  C   UNL A   1      42.320  29.033  34.053  1.00  0.00     0.049 A 
ATOM     59  H   UNL A   1      40.917  29.695  32.622  1.00  0.00     0.167 HD
ATOM     60  C   UNL A   1      42.910  27.795  31.987  1.00  0.00     0.074 A 
ATOM     61  C   UNL A   1      43.723  26.865  31.233  1.00  0.00     0.031 C 
ATOM     62  C   UNL A   1      43.118  28.106  33.291  1.00  0.00     0.037 A 
BRANCH  49  63
ATOM     63  C   UNL A   1      39.118  32.259  35.515  1.00  0.00     0.057 A 
ATOM     64  C   UNL A   1      39.537  33.583  35.699  1.00  0.00     0.134 A 
ATOM     65  C   UNL A   1      38.246  31.718  36.468  1.00  0.00     0.134 A 
ATOM     66  F   UNL A   1      40.390  34.153  34.833  1.00  0.00    -0.206 F 
ATOM     67  C   UNL A   1      39.127  34.331  36.804  1.00  0.00     0.040 A 
ATOM     68  C   UNL A   1      37.810  32.464  37.564  1.00  0.00     0.040 A 
ATOM     69  F   UNL A   1      37.810  30.455  36.351  1.00  0.00    -0.206 F 
ATOM     70  C   UNL A   1      38.258  33.772  37.738  1.00  0.00     0.006 A 
ENDBRANCH  49  63
BRANCH  50  71
ATOM     71  C   UNL A   1      41.761  26.938  27.515  1.00  0.00     0.057 A 
ATOM     72  C   UNL A   1      41.334  25.611  27.391  1.00  0.00     0.134 A 
ATOM     73  C   UNL A   1      42.596  27.443  26.510  1.00  0.00     0.134 A 
ATOM     74  F   UNL A   1      40.556  25.062  28.336  1.00  0.00    -0.206 F 
ATOM     75  C   UNL A   1      41.732  24.811  26.319  1.00  0.00     0.040 A 
ATOM     76  C   UNL A   1      42.984  26.662  25.421  1.00  0.00     0.040 A 
ATOM     77  F   UNL A   1      43.044  28.705  26.574  1.00  0.00    -0.206 F 
ATOM     78  C   UNL A   1      42.555  25.339  25.326  1.00  0.00     0.006 A 
ENDBRANCH  50  71
BRANCH  62  79
ATOM     79  C   UNL A   1      44.246  27.407  33.993  1.00  0.00     0.057 A 
ATOM     80  C   UNL A   1      45.531  27.958  34.061  1.00  0.00     0.134 A 
ATOM     81  C   UNL A   1      44.032  26.178  34.632  1.00  0.00     0.134 A 
ATOM     82  F   UNL A   1      45.803  29.126  33.459  1.00  0.00    -0.206 F 
ATOM     83  C   UNL A   1      46.572  27.297  34.717  1.00  0.00     0.040 A 
ATOM     84  C   UNL A   1      45.058  25.522  35.313  1.00  0.00     0.040 A 
ATOM     85  F   UNL A   1      42.821  25.601  34.613  1.00  0.00    -0.206 F 
ATOM     86  C   UNL A   1      46.335  26.079  35.350  1.00  0.00     0.006 A 
ENDBRANCH  62  79
ENDBRANCH  36  37
ENDBRANCH  29  31
ENDBRANCH  28  29
ENDBRANCH  27  28
ENDBRANCH  26  27
ENDBRANCH  25  26
ENDBRANCH   1  25
TORSDOF 19
ENDMDL
MODEL 2
REMARK VINA RESULT:     -10.6      0.419      6.061
REMARK SMILES CCOc1ccccc1NC(=O)N[C@@](C)(CC)C(=O)OCCOCCOC(=O)c1ccc(-c2c3nc(c(-c4c(F)cccc4F)c4ccc([nH]4)c(-c4c(F)cccc4F)c4nc(c(-c5c(F)cccc5F)c5ccc2[nH]5)C=C4)C=C3)cc1
REMARK SMILES IDX 22 1 21 2 20 3 18 4 19 5 14 6 15 7 13 8 10 9 11 10 12 12
REMARK SMILES IDX 9 14 4 15 5 16 6 17 8 18 7 19 3 20 2 21 1 22 16 23 17 24
REMARK SMILES IDX 23 25 24 26 25 27 26 28 27 29 28 30 29 31 30 32 82 33 31 34
REMARK SMILES IDX 81 35 32 36 33 37 34 38 75 39 35 40 80 41 74 42 76 43 36 44
REMARK SMILES IDX 79 45 73 46 72 47 37 49 63 50 46 51 62 52 47 53 50 54 61 55
REMARK SMILES IDX 77 56 48 57 49 58 60 60 78 61 51 62 38 63 39 64 44 65 40 66
REMARK SMILES IDX 41 67 43 68 45 69 42 70 64 71 65 72 70 73 66 74 67 75 69 76
REMARK SMILES IDX 71 77 68 78 52 79 53 80 58 81 54 82 55 83 57 84 59 85 56 86
REMARK H PARENT 10 11 13 13 76 48 50 59
REMARK Flexibility Score: inf
ROOT
ATOM      1  C   UNL A   1      32.701  29.811  25.430  1.00  0.00     0.202 C 
ENDROOT
BRANCH   1   2
ATOM      2  C   UNL A   1      31.610  28.823  25.001  1.00  0.00     0.261 C 
BRANCH   2   3
ATOM      3  O   UNL A   1      31.873  27.417  24.905  1.00  0.00    -0.462 OA
BRANCH   3   4
ATOM      4  C   UNL A   1      31.044  26.671  25.690  1.00  0.00     0.331 C 
ATOM      5  O   UNL A   1      30.866  26.894  26.884  1.00  0.00    -0.249 OA
BRANCH   4   6
ATOM      6  C   UNL A   1      30.204  25.617  24.930  1.00  0.00     0.136 C 
ATOM      7  C   UNL A   1      30.779  24.996  23.649  1.00  0.00     0.047 C 
BRANCH   6   8
ATOM      8  N   UNL A   1      29.937  24.511  25.903  1.00  0.00    -0.322 N 
ATOM      9  N   UNL A   1      32.035  23.764  26.749  1.00  0.00    -0.305 N 
ATOM     10  C   UNL A   1      30.697  23.676  26.646  1.00  0.00     0.320 C 
ATOM     11  H   UNL A   1      32.315  23.910  27.682  1.00  0.00     0.172 HD
ATOM     12  O   UNL A   1      30.089  22.978  27.466  1.00  0.00    -0.248 OA
ATOM     13  H   UNL A   1      28.975  24.355  26.035  1.00  0.00     0.166 HD
BRANCH   9  14
ATOM     14  C   UNL A   1      33.141  23.704  25.884  1.00  0.00     0.085 A 
ATOM     15  C   UNL A   1      33.336  22.488  25.188  1.00  0.00     0.142 A 
ATOM     16  C   UNL A   1      34.482  22.259  24.420  1.00  0.00     0.048 A 
ATOM     17  C   UNL A   1      35.447  23.259  24.328  1.00  0.00     0.004 A 
ATOM     18  C   UNL A   1      34.052  24.731  25.675  1.00  0.00     0.030 A 
ATOM     19  C   UNL A   1      35.224  24.495  24.940  1.00  0.00     0.002 A 
BRANCH  15  20
ATOM     20  O   UNL A   1      32.563  21.417  25.560  1.00  0.00    -0.492 OA
BRANCH  20  21
ATOM     21  C   UNL A   1      33.272  20.187  25.657  1.00  0.00     0.226 C 
ATOM     22  C   UNL A   1      32.502  19.189  24.809  1.00  0.00     0.049 C 
ENDBRANCH  20  21
ENDBRANCH  15  20
ENDBRANCH   9  14
ENDBRANCH   6   8
BRANCH   6  23
ATOM     23  C   UNL A   1      28.843  26.290  24.512  1.00  0.00     0.037 C 
ATOM     24  C   UNL A   1      28.862  27.288  23.360  1.00  0.00     0.007 C 
ENDBRANCH   6  23
ENDBRANCH   4   6
ENDBRANCH   3   4
ENDBRANCH   2   3
ENDBRANCH   1   2
BRANCH   1  25
ATOM     25  O   UNL A   1      32.365  30.553  26.577  1.00  0.00    -0.374 OA
BRANCH  25  26
ATOM     26  C   UNL A   1      31.461  31.643  26.451  1.00  0.00     0.202 C 
BRANCH  26  27
ATOM     27  C   UNL A   1      31.867  33.096  26.789  1.00  0.00     0.261 C 
BRANCH  27  28
ATOM     28  O   UNL A   1      32.452  33.337  28.080  1.00  0.00    -0.460 OA
BRANCH  28  29
ATOM     29  C   UNL A   1      33.536  34.143  28.107  1.00  0.00     0.338 C 
ATOM     30  O   UNL A   1      33.550  35.360  28.092  1.00  0.00    -0.246 OA
BRANCH  29  31
ATOM     31  C   UNL A   1      34.732  33.312  28.387  1.00  0.00     0.060 A 
ATOM     32  C   UNL A   1      34.526  32.006  28.853  1.00  0.00     0.016 A 
ATOM     33  C   UNL A   1      36.027  33.819  28.257  1.00  0.00     0.016 A 
ATOM     34  C   UNL A   1      35.609  31.233  29.270  1.00  0.00     0.010 A 
ATOM     35  C   UNL A   1      37.112  33.053  28.701  1.00  0.00     0.010 A 
ATOM     36  C   UNL A   1      36.898  31.782  29.265  1.00  0.00    -0.014 A 
BRANCH  36  37
ATOM     37  C   UNL A   1      37.934  31.148  30.116  1.00  0.00     0.031 A 
ATOM     38  C   UNL A   1      38.852  30.141  29.470  1.00  0.00     0.074 A 
ATOM     39  C   UNL A   1      38.128  31.510  31.395  1.00  0.00     0.049 A 
ATOM     40  N   UNL A   1      39.859  29.480  29.982  1.00  0.00    -0.248 NA
ATOM     41  C   UNL A   1      38.601  29.850  28.049  1.00  0.00     0.031 C 
ATOM     42  C   UNL A   1      37.361  32.519  32.118  1.00  0.00     0.029 A 
ATOM     43  N   UNL A   1      39.053  31.067  32.308  1.00  0.00    -0.354 N 
ATOM     44  C   UNL A   1      40.364  28.706  28.945  1.00  0.00     0.074 A 
ATOM     45  C   UNL A   1      39.533  28.947  27.787  1.00  0.00     0.031 C 
ATOM     46  C   UNL A   1      37.850  32.624  33.367  1.00  0.00     0.029 A 
ATOM     47  C   UNL A   1      38.948  31.672  33.535  1.00  0.00     0.049 A 
ATOM     48  H   UNL A   1      39.727  30.381  32.103  1.00  0.00     0.167 HD
ATOM     49  C   UNL A   1      41.432  27.874  28.946  1.00  0.00     0.037 A 
ATOM     50  C   UNL A   1      39.655  31.471  34.665  1.00  0.00     0.037 A 
ATOM     51  C   UNL A   1      42.257  27.617  30.095  1.00  0.00     0.049 A 
ATOM     52  C   UNL A   1      40.772  30.460  34.674  1.00  0.00     0.074 A 
ATOM     53  C   UNL A   1      43.354  26.780  30.202  1.00  0.00     0.029 A 
ATOM     54  N   UNL A   1      42.067  28.191  31.342  1.00  0.00    -0.354 N 
ATOM     55  N   UNL A   1      41.243  29.733  33.690  1.00  0.00    -0.248 NA
ATOM     56  C   UNL A   1      41.457  30.244  35.958  1.00  0.00     0.031 C 
ATOM     57  C   UNL A   1      43.801  26.816  31.527  1.00  0.00     0.029 A 
ATOM     58  C   UNL A   1      43.012  27.711  32.232  1.00  0.00     0.049 A 
ATOM     59  H   UNL A   1      41.363  28.844  31.562  1.00  0.00     0.167 HD
ATOM     60  C   UNL A   1      42.295  28.999  34.225  1.00  0.00     0.074 A 
ATOM     61  C   UNL A   1      42.399  29.375  35.619  1.00  0.00     0.031 C 
ATOM     62  C   UNL A   1      43.107  28.099  33.616  1.00  0.00     0.037 A 
BRANCH  49  63
ATOM     63  C   UNL A   1      41.739  27.161  27.663  1.00  0.00     0.057 A 
ATOM     64  C   UNL A   1      42.511  27.753  26.654  1.00  0.00     0.134 A 
ATOM     65  C   UNL A   1      41.246  25.872  27.428  1.00  0.00     0.134 A 
ATOM     66  F   UNL A   1      42.994  28.996  26.809  1.00  0.00    -0.206 F 
ATOM     67  C   UNL A   1      42.758  27.099  25.446  1.00  0.00     0.040 A 
ATOM     68  C   UNL A   1      41.507  25.198  26.234  1.00  0.00     0.040 A 
ATOM     69  F   UNL A   1      40.498  25.251  28.352  1.00  0.00    -0.206 F 
ATOM     70  C   UNL A   1      42.258  25.815  25.236  1.00  0.00     0.006 A 
ENDBRANCH  49  63
BRANCH  50  71
ATOM     71  C   UNL A   1      39.335  32.242  35.892  1.00  0.00     0.057 A 
ATOM     72  C   UNL A   1      38.374  31.788  36.802  1.00  0.00     0.134 A 
ATOM     73  C   UNL A   1      39.957  33.466  36.167  1.00  0.00     0.134 A 
ATOM     74  F   UNL A   1      37.724  30.636  36.579  1.00  0.00    -0.206 F 
ATOM     75  C   UNL A   1      38.034  32.528  37.936  1.00  0.00     0.040 A 
ATOM     76  C   UNL A   1      39.643  34.205  37.307  1.00  0.00     0.040 A 
ATOM     77  F   UNL A   1      40.883  33.958  35.330  1.00  0.00    -0.206 F 
ATOM     78  C   UNL A   1      38.674  33.739  38.193  1.00  0.00     0.006 A 
ENDBRANCH  50  71
BRANCH  62  79
ATOM     79  C   UNL A   1      44.199  27.487  34.445  1.00  0.00     0.057 A 
ATOM     80  C   UNL A   1      45.453  28.095  34.583  1.00  0.00     0.134 A 
ATOM     81  C   UNL A   1      43.982  26.286  35.133  1.00  0.00     0.134 A 
ATOM     82  F   UNL A   1      45.728  29.240  33.939  1.00  0.00    -0.206 F 
ATOM     83  C   UNL A   1      46.461  27.516  35.356  1.00  0.00     0.040 A 
ATOM     84  C   UNL A   1      44.973  25.712  35.930  1.00  0.00     0.040 A 
ATOM     85  F   UNL A   1      42.799  25.658  35.052  1.00  0.00    -0.206 F 
ATOM     86  C   UNL A   1      46.220  26.324  36.037  1.00  0.00     0.006 A 
ENDBRANCH  62  79
ENDBRANCH  36  37
ENDBRANCH  29  31
ENDBRANCH  28  29
ENDBRANCH  27  28
ENDBRANCH  26  27
ENDBRANCH  25  26
ENDBRANCH   1  25
TORSDOF 19
ENDMDL
MODEL 3
REMARK VINA RESULT:     -10.1      1.547      2.468
REMARK SMILES CCOc1ccccc1NC(=O)N[C@@](C)(CC)C(=O)OCCOCCOC(=O)c1ccc(-c2c3nc(c(-c4c(F)cccc4F)c4ccc([nH]4)c(-c4c(F)cccc4F)c4nc(c(-c5c(F)cccc5F)c5ccc2[nH]5)C=C4)C=C3)cc1
REMARK SMILES IDX 22 1 21 2 20 3 18 4 19 5 14 6 15 7 13 8 10 9 11 10 12 12
REMARK SMILES IDX 9 14 4 15 5 16 6 17 8 18 7 19 3 20 2 21 1 22 16 23 17 24
REMARK SMILES IDX 23 25 24 26 25 27 26 28 27 29 28 30 29 31 30 32 82 33 31 34
REMARK SMILES IDX 81 35 32 36 33 37 34 38 75 39 35 40 80 41 74 42 76 43 36 44
REMARK SMILES IDX 79 45 73 46 72 47 37 49 63 50 46 51 62 52 47 53 50 54 61 55
REMARK SMILES IDX 77 56 48 57 49 58 60 60 78 61 51 62 38 63 39 64 44 65 40 66
REMARK SMILES IDX 41 67 43 68 45 69 42 70 64 71 65 72 70 73 66 74 67 75 69 76
REMARK SMILES IDX 71 77 68 78 52 79 53 80 58 81 54 82 55 83 57 84 59 85 56 86
REMARK H PARENT 10 11 13 13 76 48 50 59
REMARK Flexibility Score: inf
ROOT
ATOM      1  C   UNL A   1      31.836  29.056  26.383  1.00  0.00     0.202 C 
ENDROOT
BRANCH   1   2
ATOM      2  C   UNL A   1      31.566  29.146  24.876  1.00  0.00     0.261 C 
BRANCH   2   3
ATOM      3  O   UNL A   1      32.373  28.431  23.930  1.00  0.00    -0.462 OA
BRANCH   3   4
ATOM      4  C   UNL A   1      31.709  27.388  23.354  1.00  0.00     0.331 C 
ATOM      5  O   UNL A   1      30.767  27.533  22.581  1.00  0.00    -0.249 OA
BRANCH   4   6
ATOM      6  C   UNL A   1      32.338  25.997  23.612  1.00  0.00     0.136 C 
ATOM      7  C   UNL A   1      31.514  24.941  24.362  1.00  0.00     0.047 C 
BRANCH   6   8
ATOM      8  N   UNL A   1      32.692  25.442  22.268  1.00  0.00    -0.322 N 
ATOM      9  N   UNL A   1      33.667  23.294  22.600  1.00  0.00    -0.305 N 
ATOM     10  C   UNL A   1      33.304  24.325  21.816  1.00  0.00     0.320 C 
ATOM     11  H   UNL A   1      33.221  22.460  22.327  1.00  0.00     0.172 HD
ATOM     12  O   UNL A   1      33.275  24.150  20.592  1.00  0.00    -0.248 OA
ATOM     13  H   UNL A   1      32.412  26.035  21.534  1.00  0.00     0.166 HD
BRANCH   9  14
ATOM     14  C   UNL A   1      34.511  23.088  23.704  1.00  0.00     0.085 A 
ATOM     15  C   UNL A   1      34.014  22.258  24.736  1.00  0.00     0.142 A 
ATOM     16  C   UNL A   1      34.697  22.105  25.947  1.00  0.00     0.048 A 
ATOM     17  C   UNL A   1      35.903  22.775  26.134  1.00  0.00     0.004 A 
ATOM     18  C   UNL A   1      35.774  23.643  23.862  1.00  0.00     0.030 A 
ATOM     19  C   UNL A   1      36.446  23.527  25.089  1.00  0.00     0.002 A 
BRANCH  15  20
ATOM     20  O   UNL A   1      32.693  21.893  24.670  1.00  0.00    -0.492 OA
BRANCH  20  21
ATOM     21  C   UNL A   1      32.442  20.532  25.005  1.00  0.00     0.226 C 
ATOM     22  C   UNL A   1      32.529  19.754  23.703  1.00  0.00     0.049 C 
ENDBRANCH  20  21
ENDBRANCH  15  20
ENDBRANCH   9  14
ENDBRANCH   6   8
BRANCH   6  23
ATOM     23  C   UNL A   1      33.648  26.206  24.458  1.00  0.00     0.037 C 
ATOM     24  C   UNL A   1      33.612  25.839  25.937  1.00  0.00     0.007 C 
ENDBRANCH   6  23
ENDBRANCH   4   6
ENDBRANCH   3   4
ENDBRANCH   2   3
ENDBRANCH   1   2
BRANCH   1  25
ATOM     25  O   UNL A   1      32.061  30.306  26.987  1.00  0.00    -0.374 OA
BRANCH  25  26
ATOM     26  C   UNL A   1      31.377  31.446  26.484  1.00  0.00     0.202 C 
BRANCH  26  27
ATOM     27  C   UNL A   1      31.777  32.887  26.874  1.00  0.00     0.261 C 
BRANCH  27  28
ATOM     28  O   UNL A   1      33.113  33.096  27.362  1.00  0.00    -0.460 OA
BRANCH  28  29
ATOM     29  C   UNL A   1      33.280  34.105  28.244  1.00  0.00     0.338 C 
ATOM     30  O   UNL A   1      32.547  35.061  28.418  1.00  0.00    -0.246 OA
BRANCH  29  31
ATOM     31  C   UNL A   1      34.404  33.758  29.146  1.00  0.00     0.060 A 
ATOM     32  C   UNL A   1      35.691  34.180  28.781  1.00  0.00     0.016 A 
ATOM     33  C   UNL A   1      34.215  32.982  30.292  1.00  0.00     0.016 A 
ATOM     34  C   UNL A   1      36.800  33.758  29.512  1.00  0.00     0.010 A 
ATOM     35  C   UNL A   1      35.331  32.536  31.012  1.00  0.00     0.010 A 
ATOM     36  C   UNL A   1      36.629  32.874  30.586  1.00  0.00    -0.014 A 
BRANCH  36  37
ATOM     37  C   UNL A   1      37.802  32.090  31.043  1.00  0.00     0.031 A 
ATOM     38  C   UNL A   1      38.326  32.358  32.431  1.00  0.00     0.074 A 
ATOM     39  C   UNL A   1      38.338  31.107  30.302  1.00  0.00     0.049 A 
ATOM     40  N   UNL A   1      39.307  31.783  33.079  1.00  0.00    -0.248 NA
ATOM     41  C   UNL A   1      37.639  33.414  33.193  1.00  0.00     0.031 C 
ATOM     42  C   UNL A   1      37.883  30.698  28.977  1.00  0.00     0.029 A 
ATOM     43  N   UNL A   1      39.385  30.261  30.578  1.00  0.00    -0.354 N 
ATOM     44  C   UNL A   1      39.347  32.401  34.323  1.00  0.00     0.074 A 
ATOM     45  C   UNL A   1      38.321  33.419  34.328  1.00  0.00     0.031 C 
ATOM     46  C   UNL A   1      38.645  29.672  28.553  1.00  0.00     0.029 A 
ATOM     47  C   UNL A   1      39.655  29.372  29.568  1.00  0.00     0.049 A 
ATOM     48  H   UNL A   1      39.893  30.291  31.419  1.00  0.00     0.167 HD
ATOM     49  C   UNL A   1      40.156  32.140  35.377  1.00  0.00     0.037 A 
ATOM     50  C   UNL A   1      40.613  28.429  29.476  1.00  0.00     0.037 A 
ATOM     51  C   UNL A   1      41.188  31.141  35.378  1.00  0.00     0.049 A 
ATOM     52  C   UNL A   1      41.573  28.229  30.620  1.00  0.00     0.074 A 
ATOM     53  C   UNL A   1      42.071  30.809  36.391  1.00  0.00     0.029 A 
ATOM     54  N   UNL A   1      41.481  30.313  34.304  1.00  0.00    -0.354 N 
ATOM     55  N   UNL A   1      41.603  28.818  31.792  1.00  0.00    -0.248 NA
ATOM     56  C   UNL A   1      42.634  27.230  30.425  1.00  0.00     0.031 C 
ATOM     57  C   UNL A   1      42.926  29.810  35.914  1.00  0.00     0.029 A 
ATOM     58  C   UNL A   1      42.545  29.487  34.622  1.00  0.00     0.049 A 
ATOM     59  H   UNL A   1      41.002  30.314  33.444  1.00  0.00     0.167 HD
ATOM     60  C   UNL A   1      42.663  28.240  32.483  1.00  0.00     0.074 A 
ATOM     61  C   UNL A   1      43.244  27.249  31.602  1.00  0.00     0.031 C 
ATOM     62  C   UNL A   1      43.110  28.501  33.736  1.00  0.00     0.037 A 
BRANCH  49  63
ATOM     63  C   UNL A   1      39.967  32.984  36.603  1.00  0.00     0.057 A 
ATOM     64  C   UNL A   1      38.983  32.690  37.557  1.00  0.00     0.134 A 
ATOM     65  C   UNL A   1      40.769  34.109  36.825  1.00  0.00     0.134 A 
ATOM     66  F   UNL A   1      38.167  31.638  37.391  1.00  0.00    -0.206 F 
ATOM     67  C   UNL A   1      38.786  33.504  38.675  1.00  0.00     0.040 A 
ATOM     68  C   UNL A   1      40.598  34.916  37.951  1.00  0.00     0.040 A 
ATOM     69  F   UNL A   1      41.726  34.446  35.948  1.00  0.00    -0.206 F 
ATOM     70  C   UNL A   1      39.598  34.618  38.876  1.00  0.00     0.006 A 
ENDBRANCH  49  63
BRANCH  50  71
ATOM     71  C   UNL A   1      40.721  27.592  28.256  1.00  0.00     0.057 A 
ATOM     72  C   UNL A   1      41.489  28.004  27.161  1.00  0.00     0.134 A 
ATOM     73  C   UNL A   1      40.033  26.378  28.141  1.00  0.00     0.134 A 
ATOM     74  F   UNL A   1      42.148  29.172  27.201  1.00  0.00    -0.206 F 
ATOM     75  C   UNL A   1      41.561  27.246  25.991  1.00  0.00     0.040 A 
ATOM     76  C   UNL A   1      40.113  25.599  26.986  1.00  0.00     0.040 A 
ATOM     77  F   UNL A   1      39.275  25.931  29.153  1.00  0.00    -0.206 F 
ATOM     78  C   UNL A   1      40.875  26.036  25.904  1.00  0.00     0.006 A 
ENDBRANCH  50  71
BRANCH  62  79
ATOM     79  C   UNL A   1      44.261  27.680  34.241  1.00  0.00     0.057 A 
ATOM     80  C   UNL A   1      45.586  28.125  34.150  1.00  0.00     0.134 A 
ATOM     81  C   UNL A   1      44.034  26.438  34.849  1.00  0.00     0.134 A 
ATOM     82  F   UNL A   1      45.870  29.299  33.568  1.00  0.00    -0.206 F 
ATOM     83  C   UNL A   1      46.647  27.351  34.623  1.00  0.00     0.040 A 
ATOM     84  C   UNL A   1      45.085  25.668  35.349  1.00  0.00     0.040 A 
ATOM     85  F   UNL A   1      42.788  25.958  34.977  1.00  0.00    -0.206 F 
ATOM     86  C   UNL A   1      46.397  26.121  35.230  1.00  0.00     0.006 A 
ENDBRANCH  62  79
ENDBRANCH  36  37
ENDBRANCH  29  31
ENDBRANCH  28  29
ENDBRANCH  27  28
ENDBRANCH  26  27
ENDBRANCH  25  26
ENDBRANCH   1  25
TORSDOF 19
ENDMDL
