MODEL 1
REMARK VINA RESULT:     -10.7      0.000      0.000
REMARK SMILES O=C(OCCOCCOC(=O)c1cncc(C(=O)c2ccsc2)c1)c1ccc(-c2c3nc(c(-c4c(F)cccc4F)c4ccc([nH]4)c(-c4c(F)cccc4F)c4nc(c(-c5c(F)cccc5F)c5ccc2[nH]5)C=C4)C=C3)cc1
REMARK SMILES IDX 6 1 5 2 4 3 3 4 2 5 1 6 25 7 26 8 78 9 27 10 77 11 28 12
REMARK SMILES IDX 29 13 30 14 71 15 31 16 76 17 70 18 72 19 32 20 75 21 69 22
REMARK SMILES IDX 68 23 33 25 59 26 42 27 58 28 43 29 46 30 57 31 73 32 44 33
REMARK SMILES IDX 45 34 56 36 74 37 47 38 34 39 35 40 40 41 36 42 37 43 39 44
REMARK SMILES IDX 41 45 38 46 60 47 61 48 66 49 62 50 63 51 65 52 67 53 64 54
REMARK SMILES IDX 48 55 49 56 54 57 50 58 51 59 53 60 55 61 52 62 7 63 8 64
REMARK SMILES IDX 9 65 10 66 11 67 12 68 13 69 24 70 14 71 16 72 15 73 17 74
REMARK SMILES IDX 18 75 19 76 20 77 23 78 21 79 22 80
REMARK H PARENT 72 24 46 35
REMARK Flexibility Score: inf
ROOT
ATOM      1  O   UNL A   1      32.364  30.296  27.188  1.00  0.00    -0.374 OA
ENDROOT
BRANCH   1   2
ATOM      2  C   UNL A   1      31.710  31.180  26.279  1.00  0.00     0.202 C 
BRANCH   2   3
ATOM      3  C   UNL A   1      31.322  32.523  26.900  1.00  0.00     0.261 C 
BRANCH   3   4
ATOM      4  O   UNL A   1      32.459  33.403  26.921  1.00  0.00    -0.460 OA
BRANCH   4   5
ATOM      5  C   UNL A   1      33.142  33.867  27.991  1.00  0.00     0.338 C 
ATOM      6  O   UNL A   1      32.777  34.921  28.510  1.00  0.00    -0.246 OA
BRANCH   5   7
ATOM      7  C   UNL A   1      34.321  33.173  28.592  1.00  0.00     0.060 A 
ATOM      8  C   UNL A   1      34.335  31.843  29.016  1.00  0.00     0.016 A 
ATOM      9  C   UNL A   1      35.528  33.890  28.636  1.00  0.00     0.016 A 
ATOM     10  C   UNL A   1      35.482  31.248  29.513  1.00  0.00     0.010 A 
ATOM     11  C   UNL A   1      36.700  33.291  29.107  1.00  0.00     0.010 A 
ATOM     12  C   UNL A   1      36.669  31.968  29.558  1.00  0.00    -0.014 A 
BRANCH  12  13
ATOM     13  C   UNL A   1      37.826  31.326  30.196  1.00  0.00     0.031 A 
ATOM     14  C   UNL A   1      38.053  31.576  31.651  1.00  0.00     0.074 A 
ATOM     15  C   UNL A   1      38.547  30.427  29.504  1.00  0.00     0.049 A 
ATOM     16  N   UNL A   1      39.018  31.156  32.421  1.00  0.00    -0.248 NA
ATOM     17  C   UNL A   1      37.045  32.402  32.337  1.00  0.00     0.031 C 
ATOM     18  C   UNL A   1      38.288  30.026  28.119  1.00  0.00     0.029 A 
ATOM     19  N   UNL A   1      39.619  29.666  29.878  1.00  0.00    -0.354 N 
ATOM     20  C   UNL A   1      38.750  31.691  33.674  1.00  0.00     0.074 A 
ATOM     21  C   UNL A   1      37.535  32.465  33.564  1.00  0.00     0.031 C 
ATOM     22  C   UNL A   1      39.171  29.079  27.765  1.00  0.00     0.029 A 
ATOM     23  C   UNL A   1      40.094  28.861  28.873  1.00  0.00     0.049 A 
ATOM     24  H   UNL A   1      40.012  29.692  30.780  1.00  0.00     0.167 HD
ATOM     25  C   UNL A   1      39.474  31.550  34.808  1.00  0.00     0.037 A 
ATOM     26  C   UNL A   1      41.183  28.070  28.850  1.00  0.00     0.037 A 
ATOM     27  C   UNL A   1      40.682  30.774  34.873  1.00  0.00     0.049 A 
ATOM     28  C   UNL A   1      42.028  28.011  30.093  1.00  0.00     0.074 A 
ATOM     29  C   UNL A   1      41.551  30.606  35.932  1.00  0.00     0.029 A 
ATOM     30  N   UNL A   1      41.186  30.029  33.812  1.00  0.00    -0.354 N 
ATOM     31  N   UNL A   1      41.824  28.585  31.257  1.00  0.00    -0.248 NA
ATOM     32  C   UNL A   1      43.259  27.217  30.020  1.00  0.00     0.031 C 
ATOM     33  C   UNL A   1      42.606  29.795  35.499  1.00  0.00     0.029 A 
ATOM     34  C   UNL A   1      42.366  29.413  34.186  1.00  0.00     0.049 A 
ATOM     35  H   UNL A   1      40.765  29.952  32.925  1.00  0.00     0.167 HD
ATOM     36  C   UNL A   1      42.890  28.210  32.061  1.00  0.00     0.074 A 
ATOM     37  C   UNL A   1      43.728  27.344  31.253  1.00  0.00     0.031 C 
ATOM     38  C   UNL A   1      43.162  28.551  33.345  1.00  0.00     0.037 A 
BRANCH  25  39
ATOM     39  C   UNL A   1      39.010  32.321  36.007  1.00  0.00     0.057 A 
ATOM     40  C   UNL A   1      39.429  33.633  36.263  1.00  0.00     0.134 A 
ATOM     41  C   UNL A   1      38.177  31.713  36.956  1.00  0.00     0.134 A 
ATOM     42  F   UNL A   1      40.255  34.262  35.413  1.00  0.00    -0.206 F 
ATOM     43  C   UNL A   1      39.063  34.301  37.434  1.00  0.00     0.040 A 
ATOM     44  C   UNL A   1      37.784  32.379  38.117  1.00  0.00     0.040 A 
ATOM     45  F   UNL A   1      37.748  30.455  36.778  1.00  0.00    -0.206 F 
ATOM     46  C   UNL A   1      38.236  33.674  38.365  1.00  0.00     0.006 A 
ENDBRANCH  25  39
BRANCH  26  47
ATOM     47  C   UNL A   1      41.554  27.336  27.614  1.00  0.00     0.057 A 
ATOM     48  C   UNL A   1      42.299  27.943  26.596  1.00  0.00     0.134 A 
ATOM     49  C   UNL A   1      41.168  26.003  27.416  1.00  0.00     0.134 A 
ATOM     50  F   UNL A   1      42.685  29.222  26.712  1.00  0.00    -0.206 F 
ATOM     51  C   UNL A   1      42.636  27.257  25.425  1.00  0.00     0.040 A 
ATOM     52  C   UNL A   1      41.521  25.297  26.264  1.00  0.00     0.040 A 
ATOM     53  F   UNL A   1      40.453  25.359  28.350  1.00  0.00    -0.206 F 
ATOM     54  C   UNL A   1      42.252  25.928  25.261  1.00  0.00     0.006 A 
ENDBRANCH  26  47
BRANCH  38  55
ATOM     55  C   UNL A   1      44.392  27.953  33.955  1.00  0.00     0.057 A 
ATOM     56  C   UNL A   1      45.616  28.632  33.962  1.00  0.00     0.134 A 
ATOM     57  C   UNL A   1      44.331  26.706  34.589  1.00  0.00     0.134 A 
ATOM     58  F   UNL A   1      45.737  29.824  33.356  1.00  0.00    -0.206 F 
ATOM     59  C   UNL A   1      46.745  28.081  34.565  1.00  0.00     0.040 A 
ATOM     60  C   UNL A   1      45.448  26.159  35.220  1.00  0.00     0.040 A 
ATOM     61  F   UNL A   1      43.184  26.013  34.622  1.00  0.00    -0.206 F 
ATOM     62  C   UNL A   1      46.660  26.845  35.205  1.00  0.00     0.006 A 
ENDBRANCH  38  55
ENDBRANCH  12  13
ENDBRANCH   5   7
ENDBRANCH   4   5
ENDBRANCH   3   4
ENDBRANCH   2   3
ENDBRANCH   1   2
BRANCH   1  63
ATOM     63  C   UNL A   1      32.797  29.038  26.660  1.00  0.00     0.202 C 
BRANCH  63  64
ATOM     64  C   UNL A   1      33.189  29.234  25.195  1.00  0.00     0.261 C 
BRANCH  64  65
ATOM     65  O   UNL A   1      33.109  27.958  24.542  1.00  0.00    -0.460 OA
BRANCH  65  66
ATOM     66  C   UNL A   1      32.552  27.972  23.303  1.00  0.00     0.339 C 
ATOM     67  O   UNL A   1      33.108  28.164  22.236  1.00  0.00    -0.246 OA
BRANCH  66  68
ATOM     68  C   UNL A   1      31.148  27.551  23.441  1.00  0.00     0.079 A 
ATOM     69  C   UNL A   1      30.833  26.249  23.787  1.00  0.00     0.126 A 
ATOM     70  C   UNL A   1      30.107  28.459  23.274  1.00  0.00     0.031 A 
ATOM     71  N   UNL A   1      29.558  25.819  23.973  1.00  0.00    -0.263 NA
ATOM     72  C   UNL A   1      28.783  28.031  23.361  1.00  0.00     0.042 A 
ATOM     73  C   UNL A   1      28.559  26.718  23.746  1.00  0.00     0.123 A 
BRANCH  72  74
ATOM     74  C   UNL A   1      27.650  28.947  23.072  1.00  0.00     0.195 C 
ATOM     75  O   UNL A   1      26.505  28.584  23.318  1.00  0.00    -0.289 OA
BRANCH  74  76
ATOM     76  C   UNL A   1      27.957  30.285  22.552  1.00  0.00     0.033 A 
ATOM     77  C   UNL A   1      28.242  31.476  23.312  1.00  0.00     0.024 A 
ATOM     78  C   UNL A   1      27.983  30.562  21.198  1.00  0.00     0.077 A 
ATOM     79  C   UNL A   1      28.308  32.605  22.526  1.00  0.00     0.065 A 
ATOM     80  S   UNL A   1      28.169  32.231  20.866  1.00  0.00    -0.152 S 
ENDBRANCH  74  76
ENDBRANCH  72  74
ENDBRANCH  66  68
ENDBRANCH  65  66
ENDBRANCH  64  65
ENDBRANCH  63  64
ENDBRANCH   1  63
TORSDOF 16
ENDMDL
MODEL 2
REMARK VINA RESULT:     -10.6      1.265      6.428
REMARK SMILES O=C(OCCOCCOC(=O)c1cncc(C(=O)c2ccsc2)c1)c1ccc(-c2c3nc(c(-c4c(F)cccc4F)c4ccc([nH]4)c(-c4c(F)cccc4F)c4nc(c(-c5c(F)cccc5F)c5ccc2[nH]5)C=C4)C=C3)cc1
REMARK SMILES IDX 6 1 5 2 4 3 3 4 2 5 1 6 25 7 26 8 78 9 27 10 77 11 28 12
REMARK SMILES IDX 29 13 30 14 71 15 31 16 76 17 70 18 72 19 32 20 75 21 69 22
REMARK SMILES IDX 68 23 33 25 59 26 42 27 58 28 43 29 46 30 57 31 73 32 44 33
REMARK SMILES IDX 45 34 56 36 74 37 47 38 34 39 35 40 40 41 36 42 37 43 39 44
REMARK SMILES IDX 41 45 38 46 60 47 61 48 66 49 62 50 63 51 65 52 67 53 64 54
REMARK SMILES IDX 48 55 49 56 54 57 50 58 51 59 53 60 55 61 52 62 7 63 8 64
REMARK SMILES IDX 9 65 10 66 11 67 12 68 13 69 24 70 14 71 16 72 15 73 17 74
REMARK SMILES IDX 18 75 19 76 20 77 23 78 21 79 22 80
REMARK H PARENT 72 24 46 35
REMARK Flexibility Score: inf
ROOT
ATOM      1  O   UNL A   1      32.802  30.159  27.539  1.00  0.00    -0.374 OA
ENDROOT
BRANCH   1   2
ATOM      2  C   UNL A   1      32.215  30.992  26.542  1.00  0.00     0.202 C 
BRANCH   2   3
ATOM      3  C   UNL A   1      31.474  32.203  27.112  1.00  0.00     0.261 C 
BRANCH   3   4
ATOM      4  O   UNL A   1      32.301  33.376  27.014  1.00  0.00    -0.460 OA
BRANCH   4   5
ATOM      5  C   UNL A   1      32.936  34.041  28.005  1.00  0.00     0.338 C 
ATOM      6  O   UNL A   1      32.449  35.094  28.414  1.00  0.00    -0.246 OA
BRANCH   5   7
ATOM      7  C   UNL A   1      34.201  33.570  28.645  1.00  0.00     0.060 A 
ATOM      8  C   UNL A   1      35.482  34.003  28.299  1.00  0.00     0.016 A 
ATOM      9  C   UNL A   1      34.074  32.703  29.743  1.00  0.00     0.016 A 
ATOM     10  C   UNL A   1      36.608  33.564  28.975  1.00  0.00     0.010 A 
ATOM     11  C   UNL A   1      35.201  32.277  30.453  1.00  0.00     0.010 A 
ATOM     12  C   UNL A   1      36.472  32.702  30.055  1.00  0.00    -0.014 A 
BRANCH  12  13
ATOM     13  C   UNL A   1      37.703  32.181  30.664  1.00  0.00     0.031 A 
ATOM     14  C   UNL A   1      38.401  31.051  29.980  1.00  0.00     0.074 A 
ATOM     15  C   UNL A   1      38.242  32.822  31.716  1.00  0.00     0.049 A 
ATOM     16  N   UNL A   1      39.472  30.402  30.340  1.00  0.00    -0.248 NA
ATOM     17  C   UNL A   1      37.817  30.600  28.705  1.00  0.00     0.031 C 
ATOM     18  C   UNL A   1      37.687  34.024  32.345  1.00  0.00     0.029 A 
ATOM     19  N   UNL A   1      39.387  32.575  32.419  1.00  0.00    -0.354 N 
ATOM     20  C   UNL A   1      39.675  29.446  29.354  1.00  0.00     0.074 A 
ATOM     21  C   UNL A   1      38.619  29.598  28.380  1.00  0.00     0.031 C 
ATOM     22  C   UNL A   1      38.505  34.418  33.333  1.00  0.00     0.029 A 
ATOM     23  C   UNL A   1      39.598  33.459  33.448  1.00  0.00     0.049 A 
ATOM     24  H   UNL A   1      40.002  31.836  32.208  1.00  0.00     0.167 HD
ATOM     25  C   UNL A   1      40.657  28.519  29.287  1.00  0.00     0.037 A 
ATOM     26  C   UNL A   1      40.550  33.457  34.398  1.00  0.00     0.037 A 
ATOM     27  C   UNL A   1      41.687  28.398  30.282  1.00  0.00     0.049 A 
ATOM     28  C   UNL A   1      41.571  32.353  34.360  1.00  0.00     0.074 A 
ATOM     29  C   UNL A   1      42.697  27.461  30.379  1.00  0.00     0.029 A 
ATOM     30  N   UNL A   1      41.831  29.261  31.363  1.00  0.00    -0.354 N 
ATOM     31  N   UNL A   1      41.717  31.394  33.474  1.00  0.00    -0.248 NA
ATOM     32  C   UNL A   1      42.546  32.314  35.455  1.00  0.00     0.031 C 
ATOM     33  C   UNL A   1      43.425  27.731  31.543  1.00  0.00     0.029 A 
ATOM     34  C   UNL A   1      42.902  28.869  32.143  1.00  0.00     0.049 A 
ATOM     35  H   UNL A   1      41.254  30.038  31.546  1.00  0.00     0.167 HD
ATOM     36  C   UNL A   1      42.807  30.647  33.894  1.00  0.00     0.074 A 
ATOM     37  C   UNL A   1      43.295  31.278  35.106  1.00  0.00     0.031 C 
ATOM     38  C   UNL A   1      43.355  29.537  33.339  1.00  0.00     0.037 A 
BRANCH  25  39
ATOM     39  C   UNL A   1      40.584  27.537  28.157  1.00  0.00     0.057 A 
ATOM     40  C   UNL A   1      39.879  26.330  28.255  1.00  0.00     0.134 A 
ATOM     41  C   UNL A   1      41.287  27.778  26.969  1.00  0.00     0.134 A 
ATOM     42  F   UNL A   1      39.213  26.022  29.378  1.00  0.00    -0.206 F 
ATOM     43  C   UNL A   1      39.903  25.385  27.226  1.00  0.00     0.040 A 
ATOM     44  C   UNL A   1      41.298  26.853  25.924  1.00  0.00     0.040 A 
ATOM     45  F   UNL A   1      41.992  28.908  26.812  1.00  0.00    -0.206 F 
ATOM     46  C   UNL A   1      40.613  25.647  26.055  1.00  0.00     0.006 A 
ENDBRANCH  25  39
BRANCH  26  47
ATOM     47  C   UNL A   1      40.543  34.482  35.474  1.00  0.00     0.057 A 
ATOM     48  C   UNL A   1      39.843  34.285  36.669  1.00  0.00     0.134 A 
ATOM     49  C   UNL A   1      41.237  35.692  35.330  1.00  0.00     0.134 A 
ATOM     50  F   UNL A   1      39.143  33.158  36.865  1.00  0.00    -0.206 F 
ATOM     51  C   UNL A   1      39.823  35.256  37.675  1.00  0.00     0.040 A 
ATOM     52  C   UNL A   1      41.249  36.658  36.338  1.00  0.00     0.040 A 
ATOM     53  F   UNL A   1      41.930  35.947  34.211  1.00  0.00    -0.206 F 
ATOM     54  C   UNL A   1      40.534  36.443  37.512  1.00  0.00     0.006 A 
ENDBRANCH  26  47
BRANCH  38  55
ATOM     55  C   UNL A   1      44.561  28.970  34.021  1.00  0.00     0.057 A 
ATOM     56  C   UNL A   1      45.856  29.399  33.707  1.00  0.00     0.134 A 
ATOM     57  C   UNL A   1      44.416  28.022  35.041  1.00  0.00     0.134 A 
ATOM     58  F   UNL A   1      46.057  30.295  32.728  1.00  0.00    -0.206 F 
ATOM     59  C   UNL A   1      46.969  28.891  34.375  1.00  0.00     0.040 A 
ATOM     60  C   UNL A   1      45.520  27.528  35.734  1.00  0.00     0.040 A 
ATOM     61  F   UNL A   1      43.200  27.578  35.392  1.00  0.00    -0.206 F 
ATOM     62  C   UNL A   1      46.802  27.960  35.398  1.00  0.00     0.006 A 
ENDBRANCH  38  55
ENDBRANCH  12  13
ENDBRANCH   5   7
ENDBRANCH   4   5
ENDBRANCH   3   4
ENDBRANCH   2   3
ENDBRANCH   1   2
BRANCH   1  63
ATOM     63  C   UNL A   1      33.306  28.892  27.100  1.00  0.00     0.202 C 
BRANCH  63  64
ATOM     64  C   UNL A   1      33.757  29.024  25.645  1.00  0.00     0.261 C 
BRANCH  64  65
ATOM     65  O   UNL A   1      33.096  28.004  24.883  1.00  0.00    -0.460 OA
BRANCH  65  66
ATOM     66  C   UNL A   1      32.507  28.424  23.734  1.00  0.00     0.339 C 
ATOM     67  O   UNL A   1      33.019  29.033  22.811  1.00  0.00    -0.246 OA
BRANCH  66  68
ATOM     68  C   UNL A   1      31.141  27.876  23.706  1.00  0.00     0.079 A 
ATOM     69  C   UNL A   1      30.916  26.530  23.940  1.00  0.00     0.126 A 
ATOM     70  C   UNL A   1      30.041  28.700  23.492  1.00  0.00     0.031 A 
ATOM     71  N   UNL A   1      29.675  25.981  23.973  1.00  0.00    -0.263 NA
ATOM     72  C   UNL A   1      28.760  28.155  23.421  1.00  0.00     0.042 A 
ATOM     73  C   UNL A   1      28.623  26.803  23.703  1.00  0.00     0.123 A 
BRANCH  72  74
ATOM     74  C   UNL A   1      27.579  28.987  23.078  1.00  0.00     0.195 C 
ATOM     75  O   UNL A   1      26.453  28.559  23.306  1.00  0.00    -0.289 OA
BRANCH  74  76
ATOM     76  C   UNL A   1      27.814  30.327  22.525  1.00  0.00     0.033 A 
ATOM     77  C   UNL A   1      28.007  30.683  21.142  1.00  0.00     0.024 A 
ATOM     78  C   UNL A   1      27.903  31.450  23.326  1.00  0.00     0.077 A 
ATOM     79  C   UNL A   1      28.386  31.997  20.979  1.00  0.00     0.065 A 
ATOM     80  S   UNL A   1      28.377  32.848  22.458  1.00  0.00    -0.152 S 
ENDBRANCH  74  76
ENDBRANCH  72  74
ENDBRANCH  66  68
ENDBRANCH  65  66
ENDBRANCH  64  65
ENDBRANCH  63  64
ENDBRANCH   1  63
TORSDOF 16
ENDMDL
MODEL 3
REMARK VINA RESULT:     -10.6      5.659     10.191
REMARK SMILES O=C(OCCOCCOC(=O)c1cncc(C(=O)c2ccsc2)c1)c1ccc(-c2c3nc(c(-c4c(F)cccc4F)c4ccc([nH]4)c(-c4c(F)cccc4F)c4nc(c(-c5c(F)cccc5F)c5ccc2[nH]5)C=C4)C=C3)cc1
REMARK SMILES IDX 6 1 5 2 4 3 3 4 2 5 1 6 25 7 26 8 78 9 27 10 77 11 28 12
REMARK SMILES IDX 29 13 30 14 71 15 31 16 76 17 70 18 72 19 32 20 75 21 69 22
REMARK SMILES IDX 68 23 33 25 59 26 42 27 58 28 43 29 46 30 57 31 73 32 44 33
REMARK SMILES IDX 45 34 56 36 74 37 47 38 34 39 35 40 40 41 36 42 37 43 39 44
REMARK SMILES IDX 41 45 38 46 60 47 61 48 66 49 62 50 63 51 65 52 67 53 64 54
REMARK SMILES IDX 48 55 49 56 54 57 50 58 51 59 53 60 55 61 52 62 7 63 8 64
REMARK SMILES IDX 9 65 10 66 11 67 12 68 13 69 24 70 14 71 16 72 15 73 17 74
REMARK SMILES IDX 18 75 19 76 20 77 23 78 21 79 22 80
REMARK H PARENT 72 24 46 35
REMARK Flexibility Score: inf
ROOT
ATOM      1  O   UNL A   1      35.169  32.846  27.721  1.00  0.00    -0.374 OA
ENDROOT
BRANCH   1   2
ATOM      2  C   UNL A   1      34.930  31.771  28.627  1.00  0.00     0.202 C 
BRANCH   2   3
ATOM      3  C   UNL A   1      34.953  32.191  30.098  1.00  0.00     0.261 C 
BRANCH   3   4
ATOM      4  O   UNL A   1      36.255  31.950  30.658  1.00  0.00    -0.460 OA
BRANCH   4   5
ATOM      5  C   UNL A   1      36.802  30.774  31.037  1.00  0.00     0.338 C 
ATOM      6  O   UNL A   1      36.165  30.045  31.796  1.00  0.00    -0.246 OA
BRANCH   5   7
ATOM      7  C   UNL A   1      38.143  30.295  30.582  1.00  0.00     0.060 A 
ATOM      8  C   UNL A   1      39.102  29.702  31.405  1.00  0.00     0.016 A 
ATOM      9  C   UNL A   1      38.407  30.359  29.204  1.00  0.00     0.016 A 
ATOM     10  C   UNL A   1      40.303  29.231  30.902  1.00  0.00     0.010 A 
ATOM     11  C   UNL A   1      39.603  29.858  28.680  1.00  0.00     0.010 A 
ATOM     12  C   UNL A   1      40.557  29.305  29.538  1.00  0.00    -0.014 A 
BRANCH  12  13
ATOM     13  C   UNL A   1      41.889  28.893  29.075  1.00  0.00     0.031 A 
ATOM     14  C   UNL A   1      42.060  27.493  28.584  1.00  0.00     0.074 A 
ATOM     15  C   UNL A   1      42.863  29.813  28.965  1.00  0.00     0.049 A 
ATOM     16  N   UNL A   1      43.137  26.890  28.165  1.00  0.00    -0.248 NA
ATOM     17  C   UNL A   1      40.845  26.662  28.547  1.00  0.00     0.031 C 
ATOM     18  C   UNL A   1      42.720  31.235  29.290  1.00  0.00     0.029 A 
ATOM     19  N   UNL A   1      44.150  29.700  28.519  1.00  0.00    -0.354 N 
ATOM     20  C   UNL A   1      42.737  25.600  27.843  1.00  0.00     0.074 A 
ATOM     21  C   UNL A   1      41.321  25.505  28.113  1.00  0.00     0.031 C 
ATOM     22  C   UNL A   1      43.873  31.865  29.017  1.00  0.00     0.029 A 
ATOM     23  C   UNL A   1      44.850  30.881  28.567  1.00  0.00     0.049 A 
ATOM     24  H   UNL A   1      44.538  28.855  28.195  1.00  0.00     0.167 HD
ATOM     25  C   UNL A   1      43.501  24.588  27.373  1.00  0.00     0.037 A 
ATOM     26  C   UNL A   1      46.149  31.117  28.311  1.00  0.00     0.037 A 
ATOM     27  C   UNL A   1      44.910  24.723  27.122  1.00  0.00     0.049 A 
ATOM     28  C   UNL A   1      47.000  29.950  27.889  1.00  0.00     0.074 A 
ATOM     29  C   UNL A   1      45.817  23.763  26.719  1.00  0.00     0.029 A 
ATOM     30  N   UNL A   1      45.613  25.915  27.255  1.00  0.00    -0.354 N 
ATOM     31  N   UNL A   1      46.643  28.707  27.664  1.00  0.00    -0.248 NA
ATOM     32  C   UNL A   1      48.433  30.209  27.703  1.00  0.00     0.031 C 
ATOM     33  C   UNL A   1      47.079  24.365  26.650  1.00  0.00     0.029 A 
ATOM     34  C   UNL A   1      46.948  25.712  26.959  1.00  0.00     0.049 A 
ATOM     35  H   UNL A   1      45.219  26.777  27.522  1.00  0.00     0.167 HD
ATOM     36  C   UNL A   1      47.799  28.037  27.295  1.00  0.00     0.074 A 
ATOM     37  C   UNL A   1      48.866  29.019  27.310  1.00  0.00     0.031 C 
ATOM     38  C   UNL A   1      47.973  26.728  26.980  1.00  0.00     0.037 A 
BRANCH  25  39
ATOM     39  C   UNL A   1      42.831  23.258  27.201  1.00  0.00     0.057 A 
ATOM     40  C   UNL A   1      42.430  22.776  25.949  1.00  0.00     0.134 A 
ATOM     41  C   UNL A   1      42.527  22.473  28.322  1.00  0.00     0.134 A 
ATOM     42  F   UNL A   1      42.659  23.493  24.839  1.00  0.00    -0.206 F 
ATOM     43  C   UNL A   1      41.721  21.578  25.820  1.00  0.00     0.040 A 
ATOM     44  C   UNL A   1      41.843  21.263  28.204  1.00  0.00     0.040 A 
ATOM     45  F   UNL A   1      42.874  22.880  29.552  1.00  0.00    -0.206 F 
ATOM     46  C   UNL A   1      41.427  20.817  26.951  1.00  0.00     0.006 A 
ENDBRANCH  25  39
BRANCH  26  47
ATOM     47  C   UNL A   1      46.719  32.475  28.501  1.00  0.00     0.057 A 
ATOM     48  C   UNL A   1      47.271  32.874  29.724  1.00  0.00     0.134 A 
ATOM     49  C   UNL A   1      46.723  33.415  27.460  1.00  0.00     0.134 A 
ATOM     50  F   UNL A   1      47.283  32.032  30.767  1.00  0.00    -0.206 F 
ATOM     51  C   UNL A   1      47.793  34.158  29.908  1.00  0.00     0.040 A 
ATOM     52  C   UNL A   1      47.267  34.691  27.622  1.00  0.00     0.040 A 
ATOM     53  F   UNL A   1      46.211  33.100  26.262  1.00  0.00    -0.206 F 
ATOM     54  C   UNL A   1      47.797  35.067  28.852  1.00  0.00     0.006 A 
ENDBRANCH  26  47
BRANCH  38  55
ATOM     55  C   UNL A   1      49.356  26.308  26.590  1.00  0.00     0.057 A 
ATOM     56  C   UNL A   1      49.831  26.456  25.282  1.00  0.00     0.134 A 
ATOM     57  C   UNL A   1      50.238  25.800  27.552  1.00  0.00     0.134 A 
ATOM     58  F   UNL A   1      49.026  26.925  24.315  1.00  0.00    -0.206 F 
ATOM     59  C   UNL A   1      51.133  26.097  24.939  1.00  0.00     0.040 A 
ATOM     60  C   UNL A   1      51.551  25.463  27.227  1.00  0.00     0.040 A 
ATOM     61  F   UNL A   1      49.842  25.643  28.824  1.00  0.00    -0.206 F 
ATOM     62  C   UNL A   1      52.000  25.607  25.916  1.00  0.00     0.006 A 
ENDBRANCH  38  55
ENDBRANCH  12  13
ENDBRANCH   5   7
ENDBRANCH   4   5
ENDBRANCH   3   4
ENDBRANCH   2   3
ENDBRANCH   1   2
BRANCH   1  63
ATOM     63  C   UNL A   1      34.712  34.141  28.127  1.00  0.00     0.202 C 
BRANCH  63  64
ATOM     64  C   UNL A   1      33.186  34.169  28.037  1.00  0.00     0.261 C 
BRANCH  64  65
ATOM     65  O   UNL A   1      32.680  34.698  29.272  1.00  0.00    -0.460 OA
BRANCH  65  66
ATOM     66  C   UNL A   1      32.929  36.015  29.487  1.00  0.00     0.339 C 
ATOM     67  O   UNL A   1      32.709  36.950  28.737  1.00  0.00    -0.246 OA
BRANCH  66  68
ATOM     68  C   UNL A   1      33.384  36.161  30.880  1.00  0.00     0.079 A 
ATOM     69  C   UNL A   1      33.228  37.362  31.550  1.00  0.00     0.126 A 
ATOM     70  C   UNL A   1      33.937  35.088  31.571  1.00  0.00     0.031 A 
ATOM     71  N   UNL A   1      33.586  37.539  32.848  1.00  0.00    -0.263 NA
ATOM     72  C   UNL A   1      34.406  35.259  32.873  1.00  0.00     0.042 A 
ATOM     73  C   UNL A   1      34.177  36.486  33.479  1.00  0.00     0.123 A 
BRANCH  72  74
ATOM     74  C   UNL A   1      35.106  34.168  33.596  1.00  0.00     0.195 C 
ATOM     75  O   UNL A   1      34.465  33.203  33.997  1.00  0.00    -0.289 OA
BRANCH  74  76
ATOM     76  C   UNL A   1      36.563  34.265  33.751  1.00  0.00     0.033 A 
ATOM     77  C   UNL A   1      37.528  34.635  32.747  1.00  0.00     0.024 A 
ATOM     78  C   UNL A   1      37.199  33.971  34.943  1.00  0.00     0.077 A 
ATOM     79  C   UNL A   1      38.827  34.451  33.165  1.00  0.00     0.065 A 
ATOM     80  S   UNL A   1      38.905  33.971  34.802  1.00  0.00    -0.152 S 
ENDBRANCH  74  76
ENDBRANCH  72  74
ENDBRANCH  66  68
ENDBRANCH  65  66
ENDBRANCH  64  65
ENDBRANCH  63  64
ENDBRANCH   1  63
TORSDOF 16
ENDMDL
