MODEL 1
REMARK VINA RESULT:     -12.4      0.000      0.000
REMARK SMILES Cc1ccccc1OC1(C(=O)OCCOCCOC(=O)c2ccc(-c3c4nc(c(-c5c(F)cccc5F)c5ccc([nH]5)c(-c5c(F)cccc5F)c5nc(c(-c6c(F)cccc6F)c6ccc3[nH]6)C=C5)C=C4)cc2)CCN(C(=O)[C@H]2CCCCO2)CC1
REMARK SMILES IDX 15 1 14 2 13 3 12 4 10 5 11 6 9 7 75 8 87 9 76 10 86 11
REMARK SMILES IDX 77 12 78 13 79 14 8 15 7 16 1 17 2 18 3 19 4 20 6 21 5 22
REMARK SMILES IDX 80 23 81 24 85 25 82 26 84 27 83 28 16 29 17 30 18 31 19 32
REMARK SMILES IDX 20 33 21 34 22 35 74 36 23 37 73 38 24 39 25 40 26 41 67 42
REMARK SMILES IDX 27 43 72 44 66 45 68 46 28 47 71 48 65 49 64 50 29 52 55 53
REMARK SMILES IDX 38 54 54 55 39 56 42 57 53 58 69 59 40 60 41 61 52 63 70 64
REMARK SMILES IDX 43 65 30 66 31 67 36 68 32 69 33 70 35 71 37 72 34 73 56 74
REMARK SMILES IDX 57 75 62 76 58 77 59 78 61 79 63 80 60 81 44 82 45 83 50 84
REMARK SMILES IDX 46 85 47 86 49 87 51 88 48 89
REMARK H PARENT 68 51 42 62
REMARK Flexibility Score: inf
ROOT
ATOM      1  O   UNL A   1      31.777  28.996  27.061  1.00  0.00    -0.374 OA
ENDROOT
BRANCH   1   2
ATOM      2  C   UNL A   1      31.485  27.703  26.571  1.00  0.00     0.202 C 
BRANCH   2   3
ATOM      3  C   UNL A   1      32.773  26.928  26.634  1.00  0.00     0.261 C 
BRANCH   3   4
ATOM      4  O   UNL A   1      32.823  25.780  25.749  1.00  0.00    -0.460 OA
BRANCH   4   5
ATOM      5  C   UNL A   1      31.869  24.786  25.735  1.00  0.00     0.350 C 
ATOM      6  O   UNL A   1      31.009  24.621  26.584  1.00  0.00    -0.247 OA
BRANCH   5   7
ATOM      7  C   UNL A   1      32.120  23.894  24.475  1.00  0.00     0.209 C 
ATOM      8  C   UNL A   1      33.646  23.791  24.420  1.00  0.00     0.082 C 
ATOM      9  C   UNL A   1      31.277  22.641  24.734  1.00  0.00     0.082 C 
ATOM     10  C   UNL A   1      34.205  22.598  25.182  1.00  0.00     0.124 C 
ATOM     11  C   UNL A   1      32.014  21.357  25.087  1.00  0.00     0.124 C 
ATOM     12  N   UNL A   1      33.469  21.357  24.968  1.00  0.00    -0.340 N 
ATOM     13  C   UNL A   1      34.227  20.184  24.865  1.00  0.00     0.251 C 
ATOM     14  O   UNL A   1      35.460  20.226  24.938  1.00  0.00    -0.272 OA
BRANCH   7  15
ATOM     15  O   UNL A   1      31.631  24.606  23.323  1.00  0.00    -0.475 OA
BRANCH  15  16
ATOM     16  C   UNL A   1      31.197  25.905  23.241  1.00  0.00     0.123 A 
ATOM     17  C   UNL A   1      33.276  27.364  22.602  1.00  0.00     0.048 C 
ATOM     18  C   UNL A   1      31.840  27.117  22.920  1.00  0.00    -0.009 A 
ATOM     19  C   UNL A   1      31.113  28.332  22.969  1.00  0.00     0.007 A 
ATOM     20  C   UNL A   1      29.777  28.377  23.323  1.00  0.00     0.001 A 
ATOM     21  C   UNL A   1      29.835  25.984  23.598  1.00  0.00     0.047 A 
ATOM     22  C   UNL A   1      29.134  27.196  23.642  1.00  0.00     0.004 A 
ENDBRANCH  15  16
ENDBRANCH   7  15
BRANCH  13  23
ATOM     23  C   UNL A   1      33.488  18.845  24.613  1.00  0.00     0.207 C 
ATOM     24  C   UNL A   1      34.442  17.852  23.931  1.00  0.00     0.042 C 
ATOM     25  O   UNL A   1      33.050  18.329  25.875  1.00  0.00    -0.368 OA
ATOM     26  C   UNL A   1      33.859  16.446  23.865  1.00  0.00     0.006 C 
ATOM     27  C   UNL A   1      32.405  17.066  25.784  1.00  0.00     0.161 C 
ATOM     28  C   UNL A   1      33.362  16.020  25.237  1.00  0.00     0.029 C 
ENDBRANCH  13  23
ENDBRANCH   5   7
ENDBRANCH   4   5
ENDBRANCH   3   4
ENDBRANCH   2   3
ENDBRANCH   1   2
BRANCH   1  29
ATOM     29  C   UNL A   1      33.136  29.384  27.060  1.00  0.00     0.202 C 
BRANCH  29  30
ATOM     30  C   UNL A   1      33.320  30.900  27.195  1.00  0.00     0.261 C 
BRANCH  30  31
ATOM     31  O   UNL A   1      34.120  31.203  28.360  1.00  0.00    -0.460 OA
BRANCH  31  32
ATOM     32  C   UNL A   1      35.420  31.531  28.126  1.00  0.00     0.338 C 
ATOM     33  O   UNL A   1      35.801  32.566  27.587  1.00  0.00    -0.246 OA
BRANCH  32  34
ATOM     34  C   UNL A   1      36.294  30.343  28.345  1.00  0.00     0.060 A 
ATOM     35  C   UNL A   1      36.320  29.704  29.600  1.00  0.00     0.016 A 
ATOM     36  C   UNL A   1      37.317  30.114  27.430  1.00  0.00     0.016 A 
ATOM     37  C   UNL A   1      37.454  28.978  29.996  1.00  0.00     0.010 A 
ATOM     38  C   UNL A   1      38.478  29.525  27.877  1.00  0.00     0.010 A 
ATOM     39  C   UNL A   1      38.571  28.976  29.166  1.00  0.00    -0.014 A 
BRANCH  39  40
ATOM     40  C   UNL A   1      39.914  28.496  29.505  1.00  0.00     0.031 A 
ATOM     41  C   UNL A   1      40.320  27.169  28.980  1.00  0.00     0.074 A 
ATOM     42  C   UNL A   1      40.855  29.324  30.027  1.00  0.00     0.049 A 
ATOM     43  N   UNL A   1      41.435  26.603  29.275  1.00  0.00    -0.248 NA
ATOM     44  C   UNL A   1      39.492  26.331  28.108  1.00  0.00     0.031 C 
ATOM     45  C   UNL A   1      42.313  29.196  29.956  1.00  0.00     0.029 A 
ATOM     46  N   UNL A   1      40.693  30.486  30.793  1.00  0.00    -0.354 N 
ATOM     47  C   UNL A   1      41.626  25.560  28.406  1.00  0.00     0.074 A 
ATOM     48  C   UNL A   1      40.341  25.345  27.798  1.00  0.00     0.031 C 
ATOM     49  C   UNL A   1      42.883  30.002  30.868  1.00  0.00     0.029 A 
ATOM     50  C   UNL A   1      41.808  30.600  31.638  1.00  0.00     0.049 A 
ATOM     51  H   UNL A   1      39.933  31.109  30.748  1.00  0.00     0.167 HD
ATOM     52  C   UNL A   1      42.896  25.102  28.238  1.00  0.00     0.037 A 
ATOM     53  C   UNL A   1      41.672  30.601  32.990  1.00  0.00     0.037 A 
ATOM     54  C   UNL A   1      43.781  25.678  29.262  1.00  0.00     0.049 A 
ATOM     55  C   UNL A   1      42.380  29.395  33.531  1.00  0.00     0.074 A 
ATOM     56  C   UNL A   1      44.797  26.617  29.237  1.00  0.00     0.029 A 
ATOM     57  N   UNL A   1      43.444  25.506  30.608  1.00  0.00    -0.354 N 
ATOM     58  N   UNL A   1      42.564  28.319  32.811  1.00  0.00    -0.248 NA
ATOM     59  C   UNL A   1      43.062  29.339  34.818  1.00  0.00     0.031 C 
ATOM     60  C   UNL A   1      44.989  27.080  30.574  1.00  0.00     0.029 A 
ATOM     61  C   UNL A   1      44.126  26.392  31.417  1.00  0.00     0.049 A 
ATOM     62  H   UNL A   1      42.801  24.836  30.938  1.00  0.00     0.167 HD
ATOM     63  C   UNL A   1      43.446  27.504  33.445  1.00  0.00     0.074 A 
ATOM     64  C   UNL A   1      43.690  28.154  34.723  1.00  0.00     0.031 C 
ATOM     65  C   UNL A   1      43.947  26.377  32.868  1.00  0.00     0.037 A 
BRANCH  52  66
ATOM     66  C   UNL A   1      43.382  24.251  27.083  1.00  0.00     0.057 A 
ATOM     67  C   UNL A   1      43.977  24.859  25.961  1.00  0.00     0.134 A 
ATOM     68  C   UNL A   1      43.220  22.855  26.958  1.00  0.00     0.134 A 
ATOM     69  F   UNL A   1      44.170  26.185  25.907  1.00  0.00    -0.206 F 
ATOM     70  C   UNL A   1      44.389  24.141  24.827  1.00  0.00     0.040 A 
ATOM     71  C   UNL A   1      43.672  22.119  25.852  1.00  0.00     0.040 A 
ATOM     72  F   UNL A   1      42.562  22.122  27.863  1.00  0.00    -0.206 F 
ATOM     73  C   UNL A   1      44.256  22.762  24.775  1.00  0.00     0.006 A 
ENDBRANCH  52  66
BRANCH  53  74
ATOM     74  C   UNL A   1      40.401  31.246  33.424  1.00  0.00     0.057 A 
ATOM     75  C   UNL A   1      39.341  30.386  33.779  1.00  0.00     0.134 A 
ATOM     76  C   UNL A   1      40.371  32.534  33.971  1.00  0.00     0.134 A 
ATOM     77  F   UNL A   1      39.314  29.128  33.308  1.00  0.00    -0.206 F 
ATOM     78  C   UNL A   1      38.380  30.737  34.734  1.00  0.00     0.040 A 
ATOM     79  C   UNL A   1      39.415  32.892  34.938  1.00  0.00     0.040 A 
ATOM     80  F   UNL A   1      41.346  33.413  33.702  1.00  0.00    -0.206 F 
ATOM     81  C   UNL A   1      38.446  31.980  35.354  1.00  0.00     0.006 A 
ENDBRANCH  53  74
BRANCH  65  82
ATOM     82  C   UNL A   1      44.359  25.177  33.673  1.00  0.00     0.057 A 
ATOM     83  C   UNL A   1      43.473  24.460  34.495  1.00  0.00     0.134 A 
ATOM     84  C   UNL A   1      45.620  24.576  33.482  1.00  0.00     0.134 A 
ATOM     85  F   UNL A   1      42.198  24.839  34.665  1.00  0.00    -0.206 F 
ATOM     86  C   UNL A   1      43.835  23.275  35.137  1.00  0.00     0.040 A 
ATOM     87  C   UNL A   1      45.970  23.358  34.065  1.00  0.00     0.040 A 
ATOM     88  F   UNL A   1      46.553  25.122  32.688  1.00  0.00    -0.206 F 
ATOM     89  C   UNL A   1      45.084  22.712  34.913  1.00  0.00     0.006 A 
ENDBRANCH  65  82
ENDBRANCH  39  40
ENDBRANCH  32  34
ENDBRANCH  31  32
ENDBRANCH  30  31
ENDBRANCH  29  30
ENDBRANCH   1  29
TORSDOF 17
ENDMDL
MODEL 2
REMARK VINA RESULT:     -12.3      3.579      9.431
REMARK SMILES Cc1ccccc1OC1(C(=O)OCCOCCOC(=O)c2ccc(-c3c4nc(c(-c5c(F)cccc5F)c5ccc([nH]5)c(-c5c(F)cccc5F)c5nc(c(-c6c(F)cccc6F)c6ccc3[nH]6)C=C5)C=C4)cc2)CCN(C(=O)[C@H]2CCCCO2)CC1
REMARK SMILES IDX 15 1 14 2 13 3 12 4 10 5 11 6 9 7 75 8 87 9 76 10 86 11
REMARK SMILES IDX 77 12 78 13 79 14 8 15 7 16 1 17 2 18 3 19 4 20 6 21 5 22
REMARK SMILES IDX 80 23 81 24 85 25 82 26 84 27 83 28 16 29 17 30 18 31 19 32
REMARK SMILES IDX 20 33 21 34 22 35 74 36 23 37 73 38 24 39 25 40 26 41 67 42
REMARK SMILES IDX 27 43 72 44 66 45 68 46 28 47 71 48 65 49 64 50 29 52 55 53
REMARK SMILES IDX 38 54 54 55 39 56 42 57 53 58 69 59 40 60 41 61 52 63 70 64
REMARK SMILES IDX 43 65 30 66 31 67 36 68 32 69 33 70 35 71 37 72 34 73 56 74
REMARK SMILES IDX 57 75 62 76 58 77 59 78 61 79 63 80 60 81 44 82 45 83 50 84
REMARK SMILES IDX 46 85 47 86 49 87 51 88 48 89
REMARK H PARENT 68 51 42 62
REMARK Flexibility Score: inf
ROOT
ATOM      1  O   UNL A   1      40.875  20.374  25.641  1.00  0.00    -0.374 OA
ENDROOT
BRANCH   1   2
ATOM      2  C   UNL A   1      39.808  21.069  26.254  1.00  0.00     0.202 C 
BRANCH   2   3
ATOM      3  C   UNL A   1      38.612  20.878  25.361  1.00  0.00     0.261 C 
BRANCH   3   4
ATOM      4  O   UNL A   1      37.569  21.870  25.539  1.00  0.00    -0.460 OA
BRANCH   4   5
ATOM      5  C   UNL A   1      36.769  22.326  24.515  1.00  0.00     0.350 C 
ATOM      6  O   UNL A   1      37.163  22.703  23.424  1.00  0.00    -0.247 OA
BRANCH   5   7
ATOM      7  C   UNL A   1      35.288  22.318  25.020  1.00  0.00     0.209 C 
ATOM      8  C   UNL A   1      35.300  23.351  26.150  1.00  0.00     0.082 C 
ATOM      9  C   UNL A   1      34.463  22.576  23.754  1.00  0.00     0.082 C 
ATOM     10  C   UNL A   1      34.970  24.763  25.688  1.00  0.00     0.124 C 
ATOM     11  C   UNL A   1      33.808  23.942  23.609  1.00  0.00     0.124 C 
ATOM     12  N   UNL A   1      33.847  24.839  24.759  1.00  0.00    -0.340 N 
ATOM     13  C   UNL A   1      32.972  25.921  24.916  1.00  0.00     0.251 C 
ATOM     14  O   UNL A   1      33.152  26.749  25.815  1.00  0.00    -0.272 OA
BRANCH   7  15
ATOM     15  O   UNL A   1      35.008  21.009  25.551  1.00  0.00    -0.475 OA
BRANCH  15  16
ATOM     16  C   UNL A   1      34.297  19.986  24.974  1.00  0.00     0.123 A 
ATOM     17  C   UNL A   1      31.781  20.713  24.975  1.00  0.00     0.048 C 
ATOM     18  C   UNL A   1      32.930  19.808  24.683  1.00  0.00    -0.009 A 
ATOM     19  C   UNL A   1      32.487  18.590  24.111  1.00  0.00     0.007 A 
ATOM     20  C   UNL A   1      33.355  17.552  23.823  1.00  0.00     0.001 A 
ATOM     21  C   UNL A   1      35.157  18.911  24.669  1.00  0.00     0.047 A 
ATOM     22  C   UNL A   1      34.699  17.713  24.105  1.00  0.00     0.004 A 
ENDBRANCH  15  16
ENDBRANCH   7  15
BRANCH  13  23
ATOM     23  C   UNL A   1      31.751  26.029  23.967  1.00  0.00     0.207 C 
ATOM     24  C   UNL A   1      30.455  25.992  24.791  1.00  0.00     0.042 C 
ATOM     25  O   UNL A   1      31.850  27.262  23.245  1.00  0.00    -0.368 OA
ATOM     26  C   UNL A   1      29.229  26.326  23.949  1.00  0.00     0.006 C 
ATOM     27  C   UNL A   1      30.751  27.507  22.379  1.00  0.00     0.161 C 
ATOM     28  C   UNL A   1      29.460  27.612  23.174  1.00  0.00     0.029 C 
ENDBRANCH  13  23
ENDBRANCH   5   7
ENDBRANCH   4   5
ENDBRANCH   3   4
ENDBRANCH   2   3
ENDBRANCH   1   2
BRANCH   1  29
ATOM     29  C   UNL A   1      41.666  19.558  26.482  1.00  0.00     0.202 C 
BRANCH  29  30
ATOM     30  C   UNL A   1      43.050  19.263  25.891  1.00  0.00     0.261 C 
BRANCH  30  31
ATOM     31  O   UNL A   1      43.391  20.255  24.896  1.00  0.00    -0.460 OA
BRANCH  31  32
ATOM     32  C   UNL A   1      44.292  21.200  25.278  1.00  0.00     0.338 C 
ATOM     33  O   UNL A   1      45.462  20.982  25.575  1.00  0.00    -0.246 OA
BRANCH  32  34
ATOM     34  C   UNL A   1      43.593  22.486  25.566  1.00  0.00     0.060 A 
ATOM     35  C   UNL A   1      43.709  23.571  24.674  1.00  0.00     0.016 A 
ATOM     36  C   UNL A   1      43.143  22.703  26.864  1.00  0.00     0.016 A 
ATOM     37  C   UNL A   1      43.539  24.884  25.139  1.00  0.00     0.010 A 
ATOM     38  C   UNL A   1      43.119  23.992  27.344  1.00  0.00     0.010 A 
ATOM     39  C   UNL A   1      43.341  25.092  26.501  1.00  0.00    -0.014 A 
BRANCH  39  40
ATOM     40  C   UNL A   1      43.391  26.375  27.208  1.00  0.00     0.031 A 
ATOM     41  C   UNL A   1      42.106  27.080  27.439  1.00  0.00     0.074 A 
ATOM     42  C   UNL A   1      44.502  26.778  27.875  1.00  0.00     0.049 A 
ATOM     43  N   UNL A   1      42.025  28.247  27.970  1.00  0.00    -0.248 NA
ATOM     44  C   UNL A   1      40.791  26.559  27.054  1.00  0.00     0.031 C 
ATOM     45  C   UNL A   1      44.593  27.707  29.004  1.00  0.00     0.029 A 
ATOM     46  N   UNL A   1      45.845  26.449  27.649  1.00  0.00    -0.354 N 
ATOM     47  C   UNL A   1      40.716  28.469  28.312  1.00  0.00     0.074 A 
ATOM     48  C   UNL A   1      39.972  27.464  27.603  1.00  0.00     0.031 C 
ATOM     49  C   UNL A   1      45.866  28.109  29.158  1.00  0.00     0.029 A 
ATOM     50  C   UNL A   1      46.628  27.538  28.063  1.00  0.00     0.049 A 
ATOM     51  H   UNL A   1      46.180  25.606  27.265  1.00  0.00     0.167 HD
ATOM     52  C   UNL A   1      40.462  29.415  29.256  1.00  0.00     0.037 A 
ATOM     53  C   UNL A   1      47.431  28.202  27.191  1.00  0.00     0.037 A 
ATOM     54  C   UNL A   1      41.675  30.202  29.524  1.00  0.00     0.049 A 
ATOM     55  C   UNL A   1      46.939  29.614  27.085  1.00  0.00     0.074 A 
ATOM     56  C   UNL A   1      42.551  30.285  30.591  1.00  0.00     0.029 A 
ATOM     57  N   UNL A   1      42.308  30.836  28.451  1.00  0.00    -0.354 N 
ATOM     58  N   UNL A   1      45.694  29.933  27.327  1.00  0.00    -0.248 NA
ATOM     59  C   UNL A   1      47.790  30.777  26.865  1.00  0.00     0.031 C 
ATOM     60  C   UNL A   1      43.757  30.883  30.114  1.00  0.00     0.029 A 
ATOM     61  C   UNL A   1      43.599  31.206  28.772  1.00  0.00     0.049 A 
ATOM     62  H   UNL A   1      41.886  30.999  27.576  1.00  0.00     0.167 HD
ATOM     63  C   UNL A   1      45.590  31.285  27.415  1.00  0.00     0.074 A 
ATOM     64  C   UNL A   1      46.912  31.777  27.065  1.00  0.00     0.031 C 
ATOM     65  C   UNL A   1      44.443  31.907  27.806  1.00  0.00     0.037 A 
BRANCH  52  66
ATOM     66  C   UNL A   1      39.174  29.553  30.043  1.00  0.00     0.057 A 
ATOM     67  C   UNL A   1      38.368  30.696  29.880  1.00  0.00     0.134 A 
ATOM     68  C   UNL A   1      38.711  28.662  31.034  1.00  0.00     0.134 A 
ATOM     69  F   UNL A   1      38.689  31.657  29.002  1.00  0.00    -0.206 F 
ATOM     70  C   UNL A   1      37.198  30.922  30.623  1.00  0.00     0.040 A 
ATOM     71  C   UNL A   1      37.517  28.851  31.749  1.00  0.00     0.040 A 
ATOM     72  F   UNL A   1      39.407  27.588  31.420  1.00  0.00    -0.206 F 
ATOM     73  C   UNL A   1      36.757  29.990  31.550  1.00  0.00     0.006 A 
ENDBRANCH  52  66
BRANCH  53  74
ATOM     74  C   UNL A   1      47.994  27.298  26.148  1.00  0.00     0.057 A 
ATOM     75  C   UNL A   1      47.393  27.350  24.873  1.00  0.00     0.134 A 
ATOM     76  C   UNL A   1      49.313  26.834  26.199  1.00  0.00     0.134 A 
ATOM     77  F   UNL A   1      46.135  27.803  24.743  1.00  0.00    -0.206 F 
ATOM     78  C   UNL A   1      48.108  27.089  23.698  1.00  0.00     0.040 A 
ATOM     79  C   UNL A   1      50.041  26.579  25.025  1.00  0.00     0.040 A 
ATOM     80  F   UNL A   1      49.967  26.769  27.367  1.00  0.00    -0.206 F 
ATOM     81  C   UNL A   1      49.454  26.748  23.772  1.00  0.00     0.006 A 
ENDBRANCH  53  74
BRANCH  65  82
ATOM     82  C   UNL A   1      44.068  33.280  27.324  1.00  0.00     0.057 A 
ATOM     83  C   UNL A   1      43.832  33.582  25.972  1.00  0.00     0.134 A 
ATOM     84  C   UNL A   1      43.728  34.299  28.237  1.00  0.00     0.134 A 
ATOM     85  F   UNL A   1      43.985  32.670  25.003  1.00  0.00    -0.206 F 
ATOM     86  C   UNL A   1      43.362  34.828  25.553  1.00  0.00     0.040 A 
ATOM     87  C   UNL A   1      43.195  35.523  27.833  1.00  0.00     0.040 A 
ATOM     88  F   UNL A   1      43.857  34.137  29.561  1.00  0.00    -0.206 F 
ATOM     89  C   UNL A   1      43.030  35.800  26.485  1.00  0.00     0.006 A 
ENDBRANCH  65  82
ENDBRANCH  39  40
ENDBRANCH  32  34
ENDBRANCH  31  32
ENDBRANCH  30  31
ENDBRANCH  29  30
ENDBRANCH   1  29
TORSDOF 17
ENDMDL
MODEL 3
REMARK VINA RESULT:     -12.2      3.079      8.919
REMARK SMILES Cc1ccccc1OC1(C(=O)OCCOCCOC(=O)c2ccc(-c3c4nc(c(-c5c(F)cccc5F)c5ccc([nH]5)c(-c5c(F)cccc5F)c5nc(c(-c6c(F)cccc6F)c6ccc3[nH]6)C=C5)C=C4)cc2)CCN(C(=O)[C@H]2CCCCO2)CC1
REMARK SMILES IDX 15 1 14 2 13 3 12 4 10 5 11 6 9 7 75 8 87 9 76 10 86 11
REMARK SMILES IDX 77 12 78 13 79 14 8 15 7 16 1 17 2 18 3 19 4 20 6 21 5 22
REMARK SMILES IDX 80 23 81 24 85 25 82 26 84 27 83 28 16 29 17 30 18 31 19 32
REMARK SMILES IDX 20 33 21 34 22 35 74 36 23 37 73 38 24 39 25 40 26 41 67 42
REMARK SMILES IDX 27 43 72 44 66 45 68 46 28 47 71 48 65 49 64 50 29 52 55 53
REMARK SMILES IDX 38 54 54 55 39 56 42 57 53 58 69 59 40 60 41 61 52 63 70 64
REMARK SMILES IDX 43 65 30 66 31 67 36 68 32 69 33 70 35 71 37 72 34 73 56 74
REMARK SMILES IDX 57 75 62 76 58 77 59 78 61 79 63 80 60 81 44 82 45 83 50 84
REMARK SMILES IDX 46 85 47 86 49 87 51 88 48 89
REMARK H PARENT 68 51 42 62
REMARK Flexibility Score: inf
ROOT
ATOM      1  O   UNL A   1      36.443  22.758  26.069  1.00  0.00    -0.374 OA
ENDROOT
BRANCH   1   2
ATOM      2  C   UNL A   1      36.014  24.077  25.802  1.00  0.00     0.202 C 
BRANCH   2   3
ATOM      3  C   UNL A   1      35.481  24.071  24.394  1.00  0.00     0.261 C 
BRANCH   3   4
ATOM      4  O   UNL A   1      34.436  25.046  24.147  1.00  0.00    -0.460 OA
BRANCH   4   5
ATOM      5  C   UNL A   1      33.361  24.816  23.316  1.00  0.00     0.350 C 
ATOM      6  O   UNL A   1      33.427  24.378  22.180  1.00  0.00    -0.247 OA
BRANCH   5   7
ATOM      7  C   UNL A   1      32.064  25.259  24.071  1.00  0.00     0.209 C 
ATOM      8  C   UNL A   1      32.583  26.291  25.077  1.00  0.00     0.082 C 
ATOM      9  C   UNL A   1      31.113  25.693  22.951  1.00  0.00     0.082 C 
ATOM     10  C   UNL A   1      32.574  27.718  24.546  1.00  0.00     0.124 C 
ATOM     11  C   UNL A   1      30.846  27.182  22.792  1.00  0.00     0.124 C 
ATOM     12  N   UNL A   1      31.357  28.077  23.825  1.00  0.00    -0.340 N 
ATOM     13  C   UNL A   1      30.864  29.372  24.028  1.00  0.00     0.251 C 
ATOM     14  O   UNL A   1      31.439  30.149  24.798  1.00  0.00    -0.272 OA
BRANCH   7  15
ATOM     15  O   UNL A   1      31.542  24.112  24.767  1.00  0.00    -0.475 OA
BRANCH  15  16
ATOM     16  C   UNL A   1      32.231  23.083  25.358  1.00  0.00     0.123 A 
ATOM     17  C   UNL A   1      32.497  21.209  23.547  1.00  0.00     0.048 C 
ATOM     18  C   UNL A   1      32.685  21.834  24.888  1.00  0.00    -0.009 A 
ATOM     19  C   UNL A   1      33.345  20.948  25.775  1.00  0.00     0.007 A 
ATOM     20  C   UNL A   1      33.566  21.264  27.103  1.00  0.00     0.001 A 
ATOM     21  C   UNL A   1      32.472  23.376  26.715  1.00  0.00     0.047 A 
ATOM     22  C   UNL A   1      33.125  22.486  27.578  1.00  0.00     0.004 A 
ENDBRANCH  15  16
ENDBRANCH   7  15
BRANCH  13  23
ATOM     23  C   UNL A   1      29.560  29.790  23.302  1.00  0.00     0.207 C 
ATOM     24  C   UNL A   1      28.922  30.980  24.034  1.00  0.00     0.042 C 
ATOM     25  O   UNL A   1      29.891  30.151  21.956  1.00  0.00    -0.368 OA
ATOM     26  C   UNL A   1      27.769  31.589  23.247  1.00  0.00     0.006 C 
ATOM     27  C   UNL A   1      28.781  30.611  21.198  1.00  0.00     0.161 C 
ATOM     28  C   UNL A   1      28.202  31.872  21.818  1.00  0.00     0.029 C 
ENDBRANCH  13  23
ENDBRANCH   5   7
ENDBRANCH   4   5
ENDBRANCH   3   4
ENDBRANCH   2   3
ENDBRANCH   1   2
BRANCH   1  29
ATOM     29  C   UNL A   1      37.229  22.133  25.075  1.00  0.00     0.202 C 
BRANCH  29  30
ATOM     30  C   UNL A   1      38.432  21.381  25.656  1.00  0.00     0.261 C 
BRANCH  30  31
ATOM     31  O   UNL A   1      39.600  22.233  25.659  1.00  0.00    -0.460 OA
BRANCH  31  32
ATOM     32  C   UNL A   1      40.042  22.639  26.879  1.00  0.00     0.338 C 
ATOM     33  O   UNL A   1      40.368  21.894  27.798  1.00  0.00    -0.246 OA
BRANCH  32  34
ATOM     34  C   UNL A   1      39.800  24.101  27.049  1.00  0.00     0.060 A 
ATOM     35  C   UNL A   1      40.556  25.035  26.313  1.00  0.00     0.016 A 
ATOM     36  C   UNL A   1      39.096  24.515  28.175  1.00  0.00     0.016 A 
ATOM     37  C   UNL A   1      40.740  26.336  26.807  1.00  0.00     0.010 A 
ATOM     38  C   UNL A   1      39.396  25.741  28.724  1.00  0.00     0.010 A 
ATOM     39  C   UNL A   1      40.237  26.652  28.066  1.00  0.00    -0.014 A 
BRANCH  39  40
ATOM     40  C   UNL A   1      40.532  27.853  28.852  1.00  0.00     0.031 A 
ATOM     41  C   UNL A   1      39.547  28.962  28.804  1.00  0.00     0.074 A 
ATOM     42  C   UNL A   1      41.503  27.862  29.801  1.00  0.00     0.049 A 
ATOM     43  N   UNL A   1      39.731  30.096  29.380  1.00  0.00    -0.248 NA
ATOM     44  C   UNL A   1      38.280  28.917  28.069  1.00  0.00     0.031 C 
ATOM     45  C   UNL A   1      41.608  28.726  30.979  1.00  0.00     0.029 A 
ATOM     46  N   UNL A   1      42.666  27.087  29.893  1.00  0.00    -0.354 N 
ATOM     47  C   UNL A   1      38.533  30.762  29.400  1.00  0.00     0.074 A 
ATOM     48  C   UNL A   1      37.703  30.060  28.459  1.00  0.00     0.031 C 
ATOM     49  C   UNL A   1      42.857  28.669  31.473  1.00  0.00     0.029 A 
ATOM     50  C   UNL A   1      43.636  27.849  30.564  1.00  0.00     0.049 A 
ATOM     51  H   UNL A   1      42.784  26.173  29.546  1.00  0.00     0.167 HD
ATOM     52  C   UNL A   1      38.379  31.756  30.316  1.00  0.00     0.037 A 
ATOM     53  C   UNL A   1      44.812  28.178  29.968  1.00  0.00     0.037 A 
ATOM     54  C   UNL A   1      39.674  32.083  30.931  1.00  0.00     0.049 A 
ATOM     55  C   UNL A   1      44.869  29.670  29.843  1.00  0.00     0.074 A 
ATOM     56  C   UNL A   1      40.220  31.881  32.186  1.00  0.00     0.029 A 
ATOM     57  N   UNL A   1      40.738  32.438  30.097  1.00  0.00    -0.354 N 
ATOM     58  N   UNL A   1      43.788  30.403  29.790  1.00  0.00    -0.248 NA
ATOM     59  C   UNL A   1      46.089  30.465  29.924  1.00  0.00     0.031 C 
ATOM     60  C   UNL A   1      41.637  32.018  32.067  1.00  0.00     0.029 A 
ATOM     61  C   UNL A   1      41.948  32.348  30.754  1.00  0.00     0.049 A 
ATOM     62  H   UNL A   1      40.636  32.719  29.158  1.00  0.00     0.167 HD
ATOM     63  C   UNL A   1      44.127  31.710  29.944  1.00  0.00     0.074 A 
ATOM     64  C   UNL A   1      45.581  31.709  29.969  1.00  0.00     0.031 C 
ATOM     65  C   UNL A   1      43.198  32.696  30.080  1.00  0.00     0.037 A 
BRANCH  52  66
ATOM     66  C   UNL A   1      37.057  32.344  30.765  1.00  0.00     0.057 A 
ATOM     67  C   UNL A   1      36.437  33.350  29.999  1.00  0.00     0.134 A 
ATOM     68  C   UNL A   1      36.385  32.046  31.969  1.00  0.00     0.134 A 
ATOM     69  F   UNL A   1      36.967  33.774  28.843  1.00  0.00    -0.206 F 
ATOM     70  C   UNL A   1      35.247  33.988  30.388  1.00  0.00     0.040 A 
ATOM     71  C   UNL A   1      35.170  32.640  32.345  1.00  0.00     0.040 A 
ATOM     72  F   UNL A   1      36.886  31.213  32.886  1.00  0.00    -0.206 F 
ATOM     73  C   UNL A   1      34.597  33.621  31.556  1.00  0.00     0.006 A 
ENDBRANCH  52  66
BRANCH  53  74
ATOM     74  C   UNL A   1      45.285  27.115  29.037  1.00  0.00     0.057 A 
ATOM     75  C   UNL A   1      45.904  25.989  29.621  1.00  0.00     0.134 A 
ATOM     76  C   UNL A   1      44.719  26.930  27.771  1.00  0.00     0.134 A 
ATOM     77  F   UNL A   1      46.451  26.086  30.844  1.00  0.00    -0.206 F 
ATOM     78  C   UNL A   1      45.841  24.716  29.042  1.00  0.00     0.040 A 
ATOM     79  C   UNL A   1      44.644  25.654  27.186  1.00  0.00     0.040 A 
ATOM     80  F   UNL A   1      44.096  27.940  27.149  1.00  0.00    -0.206 F 
ATOM     81  C   UNL A   1      45.164  24.539  27.840  1.00  0.00     0.006 A 
ENDBRANCH  53  74
BRANCH  65  82
ATOM     82  C   UNL A   1      43.446  34.104  29.618  1.00  0.00     0.057 A 
ATOM     83  C   UNL A   1      43.598  34.454  28.266  1.00  0.00     0.134 A 
ATOM     84  C   UNL A   1      43.332  35.189  30.511  1.00  0.00     0.134 A 
ATOM     85  F   UNL A   1      43.591  33.536  27.289  1.00  0.00    -0.206 F 
ATOM     86  C   UNL A   1      43.702  35.780  27.840  1.00  0.00     0.040 A 
ATOM     87  C   UNL A   1      43.367  36.518  30.088  1.00  0.00     0.040 A 
ATOM     88  F   UNL A   1      43.138  35.009  31.825  1.00  0.00    -0.206 F 
ATOM     89  C   UNL A   1      43.574  36.818  28.751  1.00  0.00     0.006 A 
ENDBRANCH  65  82
ENDBRANCH  39  40
ENDBRANCH  32  34
ENDBRANCH  31  32
ENDBRANCH  30  31
ENDBRANCH  29  30
ENDBRANCH   1  29
TORSDOF 17
ENDMDL
