MODEL 1
REMARK VINA RESULT:     -10.8      0.000      0.000
REMARK SMILES COc1cc(Nc2cn[nH]c(=O)n2)c(C(=O)OCCOCCOC(=O)c2ccc(-c3c4nc(c(-c5c(F)cccc5F)c5ccc([nH]5)c(-c5c(F)cccc5F)c5nc(c(-c6c(F)cccc6F)c6ccc3[nH]6)C=C5)C=C4)cc2)cc1OC
REMARK SMILES IDX 20 1 19 2 18 3 17 4 15 5 16 6 14 7 3 8 4 9 81 10 5 11 80 12
REMARK SMILES IDX 2 13 1 14 82 15 83 16 6 17 7 19 8 20 13 21 9 22 11 23 10 24
REMARK SMILES IDX 12 25 21 27 22 28 23 29 24 30 25 31 26 32 27 33 79 34 28 35
REMARK SMILES IDX 78 36 29 37 30 38 31 39 72 40 32 41 77 42 71 43 73 44 33 45
REMARK SMILES IDX 76 46 70 47 69 48 34 50 60 51 43 52 59 53 44 54 47 55 58 56
REMARK SMILES IDX 74 57 45 58 46 59 57 61 75 62 48 63 35 64 36 65 41 66 37 67
REMARK SMILES IDX 38 68 40 69 42 70 39 71 61 72 62 73 67 74 63 75 64 76 66 77
REMARK SMILES IDX 68 78 65 79 49 80 50 81 55 82 51 83 52 84 54 85 56 86 53 87
REMARK H PARENT 6 18 10 26 73 49 47 60
REMARK Flexibility Score: inf
ROOT
ATOM      1  O   UNL A   1      31.656  30.815  26.431  1.00  0.00    -0.374 OA
ENDROOT
BRANCH   1   2
ATOM      2  C   UNL A   1      32.952  30.389  26.858  1.00  0.00     0.202 C 
BRANCH   2   3
ATOM      3  C   UNL A   1      33.433  29.087  26.215  1.00  0.00     0.261 C 
BRANCH   3   4
ATOM      4  O   UNL A   1      33.263  27.981  27.121  1.00  0.00    -0.460 OA
BRANCH   4   5
ATOM      5  C   UNL A   1      32.183  27.205  26.873  1.00  0.00     0.340 C 
ATOM      6  O   UNL A   1      31.036  27.426  27.235  1.00  0.00    -0.246 OA
BRANCH   5   7
ATOM      7  C   UNL A   1      32.510  26.102  25.931  1.00  0.00     0.087 A 
ATOM      8  C   UNL A   1      33.054  23.978  24.206  1.00  0.00     0.162 A 
ATOM      9  C   UNL A   1      31.957  24.824  23.963  1.00  0.00     0.077 A 
ATOM     10  C   UNL A   1      33.933  24.237  25.263  1.00  0.00     0.161 A 
ATOM     11  C   UNL A   1      31.661  25.893  24.819  1.00  0.00     0.058 A 
ATOM     12  C   UNL A   1      33.643  25.299  26.129  1.00  0.00     0.068 A 
BRANCH   8  13
ATOM     13  O   UNL A   1      33.264  22.942  23.335  1.00  0.00    -0.493 OA
ATOM     14  C   UNL A   1      32.026  22.317  22.982  1.00  0.00     0.278 C 
ENDBRANCH   8  13
BRANCH  10  15
ATOM     15  O   UNL A   1      35.087  23.583  25.596  1.00  0.00    -0.493 OA
ATOM     16  C   UNL A   1      36.223  23.721  24.755  1.00  0.00     0.278 C 
ENDBRANCH  10  15
BRANCH  11  17
ATOM     17  N   UNL A   1      30.649  26.830  24.510  1.00  0.00    -0.338 N 
ATOM     18  H   UNL A   1      29.828  26.782  25.051  1.00  0.00     0.168 HD
BRANCH  17  19
ATOM     19  C   UNL A   1      30.681  27.798  23.542  1.00  0.00     0.156 A 
ATOM     20  C   UNL A   1      32.039  28.364  23.210  1.00  0.00     0.180 A 
ATOM     21  N   UNL A   1      29.622  28.248  22.945  1.00  0.00    -0.173 NA
ATOM     22  N   UNL A   1      32.192  29.320  22.356  1.00  0.00    -0.176 NA
ATOM     23  C   UNL A   1      29.767  29.278  22.057  1.00  0.00     0.363 A 
ATOM     24  N   UNL A   1      31.030  29.766  21.799  1.00  0.00    -0.227 N 
ATOM     25  O   UNL A   1      28.801  29.791  21.486  1.00  0.00    -0.244 OA
ATOM     26  H   UNL A   1      31.101  30.505  21.153  1.00  0.00     0.195 HD
ENDBRANCH  17  19
ENDBRANCH  11  17
ENDBRANCH   5   7
ENDBRANCH   4   5
ENDBRANCH   3   4
ENDBRANCH   2   3
ENDBRANCH   1   2
BRANCH   1  27
ATOM     27  C   UNL A   1      31.375  32.211  26.562  1.00  0.00     0.202 C 
BRANCH  27  28
ATOM     28  C   UNL A   1      32.575  33.076  26.962  1.00  0.00     0.261 C 
BRANCH  28  29
ATOM     29  O   UNL A   1      32.249  33.907  28.090  1.00  0.00    -0.460 OA
BRANCH  29  30
ATOM     30  C   UNL A   1      33.269  34.665  28.555  1.00  0.00     0.338 C 
ATOM     31  O   UNL A   1      33.237  35.849  28.847  1.00  0.00    -0.246 OA
BRANCH  30  32
ATOM     32  C   UNL A   1      34.437  33.808  28.843  1.00  0.00     0.060 A 
ATOM     33  C   UNL A   1      34.198  32.609  29.528  1.00  0.00     0.016 A 
ATOM     34  C   UNL A   1      35.740  34.178  28.497  1.00  0.00     0.016 A 
ATOM     35  C   UNL A   1      35.264  31.804  29.920  1.00  0.00     0.010 A 
ATOM     36  C   UNL A   1      36.811  33.371  28.898  1.00  0.00     0.010 A 
ATOM     37  C   UNL A   1      36.578  32.201  29.642  1.00  0.00    -0.014 A 
BRANCH  37  38
ATOM     38  C   UNL A   1      37.705  31.469  30.267  1.00  0.00     0.031 A 
ATOM     39  C   UNL A   1      38.036  31.738  31.709  1.00  0.00     0.074 A 
ATOM     40  C   UNL A   1      38.398  30.549  29.574  1.00  0.00     0.049 A 
ATOM     41  N   UNL A   1      38.979  31.221  32.454  1.00  0.00    -0.248 NA
ATOM     42  C   UNL A   1      37.189  32.722  32.403  1.00  0.00     0.031 C 
ATOM     43  C   UNL A   1      38.148  30.171  28.185  1.00  0.00     0.029 A 
ATOM     44  N   UNL A   1      39.457  29.764  29.952  1.00  0.00    -0.354 N 
ATOM     45  C   UNL A   1      38.838  31.812  33.703  1.00  0.00     0.074 A 
ATOM     46  C   UNL A   1      37.739  32.750  33.607  1.00  0.00     0.031 C 
ATOM     47  C   UNL A   1      39.036  29.228  27.824  1.00  0.00     0.029 A 
ATOM     48  C   UNL A   1      39.929  28.956  28.948  1.00  0.00     0.049 A 
ATOM     49  H   UNL A   1      39.843  29.779  30.858  1.00  0.00     0.167 HD
ATOM     50  C   UNL A   1      39.551  31.587  34.831  1.00  0.00     0.037 A 
ATOM     51  C   UNL A   1      40.973  28.104  28.938  1.00  0.00     0.037 A 
ATOM     52  C   UNL A   1      40.646  30.659  34.928  1.00  0.00     0.049 A 
ATOM     53  C   UNL A   1      41.796  27.925  30.183  1.00  0.00     0.074 A 
ATOM     54  C   UNL A   1      41.425  30.356  36.030  1.00  0.00     0.029 A 
ATOM     55  N   UNL A   1      41.117  29.887  33.877  1.00  0.00    -0.354 N 
ATOM     56  N   UNL A   1      41.644  28.476  31.363  1.00  0.00    -0.248 NA
ATOM     57  C   UNL A   1      42.939  27.004  30.096  1.00  0.00     0.031 C 
ATOM     58  C   UNL A   1      42.395  29.426  35.636  1.00  0.00     0.029 A 
ATOM     59  C   UNL A   1      42.191  29.122  34.299  1.00  0.00     0.049 A 
ATOM     60  H   UNL A   1      40.744  29.883  32.967  1.00  0.00     0.167 HD
ATOM     61  C   UNL A   1      42.650  27.951  32.164  1.00  0.00     0.074 A 
ATOM     62  C   UNL A   1      43.404  27.031  31.338  1.00  0.00     0.031 C 
ATOM     63  C   UNL A   1      42.926  28.206  33.466  1.00  0.00     0.037 A 
BRANCH  50  64
ATOM     64  C   UNL A   1      39.178  32.377  36.049  1.00  0.00     0.057 A 
ATOM     65  C   UNL A   1      38.269  31.885  36.995  1.00  0.00     0.134 A 
ATOM     66  C   UNL A   1      39.749  33.632  36.290  1.00  0.00     0.134 A 
ATOM     67  F   UNL A   1      37.674  30.698  36.812  1.00  0.00    -0.206 F 
ATOM     68  C   UNL A   1      37.927  32.623  38.130  1.00  0.00     0.040 A 
ATOM     69  C   UNL A   1      39.433  34.370  37.432  1.00  0.00     0.040 A 
ATOM     70  F   UNL A   1      40.628  34.158  35.423  1.00  0.00    -0.206 F 
ATOM     71  C   UNL A   1      38.516  33.867  38.354  1.00  0.00     0.006 A 
ENDBRANCH  50  64
BRANCH  51  72
ATOM     72  C   UNL A   1      41.307  27.356  27.700  1.00  0.00     0.057 A 
ATOM     73  C   UNL A   1      40.813  26.066  27.478  1.00  0.00     0.134 A 
ATOM     74  C   UNL A   1      42.142  27.907  26.721  1.00  0.00     0.134 A 
ATOM     75  F   UNL A   1      40.028  25.478  28.392  1.00  0.00    -0.206 F 
ATOM     76  C   UNL A   1      41.150  25.344  26.332  1.00  0.00     0.040 A 
ATOM     77  C   UNL A   1      42.469  27.204  25.561  1.00  0.00     0.040 A 
ATOM     78  F   UNL A   1      42.648  29.140  26.878  1.00  0.00    -0.206 F 
ATOM     79  C   UNL A   1      41.976  25.915  25.368  1.00  0.00     0.006 A 
ENDBRANCH  51  72
BRANCH  63  80
ATOM     80  C   UNL A   1      44.068  27.458  34.086  1.00  0.00     0.057 A 
ATOM     81  C   UNL A   1      43.893  26.197  34.668  1.00  0.00     0.134 A 
ATOM     82  C   UNL A   1      45.363  27.989  34.064  1.00  0.00     0.134 A 
ATOM     83  F   UNL A   1      42.674  25.639  34.731  1.00  0.00    -0.206 F 
ATOM     84  C   UNL A   1      44.965  25.496  35.223  1.00  0.00     0.040 A 
ATOM     85  C   UNL A   1      46.447  27.289  34.595  1.00  0.00     0.040 A 
ATOM     86  F   UNL A   1      45.598  29.190  33.515  1.00  0.00    -0.206 F 
ATOM     87  C   UNL A   1      46.248  26.040  35.181  1.00  0.00     0.006 A 
ENDBRANCH  63  80
ENDBRANCH  37  38
ENDBRANCH  30  32
ENDBRANCH  29  30
ENDBRANCH  28  29
ENDBRANCH  27  28
ENDBRANCH   1  27
TORSDOF 18
ENDMDL
MODEL 2
REMARK VINA RESULT:     -10.6      4.737      9.717
REMARK SMILES COc1cc(Nc2cn[nH]c(=O)n2)c(C(=O)OCCOCCOC(=O)c2ccc(-c3c4nc(c(-c5c(F)cccc5F)c5ccc([nH]5)c(-c5c(F)cccc5F)c5nc(c(-c6c(F)cccc6F)c6ccc3[nH]6)C=C5)C=C4)cc2)cc1OC
REMARK SMILES IDX 20 1 19 2 18 3 17 4 15 5 16 6 14 7 3 8 4 9 81 10 5 11 80 12
REMARK SMILES IDX 2 13 1 14 82 15 83 16 6 17 7 19 8 20 13 21 9 22 11 23 10 24
REMARK SMILES IDX 12 25 21 27 22 28 23 29 24 30 25 31 26 32 27 33 79 34 28 35
REMARK SMILES IDX 78 36 29 37 30 38 31 39 72 40 32 41 77 42 71 43 73 44 33 45
REMARK SMILES IDX 76 46 70 47 69 48 34 50 60 51 43 52 59 53 44 54 47 55 58 56
REMARK SMILES IDX 74 57 45 58 46 59 57 61 75 62 48 63 35 64 36 65 41 66 37 67
REMARK SMILES IDX 38 68 40 69 42 70 39 71 61 72 62 73 67 74 63 75 64 76 66 77
REMARK SMILES IDX 68 78 65 79 49 80 50 81 55 82 51 83 52 84 54 85 56 86 53 87
REMARK H PARENT 6 18 10 26 73 49 47 60
REMARK Flexibility Score: inf
ROOT
ATOM      1  O   UNL A   1      38.013  22.721  25.427  1.00  0.00    -0.374 OA
ENDROOT
BRANCH   1   2
ATOM      2  C   UNL A   1      36.627  23.065  25.356  1.00  0.00     0.202 C 
BRANCH   2   3
ATOM      3  C   UNL A   1      36.131  23.406  23.950  1.00  0.00     0.261 C 
BRANCH   3   4
ATOM      4  O   UNL A   1      35.103  24.413  24.005  1.00  0.00    -0.460 OA
BRANCH   4   5
ATOM      5  C   UNL A   1      33.916  24.043  23.474  1.00  0.00     0.340 C 
ATOM      6  O   UNL A   1      33.728  23.644  22.333  1.00  0.00    -0.246 OA
BRANCH   5   7
ATOM      7  C   UNL A   1      32.848  24.001  24.506  1.00  0.00     0.087 A 
ATOM      8  C   UNL A   1      30.775  23.941  26.374  1.00  0.00     0.162 A 
ATOM      9  C   UNL A   1      31.020  22.827  25.552  1.00  0.00     0.077 A 
ATOM     10  C   UNL A   1      31.615  25.059  26.325  1.00  0.00     0.161 A 
ATOM     11  C   UNL A   1      32.051  22.835  24.604  1.00  0.00     0.058 A 
ATOM     12  C   UNL A   1      32.643  25.082  25.376  1.00  0.00     0.068 A 
BRANCH   8  13
ATOM     13  O   UNL A   1      29.735  23.862  27.261  1.00  0.00    -0.493 OA
ATOM     14  C   UNL A   1      29.180  22.543  27.277  1.00  0.00     0.278 C 
ENDBRANCH   8  13
BRANCH  10  15
ATOM     15  O   UNL A   1      31.584  26.186  27.100  1.00  0.00    -0.493 OA
ATOM     16  C   UNL A   1      31.490  27.454  26.467  1.00  0.00     0.278 C 
ENDBRANCH  10  15
BRANCH  11  17
ATOM     17  N   UNL A   1      32.394  21.676  23.872  1.00  0.00    -0.338 N 
ATOM     18  H   UNL A   1      32.285  21.727  22.895  1.00  0.00     0.168 HD
BRANCH  17  19
ATOM     19  C   UNL A   1      32.860  20.488  24.369  1.00  0.00     0.156 A 
ATOM     20  C   UNL A   1      34.356  20.371  24.520  1.00  0.00     0.180 A 
ATOM     21  N   UNL A   1      32.093  19.489  24.674  1.00  0.00    -0.173 NA
ATOM     22  N   UNL A   1      34.920  19.283  24.925  1.00  0.00    -0.176 NA
ATOM     23  C   UNL A   1      32.679  18.321  25.079  1.00  0.00     0.363 A 
ATOM     24  N   UNL A   1      34.052  18.266  25.190  1.00  0.00    -0.227 N 
ATOM     25  O   UNL A   1      32.017  17.314  25.341  1.00  0.00    -0.244 OA
ATOM     26  H   UNL A   1      34.442  17.412  25.487  1.00  0.00     0.195 HD
ENDBRANCH  17  19
ENDBRANCH  11  17
ENDBRANCH   5   7
ENDBRANCH   4   5
ENDBRANCH   3   4
ENDBRANCH   2   3
ENDBRANCH   1   2
BRANCH   1  27
ATOM     27  C   UNL A   1      38.321  21.327  25.361  1.00  0.00     0.202 C 
BRANCH  27  28
ATOM     28  C   UNL A   1      39.489  20.881  26.247  1.00  0.00     0.261 C 
BRANCH  28  29
ATOM     29  O   UNL A   1      40.062  19.657  25.755  1.00  0.00    -0.460 OA
BRANCH  29  30
ATOM     30  C   UNL A   1      41.361  19.461  26.082  1.00  0.00     0.338 C 
ATOM     31  O   UNL A   1      42.005  18.432  25.966  1.00  0.00    -0.246 OA
BRANCH  30  32
ATOM     32  C   UNL A   1      41.981  20.749  26.454  1.00  0.00     0.060 A 
ATOM     33  C   UNL A   1      42.055  21.054  27.820  1.00  0.00     0.016 A 
ATOM     34  C   UNL A   1      42.439  21.662  25.500  1.00  0.00     0.016 A 
ATOM     35  C   UNL A   1      42.534  22.294  28.234  1.00  0.00     0.010 A 
ATOM     36  C   UNL A   1      42.914  22.911  25.917  1.00  0.00     0.010 A 
ATOM     37  C   UNL A   1      42.928  23.244  27.283  1.00  0.00    -0.014 A 
BRANCH  37  38
ATOM     38  C   UNL A   1      43.206  24.633  27.716  1.00  0.00     0.031 A 
ATOM     39  C   UNL A   1      44.635  25.090  27.820  1.00  0.00     0.074 A 
ATOM     40  C   UNL A   1      42.202  25.489  27.974  1.00  0.00     0.049 A 
ATOM     41  N   UNL A   1      45.110  26.254  28.183  1.00  0.00    -0.248 NA
ATOM     42  C   UNL A   1      45.666  24.101  27.465  1.00  0.00     0.031 C 
ATOM     43  C   UNL A   1      40.778  25.178  27.872  1.00  0.00     0.029 A 
ATOM     44  N   UNL A   1      42.233  26.800  28.376  1.00  0.00    -0.354 N 
ATOM     45  C   UNL A   1      46.491  26.140  28.098  1.00  0.00     0.074 A 
ATOM     46  C   UNL A   1      46.780  24.784  27.680  1.00  0.00     0.031 C 
ATOM     47  C   UNL A   1      40.069  26.269  28.209  1.00  0.00     0.029 A 
ATOM     48  C   UNL A   1      40.988  27.344  28.574  1.00  0.00     0.049 A 
ATOM     49  H   UNL A   1      43.069  27.303  28.511  1.00  0.00     0.167 HD
ATOM     50  C   UNL A   1      47.434  27.080  28.337  1.00  0.00     0.037 A 
ATOM     51  C   UNL A   1      40.636  28.568  29.013  1.00  0.00     0.037 A 
ATOM     52  C   UNL A   1      47.150  28.427  28.756  1.00  0.00     0.049 A 
ATOM     53  C   UNL A   1      41.705  29.574  29.341  1.00  0.00     0.074 A 
ATOM     54  C   UNL A   1      48.038  29.456  29.015  1.00  0.00     0.029 A 
ATOM     55  N   UNL A   1      45.877  28.928  28.981  1.00  0.00    -0.354 N 
ATOM     56  N   UNL A   1      43.007  29.461  29.242  1.00  0.00    -0.248 NA
ATOM     57  C   UNL A   1      41.254  30.881  29.844  1.00  0.00     0.031 C 
ATOM     58  C   UNL A   1      47.303  30.571  29.435  1.00  0.00     0.029 A 
ATOM     59  C   UNL A   1      45.956  30.246  29.397  1.00  0.00     0.049 A 
ATOM     60  H   UNL A   1      45.042  28.422  28.864  1.00  0.00     0.167 HD
ATOM     61  C   UNL A   1      43.529  30.685  29.642  1.00  0.00     0.074 A 
ATOM     62  C   UNL A   1      42.403  31.530  29.979  1.00  0.00     0.031 C 
ATOM     63  C   UNL A   1      44.824  31.075  29.722  1.00  0.00     0.037 A 
BRANCH  50  64
ATOM     64  C   UNL A   1      48.867  26.675  28.166  1.00  0.00     0.057 A 
ATOM     65  C   UNL A   1      49.641  26.234  29.248  1.00  0.00     0.134 A 
ATOM     66  C   UNL A   1      49.473  26.702  26.904  1.00  0.00     0.134 A 
ATOM     67  F   UNL A   1      49.124  26.201  30.485  1.00  0.00    -0.206 F 
ATOM     68  C   UNL A   1      50.974  25.854  29.083  1.00  0.00     0.040 A 
ATOM     69  C   UNL A   1      50.798  26.304  26.723  1.00  0.00     0.040 A 
ATOM     70  F   UNL A   1      48.785  27.113  25.828  1.00  0.00    -0.206 F 
ATOM     71  C   UNL A   1      51.554  25.882  27.815  1.00  0.00     0.006 A 
ENDBRANCH  50  64
BRANCH  51  72
ATOM     72  C   UNL A   1      39.202  28.912  29.176  1.00  0.00     0.057 A 
ATOM     73  C   UNL A   1      38.545  28.720  30.397  1.00  0.00     0.134 A 
ATOM     74  C   UNL A   1      38.451  29.424  28.111  1.00  0.00     0.134 A 
ATOM     75  F   UNL A   1      39.207  28.211  31.446  1.00  0.00    -0.206 F 
ATOM     76  C   UNL A   1      37.189  29.011  30.549  1.00  0.00     0.040 A 
ATOM     77  C   UNL A   1      37.100  29.738  28.255  1.00  0.00     0.040 A 
ATOM     78  F   UNL A   1      39.024  29.629  26.915  1.00  0.00    -0.206 F 
ATOM     79  C   UNL A   1      36.463  29.526  29.477  1.00  0.00     0.006 A 
ENDBRANCH  51  72
BRANCH  63  80
ATOM     80  C   UNL A   1      45.092  32.483  30.160  1.00  0.00     0.057 A 
ATOM     81  C   UNL A   1      45.324  32.806  31.503  1.00  0.00     0.134 A 
ATOM     82  C   UNL A   1      45.160  33.521  29.222  1.00  0.00     0.134 A 
ATOM     83  F   UNL A   1      45.261  31.859  32.451  1.00  0.00    -0.206 F 
ATOM     84  C   UNL A   1      45.597  34.116  31.900  1.00  0.00     0.040 A 
ATOM     85  C   UNL A   1      45.453  34.830  29.603  1.00  0.00     0.040 A 
ATOM     86  F   UNL A   1      44.954  33.276  27.920  1.00  0.00    -0.206 F 
ATOM     87  C   UNL A   1      45.669  35.131  30.947  1.00  0.00     0.006 A 
ENDBRANCH  63  80
ENDBRANCH  37  38
ENDBRANCH  30  32
ENDBRANCH  29  30
ENDBRANCH  28  29
ENDBRANCH  27  28
ENDBRANCH   1  27
TORSDOF 18
ENDMDL
MODEL 3
REMARK VINA RESULT:     -10.6      4.461      8.048
REMARK SMILES COc1cc(Nc2cn[nH]c(=O)n2)c(C(=O)OCCOCCOC(=O)c2ccc(-c3c4nc(c(-c5c(F)cccc5F)c5ccc([nH]5)c(-c5c(F)cccc5F)c5nc(c(-c6c(F)cccc6F)c6ccc3[nH]6)C=C5)C=C4)cc2)cc1OC
REMARK SMILES IDX 20 1 19 2 18 3 17 4 15 5 16 6 14 7 3 8 4 9 81 10 5 11 80 12
REMARK SMILES IDX 2 13 1 14 82 15 83 16 6 17 7 19 8 20 13 21 9 22 11 23 10 24
REMARK SMILES IDX 12 25 21 27 22 28 23 29 24 30 25 31 26 32 27 33 79 34 28 35
REMARK SMILES IDX 78 36 29 37 30 38 31 39 72 40 32 41 77 42 71 43 73 44 33 45
REMARK SMILES IDX 76 46 70 47 69 48 34 50 60 51 43 52 59 53 44 54 47 55 58 56
REMARK SMILES IDX 74 57 45 58 46 59 57 61 75 62 48 63 35 64 36 65 41 66 37 67
REMARK SMILES IDX 38 68 40 69 42 70 39 71 61 72 62 73 67 74 63 75 64 76 66 77
REMARK SMILES IDX 68 78 65 79 49 80 50 81 55 82 51 83 52 84 54 85 56 86 53 87
REMARK H PARENT 6 18 10 26 73 49 47 60
REMARK Flexibility Score: inf
ROOT
ATOM      1  O   UNL A   1      34.018  31.716  27.263  1.00  0.00    -0.374 OA
ENDROOT
BRANCH   1   2
ATOM      2  C   UNL A   1      33.835  30.338  27.595  1.00  0.00     0.202 C 
BRANCH   2   3
ATOM      3  C   UNL A   1      33.749  29.402  26.387  1.00  0.00     0.261 C 
BRANCH   3   4
ATOM      4  O   UNL A   1      32.386  29.271  25.943  1.00  0.00    -0.460 OA
BRANCH   4   5
ATOM      5  C   UNL A   1      31.923  28.001  25.896  1.00  0.00     0.340 C 
ATOM      6  O   UNL A   1      31.113  27.499  26.663  1.00  0.00    -0.246 OA
BRANCH   5   7
ATOM      7  C   UNL A   1      32.382  27.299  24.669  1.00  0.00     0.087 A 
ATOM      8  C   UNL A   1      33.157  25.937  22.361  1.00  0.00     0.162 A 
ATOM      9  C   UNL A   1      32.345  27.081  22.268  1.00  0.00     0.077 A 
ATOM     10  C   UNL A   1      33.654  25.515  23.599  1.00  0.00     0.161 A 
ATOM     11  C   UNL A   1      31.939  27.778  23.414  1.00  0.00     0.058 A 
ATOM     12  C   UNL A   1      33.249  26.199  24.750  1.00  0.00     0.068 A 
BRANCH   8  13
ATOM     13  O   UNL A   1      33.493  25.299  21.196  1.00  0.00    -0.493 OA
ATOM     14  C   UNL A   1      32.562  25.615  20.157  1.00  0.00     0.278 C 
ENDBRANCH   8  13
BRANCH  10  15
ATOM     15  O   UNL A   1      34.517  24.488  23.868  1.00  0.00    -0.493 OA
ATOM     16  C   UNL A   1      33.992  23.252  24.332  1.00  0.00     0.278 C 
ENDBRANCH  10  15
BRANCH  11  17
ATOM     17  N   UNL A   1      31.242  29.005  23.326  1.00  0.00    -0.338 N 
ATOM     18  H   UNL A   1      31.723  29.805  23.636  1.00  0.00     0.168 HD
BRANCH  17  19
ATOM     19  C   UNL A   1      29.970  29.205  22.858  1.00  0.00     0.156 A 
ATOM     20  C   UNL A   1      29.840  30.085  21.640  1.00  0.00     0.180 A 
ATOM     21  N   UNL A   1      28.914  28.709  23.422  1.00  0.00    -0.173 NA
ATOM     22  N   UNL A   1      28.691  30.393  21.139  1.00  0.00    -0.176 NA
ATOM     23  C   UNL A   1      27.689  29.049  22.917  1.00  0.00     0.363 A 
ATOM     24  N   UNL A   1      27.627  29.866  21.808  1.00  0.00    -0.227 N 
ATOM     25  O   UNL A   1      26.638  28.655  23.428  1.00  0.00    -0.244 OA
ATOM     26  H   UNL A   1      26.731  30.089  21.468  1.00  0.00     0.195 HD
ENDBRANCH  17  19
ENDBRANCH  11  17
ENDBRANCH   5   7
ENDBRANCH   4   5
ENDBRANCH   3   4
ENDBRANCH   2   3
ENDBRANCH   1   2
BRANCH   1  27
ATOM     27  C   UNL A   1      34.822  32.480  28.164  1.00  0.00     0.202 C 
BRANCH  27  28
ATOM     28  C   UNL A   1      34.889  31.933  29.594  1.00  0.00     0.261 C 
BRANCH  28  29
ATOM     29  O   UNL A   1      36.255  31.785  30.019  1.00  0.00    -0.460 OA
BRANCH  29  30
ATOM     30  C   UNL A   1      36.521  30.648  30.703  1.00  0.00     0.338 C 
ATOM     31  O   UNL A   1      35.826  30.118  31.554  1.00  0.00    -0.246 OA
BRANCH  30  32
ATOM     32  C   UNL A   1      37.728  30.003  30.148  1.00  0.00     0.060 A 
ATOM     33  C   UNL A   1      38.610  29.403  31.057  1.00  0.00     0.016 A 
ATOM     34  C   UNL A   1      38.023  30.017  28.782  1.00  0.00     0.016 A 
ATOM     35  C   UNL A   1      39.815  28.867  30.612  1.00  0.00     0.010 A 
ATOM     36  C   UNL A   1      39.238  29.485  28.336  1.00  0.00     0.010 A 
ATOM     37  C   UNL A   1      40.154  28.942  29.255  1.00  0.00    -0.014 A 
BRANCH  37  38
ATOM     38  C   UNL A   1      41.529  28.590  28.829  1.00  0.00     0.031 A 
ATOM     39  C   UNL A   1      41.819  27.178  28.403  1.00  0.00     0.074 A 
ATOM     40  C   UNL A   1      42.496  29.523  28.783  1.00  0.00     0.049 A 
ATOM     41  N   UNL A   1      42.945  26.647  28.000  1.00  0.00    -0.248 NA
ATOM     42  C   UNL A   1      40.686  26.239  28.433  1.00  0.00     0.031 C 
ATOM     43  C   UNL A   1      42.330  30.932  29.133  1.00  0.00     0.029 A 
ATOM     44  N   UNL A   1      43.815  29.418  28.420  1.00  0.00    -0.354 N 
ATOM     45  C   UNL A   1      42.657  25.316  27.727  1.00  0.00     0.074 A 
ATOM     46  C   UNL A   1      41.259  25.111  28.039  1.00  0.00     0.031 C 
ATOM     47  C   UNL A   1      43.507  31.561  28.973  1.00  0.00     0.029 A 
ATOM     48  C   UNL A   1      44.512  30.595  28.534  1.00  0.00     0.049 A 
ATOM     49  H   UNL A   1      44.223  28.578  28.108  1.00  0.00     0.167 HD
ATOM     50  C   UNL A   1      43.480  24.353  27.250  1.00  0.00     0.037 A 
ATOM     51  C   UNL A   1      45.815  30.856  28.320  1.00  0.00     0.037 A 
ATOM     52  C   UNL A   1      44.871  24.553  26.942  1.00  0.00     0.049 A 
ATOM     53  C   UNL A   1      46.727  29.751  27.859  1.00  0.00     0.074 A 
ATOM     54  C   UNL A   1      45.785  23.641  26.446  1.00  0.00     0.029 A 
ATOM     55  N   UNL A   1      45.548  25.751  27.107  1.00  0.00    -0.354 N 
ATOM     56  N   UNL A   1      46.441  28.501  27.589  1.00  0.00    -0.248 NA
ATOM     57  C   UNL A   1      48.145  30.095  27.674  1.00  0.00     0.031 C 
ATOM     58  C   UNL A   1      47.027  24.278  26.346  1.00  0.00     0.029 A 
ATOM     59  C   UNL A   1      46.875  25.597  26.742  1.00  0.00     0.049 A 
ATOM     60  H   UNL A   1      45.146  26.587  27.435  1.00  0.00     0.167 HD
ATOM     61  C   UNL A   1      47.632  27.917  27.176  1.00  0.00     0.074 A 
ATOM     62  C   UNL A   1      48.644  28.951  27.225  1.00  0.00     0.031 C 
ATOM     63  C   UNL A   1      47.868  26.639  26.790  1.00  0.00     0.037 A 
BRANCH  50  64
ATOM     64  C   UNL A   1      42.895  22.988  27.049  1.00  0.00     0.057 A 
ATOM     65  C   UNL A   1      42.608  22.491  25.770  1.00  0.00     0.134 A 
ATOM     66  C   UNL A   1      42.638  22.152  28.142  1.00  0.00     0.134 A 
ATOM     67  F   UNL A   1      42.815  23.249  24.684  1.00  0.00    -0.206 F 
ATOM     68  C   UNL A   1      42.068  21.216  25.588  1.00  0.00     0.040 A 
ATOM     69  C   UNL A   1      42.118  20.868  27.972  1.00  0.00     0.040 A 
ATOM     70  F   UNL A   1      42.893  22.569  29.392  1.00  0.00    -0.206 F 
ATOM     71  C   UNL A   1      41.827  20.399  26.691  1.00  0.00     0.006 A 
ENDBRANCH  50  64
BRANCH  51  72
ATOM     72  C   UNL A   1      46.345  32.223  28.547  1.00  0.00     0.057 A 
ATOM     73  C   UNL A   1      46.846  32.608  29.796  1.00  0.00     0.134 A 
ATOM     74  C   UNL A   1      46.345  33.182  27.526  1.00  0.00     0.134 A 
ATOM     75  F   UNL A   1      46.850  31.740  30.818  1.00  0.00    -0.206 F 
ATOM     76  C   UNL A   1      47.315  33.902  30.026  1.00  0.00     0.040 A 
ATOM     77  C   UNL A   1      46.830  34.473  27.737  1.00  0.00     0.040 A 
ATOM     78  F   UNL A   1      45.875  32.873  26.308  1.00  0.00    -0.206 F 
ATOM     79  C   UNL A   1      47.312  34.837  28.993  1.00  0.00     0.006 A 
ENDBRANCH  51  72
BRANCH  63  80
ATOM     80  C   UNL A   1      49.262  26.297  26.361  1.00  0.00     0.057 A 
ATOM     81  C   UNL A   1      49.746  26.633  25.091  1.00  0.00     0.134 A 
ATOM     82  C   UNL A   1      50.143  25.659  27.243  1.00  0.00     0.134 A 
ATOM     83  F   UNL A   1      48.947  27.234  24.196  1.00  0.00    -0.206 F 
ATOM     84  C   UNL A   1      51.054  26.332  24.706  1.00  0.00     0.040 A 
ATOM     85  C   UNL A   1      51.459  25.373  26.879  1.00  0.00     0.040 A 
ATOM     86  F   UNL A   1      49.743  25.317  28.477  1.00  0.00    -0.206 F 
ATOM     87  C   UNL A   1      51.916  25.706  25.604  1.00  0.00     0.006 A 
ENDBRANCH  63  80
ENDBRANCH  37  38
ENDBRANCH  30  32
ENDBRANCH  29  30
ENDBRANCH  28  29
ENDBRANCH  27  28
ENDBRANCH   1  27
TORSDOF 18
ENDMDL
