MODEL 1
REMARK VINA RESULT:     -11.4      0.000      0.000
REMARK SMILES C[C@@H]1CN(C(=O)C[NH+]2CCC(CC(=O)OCCOCCOC(=O)c3ccc(-c4c5nc(c(-c6c(F)cccc6F)c6ccc([nH]6)c(-c6c(F)cccc6F)c6nc(c(-c7c(F)cccc7F)c7ccc4[nH]7)C=C6)C=C5)cc3)CC2)C[C@@H](C)O1
REMARK SMILES IDX 17 1 16 2 15 3 13 4 14 5 12 6 11 7 8 8 9 9 79 10 10 12 78 13
REMARK SMILES IDX 7 14 5 15 1 16 2 17 3 18 83 19 4 20 81 21 80 22 82 23 6 24
REMARK SMILES IDX 18 25 19 26 20 27 21 28 22 29 23 30 24 31 25 32 77 33 26 34
REMARK SMILES IDX 76 35 27 36 28 37 29 38 70 39 30 40 75 41 69 42 71 43 31 44
REMARK SMILES IDX 74 45 68 46 67 47 32 49 58 50 41 51 57 52 42 53 45 54 56 55
REMARK SMILES IDX 72 56 43 57 44 58 55 60 73 61 46 62 33 63 34 64 39 65 35 66
REMARK SMILES IDX 36 67 38 68 40 69 37 70 59 71 60 72 65 73 61 74 62 75 64 76
REMARK SMILES IDX 66 77 63 78 47 79 48 80 53 81 49 82 50 83 52 84 54 85 51 86
REMARK H PARENT 8 11 71 48 45 59
REMARK Flexibility Score: inf
ROOT
ATOM      1  C   UNL A   1      40.484  21.450  27.319  1.00  0.00     0.202 C 
ENDROOT
BRANCH   1   2
ATOM      2  C   UNL A   1      39.822  21.595  25.948  1.00  0.00     0.261 C 
BRANCH   2   3
ATOM      3  O   UNL A   1      38.415  21.802  26.127  1.00  0.00    -0.463 OA
BRANCH   3   4
ATOM      4  C   UNL A   1      37.964  23.036  25.812  1.00  0.00     0.306 C 
ATOM      5  O   UNL A   1      38.373  24.088  26.289  1.00  0.00    -0.252 OA
BRANCH   4   6
ATOM      6  C   UNL A   1      36.925  23.007  24.720  1.00  0.00     0.126 C 
BRANCH   6   7
ATOM      7  C   UNL A   1      35.498  22.495  25.084  1.00  0.00     0.011 C 
ATOM      8  N   UNL A   1      33.135  24.072  24.398  1.00  0.00    -0.327 N 
ATOM      9  C   UNL A   1      33.278  22.796  23.715  1.00  0.00     0.262 C 
ATOM     10  C   UNL A   1      33.387  23.808  25.824  1.00  0.00     0.262 C 
ATOM     11  H   UNL A   1      32.192  24.424  24.237  1.00  0.00     0.348 HD
ATOM     12  C   UNL A   1      34.689  22.234  23.797  1.00  0.00     0.066 C 
ATOM     13  C   UNL A   1      34.835  23.418  26.126  1.00  0.00     0.066 C 
BRANCH   8  14
ATOM     14  C   UNL A   1      33.970  25.186  23.866  1.00  0.00     0.363 C 
BRANCH  14  15
ATOM     15  C   UNL A   1      33.250  26.178  22.911  1.00  0.00     0.277 C 
ATOM     16  C   UNL A   1      33.071  29.327  24.882  1.00  0.00     0.040 C 
ATOM     17  C   UNL A   1      31.723  28.611  25.010  1.00  0.00     0.135 C 
ATOM     18  C   UNL A   1      31.658  27.093  24.701  1.00  0.00     0.151 C 
ATOM     19  O   UNL A   1      30.787  29.268  24.136  1.00  0.00    -0.372 OA
ATOM     20  N   UNL A   1      32.099  26.846  23.336  1.00  0.00    -0.333 N 
ATOM     21  C   UNL A   1      31.066  29.046  22.735  1.00  0.00     0.135 C 
ATOM     22  C   UNL A   1      31.237  27.549  22.377  1.00  0.00     0.151 C 
ATOM     23  C   UNL A   1      29.886  29.664  22.002  1.00  0.00     0.040 C 
ATOM     24  O   UNL A   1      33.645  26.299  21.747  1.00  0.00    -0.268 OA
ENDBRANCH  14  15
ENDBRANCH   8  14
ENDBRANCH   6   7
ENDBRANCH   4   6
ENDBRANCH   3   4
ENDBRANCH   2   3
ENDBRANCH   1   2
BRANCH   1  25
ATOM     25  O   UNL A   1      41.851  21.043  27.331  1.00  0.00    -0.374 OA
BRANCH  25  26
ATOM     26  C   UNL A   1      42.507  20.813  26.084  1.00  0.00     0.202 C 
BRANCH  26  27
ATOM     27  C   UNL A   1      43.620  21.796  25.680  1.00  0.00     0.261 C 
BRANCH  27  28
ATOM     28  O   UNL A   1      43.121  22.934  24.947  1.00  0.00    -0.460 OA
BRANCH  28  29
ATOM     29  C   UNL A   1      43.827  24.075  25.104  1.00  0.00     0.338 C 
ATOM     30  O   UNL A   1      44.851  24.397  24.513  1.00  0.00    -0.246 OA
BRANCH  29  31
ATOM     31  C   UNL A   1      43.079  25.029  25.944  1.00  0.00     0.060 A 
ATOM     32  C   UNL A   1      43.705  26.250  26.234  1.00  0.00     0.016 A 
ATOM     33  C   UNL A   1      41.844  24.716  26.513  1.00  0.00     0.016 A 
ATOM     34  C   UNL A   1      43.132  27.134  27.142  1.00  0.00     0.010 A 
ATOM     35  C   UNL A   1      41.272  25.604  27.435  1.00  0.00     0.010 A 
ATOM     36  C   UNL A   1      41.936  26.795  27.787  1.00  0.00    -0.014 A 
BRANCH  36  37
ATOM     37  C   UNL A   1      41.486  27.615  28.940  1.00  0.00     0.031 A 
ATOM     38  C   UNL A   1      42.230  27.519  30.244  1.00  0.00     0.074 A 
ATOM     39  C   UNL A   1      40.468  28.485  28.816  1.00  0.00     0.049 A 
ATOM     40  N   UNL A   1      42.013  28.140  31.376  1.00  0.00    -0.248 NA
ATOM     41  C   UNL A   1      43.375  26.596  30.276  1.00  0.00     0.031 C 
ATOM     42  C   UNL A   1      39.695  28.707  27.597  1.00  0.00     0.029 A 
ATOM     43  N   UNL A   1      39.911  29.340  29.733  1.00  0.00    -0.354 N 
ATOM     44  C   UNL A   1      42.985  27.678  32.255  1.00  0.00     0.074 A 
ATOM     45  C   UNL A   1      43.767  26.696  31.536  1.00  0.00     0.031 C 
ATOM     46  C   UNL A   1      38.752  29.631  27.845  1.00  0.00     0.029 A 
ATOM     47  C   UNL A   1      38.836  30.039  29.247  1.00  0.00     0.049 A 
ATOM     48  H   UNL A   1      40.251  29.442  30.652  1.00  0.00     0.167 HD
ATOM     49  C   UNL A   1      43.214  28.045  33.539  1.00  0.00     0.037 A 
ATOM     50  C   UNL A   1      37.996  30.891  29.868  1.00  0.00     0.037 A 
ATOM     51  C   UNL A   1      42.429  29.018  34.255  1.00  0.00     0.049 A 
ATOM     52  C   UNL A   1      38.217  31.231  31.316  1.00  0.00     0.074 A 
ATOM     53  C   UNL A   1      42.593  29.473  35.552  1.00  0.00     0.029 A 
ATOM     54  N   UNL A   1      41.321  29.675  33.740  1.00  0.00    -0.354 N 
ATOM     55  N   UNL A   1      39.154  30.808  32.131  1.00  0.00    -0.248 NA
ATOM     56  C   UNL A   1      37.269  32.171  31.930  1.00  0.00     0.031 C 
ATOM     57  C   UNL A   1      41.546  30.357  35.842  1.00  0.00     0.029 A 
ATOM     58  C   UNL A   1      40.770  30.506  34.704  1.00  0.00     0.049 A 
ATOM     59  H   UNL A   1      40.978  29.569  32.823  1.00  0.00     0.167 HD
ATOM     60  C   UNL A   1      38.922  31.447  33.344  1.00  0.00     0.074 A 
ATOM     61  C   UNL A   1      37.765  32.296  33.153  1.00  0.00     0.031 C 
ATOM     62  C   UNL A   1      39.611  31.342  34.508  1.00  0.00     0.037 A 
BRANCH  49  63
ATOM     63  C   UNL A   1      44.336  27.351  34.261  1.00  0.00     0.057 A 
ATOM     64  C   UNL A   1      45.641  27.863  34.281  1.00  0.00     0.134 A 
ATOM     65  C   UNL A   1      44.108  26.148  34.940  1.00  0.00     0.134 A 
ATOM     66  F   UNL A   1      45.933  29.005  33.640  1.00  0.00    -0.206 F 
ATOM     67  C   UNL A   1      46.684  27.182  34.912  1.00  0.00     0.040 A 
ATOM     68  C   UNL A   1      45.135  25.475  35.603  1.00  0.00     0.040 A 
ATOM     69  F   UNL A   1      42.882  25.603  34.970  1.00  0.00    -0.206 F 
ATOM     70  C   UNL A   1      46.431  25.985  35.578  1.00  0.00     0.006 A 
ENDBRANCH  49  63
BRANCH  50  71
ATOM     71  C   UNL A   1      36.853  31.464  29.112  1.00  0.00     0.057 A 
ATOM     72  C   UNL A   1      35.711  30.708  28.828  1.00  0.00     0.134 A 
ATOM     73  C   UNL A   1      36.873  32.795  28.673  1.00  0.00     0.134 A 
ATOM     74  F   UNL A   1      35.643  29.422  29.202  1.00  0.00    -0.206 F 
ATOM     75  C   UNL A   1      34.629  31.253  28.134  1.00  0.00     0.040 A 
ATOM     76  C   UNL A   1      35.789  33.360  28.002  1.00  0.00     0.040 A 
ATOM     77  F   UNL A   1      37.938  33.572  28.917  1.00  0.00    -0.206 F 
ATOM     78  C   UNL A   1      34.663  32.586  27.727  1.00  0.00     0.006 A 
ENDBRANCH  50  71
BRANCH  62  79
ATOM     79  C   UNL A   1      39.150  32.185  35.664  1.00  0.00     0.057 A 
ATOM     80  C   UNL A   1      38.276  31.693  36.644  1.00  0.00     0.134 A 
ATOM     81  C   UNL A   1      39.618  33.497  35.823  1.00  0.00     0.134 A 
ATOM     82  F   UNL A   1      37.778  30.450  36.548  1.00  0.00    -0.206 F 
ATOM     83  C   UNL A   1      37.867  32.482  37.721  1.00  0.00     0.040 A 
ATOM     84  C   UNL A   1      39.242  34.284  36.912  1.00  0.00     0.040 A 
ATOM     85  F   UNL A   1      40.466  34.030  34.929  1.00  0.00    -0.206 F 
ATOM     86  C   UNL A   1      38.356  33.778  37.862  1.00  0.00     0.006 A 
ENDBRANCH  62  79
ENDBRANCH  36  37
ENDBRANCH  29  31
ENDBRANCH  28  29
ENDBRANCH  27  28
ENDBRANCH  26  27
ENDBRANCH  25  26
ENDBRANCH   1  25
TORSDOF 17
ENDMDL
MODEL 2
REMARK VINA RESULT:     -10.9      2.265      4.231
REMARK SMILES C[C@@H]1CN(C(=O)C[NH+]2CCC(CC(=O)OCCOCCOC(=O)c3ccc(-c4c5nc(c(-c6c(F)cccc6F)c6ccc([nH]6)c(-c6c(F)cccc6F)c6nc(c(-c7c(F)cccc7F)c7ccc4[nH]7)C=C6)C=C5)cc3)CC2)C[C@@H](C)O1
REMARK SMILES IDX 17 1 16 2 15 3 13 4 14 5 12 6 11 7 8 8 9 9 79 10 10 12 78 13
REMARK SMILES IDX 7 14 5 15 1 16 2 17 3 18 83 19 4 20 81 21 80 22 82 23 6 24
REMARK SMILES IDX 18 25 19 26 20 27 21 28 22 29 23 30 24 31 25 32 77 33 26 34
REMARK SMILES IDX 76 35 27 36 28 37 29 38 70 39 30 40 75 41 69 42 71 43 31 44
REMARK SMILES IDX 74 45 68 46 67 47 32 49 58 50 41 51 57 52 42 53 45 54 56 55
REMARK SMILES IDX 72 56 43 57 44 58 55 60 73 61 46 62 33 63 34 64 39 65 35 66
REMARK SMILES IDX 36 67 38 68 40 69 37 70 59 71 60 72 65 73 61 74 62 75 64 76
REMARK SMILES IDX 66 77 63 78 47 79 48 80 53 81 49 82 50 83 52 84 54 85 51 86
REMARK H PARENT 8 11 71 48 45 59
REMARK Flexibility Score: inf
ROOT
ATOM      1  C   UNL A   1      41.361  21.098  27.209  1.00  0.00     0.202 C 
ENDROOT
BRANCH   1   2
ATOM      2  C   UNL A   1      40.256  21.547  26.252  1.00  0.00     0.261 C 
BRANCH   2   3
ATOM      3  O   UNL A   1      39.330  22.379  26.963  1.00  0.00    -0.463 OA
BRANCH   3   4
ATOM      4  C   UNL A   1      38.621  23.241  26.202  1.00  0.00     0.306 C 
ATOM      5  O   UNL A   1      38.798  24.451  26.142  1.00  0.00    -0.252 OA
BRANCH   4   6
ATOM      6  C   UNL A   1      37.600  22.541  25.341  1.00  0.00     0.126 C 
BRANCH   6   7
ATOM      7  C   UNL A   1      36.318  23.330  24.940  1.00  0.00     0.011 C 
ATOM      8  N   UNL A   1      33.796  21.929  24.471  1.00  0.00    -0.327 N 
ATOM      9  C   UNL A   1      33.833  22.823  25.617  1.00  0.00     0.262 C 
ATOM     10  C   UNL A   1      34.379  22.676  23.345  1.00  0.00     0.262 C 
ATOM     11  H   UNL A   1      32.827  21.665  24.293  1.00  0.00     0.348 HD
ATOM     12  C   UNL A   1      35.247  23.188  26.041  1.00  0.00     0.066 C 
ATOM     13  C   UNL A   1      35.872  22.962  23.510  1.00  0.00     0.066 C 
BRANCH   8  14
ATOM     14  C   UNL A   1      34.440  20.599  24.669  1.00  0.00     0.363 C 
BRANCH  14  15
ATOM     15  C   UNL A   1      33.572  19.524  25.380  1.00  0.00     0.277 C 
ATOM     16  C   UNL A   1      35.822  16.569  25.584  1.00  0.00     0.040 C 
ATOM     17  C   UNL A   1      34.902  16.381  24.373  1.00  0.00     0.135 C 
ATOM     18  C   UNL A   1      34.205  17.629  23.772  1.00  0.00     0.151 C 
ATOM     19  O   UNL A   1      33.871  15.448  24.740  1.00  0.00    -0.372 OA
ATOM     20  N   UNL A   1      33.384  18.273  24.786  1.00  0.00    -0.333 N 
ATOM     21  C   UNL A   1      32.931  15.986  25.697  1.00  0.00     0.135 C 
ATOM     22  C   UNL A   1      32.345  17.355  25.273  1.00  0.00     0.151 C 
ATOM     23  C   UNL A   1      31.847  14.927  25.813  1.00  0.00     0.040 C 
ATOM     24  O   UNL A   1      32.975  19.812  26.423  1.00  0.00    -0.268 OA
ENDBRANCH  14  15
ENDBRANCH   8  14
ENDBRANCH   6   7
ENDBRANCH   4   6
ENDBRANCH   3   4
ENDBRANCH   2   3
ENDBRANCH   1   2
BRANCH   1  25
ATOM     25  O   UNL A   1      42.305  20.157  26.701  1.00  0.00    -0.374 OA
BRANCH  25  26
ATOM     26  C   UNL A   1      43.160  20.554  25.630  1.00  0.00     0.202 C 
BRANCH  26  27
ATOM     27  C   UNL A   1      43.974  21.846  25.818  1.00  0.00     0.261 C 
BRANCH  27  28
ATOM     28  O   UNL A   1      43.448  22.954  25.057  1.00  0.00    -0.460 OA
BRANCH  28  29
ATOM     29  C   UNL A   1      44.100  24.126  25.220  1.00  0.00     0.338 C 
ATOM     30  O   UNL A   1      45.103  24.502  24.626  1.00  0.00    -0.246 OA
BRANCH  29  31
ATOM     31  C   UNL A   1      43.311  25.036  26.073  1.00  0.00     0.060 A 
ATOM     32  C   UNL A   1      43.813  26.332  26.257  1.00  0.00     0.016 A 
ATOM     33  C   UNL A   1      42.165  24.620  26.752  1.00  0.00     0.016 A 
ATOM     34  C   UNL A   1      43.211  27.195  27.166  1.00  0.00     0.010 A 
ATOM     35  C   UNL A   1      41.565  25.487  27.674  1.00  0.00     0.010 A 
ATOM     36  C   UNL A   1      42.113  26.762  27.919  1.00  0.00    -0.014 A 
BRANCH  36  37
ATOM     37  C   UNL A   1      41.658  27.587  29.066  1.00  0.00     0.031 A 
ATOM     38  C   UNL A   1      42.399  27.500  30.373  1.00  0.00     0.074 A 
ATOM     39  C   UNL A   1      40.640  28.455  28.934  1.00  0.00     0.049 A 
ATOM     40  N   UNL A   1      42.177  28.128  31.500  1.00  0.00    -0.248 NA
ATOM     41  C   UNL A   1      43.545  26.579  30.413  1.00  0.00     0.031 C 
ATOM     42  C   UNL A   1      39.870  28.669  27.711  1.00  0.00     0.029 A 
ATOM     43  N   UNL A   1      40.078  29.315  29.844  1.00  0.00    -0.354 N 
ATOM     44  C   UNL A   1      43.148  27.672  32.384  1.00  0.00     0.074 A 
ATOM     45  C   UNL A   1      43.933  26.687  31.674  1.00  0.00     0.031 C 
ATOM     46  C   UNL A   1      38.925  29.593  27.951  1.00  0.00     0.029 A 
ATOM     47  C   UNL A   1      39.003  30.009  29.351  1.00  0.00     0.049 A 
ATOM     48  H   UNL A   1      40.416  29.423  30.763  1.00  0.00     0.167 HD
ATOM     49  C   UNL A   1      43.373  28.047  33.667  1.00  0.00     0.037 A 
ATOM     50  C   UNL A   1      38.160  30.863  29.964  1.00  0.00     0.037 A 
ATOM     51  C   UNL A   1      42.584  29.023  34.375  1.00  0.00     0.049 A 
ATOM     52  C   UNL A   1      38.377  31.213  31.411  1.00  0.00     0.074 A 
ATOM     53  C   UNL A   1      42.744  29.486  35.669  1.00  0.00     0.029 A 
ATOM     54  N   UNL A   1      41.477  29.676  33.853  1.00  0.00    -0.354 N 
ATOM     55  N   UNL A   1      39.312  30.796  32.231  1.00  0.00    -0.248 NA
ATOM     56  C   UNL A   1      37.425  32.155  32.016  1.00  0.00     0.031 C 
ATOM     57  C   UNL A   1      41.695  30.370  35.951  1.00  0.00     0.029 A 
ATOM     58  C   UNL A   1      40.922  30.511  34.810  1.00  0.00     0.049 A 
ATOM     59  H   UNL A   1      41.136  29.563  32.936  1.00  0.00     0.167 HD
ATOM     60  C   UNL A   1      39.076  31.442  33.440  1.00  0.00     0.074 A 
ATOM     61  C   UNL A   1      37.918  32.288  33.240  1.00  0.00     0.031 C 
ATOM     62  C   UNL A   1      39.762  31.344  34.606  1.00  0.00     0.037 A 
BRANCH  49  63
ATOM     63  C   UNL A   1      44.493  27.360  34.396  1.00  0.00     0.057 A 
ATOM     64  C   UNL A   1      45.793  27.883  34.433  1.00  0.00     0.134 A 
ATOM     65  C   UNL A   1      44.270  26.150  35.065  1.00  0.00     0.134 A 
ATOM     66  F   UNL A   1      46.081  29.032  33.802  1.00  0.00    -0.206 F 
ATOM     67  C   UNL A   1      46.837  27.208  35.070  1.00  0.00     0.040 A 
ATOM     68  C   UNL A   1      45.296  25.482  35.734  1.00  0.00     0.040 A 
ATOM     69  F   UNL A   1      43.049  25.594  35.080  1.00  0.00    -0.206 F 
ATOM     70  C   UNL A   1      46.588  26.005  35.727  1.00  0.00     0.006 A 
ENDBRANCH  49  63
BRANCH  50  71
ATOM     71  C   UNL A   1      37.019  31.430  29.202  1.00  0.00     0.057 A 
ATOM     72  C   UNL A   1      35.862  30.684  28.954  1.00  0.00     0.134 A 
ATOM     73  C   UNL A   1      37.055  32.746  28.720  1.00  0.00     0.134 A 
ATOM     74  F   UNL A   1      35.778  29.413  29.370  1.00  0.00    -0.206 F 
ATOM     75  C   UNL A   1      34.782  31.224  28.253  1.00  0.00     0.040 A 
ATOM     76  C   UNL A   1      35.973  33.306  28.041  1.00  0.00     0.040 A 
ATOM     77  F   UNL A   1      38.135  33.514  28.928  1.00  0.00    -0.206 F 
ATOM     78  C   UNL A   1      34.833  32.543  27.803  1.00  0.00     0.006 A 
ENDBRANCH  50  71
BRANCH  62  79
ATOM     79  C   UNL A   1      39.296  32.194  35.756  1.00  0.00     0.057 A 
ATOM     80  C   UNL A   1      39.746  33.509  35.941  1.00  0.00     0.134 A 
ATOM     81  C   UNL A   1      38.353  31.704  36.669  1.00  0.00     0.134 A 
ATOM     82  F   UNL A   1      40.658  34.038  35.112  1.00  0.00    -0.206 F 
ATOM     83  C   UNL A   1      39.294  34.292  37.005  1.00  0.00     0.040 A 
ATOM     84  C   UNL A   1      37.870  32.488  37.718  1.00  0.00     0.040 A 
ATOM     85  F   UNL A   1      37.870  30.457  36.547  1.00  0.00    -0.206 F 
ATOM     86  C   UNL A   1      38.347  33.785  37.892  1.00  0.00     0.006 A 
ENDBRANCH  62  79
ENDBRANCH  36  37
ENDBRANCH  29  31
ENDBRANCH  28  29
ENDBRANCH  27  28
ENDBRANCH  26  27
ENDBRANCH  25  26
ENDBRANCH   1  25
TORSDOF 17
ENDMDL
MODEL 3
REMARK VINA RESULT:     -10.6      4.336      9.810
REMARK SMILES C[C@@H]1CN(C(=O)C[NH+]2CCC(CC(=O)OCCOCCOC(=O)c3ccc(-c4c5nc(c(-c6c(F)cccc6F)c6ccc([nH]6)c(-c6c(F)cccc6F)c6nc(c(-c7c(F)cccc7F)c7ccc4[nH]7)C=C6)C=C5)cc3)CC2)C[C@@H](C)O1
REMARK SMILES IDX 17 1 16 2 15 3 13 4 14 5 12 6 11 7 8 8 9 9 79 10 10 12 78 13
REMARK SMILES IDX 7 14 5 15 1 16 2 17 3 18 83 19 4 20 81 21 80 22 82 23 6 24
REMARK SMILES IDX 18 25 19 26 20 27 21 28 22 29 23 30 24 31 25 32 77 33 26 34
REMARK SMILES IDX 76 35 27 36 28 37 29 38 70 39 30 40 75 41 69 42 71 43 31 44
REMARK SMILES IDX 74 45 68 46 67 47 32 49 58 50 41 51 57 52 42 53 45 54 56 55
REMARK SMILES IDX 72 56 43 57 44 58 55 60 73 61 46 62 33 63 34 64 39 65 35 66
REMARK SMILES IDX 36 67 38 68 40 69 37 70 59 71 60 72 65 73 61 74 62 75 64 76
REMARK SMILES IDX 66 77 63 78 47 79 48 80 53 81 49 82 50 83 52 84 54 85 51 86
REMARK H PARENT 8 11 71 48 45 59
REMARK Flexibility Score: inf
ROOT
ATOM      1  C   UNL A   1      33.816  32.985  28.384  1.00  0.00     0.202 C 
ENDROOT
BRANCH   1   2
ATOM      2  C   UNL A   1      34.442  31.641  28.011  1.00  0.00     0.261 C 
BRANCH   2   3
ATOM      3  O   UNL A   1      33.481  30.862  27.286  1.00  0.00    -0.463 OA
BRANCH   3   4
ATOM      4  C   UNL A   1      33.943  29.699  26.774  1.00  0.00     0.306 C 
ATOM      5  O   UNL A   1      34.793  28.982  27.288  1.00  0.00    -0.252 OA
BRANCH   4   6
ATOM      6  C   UNL A   1      33.234  29.311  25.502  1.00  0.00     0.126 C 
BRANCH   6   7
ATOM      7  C   UNL A   1      31.758  28.823  25.608  1.00  0.00     0.011 C 
ATOM      8  N   UNL A   1      30.952  26.264  24.447  1.00  0.00    -0.327 N 
ATOM      9  C   UNL A   1      30.889  26.362  25.896  1.00  0.00     0.262 C 
ATOM     10  C   UNL A   1      30.312  27.481  23.922  1.00  0.00     0.262 C 
ATOM     11  H   UNL A   1      30.461  25.420  24.154  1.00  0.00     0.348 HD
ATOM     12  C   UNL A   1      31.690  27.530  26.448  1.00  0.00     0.066 C 
ATOM     13  C   UNL A   1      31.100  28.759  24.215  1.00  0.00     0.066 C 
BRANCH   8  14
ATOM     14  C   UNL A   1      32.309  26.039  23.873  1.00  0.00     0.363 C 
BRANCH  14  15
ATOM     15  C   UNL A   1      32.711  24.556  23.641  1.00  0.00     0.277 C 
ATOM     16  C   UNL A   1      32.174  22.968  26.961  1.00  0.00     0.040 C 
ATOM     17  C   UNL A   1      33.664  23.299  26.830  1.00  0.00     0.135 C 
ATOM     18  C   UNL A   1      34.097  24.363  25.790  1.00  0.00     0.151 C 
ATOM     19  O   UNL A   1      34.362  22.081  26.515  1.00  0.00    -0.372 OA
ATOM     20  N   UNL A   1      33.672  23.957  24.459  1.00  0.00    -0.333 N 
ATOM     21  C   UNL A   1      34.086  21.596  25.182  1.00  0.00     0.135 C 
ATOM     22  C   UNL A   1      34.285  22.674  24.087  1.00  0.00     0.151 C 
ATOM     23  C   UNL A   1      35.037  20.426  24.990  1.00  0.00     0.040 C 
ATOM     24  O   UNL A   1      32.247  23.942  22.675  1.00  0.00    -0.268 OA
ENDBRANCH  14  15
ENDBRANCH   8  14
ENDBRANCH   6   7
ENDBRANCH   4   6
ENDBRANCH   3   4
ENDBRANCH   2   3
ENDBRANCH   1   2
BRANCH   1  25
ATOM     25  O   UNL A   1      34.633  33.888  29.125  1.00  0.00    -0.374 OA
BRANCH  25  26
ATOM     26  C   UNL A   1      34.057  34.580  30.234  1.00  0.00     0.202 C 
BRANCH  26  27
ATOM     27  C   UNL A   1      34.462  34.116  31.644  1.00  0.00     0.261 C 
BRANCH  27  28
ATOM     28  O   UNL A   1      35.864  33.789  31.743  1.00  0.00    -0.460 OA
BRANCH  28  29
ATOM     29  C   UNL A   1      36.150  32.692  32.478  1.00  0.00     0.338 C 
ATOM     30  O   UNL A   1      35.597  32.331  33.510  1.00  0.00    -0.246 OA
BRANCH  29  31
ATOM     31  C   UNL A   1      37.096  31.822  31.755  1.00  0.00     0.060 A 
ATOM     32  C   UNL A   1      38.168  31.295  32.489  1.00  0.00     0.016 A 
ATOM     33  C   UNL A   1      37.003  31.595  30.380  1.00  0.00     0.016 A 
ATOM     34  C   UNL A   1      39.183  30.596  31.846  1.00  0.00     0.010 A 
ATOM     35  C   UNL A   1      38.031  30.898  29.732  1.00  0.00     0.010 A 
ATOM     36  C   UNL A   1      39.148  30.435  30.456  1.00  0.00    -0.014 A 
BRANCH  36  37
ATOM     37  C   UNL A   1      40.359  29.931  29.761  1.00  0.00     0.031 A 
ATOM     38  C   UNL A   1      41.518  30.864  29.535  1.00  0.00     0.074 A 
ATOM     39  C   UNL A   1      40.460  28.643  29.391  1.00  0.00     0.049 A 
ATOM     40  N   UNL A   1      42.668  30.639  28.953  1.00  0.00    -0.248 NA
ATOM     41  C   UNL A   1      41.354  32.239  30.031  1.00  0.00     0.031 C 
ATOM     42  C   UNL A   1      39.430  27.626  29.594  1.00  0.00     0.029 A 
ATOM     43  N   UNL A   1      41.481  27.972  28.765  1.00  0.00    -0.354 N 
ATOM     44  C   UNL A   1      43.362  31.842  29.006  1.00  0.00     0.074 A 
ATOM     45  C   UNL A   1      42.486  32.803  29.640  1.00  0.00     0.031 C 
ATOM     46  C   UNL A   1      39.867  26.461  29.088  1.00  0.00     0.029 A 
ATOM     47  C   UNL A   1      41.190  26.659  28.497  1.00  0.00     0.049 A 
ATOM     48  H   UNL A   1      42.339  28.395  28.531  1.00  0.00     0.167 HD
ATOM     49  C   UNL A   1      44.617  32.120  28.576  1.00  0.00     0.037 A 
ATOM     50  C   UNL A   1      41.899  25.727  27.829  1.00  0.00     0.037 A 
ATOM     51  C   UNL A   1      45.484  31.163  27.937  1.00  0.00     0.049 A 
ATOM     52  C   UNL A   1      43.261  26.072  27.291  1.00  0.00     0.074 A 
ATOM     53  C   UNL A   1      46.779  31.342  27.484  1.00  0.00     0.029 A 
ATOM     54  N   UNL A   1      45.138  29.851  27.648  1.00  0.00    -0.354 N 
ATOM     55  N   UNL A   1      43.917  27.205  27.368  1.00  0.00    -0.248 NA
ATOM     56  C   UNL A   1      43.982  25.009  26.578  1.00  0.00     0.031 C 
ATOM     57  C   UNL A   1      47.193  30.157  26.863  1.00  0.00     0.029 A 
ATOM     58  C   UNL A   1      46.182  29.218  26.990  1.00  0.00     0.049 A 
ATOM     59  H   UNL A   1      44.278  29.431  27.877  1.00  0.00     0.167 HD
ATOM     60  C   UNL A   1      45.136  26.984  26.736  1.00  0.00     0.074 A 
ATOM     61  C   UNL A   1      45.131  25.605  26.294  1.00  0.00     0.031 C 
ATOM     62  C   UNL A   1      46.166  27.846  26.545  1.00  0.00     0.037 A 
BRANCH  49  63
ATOM     63  C   UNL A   1      45.102  33.533  28.745  1.00  0.00     0.057 A 
ATOM     64  C   UNL A   1      44.841  34.532  27.797  1.00  0.00     0.134 A 
ATOM     65  C   UNL A   1      45.850  33.897  29.872  1.00  0.00     0.134 A 
ATOM     66  F   UNL A   1      44.142  34.250  26.687  1.00  0.00    -0.206 F 
ATOM     67  C   UNL A   1      45.342  35.827  27.942  1.00  0.00     0.040 A 
ATOM     68  C   UNL A   1      46.328  35.197  30.046  1.00  0.00     0.040 A 
ATOM     69  F   UNL A   1      46.131  32.995  30.825  1.00  0.00    -0.206 F 
ATOM     70  C   UNL A   1      46.085  36.163  29.072  1.00  0.00     0.006 A 
ENDBRANCH  49  63
BRANCH  50  71
ATOM     71  C   UNL A   1      41.312  24.380  27.620  1.00  0.00     0.057 A 
ATOM     72  C   UNL A   1      41.726  23.276  28.374  1.00  0.00     0.134 A 
ATOM     73  C   UNL A   1      40.303  24.171  26.670  1.00  0.00     0.134 A 
ATOM     74  F   UNL A   1      42.702  23.408  29.282  1.00  0.00    -0.206 F 
ATOM     75  C   UNL A   1      41.159  22.013  28.190  1.00  0.00     0.040 A 
ATOM     76  C   UNL A   1      39.711  22.921  26.494  1.00  0.00     0.040 A 
ATOM     77  F   UNL A   1      39.860  25.190  25.918  1.00  0.00    -0.206 F 
ATOM     78  C   UNL A   1      40.142  21.836  27.253  1.00  0.00     0.006 A 
ENDBRANCH  50  71
BRANCH  62  79
ATOM     79  C   UNL A   1      47.390  27.319  25.849  1.00  0.00     0.057 A 
ATOM     80  C   UNL A   1      47.558  27.419  24.460  1.00  0.00     0.134 A 
ATOM     81  C   UNL A   1      48.434  26.739  26.582  1.00  0.00     0.134 A 
ATOM     82  F   UNL A   1      46.594  27.951  23.695  1.00  0.00    -0.206 F 
ATOM     83  C   UNL A   1      48.707  26.939  23.828  1.00  0.00     0.040 A 
ATOM     84  C   UNL A   1      49.600  26.285  25.965  1.00  0.00     0.040 A 
ATOM     85  F   UNL A   1      48.345  26.621  27.916  1.00  0.00    -0.206 F 
ATOM     86  C   UNL A   1      49.736  26.377  24.581  1.00  0.00     0.006 A 
ENDBRANCH  62  79
ENDBRANCH  36  37
ENDBRANCH  29  31
ENDBRANCH  28  29
ENDBRANCH  27  28
ENDBRANCH  26  27
ENDBRANCH  25  26
ENDBRANCH   1  25
TORSDOF 17
ENDMDL
