MODEL 1
REMARK VINA RESULT:      -9.4      0.000      0.000
REMARK SMILES CCn1ccnc1[C@H](F)C(=O)OCCOCCOC(=O)c1ccc(-c2c3nc(c(-c4c(F)cccc4F)c4ccc([nH]4)c(-c4c(F)cccc4F)c4nc(c(-c5c(F)cccc5F)c5ccc2[nH]5)C=C4)C=C3)cc1
REMARK SMILES IDX 15 1 14 2 13 3 12 4 10 5 11 6 8 7 9 8 7 9 3 10 4 11 5 12
REMARK SMILES IDX 6 13 2 14 1 15 16 16 17 17 18 18 19 19 20 20 21 21 22 22
REMARK SMILES IDX 74 23 23 24 73 25 24 26 25 27 26 28 67 29 27 30 72 31 66 32
REMARK SMILES IDX 68 33 28 34 71 35 65 36 64 37 29 39 55 40 38 41 54 42 39 43
REMARK SMILES IDX 42 44 53 45 69 46 40 47 41 48 52 50 70 51 43 52 30 53 31 54
REMARK SMILES IDX 36 55 32 56 33 57 35 58 37 59 34 60 56 61 57 62 62 63 58 64
REMARK SMILES IDX 59 65 61 66 63 67 60 68 44 69 45 70 50 71 46 72 47 73 49 74
REMARK SMILES IDX 51 75 48 76
REMARK H PARENT 68 38 42 49
REMARK Flexibility Score: inf
ROOT
ATOM      1  O   UNL A   1      36.966  33.447  32.784  1.00  0.00    -0.374 OA
ENDROOT
BRANCH   1   2
ATOM      2  C   UNL A   1      35.940  33.301  33.764  1.00  0.00     0.202 C 
BRANCH   2   3
ATOM      3  C   UNL A   1      34.871  34.384  33.872  1.00  0.00     0.261 C 
BRANCH   3   4
ATOM      4  O   UNL A   1      35.286  35.599  33.239  1.00  0.00    -0.461 OA
BRANCH   4   5
ATOM      5  C   UNL A   1      34.269  36.410  32.843  1.00  0.00     0.348 C 
ATOM      6  O   UNL A   1      34.317  37.637  32.873  1.00  0.00    -0.248 OA
BRANCH   5   7
ATOM      7  C   UNL A   1      33.101  35.634  32.262  1.00  0.00     0.341 C 
ATOM      8  F   UNL A   1      31.887  36.113  32.687  1.00  0.00    -0.226 F 
BRANCH   7   9
ATOM      9  C   UNL A   1      33.227  35.690  30.778  1.00  0.00     0.155 A 
ATOM     10  N   UNL A   1      33.857  34.747  29.986  1.00  0.00    -0.332 N 
ATOM     11  C   UNL A   1      33.960  35.293  28.728  1.00  0.00     0.107 A 
ATOM     12  C   UNL A   1      33.296  36.490  28.784  1.00  0.00     0.131 A 
ATOM     13  N   UNL A   1      32.825  36.713  30.041  1.00  0.00    -0.238 NA
BRANCH  10  14
ATOM     14  C   UNL A   1      34.463  33.469  30.329  1.00  0.00     0.120 C 
ATOM     15  C   UNL A   1      34.736  32.502  29.188  1.00  0.00     0.027 C 
ENDBRANCH  10  14
ENDBRANCH   7   9
ENDBRANCH   5   7
ENDBRANCH   4   5
ENDBRANCH   3   4
ENDBRANCH   2   3
ENDBRANCH   1   2
BRANCH   1  16
ATOM     16  C   UNL A   1      38.177  32.706  32.864  1.00  0.00     0.202 C 
BRANCH  16  17
ATOM     17  C   UNL A   1      38.279  31.356  32.170  1.00  0.00     0.261 C 
BRANCH  17  18
ATOM     18  O   UNL A   1      37.461  31.262  31.017  1.00  0.00    -0.460 OA
BRANCH  18  19
ATOM     19  C   UNL A   1      36.994  30.012  30.803  1.00  0.00     0.338 C 
ATOM     20  O   UNL A   1      35.997  29.506  31.287  1.00  0.00    -0.246 OA
BRANCH  19  21
ATOM     21  C   UNL A   1      37.987  29.252  30.042  1.00  0.00     0.060 A 
ATOM     22  C   UNL A   1      38.590  28.194  30.724  1.00  0.00     0.016 A 
ATOM     23  C   UNL A   1      38.529  29.799  28.870  1.00  0.00     0.016 A 
ATOM     24  C   UNL A   1      39.864  27.834  30.359  1.00  0.00     0.010 A 
ATOM     25  C   UNL A   1      39.810  29.452  28.521  1.00  0.00     0.010 A 
ATOM     26  C   UNL A   1      40.487  28.537  29.321  1.00  0.00    -0.014 A 
BRANCH  26  27
ATOM     27  C   UNL A   1      41.847  28.175  28.997  1.00  0.00     0.031 A 
ATOM     28  C   UNL A   1      41.913  26.875  28.297  1.00  0.00     0.074 A 
ATOM     29  C   UNL A   1      42.894  28.984  29.238  1.00  0.00     0.049 A 
ATOM     30  N   UNL A   1      42.373  25.763  28.759  1.00  0.00    -0.248 NA
ATOM     31  C   UNL A   1      41.189  26.749  27.020  1.00  0.00     0.031 C 
ATOM     32  C   UNL A   1      42.883  30.380  29.677  1.00  0.00     0.029 A 
ATOM     33  N   UNL A   1      44.217  28.736  29.047  1.00  0.00    -0.354 N 
ATOM     34  C   UNL A   1      42.198  24.843  27.733  1.00  0.00     0.074 A 
ATOM     35  C   UNL A   1      41.286  25.439  26.795  1.00  0.00     0.031 C 
ATOM     36  C   UNL A   1      44.114  30.914  29.495  1.00  0.00     0.029 A 
ATOM     37  C   UNL A   1      45.021  29.869  29.053  1.00  0.00     0.049 A 
ATOM     38  H   UNL A   1      44.575  27.828  28.915  1.00  0.00     0.167 HD
ATOM     39  C   UNL A   1      43.048  23.792  27.595  1.00  0.00     0.037 A 
ATOM     40  C   UNL A   1      46.314  29.924  28.642  1.00  0.00     0.037 A 
ATOM     41  C   UNL A   1      43.778  23.550  28.813  1.00  0.00     0.049 A 
ATOM     42  C   UNL A   1      46.835  28.531  28.633  1.00  0.00     0.074 A 
ATOM     43  C   UNL A   1      43.430  23.214  30.105  1.00  0.00     0.029 A 
ATOM     44  N   UNL A   1      45.063  24.031  28.877  1.00  0.00    -0.354 N 
ATOM     45  N   UNL A   1      47.051  27.831  29.710  1.00  0.00    -0.248 NA
ATOM     46  C   UNL A   1      46.679  27.760  27.409  1.00  0.00     0.031 C 
ATOM     47  C   UNL A   1      44.346  23.924  30.935  1.00  0.00     0.029 A 
ATOM     48  C   UNL A   1      45.242  24.602  30.108  1.00  0.00     0.049 A 
ATOM     49  H   UNL A   1      45.737  23.974  28.162  1.00  0.00     0.167 HD
ATOM     50  C   UNL A   1      46.618  26.551  29.390  1.00  0.00     0.074 A 
ATOM     51  C   UNL A   1      46.487  26.547  27.934  1.00  0.00     0.031 C 
ATOM     52  C   UNL A   1      46.128  25.717  30.353  1.00  0.00     0.037 A 
BRANCH  39  53
ATOM     53  C   UNL A   1      43.516  23.281  26.257  1.00  0.00     0.057 A 
ATOM     54  C   UNL A   1      43.428  21.906  25.987  1.00  0.00     0.134 A 
ATOM     55  C   UNL A   1      44.311  24.022  25.356  1.00  0.00     0.134 A 
ATOM     56  F   UNL A   1      42.722  21.092  26.786  1.00  0.00    -0.206 F 
ATOM     57  C   UNL A   1      44.135  21.304  24.940  1.00  0.00     0.040 A 
ATOM     58  C   UNL A   1      44.975  23.439  24.276  1.00  0.00     0.040 A 
ATOM     59  F   UNL A   1      44.581  25.321  25.527  1.00  0.00    -0.206 F 
ATOM     60  C   UNL A   1      44.916  22.071  24.083  1.00  0.00     0.006 A 
ENDBRANCH  39  53
BRANCH  40  61
ATOM     61  C   UNL A   1      47.027  31.024  27.951  1.00  0.00     0.057 A 
ATOM     62  C   UNL A   1      46.438  31.702  26.872  1.00  0.00     0.134 A 
ATOM     63  C   UNL A   1      48.166  31.631  28.509  1.00  0.00     0.134 A 
ATOM     64  F   UNL A   1      45.324  31.228  26.296  1.00  0.00    -0.206 F 
ATOM     65  C   UNL A   1      46.933  32.925  26.398  1.00  0.00     0.040 A 
ATOM     66  C   UNL A   1      48.673  32.847  28.041  1.00  0.00     0.040 A 
ATOM     67  F   UNL A   1      48.770  31.112  29.587  1.00  0.00    -0.206 F 
ATOM     68  C   UNL A   1      48.047  33.508  26.991  1.00  0.00     0.006 A 
ENDBRANCH  40  61
BRANCH  52  69
ATOM     69  C   UNL A   1      46.335  26.110  31.791  1.00  0.00     0.057 A 
ATOM     70  C   UNL A   1      47.519  25.888  32.512  1.00  0.00     0.134 A 
ATOM     71  C   UNL A   1      45.346  26.874  32.420  1.00  0.00     0.134 A 
ATOM     72  F   UNL A   1      48.560  25.250  31.960  1.00  0.00    -0.206 F 
ATOM     73  C   UNL A   1      47.690  26.373  33.813  1.00  0.00     0.040 A 
ATOM     74  C   UNL A   1      45.519  27.394  33.703  1.00  0.00     0.040 A 
ATOM     75  F   UNL A   1      44.208  27.171  31.771  1.00  0.00    -0.206 F 
ATOM     76  C   UNL A   1      46.690  27.136  34.409  1.00  0.00     0.006 A 
ENDBRANCH  52  69
ENDBRANCH  26  27
ENDBRANCH  19  21
ENDBRANCH  18  19
ENDBRANCH  17  18
ENDBRANCH  16  17
ENDBRANCH   1  16
TORSDOF 16
ENDMDL
MODEL 2
REMARK VINA RESULT:      -9.3      4.468     10.725
REMARK SMILES CCn1ccnc1[C@H](F)C(=O)OCCOCCOC(=O)c1ccc(-c2c3nc(c(-c4c(F)cccc4F)c4ccc([nH]4)c(-c4c(F)cccc4F)c4nc(c(-c5c(F)cccc5F)c5ccc2[nH]5)C=C4)C=C3)cc1
REMARK SMILES IDX 15 1 14 2 13 3 12 4 10 5 11 6 8 7 9 8 7 9 3 10 4 11 5 12
REMARK SMILES IDX 6 13 2 14 1 15 16 16 17 17 18 18 19 19 20 20 21 21 22 22
REMARK SMILES IDX 74 23 23 24 73 25 24 26 25 27 26 28 67 29 27 30 72 31 66 32
REMARK SMILES IDX 68 33 28 34 71 35 65 36 64 37 29 39 55 40 38 41 54 42 39 43
REMARK SMILES IDX 42 44 53 45 69 46 40 47 41 48 52 50 70 51 43 52 30 53 31 54
REMARK SMILES IDX 36 55 32 56 33 57 35 58 37 59 34 60 56 61 57 62 62 63 58 64
REMARK SMILES IDX 59 65 61 66 63 67 60 68 44 69 45 70 50 71 46 72 47 73 49 74
REMARK SMILES IDX 51 75 48 76
REMARK H PARENT 68 38 42 49
REMARK Flexibility Score: inf
ROOT
ATOM      1  O   UNL A   1      43.388  20.007  26.044  1.00  0.00    -0.374 OA
ENDROOT
BRANCH   1   2
ATOM      2  C   UNL A   1      44.252  19.649  24.967  1.00  0.00     0.202 C 
BRANCH   2   3
ATOM      3  C   UNL A   1      45.082  20.742  24.300  1.00  0.00     0.261 C 
BRANCH   3   4
ATOM      4  O   UNL A   1      44.259  21.809  23.817  1.00  0.00    -0.461 OA
BRANCH   4   5
ATOM      5  C   UNL A   1      44.430  22.995  24.458  1.00  0.00     0.348 C 
ATOM      6  O   UNL A   1      43.547  23.840  24.588  1.00  0.00    -0.248 OA
BRANCH   5   7
ATOM      7  C   UNL A   1      45.804  23.121  25.088  1.00  0.00     0.341 C 
ATOM      8  F   UNL A   1      46.723  23.686  24.239  1.00  0.00    -0.226 F 
BRANCH   7   9
ATOM      9  C   UNL A   1      45.648  23.918  26.338  1.00  0.00     0.155 A 
ATOM     10  N   UNL A   1      45.819  25.286  26.449  1.00  0.00    -0.332 N 
ATOM     11  C   UNL A   1      45.823  25.576  27.793  1.00  0.00     0.107 A 
ATOM     12  C   UNL A   1      45.549  24.395  28.432  1.00  0.00     0.131 A 
ATOM     13  N   UNL A   1      45.415  23.387  27.528  1.00  0.00    -0.238 NA
BRANCH  10  14
ATOM     14  C   UNL A   1      46.094  26.295  25.437  1.00  0.00     0.120 C 
ATOM     15  C   UNL A   1      46.901  27.509  25.869  1.00  0.00     0.027 C 
ENDBRANCH  10  14
ENDBRANCH   7   9
ENDBRANCH   5   7
ENDBRANCH   4   5
ENDBRANCH   3   4
ENDBRANCH   2   3
ENDBRANCH   1   2
BRANCH   1  16
ATOM     16  C   UNL A   1      42.053  19.522  26.114  1.00  0.00     0.202 C 
BRANCH  16  17
ATOM     17  C   UNL A   1      40.923  20.479  26.468  1.00  0.00     0.261 C 
BRANCH  17  18
ATOM     18  O   UNL A   1      41.225  21.829  26.162  1.00  0.00    -0.460 OA
BRANCH  18  19
ATOM     19  C   UNL A   1      40.264  22.688  26.569  1.00  0.00     0.338 C 
ATOM     20  O   UNL A   1      39.064  22.484  26.611  1.00  0.00    -0.246 OA
BRANCH  19  21
ATOM     21  C   UNL A   1      40.858  24.011  26.771  1.00  0.00     0.060 A 
ATOM     22  C   UNL A   1      41.752  24.114  27.838  1.00  0.00     0.016 A 
ATOM     23  C   UNL A   1      40.272  25.133  26.169  1.00  0.00     0.016 A 
ATOM     24  C   UNL A   1      41.884  25.334  28.454  1.00  0.00     0.010 A 
ATOM     25  C   UNL A   1      40.388  26.347  26.799  1.00  0.00     0.010 A 
ATOM     26  C   UNL A   1      41.124  26.410  27.979  1.00  0.00    -0.014 A 
BRANCH  26  27
ATOM     27  C   UNL A   1      41.239  27.666  28.682  1.00  0.00     0.031 A 
ATOM     28  C   UNL A   1      42.456  28.403  28.285  1.00  0.00     0.074 A 
ATOM     29  C   UNL A   1      40.292  28.119  29.523  1.00  0.00     0.049 A 
ATOM     30  N   UNL A   1      43.512  28.607  28.998  1.00  0.00    -0.248 NA
ATOM     31  C   UNL A   1      42.603  28.767  26.865  1.00  0.00     0.031 C 
ATOM     32  C   UNL A   1      38.952  27.581  29.760  1.00  0.00     0.029 A 
ATOM     33  N   UNL A   1      40.311  29.240  30.292  1.00  0.00    -0.354 N 
ATOM     34  C   UNL A   1      44.370  29.328  28.177  1.00  0.00     0.074 A 
ATOM     35  C   UNL A   1      43.860  29.207  26.838  1.00  0.00     0.031 C 
ATOM     36  C   UNL A   1      38.216  28.499  30.431  1.00  0.00     0.029 A 
ATOM     37  C   UNL A   1      39.068  29.624  30.779  1.00  0.00     0.049 A 
ATOM     38  H   UNL A   1      41.137  29.738  30.488  1.00  0.00     0.167 HD
ATOM     39  C   UNL A   1      45.258  30.207  28.709  1.00  0.00     0.037 A 
ATOM     40  C   UNL A   1      38.777  30.821  31.349  1.00  0.00     0.037 A 
ATOM     41  C   UNL A   1      45.469  29.949  30.111  1.00  0.00     0.049 A 
ATOM     42  C   UNL A   1      40.063  31.434  31.773  1.00  0.00     0.074 A 
ATOM     43  C   UNL A   1      45.951  28.882  30.842  1.00  0.00     0.029 A 
ATOM     44  N   UNL A   1      44.795  30.748  31.001  1.00  0.00    -0.354 N 
ATOM     45  N   UNL A   1      40.797  30.979  32.748  1.00  0.00    -0.248 NA
ATOM     46  C   UNL A   1      40.757  32.278  30.812  1.00  0.00     0.031 C 
ATOM     47  C   UNL A   1      45.165  28.861  32.032  1.00  0.00     0.029 A 
ATOM     48  C   UNL A   1      44.294  29.951  31.995  1.00  0.00     0.049 A 
ATOM     49  H   UNL A   1      44.691  31.726  30.936  1.00  0.00     0.167 HD
ATOM     50  C   UNL A   1      42.103  31.098  32.291  1.00  0.00     0.074 A 
ATOM     51  C   UNL A   1      42.021  31.988  31.134  1.00  0.00     0.031 C 
ATOM     52  C   UNL A   1      43.072  30.234  32.712  1.00  0.00     0.037 A 
BRANCH  39  53
ATOM     53  C   UNL A   1      45.588  31.532  28.073  1.00  0.00     0.057 A 
ATOM     54  C   UNL A   1      44.556  32.463  27.870  1.00  0.00     0.134 A 
ATOM     55  C   UNL A   1      46.793  31.810  27.391  1.00  0.00     0.134 A 
ATOM     56  F   UNL A   1      43.356  32.294  28.443  1.00  0.00    -0.206 F 
ATOM     57  C   UNL A   1      44.692  33.549  26.998  1.00  0.00     0.040 A 
ATOM     58  C   UNL A   1      46.956  32.922  26.564  1.00  0.00     0.040 A 
ATOM     59  F   UNL A   1      47.837  30.975  27.396  1.00  0.00    -0.206 F 
ATOM     60  C   UNL A   1      45.894  33.779  26.338  1.00  0.00     0.006 A 
ENDBRANCH  39  53
BRANCH  40  61
ATOM     61  C   UNL A   1      37.529  31.617  31.265  1.00  0.00     0.057 A 
ATOM     62  C   UNL A   1      37.074  32.119  30.035  1.00  0.00     0.134 A 
ATOM     63  C   UNL A   1      36.604  31.655  32.323  1.00  0.00     0.134 A 
ATOM     64  F   UNL A   1      37.865  32.089  28.953  1.00  0.00    -0.206 F 
ATOM     65  C   UNL A   1      35.769  32.600  29.860  1.00  0.00     0.040 A 
ATOM     66  C   UNL A   1      35.302  32.139  32.163  1.00  0.00     0.040 A 
ATOM     67  F   UNL A   1      36.902  31.139  33.524  1.00  0.00    -0.206 F 
ATOM     68  C   UNL A   1      34.874  32.599  30.925  1.00  0.00     0.006 A 
ENDBRANCH  40  61
BRANCH  52  69
ATOM     69  C   UNL A   1      42.758  29.347  33.886  1.00  0.00     0.057 A 
ATOM     70  C   UNL A   1      42.892  29.730  35.229  1.00  0.00     0.134 A 
ATOM     71  C   UNL A   1      42.157  28.108  33.638  1.00  0.00     0.134 A 
ATOM     72  F   UNL A   1      43.369  30.936  35.564  1.00  0.00    -0.206 F 
ATOM     73  C   UNL A   1      42.482  28.897  36.277  1.00  0.00     0.040 A 
ATOM     74  C   UNL A   1      41.710  27.285  34.672  1.00  0.00     0.040 A 
ATOM     75  F   UNL A   1      41.947  27.699  32.376  1.00  0.00    -0.206 F 
ATOM     76  C   UNL A   1      41.880  27.673  35.998  1.00  0.00     0.006 A 
ENDBRANCH  52  69
ENDBRANCH  26  27
ENDBRANCH  19  21
ENDBRANCH  18  19
ENDBRANCH  17  18
ENDBRANCH  16  17
ENDBRANCH   1  16
TORSDOF 16
ENDMDL
MODEL 3
REMARK VINA RESULT:      -9.2      4.498     10.835
REMARK SMILES CCn1ccnc1[C@H](F)C(=O)OCCOCCOC(=O)c1ccc(-c2c3nc(c(-c4c(F)cccc4F)c4ccc([nH]4)c(-c4c(F)cccc4F)c4nc(c(-c5c(F)cccc5F)c5ccc2[nH]5)C=C4)C=C3)cc1
REMARK SMILES IDX 15 1 14 2 13 3 12 4 10 5 11 6 8 7 9 8 7 9 3 10 4 11 5 12
REMARK SMILES IDX 6 13 2 14 1 15 16 16 17 17 18 18 19 19 20 20 21 21 22 22
REMARK SMILES IDX 74 23 23 24 73 25 24 26 25 27 26 28 67 29 27 30 72 31 66 32
REMARK SMILES IDX 68 33 28 34 71 35 65 36 64 37 29 39 55 40 38 41 54 42 39 43
REMARK SMILES IDX 42 44 53 45 69 46 40 47 41 48 52 50 70 51 43 52 30 53 31 54
REMARK SMILES IDX 36 55 32 56 33 57 35 58 37 59 34 60 56 61 57 62 62 63 58 64
REMARK SMILES IDX 59 65 61 66 63 67 60 68 44 69 45 70 50 71 46 72 47 73 49 74
REMARK SMILES IDX 51 75 48 76
REMARK H PARENT 68 38 42 49
REMARK Flexibility Score: inf
ROOT
ATOM      1  O   UNL A   1      44.470  20.889  25.532  1.00  0.00    -0.374 OA
ENDROOT
BRANCH   1   2
ATOM      2  C   UNL A   1      44.968  21.383  24.289  1.00  0.00     0.202 C 
BRANCH   2   3
ATOM      3  C   UNL A   1      45.882  22.605  24.301  1.00  0.00     0.261 C 
BRANCH   3   4
ATOM      4  O   UNL A   1      45.134  23.824  24.250  1.00  0.00    -0.461 OA
BRANCH   4   5
ATOM      5  C   UNL A   1      45.076  24.505  25.425  1.00  0.00     0.348 C 
ATOM      6  O   UNL A   1      45.193  23.981  26.530  1.00  0.00    -0.248 OA
BRANCH   5   7
ATOM      7  C   UNL A   1      44.953  26.004  25.221  1.00  0.00     0.341 C 
ATOM      8  F   UNL A   1      44.231  26.614  26.216  1.00  0.00    -0.226 F 
BRANCH   7   9
ATOM      9  C   UNL A   1      46.336  26.553  25.130  1.00  0.00     0.155 A 
ATOM     10  N   UNL A   1      47.088  27.027  26.190  1.00  0.00    -0.332 N 
ATOM     11  C   UNL A   1      48.183  27.656  25.648  1.00  0.00     0.107 A 
ATOM     12  C   UNL A   1      48.106  27.445  24.296  1.00  0.00     0.131 A 
ATOM     13  N   UNL A   1      46.982  26.742  23.990  1.00  0.00    -0.238 NA
BRANCH  10  14
ATOM     14  C   UNL A   1      46.810  27.046  27.618  1.00  0.00     0.120 C 
ATOM     15  C   UNL A   1      47.325  28.238  28.409  1.00  0.00     0.027 C 
ENDBRANCH  10  14
ENDBRANCH   7   9
ENDBRANCH   5   7
ENDBRANCH   4   5
ENDBRANCH   3   4
ENDBRANCH   2   3
ENDBRANCH   1   2
BRANCH   1  16
ATOM     16  C   UNL A   1      43.212  20.231  25.616  1.00  0.00     0.202 C 
BRANCH  16  17
ATOM     17  C   UNL A   1      42.016  20.967  26.203  1.00  0.00     0.261 C 
BRANCH  17  18
ATOM     18  O   UNL A   1      42.007  22.349  25.888  1.00  0.00    -0.460 OA
BRANCH  18  19
ATOM     19  C   UNL A   1      41.019  23.025  26.514  1.00  0.00     0.338 C 
ATOM     20  O   UNL A   1      39.871  22.657  26.688  1.00  0.00    -0.246 OA
BRANCH  19  21
ATOM     21  C   UNL A   1      41.472  24.389  26.792  1.00  0.00     0.060 A 
ATOM     22  C   UNL A   1      42.153  24.565  27.998  1.00  0.00     0.016 A 
ATOM     23  C   UNL A   1      40.926  25.462  26.073  1.00  0.00     0.016 A 
ATOM     24  C   UNL A   1      42.086  25.796  28.603  1.00  0.00     0.010 A 
ATOM     25  C   UNL A   1      40.842  26.685  26.690  1.00  0.00     0.010 A 
ATOM     26  C   UNL A   1      41.349  26.809  27.979  1.00  0.00    -0.014 A 
BRANCH  26  27
ATOM     27  C   UNL A   1      41.248  28.076  28.666  1.00  0.00     0.031 A 
ATOM     28  C   UNL A   1      42.383  28.964  28.340  1.00  0.00     0.074 A 
ATOM     29  C   UNL A   1      40.195  28.407  29.433  1.00  0.00     0.049 A 
ATOM     30  N   UNL A   1      43.350  29.313  29.118  1.00  0.00    -0.248 NA
ATOM     31  C   UNL A   1      42.578  29.333  26.927  1.00  0.00     0.031 C 
ATOM     32  C   UNL A   1      38.924  27.698  29.589  1.00  0.00     0.029 A 
ATOM     33  N   UNL A   1      40.012  29.527  30.182  1.00  0.00    -0.354 N 
ATOM     34  C   UNL A   1      44.161  30.135  28.345  1.00  0.00     0.074 A 
ATOM     35  C   UNL A   1      43.765  29.935  26.977  1.00  0.00     0.031 C 
ATOM     36  C   UNL A   1      38.028  28.516  30.191  1.00  0.00     0.029 A 
ATOM     37  C   UNL A   1      38.698  29.747  30.576  1.00  0.00     0.049 A 
ATOM     38  H   UNL A   1      40.750  30.132  30.424  1.00  0.00     0.167 HD
ATOM     39  C   UNL A   1      44.886  31.128  28.921  1.00  0.00     0.037 A 
ATOM     40  C   UNL A   1      38.212  30.899  31.105  1.00  0.00     0.037 A 
ATOM     41  C   UNL A   1      45.032  30.913  30.337  1.00  0.00     0.049 A 
ATOM     42  C   UNL A   1      39.374  31.681  31.603  1.00  0.00     0.074 A 
ATOM     43  C   UNL A   1      45.597  29.926  31.119  1.00  0.00     0.029 A 
ATOM     44  N   UNL A   1      44.197  31.623  31.166  1.00  0.00    -0.354 N 
ATOM     45  N   UNL A   1      40.093  31.336  32.634  1.00  0.00    -0.248 NA
ATOM     46  C   UNL A   1      40.016  32.602  30.677  1.00  0.00     0.031 C 
ATOM     47  C   UNL A   1      44.741  29.811  32.252  1.00  0.00     0.029 A 
ATOM     48  C   UNL A   1      43.738  30.774  32.137  1.00  0.00     0.049 A 
ATOM     49  H   UNL A   1      43.970  32.577  31.077  1.00  0.00     0.167 HD
ATOM     50  C   UNL A   1      41.400  31.623  32.264  1.00  0.00     0.074 A 
ATOM     51  C   UNL A   1      41.281  32.484  31.089  1.00  0.00     0.031 C 
ATOM     52  C   UNL A   1      42.443  30.900  32.765  1.00  0.00     0.037 A 
BRANCH  39  53
ATOM     53  C   UNL A   1      45.082  32.480  28.285  1.00  0.00     0.057 A 
ATOM     54  C   UNL A   1      46.380  32.882  27.931  1.00  0.00     0.134 A 
ATOM     55  C   UNL A   1      44.112  33.506  28.280  1.00  0.00     0.134 A 
ATOM     56  F   UNL A   1      47.393  32.004  27.923  1.00  0.00    -0.206 F 
ATOM     57  C   UNL A   1      46.701  34.218  27.662  1.00  0.00     0.040 A 
ATOM     58  C   UNL A   1      44.411  34.830  27.958  1.00  0.00     0.040 A 
ATOM     59  F   UNL A   1      42.853  33.314  28.689  1.00  0.00    -0.206 F 
ATOM     60  C   UNL A   1      45.715  35.198  27.680  1.00  0.00     0.006 A 
ENDBRANCH  39  53
BRANCH  40  61
ATOM     61  C   UNL A   1      36.880  31.521  30.921  1.00  0.00     0.057 A 
ATOM     62  C   UNL A   1      36.056  31.802  32.023  1.00  0.00     0.134 A 
ATOM     63  C   UNL A   1      36.505  32.121  29.706  1.00  0.00     0.134 A 
ATOM     64  F   UNL A   1      36.349  31.312  33.235  1.00  0.00    -0.206 F 
ATOM     65  C   UNL A   1      34.945  32.653  31.928  1.00  0.00     0.040 A 
ATOM     66  C   UNL A   1      35.396  32.966  29.598  1.00  0.00     0.040 A 
ATOM     67  F   UNL A   1      37.255  31.982  28.604  1.00  0.00    -0.206 F 
ATOM     68  C   UNL A   1      34.620  33.248  30.714  1.00  0.00     0.006 A 
ENDBRANCH  40  61
BRANCH  52  69
ATOM     69  C   UNL A   1      42.167  29.988  33.931  1.00  0.00     0.057 A 
ATOM     70  C   UNL A   1      41.755  28.652  33.813  1.00  0.00     0.134 A 
ATOM     71  C   UNL A   1      42.475  30.445  35.217  1.00  0.00     0.134 A 
ATOM     72  F   UNL A   1      41.529  28.097  32.615  1.00  0.00    -0.206 F 
ATOM     73  C   UNL A   1      41.618  27.823  34.932  1.00  0.00     0.040 A 
ATOM     74  C   UNL A   1      42.378  29.617  36.336  1.00  0.00     0.040 A 
ATOM     75  F   UNL A   1      42.927  31.696  35.399  1.00  0.00    -0.206 F 
ATOM     76  C   UNL A   1      41.939  28.304  36.198  1.00  0.00     0.006 A 
ENDBRANCH  52  69
ENDBRANCH  26  27
ENDBRANCH  19  21
ENDBRANCH  18  19
ENDBRANCH  17  18
ENDBRANCH  16  17
ENDBRANCH   1  16
TORSDOF 16
ENDMDL
