MODEL 1
REMARK VINA RESULT:     -12.2      0.000      0.000
REMARK SMILES CN1C(=O)C[C@@H](C(=O)OCCOCCOC(=O)c2ccc(-c3c4nc(c(-c5c(F)cccc5F)c5ccc([nH]5)c(-c5c(F)cccc5F)c5nc(c(-c6c(F)cccc6F)c6ccc3[nH]6)C=C5)C=C4)cc2)C12CCN(c1ccc(Cl)cn1)CC2
REMARK SMILES IDX 13 1 12 2 11 3 10 4 9 5 7 6 8 7 6 8 1 9 2 10 3 11 72 12 4 13
REMARK SMILES IDX 5 14 73 15 84 16 74 17 83 18 75 19 76 20 77 21 82 22 78 23
REMARK SMILES IDX 81 24 79 25 80 26 14 27 15 28 16 29 17 30 18 31 19 32 71 33
REMARK SMILES IDX 20 34 70 35 21 36 22 37 23 38 64 39 24 40 69 41 63 42 65 43
REMARK SMILES IDX 25 44 68 45 62 46 61 47 26 49 52 50 35 51 51 52 36 53 39 54
REMARK SMILES IDX 50 55 66 56 37 57 38 58 49 60 67 61 40 62 27 63 28 64 33 65
REMARK SMILES IDX 29 66 30 67 32 68 34 69 31 70 53 71 54 72 59 73 55 74 56 75
REMARK SMILES IDX 58 76 60 77 57 78 41 79 42 80 47 81 43 82 44 83 46 84 48 85
REMARK SMILES IDX 45 86
REMARK H PARENT 65 48 39 59
REMARK Flexibility Score: inf
ROOT
ATOM      1  C   UNL A   1      31.442  29.675  25.019  1.00  0.00     0.202 C 
ENDROOT
BRANCH   1   2
ATOM      2  O   UNL A   1      31.584  28.323  25.451  1.00  0.00    -0.374 OA
BRANCH   2   3
ATOM      3  C   UNL A   1      30.637  27.367  24.988  1.00  0.00     0.202 C 
BRANCH   3   4
ATOM      4  C   UNL A   1      30.533  26.034  25.741  1.00  0.00     0.261 C 
BRANCH   4   5
ATOM      5  O   UNL A   1      31.617  25.729  26.648  1.00  0.00    -0.463 OA
BRANCH   5   6
ATOM      6  C   UNL A   1      31.984  24.425  26.671  1.00  0.00     0.311 C 
ATOM      7  O   UNL A   1      31.432  23.572  27.362  1.00  0.00    -0.252 OA
BRANCH   6   8
ATOM      8  C   UNL A   1      33.231  24.071  25.886  1.00  0.00     0.134 C 
ATOM      9  C   UNL A   1      33.276  24.207  22.117  1.00  0.00     0.147 C 
ATOM     10  N   UNL A   1      33.338  24.396  23.558  1.00  0.00    -0.339 N 
ATOM     11  C   UNL A   1      33.718  25.605  24.112  1.00  0.00     0.223 C 
ATOM     12  C   UNL A   1      33.261  23.298  24.540  1.00  0.00     0.060 C 
ATOM     13  O   UNL A   1      33.917  26.652  23.517  1.00  0.00    -0.275 OA
ATOM     14  C   UNL A   1      33.926  25.408  25.585  1.00  0.00     0.118 C 
ATOM     15  C   UNL A   1      32.066  22.372  24.238  1.00  0.00     0.051 C 
ATOM     16  C   UNL A   1      34.590  22.464  24.484  1.00  0.00     0.051 C 
ATOM     17  C   UNL A   1      32.079  21.086  25.046  1.00  0.00     0.120 C 
ATOM     18  C   UNL A   1      34.524  21.138  25.262  1.00  0.00     0.120 C 
ATOM     19  N   UNL A   1      33.349  20.416  24.802  1.00  0.00    -0.356 N 
BRANCH  19  20
ATOM     20  C   UNL A   1      33.307  19.038  24.988  1.00  0.00     0.128 A 
ATOM     21  C   UNL A   1      34.072  18.230  24.141  1.00  0.00     0.048 A 
ATOM     22  N   UNL A   1      32.501  18.507  25.929  1.00  0.00    -0.238 NA
ATOM     23  C   UNL A   1      33.986  16.843  24.228  1.00  0.00     0.026 A 
ATOM     24  C   UNL A   1      32.424  17.151  25.990  1.00  0.00     0.134 A 
ATOM     25  C   UNL A   1      33.130  16.290  25.165  1.00  0.00     0.059 A 
ATOM     26  Cl  UNL A   1      32.945  14.589  25.283  1.00  0.00    -0.083 Cl
ENDBRANCH  19  20
ENDBRANCH   6   8
ENDBRANCH   5   6
ENDBRANCH   4   5
ENDBRANCH   3   4
ENDBRANCH   2   3
ENDBRANCH   1   2
BRANCH   1  27
ATOM     27  C   UNL A   1      31.681  30.751  26.081  1.00  0.00     0.261 C 
BRANCH  27  28
ATOM     28  O   UNL A   1      32.827  30.436  26.892  1.00  0.00    -0.460 OA
BRANCH  28  29
ATOM     29  C   UNL A   1      33.475  31.531  27.357  1.00  0.00     0.338 C 
ATOM     30  O   UNL A   1      33.001  32.632  27.570  1.00  0.00    -0.246 OA
BRANCH  29  31
ATOM     31  C   UNL A   1      34.845  31.166  27.755  1.00  0.00     0.060 A 
ATOM     32  C   UNL A   1      35.105  29.822  28.050  1.00  0.00     0.016 A 
ATOM     33  C   UNL A   1      35.818  32.144  27.969  1.00  0.00     0.016 A 
ATOM     34  C   UNL A   1      36.329  29.459  28.611  1.00  0.00     0.010 A 
ATOM     35  C   UNL A   1      37.045  31.776  28.533  1.00  0.00     0.010 A 
ATOM     36  C   UNL A   1      37.291  30.439  28.894  1.00  0.00    -0.014 A 
BRANCH  36  37
ATOM     37  C   UNL A   1      38.485  30.070  29.697  1.00  0.00     0.031 A 
ATOM     38  C   UNL A   1      38.635  30.619  31.090  1.00  0.00     0.074 A 
ATOM     39  C   UNL A   1      39.398  29.209  29.213  1.00  0.00     0.049 A 
ATOM     40  N   UNL A   1      39.561  30.378  31.983  1.00  0.00    -0.248 NA
ATOM     41  C   UNL A   1      37.601  31.567  31.537  1.00  0.00     0.031 C 
ATOM     42  C   UNL A   1      39.358  28.594  27.888  1.00  0.00     0.029 A 
ATOM     43  N   UNL A   1      40.535  28.700  29.788  1.00  0.00    -0.354 N 
ATOM     44  C   UNL A   1      39.219  31.132  33.098  1.00  0.00     0.074 A 
ATOM     45  C   UNL A   1      38.022  31.872  32.757  1.00  0.00     0.031 C 
ATOM     46  C   UNL A   1      40.422  27.785  27.752  1.00  0.00     0.029 A 
ATOM     47  C   UNL A   1      41.226  27.838  28.971  1.00  0.00     0.049 A 
ATOM     48  H   UNL A   1      40.829  28.931  30.699  1.00  0.00     0.167 HD
ATOM     49  C   UNL A   1      39.834  31.192  34.302  1.00  0.00     0.037 A 
ATOM     50  C   UNL A   1      42.378  27.173  29.183  1.00  0.00     0.037 A 
ATOM     51  C   UNL A   1      41.026  30.461  34.644  1.00  0.00     0.049 A 
ATOM     52  C   UNL A   1      43.078  27.304  30.509  1.00  0.00     0.074 A 
ATOM     53  C   UNL A   1      41.706  30.434  35.850  1.00  0.00     0.029 A 
ATOM     54  N   UNL A   1      41.719  29.634  33.775  1.00  0.00    -0.354 N 
ATOM     55  N   UNL A   1      42.716  27.981  31.572  1.00  0.00    -0.248 NA
ATOM     56  C   UNL A   1      44.345  26.575  30.667  1.00  0.00     0.031 C 
ATOM     57  C   UNL A   1      42.838  29.625  35.695  1.00  0.00     0.029 A 
ATOM     58  C   UNL A   1      42.838  29.116  34.406  1.00  0.00     0.049 A 
ATOM     59  H   UNL A   1      41.455  29.444  32.846  1.00  0.00     0.167 HD
ATOM     60  C   UNL A   1      43.696  27.746  32.528  1.00  0.00     0.074 A 
ATOM     61  C   UNL A   1      44.661  26.849  31.925  1.00  0.00     0.031 C 
ATOM     62  C   UNL A   1      43.790  28.228  33.791  1.00  0.00     0.037 A 
BRANCH  49  63
ATOM     63  C   UNL A   1      39.233  32.095  35.339  1.00  0.00     0.057 A 
ATOM     64  C   UNL A   1      39.528  33.464  35.383  1.00  0.00     0.134 A 
ATOM     65  C   UNL A   1      38.329  31.598  36.285  1.00  0.00     0.134 A 
ATOM     66  F   UNL A   1      40.397  34.001  34.512  1.00  0.00    -0.206 F 
ATOM     67  C   UNL A   1      38.962  34.302  36.345  1.00  0.00     0.040 A 
ATOM     68  C   UNL A   1      37.739  32.431  37.238  1.00  0.00     0.040 A 
ATOM     69  F   UNL A   1      38.000  30.298  36.295  1.00  0.00    -0.206 F 
ATOM     70  C   UNL A   1      38.059  33.786  37.273  1.00  0.00     0.006 A 
ENDBRANCH  49  63
BRANCH  50  71
ATOM     71  C   UNL A   1      42.948  26.317  28.113  1.00  0.00     0.057 A 
ATOM     72  C   UNL A   1      42.564  24.979  27.971  1.00  0.00     0.134 A 
ATOM     73  C   UNL A   1      43.902  26.813  27.217  1.00  0.00     0.134 A 
ATOM     74  F   UNL A   1      41.672  24.439  28.814  1.00  0.00    -0.206 F 
ATOM     75  C   UNL A   1      43.117  24.160  26.984  1.00  0.00     0.040 A 
ATOM     76  C   UNL A   1      44.447  26.014  26.211  1.00  0.00     0.040 A 
ATOM     77  F   UNL A   1      44.312  28.087  27.302  1.00  0.00    -0.206 F 
ATOM     78  C   UNL A   1      44.059  24.680  26.097  1.00  0.00     0.006 A 
ENDBRANCH  50  71
BRANCH  62  79
ATOM     79  C   UNL A   1      44.969  27.789  34.609  1.00  0.00     0.057 A 
ATOM     80  C   UNL A   1      44.937  26.615  35.371  1.00  0.00     0.134 A 
ATOM     81  C   UNL A   1      46.160  28.525  34.600  1.00  0.00     0.134 A 
ATOM     82  F   UNL A   1      43.822  25.874  35.431  1.00  0.00    -0.206 F 
ATOM     83  C   UNL A   1      46.045  26.198  36.111  1.00  0.00     0.040 A 
ATOM     84  C   UNL A   1      47.282  28.105  35.317  1.00  0.00     0.040 A 
ATOM     85  F   UNL A   1      46.259  29.654  33.883  1.00  0.00    -0.206 F 
ATOM     86  C   UNL A   1      47.224  26.940  36.079  1.00  0.00     0.006 A 
ENDBRANCH  62  79
ENDBRANCH  36  37
ENDBRANCH  29  31
ENDBRANCH  28  29
ENDBRANCH  27  28
ENDBRANCH   1  27
TORSDOF 15
ENDMDL
MODEL 2
REMARK VINA RESULT:     -12.1      0.459      6.190
REMARK SMILES CN1C(=O)C[C@@H](C(=O)OCCOCCOC(=O)c2ccc(-c3c4nc(c(-c5c(F)cccc5F)c5ccc([nH]5)c(-c5c(F)cccc5F)c5nc(c(-c6c(F)cccc6F)c6ccc3[nH]6)C=C5)C=C4)cc2)C12CCN(c1ccc(Cl)cn1)CC2
REMARK SMILES IDX 13 1 12 2 11 3 10 4 9 5 7 6 8 7 6 8 1 9 2 10 3 11 72 12 4 13
REMARK SMILES IDX 5 14 73 15 84 16 74 17 83 18 75 19 76 20 77 21 82 22 78 23
REMARK SMILES IDX 81 24 79 25 80 26 14 27 15 28 16 29 17 30 18 31 19 32 71 33
REMARK SMILES IDX 20 34 70 35 21 36 22 37 23 38 64 39 24 40 69 41 63 42 65 43
REMARK SMILES IDX 25 44 68 45 62 46 61 47 26 49 52 50 35 51 51 52 36 53 39 54
REMARK SMILES IDX 50 55 66 56 37 57 38 58 49 60 67 61 40 62 27 63 28 64 33 65
REMARK SMILES IDX 29 66 30 67 32 68 34 69 31 70 53 71 54 72 59 73 55 74 56 75
REMARK SMILES IDX 58 76 60 77 57 78 41 79 42 80 47 81 43 82 44 83 46 84 48 85
REMARK SMILES IDX 45 86
REMARK H PARENT 65 48 39 59
REMARK Flexibility Score: inf
ROOT
ATOM      1  C   UNL A   1      31.123  29.635  24.824  1.00  0.00     0.202 C 
ENDROOT
BRANCH   1   2
ATOM      2  O   UNL A   1      31.588  28.364  25.274  1.00  0.00    -0.374 OA
BRANCH   2   3
ATOM      3  C   UNL A   1      30.829  27.211  24.926  1.00  0.00     0.202 C 
BRANCH   3   4
ATOM      4  C   UNL A   1      30.650  26.120  25.990  1.00  0.00     0.261 C 
BRANCH   4   5
ATOM      5  O   UNL A   1      31.840  25.737  26.717  1.00  0.00    -0.463 OA
BRANCH   5   6
ATOM      6  C   UNL A   1      32.136  24.417  26.659  1.00  0.00     0.311 C 
ATOM      7  O   UNL A   1      31.552  23.556  27.314  1.00  0.00    -0.252 OA
BRANCH   6   8
ATOM      8  C   UNL A   1      33.348  24.042  25.830  1.00  0.00     0.134 C 
ATOM      9  C   UNL A   1      33.240  24.122  22.061  1.00  0.00     0.147 C 
ATOM     10  N   UNL A   1      33.363  24.332  23.495  1.00  0.00    -0.339 N 
ATOM     11  C   UNL A   1      33.772  25.547  24.015  1.00  0.00     0.223 C 
ATOM     12  C   UNL A   1      33.318  23.249  24.495  1.00  0.00     0.060 C 
ATOM     13  O   UNL A   1      33.954  26.583  23.396  1.00  0.00    -0.275 OA
ATOM     14  C   UNL A   1      34.039  25.370  25.481  1.00  0.00     0.118 C 
ATOM     15  C   UNL A   1      32.105  22.328  24.256  1.00  0.00     0.051 C 
ATOM     16  C   UNL A   1      34.638  22.404  24.397  1.00  0.00     0.051 C 
ATOM     17  C   UNL A   1      32.143  21.053  25.082  1.00  0.00     0.120 C 
ATOM     18  C   UNL A   1      34.595  21.091  25.197  1.00  0.00     0.120 C 
ATOM     19  N   UNL A   1      33.397  20.370  24.796  1.00  0.00    -0.356 N 
BRANCH  19  20
ATOM     20  C   UNL A   1      33.355  18.996  25.005  1.00  0.00     0.128 A 
ATOM     21  C   UNL A   1      34.264  18.191  24.311  1.00  0.00     0.048 A 
ATOM     22  N   UNL A   1      32.417  18.464  25.814  1.00  0.00    -0.238 NA
ATOM     23  C   UNL A   1      34.193  16.804  24.415  1.00  0.00     0.026 A 
ATOM     24  C   UNL A   1      32.359  17.108  25.892  1.00  0.00     0.134 A 
ATOM     25  C   UNL A   1      33.208  16.248  25.213  1.00  0.00     0.059 A 
ATOM     26  Cl  UNL A   1      33.041  14.546  25.337  1.00  0.00    -0.083 Cl
ENDBRANCH  19  20
ENDBRANCH   6   8
ENDBRANCH   5   6
ENDBRANCH   4   5
ENDBRANCH   3   4
ENDBRANCH   2   3
ENDBRANCH   1   2
BRANCH   1  27
ATOM     27  C   UNL A   1      31.398  30.820  25.752  1.00  0.00     0.261 C 
BRANCH  27  28
ATOM     28  O   UNL A   1      32.453  30.519  26.682  1.00  0.00    -0.460 OA
BRANCH  28  29
ATOM     29  C   UNL A   1      33.093  31.619  27.147  1.00  0.00     0.338 C 
ATOM     30  O   UNL A   1      32.623  32.732  27.304  1.00  0.00    -0.246 OA
BRANCH  29  31
ATOM     31  C   UNL A   1      34.436  31.250  27.624  1.00  0.00     0.060 A 
ATOM     32  C   UNL A   1      34.678  29.903  27.921  1.00  0.00     0.016 A 
ATOM     33  C   UNL A   1      35.394  32.226  27.905  1.00  0.00     0.016 A 
ATOM     34  C   UNL A   1      35.866  29.534  28.551  1.00  0.00     0.010 A 
ATOM     35  C   UNL A   1      36.585  31.851  28.538  1.00  0.00     0.010 A 
ATOM     36  C   UNL A   1      36.809  30.511  28.901  1.00  0.00    -0.014 A 
BRANCH  36  37
ATOM     37  C   UNL A   1      37.953  30.134  29.771  1.00  0.00     0.031 A 
ATOM     38  C   UNL A   1      39.008  29.203  29.238  1.00  0.00     0.074 A 
ATOM     39  C   UNL A   1      38.080  30.659  31.003  1.00  0.00     0.049 A 
ATOM     40  N   UNL A   1      40.117  28.795  29.801  1.00  0.00    -0.248 NA
ATOM     41  C   UNL A   1      38.785  28.661  27.888  1.00  0.00     0.031 C 
ATOM     42  C   UNL A   1      37.137  31.584  31.627  1.00  0.00     0.029 A 
ATOM     43  N   UNL A   1      39.063  30.490  31.946  1.00  0.00    -0.354 N 
ATOM     44  C   UNL A   1      40.727  27.959  28.876  1.00  0.00     0.074 A 
ATOM     45  C   UNL A   1      39.847  27.885  27.728  1.00  0.00     0.031 C 
ATOM     46  C   UNL A   1      37.589  31.906  32.851  1.00  0.00     0.029 A 
ATOM     47  C   UNL A   1      38.842  31.198  33.102  1.00  0.00     0.049 A 
ATOM     48  H   UNL A   1      39.850  29.916  31.808  1.00  0.00     0.167 HD
ATOM     49  C   UNL A   1      41.920  27.324  28.963  1.00  0.00     0.037 A 
ATOM     50  C   UNL A   1      39.568  31.261  34.236  1.00  0.00     0.037 A 
ATOM     51  C   UNL A   1      42.796  27.393  30.103  1.00  0.00     0.049 A 
ATOM     52  C   UNL A   1      40.860  30.496  34.334  1.00  0.00     0.074 A 
ATOM     53  C   UNL A   1      44.039  26.807  30.274  1.00  0.00     0.029 A 
ATOM     54  N   UNL A   1      42.516  28.084  31.271  1.00  0.00    -0.354 N 
ATOM     55  N   UNL A   1      41.450  29.750  33.431  1.00  0.00    -0.248 NA
ATOM     56  C   UNL A   1      41.590  30.585  35.608  1.00  0.00     0.031 C 
ATOM     57  C   UNL A   1      44.490  27.108  31.564  1.00  0.00     0.029 A 
ATOM     58  C   UNL A   1      43.547  27.914  32.180  1.00  0.00     0.049 A 
ATOM     59  H   UNL A   1      41.703  28.616  31.431  1.00  0.00     0.167 HD
ATOM     60  C   UNL A   1      42.625  29.298  34.018  1.00  0.00     0.074 A 
ATOM     61  C   UNL A   1      42.673  29.866  35.350  1.00  0.00     0.031 C 
ATOM     62  C   UNL A   1      43.579  28.484  33.502  1.00  0.00     0.037 A 
BRANCH  49  63
ATOM     63  C   UNL A   1      42.340  26.483  27.794  1.00  0.00     0.057 A 
ATOM     64  C   UNL A   1      41.987  25.130  27.695  1.00  0.00     0.134 A 
ATOM     65  C   UNL A   1      43.082  27.036  26.744  1.00  0.00     0.134 A 
ATOM     66  F   UNL A   1      41.288  24.537  28.674  1.00  0.00    -0.206 F 
ATOM     67  C   UNL A   1      42.375  24.353  26.602  1.00  0.00     0.040 A 
ATOM     68  C   UNL A   1      43.457  26.274  25.635  1.00  0.00     0.040 A 
ATOM     69  F   UNL A   1      43.449  28.325  26.774  1.00  0.00    -0.206 F 
ATOM     70  C   UNL A   1      43.107  24.927  25.565  1.00  0.00     0.006 A 
ENDBRANCH  49  63
BRANCH  50  71
ATOM     71  C   UNL A   1      39.091  32.083  35.376  1.00  0.00     0.057 A 
ATOM     72  C   UNL A   1      39.418  33.440  35.481  1.00  0.00     0.134 A 
ATOM     73  C   UNL A   1      38.310  31.527  36.396  1.00  0.00     0.134 A 
ATOM     74  F   UNL A   1      40.183  34.024  34.548  1.00  0.00    -0.206 F 
ATOM     75  C   UNL A   1      38.997  34.211  36.566  1.00  0.00     0.040 A 
ATOM     76  C   UNL A   1      37.863  32.291  37.475  1.00  0.00     0.040 A 
ATOM     77  F   UNL A   1      37.965  30.232  36.353  1.00  0.00    -0.206 F 
ATOM     78  C   UNL A   1      38.212  33.637  37.564  1.00  0.00     0.006 A 
ENDBRANCH  50  71
BRANCH  62  79
ATOM     79  C   UNL A   1      44.759  28.169  34.373  1.00  0.00     0.057 A 
ATOM     80  C   UNL A   1      45.907  28.970  34.371  1.00  0.00     0.134 A 
ATOM     81  C   UNL A   1      44.729  27.080  35.253  1.00  0.00     0.134 A 
ATOM     82  F   UNL A   1      46.002  30.020  33.543  1.00  0.00    -0.206 F 
ATOM     83  C   UNL A   1      46.993  28.688  35.202  1.00  0.00     0.040 A 
ATOM     84  C   UNL A   1      45.800  26.801  36.104  1.00  0.00     0.040 A 
ATOM     85  F   UNL A   1      43.655  26.278  35.309  1.00  0.00    -0.206 F 
ATOM     86  C   UNL A   1      46.938  27.604  36.077  1.00  0.00     0.006 A 
ENDBRANCH  62  79
ENDBRANCH  36  37
ENDBRANCH  29  31
ENDBRANCH  28  29
ENDBRANCH  27  28
ENDBRANCH   1  27
TORSDOF 15
ENDMDL
MODEL 3
REMARK VINA RESULT:     -11.9      1.459      2.264
REMARK SMILES CN1C(=O)C[C@@H](C(=O)OCCOCCOC(=O)c2ccc(-c3c4nc(c(-c5c(F)cccc5F)c5ccc([nH]5)c(-c5c(F)cccc5F)c5nc(c(-c6c(F)cccc6F)c6ccc3[nH]6)C=C5)C=C4)cc2)C12CCN(c1ccc(Cl)cn1)CC2
REMARK SMILES IDX 13 1 12 2 11 3 10 4 9 5 7 6 8 7 6 8 1 9 2 10 3 11 72 12 4 13
REMARK SMILES IDX 5 14 73 15 84 16 74 17 83 18 75 19 76 20 77 21 82 22 78 23
REMARK SMILES IDX 81 24 79 25 80 26 14 27 15 28 16 29 17 30 18 31 19 32 71 33
REMARK SMILES IDX 20 34 70 35 21 36 22 37 23 38 64 39 24 40 69 41 63 42 65 43
REMARK SMILES IDX 25 44 68 45 62 46 61 47 26 49 52 50 35 51 51 52 36 53 39 54
REMARK SMILES IDX 50 55 66 56 37 57 38 58 49 60 67 61 40 62 27 63 28 64 33 65
REMARK SMILES IDX 29 66 30 67 32 68 34 69 31 70 53 71 54 72 59 73 55 74 56 75
REMARK SMILES IDX 58 76 60 77 57 78 41 79 42 80 47 81 43 82 44 83 46 84 48 85
REMARK SMILES IDX 45 86
REMARK H PARENT 65 48 39 59
REMARK Flexibility Score: inf
ROOT
ATOM      1  C   UNL A   1      31.350  31.847  26.619  1.00  0.00     0.202 C 
ENDROOT
BRANCH   1   2
ATOM      2  O   UNL A   1      31.973  30.649  26.160  1.00  0.00    -0.374 OA
BRANCH   2   3
ATOM      3  C   UNL A   1      32.377  29.689  27.130  1.00  0.00     0.202 C 
BRANCH   3   4
ATOM      4  C   UNL A   1      31.626  28.352  27.175  1.00  0.00     0.261 C 
BRANCH   4   5
ATOM      5  O   UNL A   1      31.554  27.618  25.931  1.00  0.00    -0.463 OA
BRANCH   5   6
ATOM      6  C   UNL A   1      31.962  26.329  26.012  1.00  0.00     0.311 C 
ATOM      7  O   UNL A   1      31.595  25.550  26.889  1.00  0.00    -0.252 OA
BRANCH   6   8
ATOM      8  C   UNL A   1      33.031  25.906  25.025  1.00  0.00     0.134 C 
ATOM      9  C   UNL A   1      32.360  25.859  21.314  1.00  0.00     0.147 C 
ATOM     10  N   UNL A   1      32.698  26.116  22.705  1.00  0.00    -0.339 N 
ATOM     11  C   UNL A   1      33.196  27.340  23.114  1.00  0.00     0.223 C 
ATOM     12  C   UNL A   1      32.792  25.069  23.739  1.00  0.00     0.060 C 
ATOM     13  O   UNL A   1      33.294  28.352  22.438  1.00  0.00    -0.275 OA
ATOM     14  C   UNL A   1      33.677  27.209  24.529  1.00  0.00     0.118 C 
ATOM     15  C   UNL A   1      31.546  24.160  23.718  1.00  0.00     0.051 C 
ATOM     16  C   UNL A   1      34.072  24.199  23.476  1.00  0.00     0.051 C 
ATOM     17  C   UNL A   1      31.693  22.914  24.574  1.00  0.00     0.120 C 
ATOM     18  C   UNL A   1      34.135  22.914  24.320  1.00  0.00     0.120 C 
ATOM     19  N   UNL A   1      32.882  22.201  24.129  1.00  0.00    -0.356 N 
BRANCH  19  20
ATOM     20  C   UNL A   1      32.855  20.835  24.392  1.00  0.00     0.128 A 
ATOM     21  C   UNL A   1      32.485  19.968  23.358  1.00  0.00     0.048 A 
ATOM     22  N   UNL A   1      33.125  20.380  25.631  1.00  0.00    -0.238 NA
ATOM     23  C   UNL A   1      32.350  18.603  23.603  1.00  0.00     0.026 A 
ATOM     24  C   UNL A   1      32.976  19.046  25.851  1.00  0.00     0.134 A 
ATOM     25  C   UNL A   1      32.586  18.133  24.883  1.00  0.00     0.059 A 
ATOM     26  Cl  UNL A   1      32.386  16.471  25.254  1.00  0.00    -0.083 Cl
ENDBRANCH  19  20
ENDBRANCH   6   8
ENDBRANCH   5   6
ENDBRANCH   4   5
ENDBRANCH   3   4
ENDBRANCH   2   3
ENDBRANCH   1   2
BRANCH   1  27
ATOM     27  C   UNL A   1      32.268  33.058  26.797  1.00  0.00     0.261 C 
BRANCH  27  28
ATOM     28  O   UNL A   1      32.160  33.604  28.123  1.00  0.00    -0.460 OA
BRANCH  28  29
ATOM     29  C   UNL A   1      33.189  34.419  28.457  1.00  0.00     0.338 C 
ATOM     30  O   UNL A   1      33.135  35.611  28.699  1.00  0.00    -0.246 OA
BRANCH  29  31
ATOM     31  C   UNL A   1      34.407  33.620  28.669  1.00  0.00     0.060 A 
ATOM     32  C   UNL A   1      34.260  32.322  29.173  1.00  0.00     0.016 A 
ATOM     33  C   UNL A   1      35.675  34.183  28.507  1.00  0.00     0.016 A 
ATOM     34  C   UNL A   1      35.386  31.599  29.567  1.00  0.00     0.010 A 
ATOM     35  C   UNL A   1      36.802  33.454  28.905  1.00  0.00     0.010 A 
ATOM     36  C   UNL A   1      36.661  32.177  29.475  1.00  0.00    -0.014 A 
BRANCH  36  37
ATOM     37  C   UNL A   1      37.814  31.488  30.109  1.00  0.00     0.031 A 
ATOM     38  C   UNL A   1      38.137  31.768  31.552  1.00  0.00     0.074 A 
ATOM     39  C   UNL A   1      38.532  30.580  29.424  1.00  0.00     0.049 A 
ATOM     40  N   UNL A   1      39.054  31.233  32.317  1.00  0.00    -0.248 NA
ATOM     41  C   UNL A   1      37.313  32.786  32.223  1.00  0.00     0.031 C 
ATOM     42  C   UNL A   1      38.310  30.207  28.029  1.00  0.00     0.029 A 
ATOM     43  N   UNL A   1      39.593  29.802  29.817  1.00  0.00    -0.354 N 
ATOM     44  C   UNL A   1      38.914  31.840  33.558  1.00  0.00     0.074 A 
ATOM     45  C   UNL A   1      37.848  32.812  33.435  1.00  0.00     0.031 C 
ATOM     46  C   UNL A   1      39.206  29.267  27.682  1.00  0.00     0.029 A 
ATOM     47  C   UNL A   1      40.074  28.985  28.824  1.00  0.00     0.049 A 
ATOM     48  H   UNL A   1      39.973  29.828  30.725  1.00  0.00     0.167 HD
ATOM     49  C   UNL A   1      39.596  31.598  34.702  1.00  0.00     0.037 A 
ATOM     50  C   UNL A   1      41.100  28.113  28.835  1.00  0.00     0.037 A 
ATOM     51  C   UNL A   1      40.658  30.634  34.828  1.00  0.00     0.049 A 
ATOM     52  C   UNL A   1      41.886  27.907  30.102  1.00  0.00     0.074 A 
ATOM     53  C   UNL A   1      41.390  30.297  35.953  1.00  0.00     0.029 A 
ATOM     54  N   UNL A   1      41.144  29.858  33.787  1.00  0.00    -0.354 N 
ATOM     55  N   UNL A   1      41.709  28.450  31.282  1.00  0.00    -0.248 NA
ATOM     56  C   UNL A   1      43.012  26.963  30.039  1.00  0.00     0.031 C 
ATOM     57  C   UNL A   1      42.350  29.349  35.582  1.00  0.00     0.029 A 
ATOM     58  C   UNL A   1      42.188  29.067  34.236  1.00  0.00     0.049 A 
ATOM     59  H   UNL A   1      40.799  29.870  32.865  1.00  0.00     0.167 HD
ATOM     60  C   UNL A   1      42.684  27.902  32.105  1.00  0.00     0.074 A 
ATOM     61  C   UNL A   1      43.441  26.970  31.293  1.00  0.00     0.031 C 
ATOM     62  C   UNL A   1      42.933  28.147  33.415  1.00  0.00     0.037 A 
BRANCH  49  63
ATOM     63  C   UNL A   1      39.224  32.404  35.911  1.00  0.00     0.057 A 
ATOM     64  C   UNL A   1      38.291  31.939  36.848  1.00  0.00     0.134 A 
ATOM     65  C   UNL A   1      39.824  33.645  36.157  1.00  0.00     0.134 A 
ATOM     66  F   UNL A   1      37.671  30.764  36.663  1.00  0.00    -0.206 F 
ATOM     67  C   UNL A   1      37.952  32.690  37.975  1.00  0.00     0.040 A 
ATOM     68  C   UNL A   1      39.509  34.395  37.293  1.00  0.00     0.040 A 
ATOM     69  F   UNL A   1      40.728  34.146  35.303  1.00  0.00    -0.206 F 
ATOM     70  C   UNL A   1      38.567  33.919  38.202  1.00  0.00     0.006 A 
ENDBRANCH  49  63
BRANCH  50  71
ATOM     71  C   UNL A   1      41.449  27.363  27.602  1.00  0.00     0.057 A 
ATOM     72  C   UNL A   1      42.367  27.871  26.677  1.00  0.00     0.134 A 
ATOM     73  C   UNL A   1      40.859  26.126  27.314  1.00  0.00     0.134 A 
ATOM     74  F   UNL A   1      42.947  29.062  26.886  1.00  0.00    -0.206 F 
ATOM     75  C   UNL A   1      42.677  27.184  25.502  1.00  0.00     0.040 A 
ATOM     76  C   UNL A   1      41.176  25.417  26.155  1.00  0.00     0.040 A 
ATOM     77  F   UNL A   1      39.970  25.587  28.160  1.00  0.00    -0.206 F 
ATOM     78  C   UNL A   1      42.084  25.950  25.241  1.00  0.00     0.006 A 
ENDBRANCH  50  71
BRANCH  62  79
ATOM     79  C   UNL A   1      44.060  27.391  34.054  1.00  0.00     0.057 A 
ATOM     80  C   UNL A   1      43.868  26.124  34.617  1.00  0.00     0.134 A 
ATOM     81  C   UNL A   1      45.358  27.917  34.069  1.00  0.00     0.134 A 
ATOM     82  F   UNL A   1      42.647  25.570  34.645  1.00  0.00    -0.206 F 
ATOM     83  C   UNL A   1      44.925  25.413  35.189  1.00  0.00     0.040 A 
ATOM     84  C   UNL A   1      46.427  27.206  34.618  1.00  0.00     0.040 A 
ATOM     85  F   UNL A   1      45.611  29.123  33.539  1.00  0.00    -0.206 F 
ATOM     86  C   UNL A   1      46.210  25.952  35.183  1.00  0.00     0.006 A 
ENDBRANCH  62  79
ENDBRANCH  36  37
ENDBRANCH  29  31
ENDBRANCH  28  29
ENDBRANCH  27  28
ENDBRANCH   1  27
TORSDOF 15
ENDMDL
