MODEL 1
REMARK VINA RESULT:     -11.2      0.000      0.000
REMARK SMILES O=C(OCCOCCOC(=O)c1c(-c2ccc(Cl)cc2)noc1CO[C@@H]1CCCCO1)c1ccc(-c2c3nc(c(-c4c(F)cccc4F)c4ccc([nH]4)c(-c4c(F)cccc4F)c4nc(c(-c5c(F)cccc5F)c5ccc2[nH]5)C=C4)C=C3)cc1
REMARK SMILES IDX 7 1 6 2 5 3 4 4 3 5 2 6 1 7 32 8 33 9 85 10 34 11 84 12
REMARK SMILES IDX 35 13 36 14 37 15 78 16 38 17 83 18 77 19 79 20 39 21 82 22
REMARK SMILES IDX 76 23 75 24 40 26 66 27 49 28 65 29 50 30 53 31 64 32 80 33
REMARK SMILES IDX 51 34 52 35 63 37 81 38 54 39 41 40 42 41 47 42 43 43 44 44
REMARK SMILES IDX 46 45 48 46 45 47 67 48 68 49 73 50 69 51 70 52 72 53 74 54
REMARK SMILES IDX 71 55 55 56 56 57 61 58 57 59 58 60 60 61 62 62 59 63 8 64
REMARK SMILES IDX 9 65 10 66 11 67 12 68 13 69 23 70 21 71 22 72 14 73 15 74
REMARK SMILES IDX 20 75 16 76 19 77 17 78 18 79 24 80 25 81 26 82 27 83 31 84
REMARK SMILES IDX 28 85 30 86 29 87
REMARK H PARENT 79 25 53 36
REMARK Flexibility Score: inf
ROOT
ATOM      1  C   UNL A   1      33.160  29.364  25.957  1.00  0.00     0.202 C 
ENDROOT
BRANCH   1   2
ATOM      2  O   UNL A   1      31.975  29.912  26.526  1.00  0.00    -0.374 OA
BRANCH   2   3
ATOM      3  C   UNL A   1      31.852  31.321  26.574  1.00  0.00     0.202 C 
BRANCH   3   4
ATOM      4  C   UNL A   1      32.918  32.028  27.399  1.00  0.00     0.261 C 
BRANCH   4   5
ATOM      5  O   UNL A   1      32.547  33.399  27.626  1.00  0.00    -0.460 OA
BRANCH   5   6
ATOM      6  C   UNL A   1      33.100  34.207  28.563  1.00  0.00     0.338 C 
ATOM      7  O   UNL A   1      32.562  35.262  28.878  1.00  0.00    -0.246 OA
BRANCH   6   8
ATOM      8  C   UNL A   1      34.351  33.809  29.251  1.00  0.00     0.060 A 
ATOM      9  C   UNL A   1      34.363  32.852  30.264  1.00  0.00     0.016 A 
ATOM     10  C   UNL A   1      35.563  34.342  28.810  1.00  0.00     0.016 A 
ATOM     11  C   UNL A   1      35.520  32.514  30.931  1.00  0.00     0.010 A 
ATOM     12  C   UNL A   1      36.756  33.913  29.395  1.00  0.00     0.010 A 
ATOM     13  C   UNL A   1      36.731  32.995  30.458  1.00  0.00    -0.014 A 
BRANCH  13  14
ATOM     14  C   UNL A   1      37.964  32.503  31.086  1.00  0.00     0.031 A 
ATOM     15  C   UNL A   1      38.702  31.391  30.430  1.00  0.00     0.074 A 
ATOM     16  C   UNL A   1      38.415  33.099  32.205  1.00  0.00     0.049 A 
ATOM     17  N   UNL A   1      39.637  30.625  30.914  1.00  0.00    -0.248 NA
ATOM     18  C   UNL A   1      38.322  31.093  29.040  1.00  0.00     0.031 C 
ATOM     19  C   UNL A   1      37.819  34.284  32.835  1.00  0.00     0.029 A 
ATOM     20  N   UNL A   1      39.478  32.798  33.010  1.00  0.00    -0.354 N 
ATOM     21  C   UNL A   1      39.902  29.699  29.917  1.00  0.00     0.074 A 
ATOM     22  C   UNL A   1      39.057  30.021  28.789  1.00  0.00     0.031 C 
ATOM     23  C   UNL A   1      38.535  34.615  33.918  1.00  0.00     0.029 A 
ATOM     24  C   UNL A   1      39.560  33.603  34.121  1.00  0.00     0.049 A 
ATOM     25  H   UNL A   1      40.119  32.078  32.814  1.00  0.00     0.167 HD
ATOM     26  C   UNL A   1      40.757  28.653  29.979  1.00  0.00     0.037 A 
ATOM     27  C   UNL A   1      40.326  33.479  35.218  1.00  0.00     0.037 A 
ATOM     28  C   UNL A   1      41.583  28.396  31.128  1.00  0.00     0.049 A 
ATOM     29  C   UNL A   1      41.240  32.290  35.290  1.00  0.00     0.074 A 
ATOM     30  C   UNL A   1      42.452  27.349  31.362  1.00  0.00     0.029 A 
ATOM     31  N   UNL A   1      41.640  29.226  32.244  1.00  0.00    -0.354 N 
ATOM     32  N   UNL A   1      41.417  31.340  34.401  1.00  0.00    -0.248 NA
ATOM     33  C   UNL A   1      42.030  32.131  36.514  1.00  0.00     0.031 C 
ATOM     34  C   UNL A   1      43.010  27.530  32.635  1.00  0.00     0.029 A 
ATOM     35  C   UNL A   1      42.520  28.713  33.175  1.00  0.00     0.049 A 
ATOM     36  H   UNL A   1      41.126  30.059  32.353  1.00  0.00     0.167 HD
ATOM     37  C   UNL A   1      42.341  30.467  34.954  1.00  0.00     0.074 A 
ATOM     38  C   UNL A   1      42.698  31.015  36.251  1.00  0.00     0.031 C 
ATOM     39  C   UNL A   1      42.843  29.314  34.447  1.00  0.00     0.037 A 
BRANCH  26  40
ATOM     40  C   UNL A   1      40.726  27.693  28.829  1.00  0.00     0.057 A 
ATOM     41  C   UNL A   1      41.547  27.839  27.703  1.00  0.00     0.134 A 
ATOM     42  C   UNL A   1      39.781  26.659  28.808  1.00  0.00     0.134 A 
ATOM     43  F   UNL A   1      42.448  28.831  27.644  1.00  0.00    -0.206 F 
ATOM     44  C   UNL A   1      41.397  27.021  26.580  1.00  0.00     0.040 A 
ATOM     45  C   UNL A   1      39.640  25.819  27.702  1.00  0.00     0.040 A 
ATOM     46  F   UNL A   1      38.956  26.468  29.849  1.00  0.00    -0.206 F 
ATOM     47  C   UNL A   1      40.439  26.009  26.577  1.00  0.00     0.006 A 
ENDBRANCH  26  40
BRANCH  27  48
ATOM     48  C   UNL A   1      40.183  34.447  36.335  1.00  0.00     0.057 A 
ATOM     49  C   UNL A   1      40.898  35.649  36.354  1.00  0.00     0.134 A 
ATOM     50  C   UNL A   1      39.278  34.224  37.383  1.00  0.00     0.134 A 
ATOM     51  F   UNL A   1      41.788  35.919  35.388  1.00  0.00    -0.206 F 
ATOM     52  C   UNL A   1      40.717  36.593  37.369  1.00  0.00     0.040 A 
ATOM     53  C   UNL A   1      39.068  35.169  38.389  1.00  0.00     0.040 A 
ATOM     54  F   UNL A   1      38.553  33.096  37.422  1.00  0.00    -0.206 F 
ATOM     55  C   UNL A   1      39.792  36.358  38.385  1.00  0.00     0.006 A 
ENDBRANCH  27  48
BRANCH  39  56
ATOM     56  C   UNL A   1      43.852  28.598  35.289  1.00  0.00     0.057 A 
ATOM     57  C   UNL A   1      45.217  28.888  35.198  1.00  0.00     0.134 A 
ATOM     58  C   UNL A   1      43.437  27.674  36.252  1.00  0.00     0.134 A 
ATOM     59  F   UNL A   1      45.670  29.756  34.281  1.00  0.00    -0.206 F 
ATOM     60  C   UNL A   1      46.142  28.277  36.042  1.00  0.00     0.040 A 
ATOM     61  C   UNL A   1      44.350  27.071  37.116  1.00  0.00     0.040 A 
ATOM     62  F   UNL A   1      42.139  27.363  36.384  1.00  0.00    -0.206 F 
ATOM     63  C   UNL A   1      45.706  27.374  37.012  1.00  0.00     0.006 A 
ENDBRANCH  39  56
ENDBRANCH  13  14
ENDBRANCH   6   8
ENDBRANCH   5   6
ENDBRANCH   4   5
ENDBRANCH   3   4
ENDBRANCH   2   3
ENDBRANCH   1   2
BRANCH   1  64
ATOM     64  C   UNL A   1      33.583  28.207  26.864  1.00  0.00     0.261 C 
BRANCH  64  65
ATOM     65  O   UNL A   1      34.059  27.142  26.026  1.00  0.00    -0.459 OA
BRANCH  65  66
ATOM     66  C   UNL A   1      33.142  26.174  25.707  1.00  0.00     0.344 C 
ATOM     67  O   UNL A   1      32.262  25.764  26.447  1.00  0.00    -0.246 OA
BRANCH  66  68
ATOM     68  C   UNL A   1      33.269  25.810  24.314  1.00  0.00     0.133 A 
ATOM     69  C   UNL A   1      32.513  26.206  23.171  1.00  0.00     0.128 A 
ATOM     70  C   UNL A   1      34.174  24.899  23.813  1.00  0.00     0.177 A 
ATOM     71  N   UNL A   1      33.060  25.706  22.051  1.00  0.00    -0.079 NA
ATOM     72  O   UNL A   1      34.076  24.866  22.461  1.00  0.00    -0.357 OA
BRANCH  69  73
ATOM     73  C   UNL A   1      31.314  27.032  23.096  1.00  0.00     0.005 A 
ATOM     74  C   UNL A   1      31.378  28.346  22.607  1.00  0.00     0.012 A 
ATOM     75  C   UNL A   1      30.079  26.522  23.516  1.00  0.00     0.012 A 
ATOM     76  C   UNL A   1      30.237  29.155  22.611  1.00  0.00     0.021 A 
ATOM     77  C   UNL A   1      28.933  27.320  23.491  1.00  0.00     0.021 A 
ATOM     78  C   UNL A   1      29.021  28.639  23.055  1.00  0.00     0.041 A 
ATOM     79  Cl  UNL A   1      27.620  29.638  23.071  1.00  0.00    -0.084 Cl
ENDBRANCH  69  73
BRANCH  70  80
ATOM     80  C   UNL A   1      35.083  23.915  24.443  1.00  0.00     0.242 C 
BRANCH  80  81
ATOM     81  O   UNL A   1      34.559  22.618  24.159  1.00  0.00    -0.345 OA
BRANCH  81  82
ATOM     82  C   UNL A   1      33.454  22.225  24.975  1.00  0.00     0.250 C 
ATOM     83  C   UNL A   1      33.845  20.972  25.758  1.00  0.00     0.062 C 
ATOM     84  O   UNL A   1      32.255  21.973  24.247  1.00  0.00    -0.353 OA
ATOM     85  C   UNL A   1      34.010  19.780  24.819  1.00  0.00     0.008 C 
ATOM     86  C   UNL A   1      32.324  20.868  23.346  1.00  0.00     0.163 C 
ATOM     87  C   UNL A   1      32.733  19.574  24.020  1.00  0.00     0.029 C 
ENDBRANCH  81  82
ENDBRANCH  80  81
ENDBRANCH  70  80
ENDBRANCH  66  68
ENDBRANCH  65  66
ENDBRANCH  64  65
ENDBRANCH   1  64
TORSDOF 18
ENDMDL
MODEL 2
REMARK VINA RESULT:     -11.1      4.181      8.586
REMARK SMILES O=C(OCCOCCOC(=O)c1c(-c2ccc(Cl)cc2)noc1CO[C@@H]1CCCCO1)c1ccc(-c2c3nc(c(-c4c(F)cccc4F)c4ccc([nH]4)c(-c4c(F)cccc4F)c4nc(c(-c5c(F)cccc5F)c5ccc2[nH]5)C=C4)C=C3)cc1
REMARK SMILES IDX 7 1 6 2 5 3 4 4 3 5 2 6 1 7 32 8 33 9 85 10 34 11 84 12
REMARK SMILES IDX 35 13 36 14 37 15 78 16 38 17 83 18 77 19 79 20 39 21 82 22
REMARK SMILES IDX 76 23 75 24 40 26 66 27 49 28 65 29 50 30 53 31 64 32 80 33
REMARK SMILES IDX 51 34 52 35 63 37 81 38 54 39 41 40 42 41 47 42 43 43 44 44
REMARK SMILES IDX 46 45 48 46 45 47 67 48 68 49 73 50 69 51 70 52 72 53 74 54
REMARK SMILES IDX 71 55 55 56 56 57 61 58 57 59 58 60 60 61 62 62 59 63 8 64
REMARK SMILES IDX 9 65 10 66 11 67 12 68 13 69 23 70 21 71 22 72 14 73 15 74
REMARK SMILES IDX 20 75 16 76 19 77 17 78 18 79 24 80 25 81 26 82 27 83 31 84
REMARK SMILES IDX 28 85 30 86 29 87
REMARK H PARENT 79 25 53 36
REMARK Flexibility Score: inf
ROOT
ATOM      1  C   UNL A   1      33.404  29.238  23.976  1.00  0.00     0.202 C 
ENDROOT
BRANCH   1   2
ATOM      2  O   UNL A   1      32.330  28.956  24.869  1.00  0.00    -0.374 OA
BRANCH   2   3
ATOM      3  C   UNL A   1      31.844  30.012  25.676  1.00  0.00     0.202 C 
BRANCH   3   4
ATOM      4  C   UNL A   1      32.106  29.851  27.167  1.00  0.00     0.261 C 
BRANCH   4   5
ATOM      5  O   UNL A   1      33.496  29.567  27.402  1.00  0.00    -0.460 OA
BRANCH   5   6
ATOM      6  C   UNL A   1      34.393  30.449  27.907  1.00  0.00     0.338 C 
ATOM      7  O   UNL A   1      34.057  31.594  28.190  1.00  0.00    -0.246 OA
BRANCH   6   8
ATOM      8  C   UNL A   1      35.792  30.032  28.160  1.00  0.00     0.060 A 
ATOM      9  C   UNL A   1      36.792  30.192  27.202  1.00  0.00     0.016 A 
ATOM     10  C   UNL A   1      36.136  29.548  29.423  1.00  0.00     0.016 A 
ATOM     11  C   UNL A   1      38.084  29.765  27.423  1.00  0.00     0.010 A 
ATOM     12  C   UNL A   1      37.467  29.230  29.698  1.00  0.00     0.010 A 
ATOM     13  C   UNL A   1      38.442  29.341  28.693  1.00  0.00    -0.014 A 
BRANCH  13  14
ATOM     14  C   UNL A   1      39.855  29.035  28.948  1.00  0.00     0.031 A 
ATOM     15  C   UNL A   1      40.714  30.091  29.548  1.00  0.00     0.074 A 
ATOM     16  C   UNL A   1      40.321  27.802  28.676  1.00  0.00     0.049 A 
ATOM     17  N   UNL A   1      42.013  30.155  29.616  1.00  0.00    -0.248 NA
ATOM     18  C   UNL A   1      40.010  31.239  30.140  1.00  0.00     0.031 C 
ATOM     19  C   UNL A   1      39.509  26.671  28.213  1.00  0.00     0.029 A 
ATOM     20  N   UNL A   1      41.585  27.288  28.756  1.00  0.00    -0.354 N 
ATOM     21  C   UNL A   1      42.288  31.389  30.185  1.00  0.00     0.074 A 
ATOM     22  C   UNL A   1      41.022  32.025  30.476  1.00  0.00     0.031 C 
ATOM     23  C   UNL A   1      40.294  25.595  28.063  1.00  0.00     0.029 A 
ATOM     24  C   UNL A   1      41.672  25.993  28.306  1.00  0.00     0.049 A 
ATOM     25  H   UNL A   1      42.356  27.795  29.100  1.00  0.00     0.167 HD
ATOM     26  C   UNL A   1      43.504  31.939  30.399  1.00  0.00     0.037 A 
ATOM     27  C   UNL A   1      42.757  25.244  28.043  1.00  0.00     0.037 A 
ATOM     28  C   UNL A   1      44.729  31.246  30.101  1.00  0.00     0.049 A 
ATOM     29  C   UNL A   1      44.100  25.882  28.247  1.00  0.00     0.074 A 
ATOM     30  C   UNL A   1      46.032  31.690  30.207  1.00  0.00     0.029 A 
ATOM     31  N   UNL A   1      44.786  29.934  29.638  1.00  0.00    -0.354 N 
ATOM     32  N   UNL A   1      44.375  27.092  28.676  1.00  0.00    -0.248 NA
ATOM     33  C   UNL A   1      45.277  25.079  27.903  1.00  0.00     0.031 C 
ATOM     34  C   UNL A   1      46.875  30.656  29.779  1.00  0.00     0.029 A 
ATOM     35  C   UNL A   1      46.099  29.554  29.445  1.00  0.00     0.049 A 
ATOM     36  H   UNL A   1      44.002  29.361  29.473  1.00  0.00     0.167 HD
ATOM     37  C   UNL A   1      45.756  27.201  28.658  1.00  0.00     0.074 A 
ATOM     38  C   UNL A   1      46.261  25.922  28.190  1.00  0.00     0.031 C 
ATOM     39  C   UNL A   1      46.539  28.258  28.986  1.00  0.00     0.037 A 
BRANCH  26  40
ATOM     40  C   UNL A   1      43.525  33.363  30.862  1.00  0.00     0.057 A 
ATOM     41  C   UNL A   1      43.511  34.445  29.971  1.00  0.00     0.134 A 
ATOM     42  C   UNL A   1      43.664  33.653  32.226  1.00  0.00     0.134 A 
ATOM     43  F   UNL A   1      43.417  34.236  28.650  1.00  0.00    -0.206 F 
ATOM     44  C   UNL A   1      43.681  35.759  30.417  1.00  0.00     0.040 A 
ATOM     45  C   UNL A   1      43.808  34.964  32.684  1.00  0.00     0.040 A 
ATOM     46  F   UNL A   1      43.694  32.665  33.133  1.00  0.00    -0.206 F 
ATOM     47  C   UNL A   1      43.832  36.020  31.777  1.00  0.00     0.006 A 
ENDBRANCH  26  40
BRANCH  27  48
ATOM     48  C   UNL A   1      42.596  23.876  27.488  1.00  0.00     0.057 A 
ATOM     49  C   UNL A   1      42.374  22.774  28.319  1.00  0.00     0.134 A 
ATOM     50  C   UNL A   1      42.596  23.646  26.104  1.00  0.00     0.134 A 
ATOM     51  F   UNL A   1      42.374  22.923  29.652  1.00  0.00    -0.206 F 
ATOM     52  C   UNL A   1      42.157  21.495  27.798  1.00  0.00     0.040 A 
ATOM     53  C   UNL A   1      42.354  22.379  25.569  1.00  0.00     0.040 A 
ATOM     54  F   UNL A   1      42.793  24.660  25.249  1.00  0.00    -0.206 F 
ATOM     55  C   UNL A   1      42.136  21.298  26.418  1.00  0.00     0.006 A 
ENDBRANCH  27  48
BRANCH  39  56
ATOM     56  C   UNL A   1      48.017  28.053  28.879  1.00  0.00     0.057 A 
ATOM     57  C   UNL A   1      48.754  27.482  29.921  1.00  0.00     0.134 A 
ATOM     58  C   UNL A   1      48.685  28.356  27.688  1.00  0.00     0.134 A 
ATOM     59  F   UNL A   1      48.165  27.185  31.089  1.00  0.00    -0.206 F 
ATOM     60  C   UNL A   1      50.115  27.218  29.782  1.00  0.00     0.040 A 
ATOM     61  C   UNL A   1      50.042  28.079  27.529  1.00  0.00     0.040 A 
ATOM     62  F   UNL A   1      48.025  28.902  26.655  1.00  0.00    -0.206 F 
ATOM     63  C   UNL A   1      50.759  27.507  28.579  1.00  0.00     0.006 A 
ENDBRANCH  39  56
ENDBRANCH  13  14
ENDBRANCH   6   8
ENDBRANCH   5   6
ENDBRANCH   4   5
ENDBRANCH   3   4
ENDBRANCH   2   3
ENDBRANCH   1   2
BRANCH   1  64
ATOM     64  C   UNL A   1      33.187  28.359  22.743  1.00  0.00     0.261 C 
BRANCH  64  65
ATOM     65  O   UNL A   1      31.774  28.285  22.498  1.00  0.00    -0.459 OA
BRANCH  65  66
ATOM     66  C   UNL A   1      31.272  27.034  22.248  1.00  0.00     0.344 C 
ATOM     67  O   UNL A   1      31.303  26.464  21.169  1.00  0.00    -0.246 OA
BRANCH  66  68
ATOM     68  C   UNL A   1      30.832  26.420  23.481  1.00  0.00     0.133 A 
ATOM     69  C   UNL A   1      31.473  25.477  24.337  1.00  0.00     0.128 A 
ATOM     70  C   UNL A   1      29.595  26.606  24.060  1.00  0.00     0.177 A 
ATOM     71  N   UNL A   1      30.737  25.269  25.441  1.00  0.00    -0.079 NA
ATOM     72  O   UNL A   1      29.552  25.952  25.247  1.00  0.00    -0.357 OA
BRANCH  69  73
ATOM     73  C   UNL A   1      32.740  24.777  24.158  1.00  0.00     0.005 A 
ATOM     74  C   UNL A   1      33.853  25.096  24.950  1.00  0.00     0.012 A 
ATOM     75  C   UNL A   1      32.860  23.775  23.187  1.00  0.00     0.012 A 
ATOM     76  C   UNL A   1      35.084  24.473  24.718  1.00  0.00     0.021 A 
ATOM     77  C   UNL A   1      34.082  23.130  22.977  1.00  0.00     0.021 A 
ATOM     78  C   UNL A   1      35.193  23.495  23.732  1.00  0.00     0.041 A 
ATOM     79  Cl  UNL A   1      36.709  22.737  23.440  1.00  0.00    -0.084 Cl
ENDBRANCH  69  73
BRANCH  70  80
ATOM     80  C   UNL A   1      28.338  27.236  23.597  1.00  0.00     0.242 C 
BRANCH  80  81
ATOM     81  O   UNL A   1      28.642  28.595  23.280  1.00  0.00    -0.345 OA
BRANCH  81  82
ATOM     82  C   UNL A   1      27.595  29.306  22.618  1.00  0.00     0.250 C 
ATOM     83  C   UNL A   1      28.180  30.015  21.397  1.00  0.00     0.062 C 
ATOM     84  O   UNL A   1      26.927  30.257  23.443  1.00  0.00    -0.353 OA
ATOM     85  C   UNL A   1      29.126  31.134  21.828  1.00  0.00     0.008 C 
ATOM     86  C   UNL A   1      27.743  31.341  23.886  1.00  0.00     0.163 C 
ATOM     87  C   UNL A   1      28.397  32.099  22.749  1.00  0.00     0.029 C 
ENDBRANCH  81  82
ENDBRANCH  80  81
ENDBRANCH  70  80
ENDBRANCH  66  68
ENDBRANCH  65  66
ENDBRANCH  64  65
ENDBRANCH   1  64
TORSDOF 18
ENDMDL
MODEL 3
REMARK VINA RESULT:     -11.1      1.160      6.279
REMARK SMILES O=C(OCCOCCOC(=O)c1c(-c2ccc(Cl)cc2)noc1CO[C@@H]1CCCCO1)c1ccc(-c2c3nc(c(-c4c(F)cccc4F)c4ccc([nH]4)c(-c4c(F)cccc4F)c4nc(c(-c5c(F)cccc5F)c5ccc2[nH]5)C=C4)C=C3)cc1
REMARK SMILES IDX 7 1 6 2 5 3 4 4 3 5 2 6 1 7 32 8 33 9 85 10 34 11 84 12
REMARK SMILES IDX 35 13 36 14 37 15 78 16 38 17 83 18 77 19 79 20 39 21 82 22
REMARK SMILES IDX 76 23 75 24 40 26 66 27 49 28 65 29 50 30 53 31 64 32 80 33
REMARK SMILES IDX 51 34 52 35 63 37 81 38 54 39 41 40 42 41 47 42 43 43 44 44
REMARK SMILES IDX 46 45 48 46 45 47 67 48 68 49 73 50 69 51 70 52 72 53 74 54
REMARK SMILES IDX 71 55 55 56 56 57 61 58 57 59 58 60 60 61 62 62 59 63 8 64
REMARK SMILES IDX 9 65 10 66 11 67 12 68 13 69 23 70 21 71 22 72 14 73 15 74
REMARK SMILES IDX 20 75 16 76 19 77 17 78 18 79 24 80 25 81 26 82 27 83 31 84
REMARK SMILES IDX 28 85 30 86 29 87
REMARK H PARENT 79 25 53 36
REMARK Flexibility Score: inf
ROOT
ATOM      1  C   UNL A   1      32.606  30.011  26.157  1.00  0.00     0.202 C 
ENDROOT
BRANCH   1   2
ATOM      2  O   UNL A   1      31.524  30.847  25.758  1.00  0.00    -0.374 OA
BRANCH   2   3
ATOM      3  C   UNL A   1      31.287  32.026  26.505  1.00  0.00     0.202 C 
BRANCH   3   4
ATOM      4  C   UNL A   1      32.507  32.585  27.224  1.00  0.00     0.261 C 
BRANCH   4   5
ATOM      5  O   UNL A   1      32.237  33.911  27.708  1.00  0.00    -0.460 OA
BRANCH   5   6
ATOM      6  C   UNL A   1      33.047  34.614  28.537  1.00  0.00     0.338 C 
ATOM      7  O   UNL A   1      32.813  35.788  28.798  1.00  0.00    -0.246 OA
BRANCH   6   8
ATOM      8  C   UNL A   1      34.217  33.961  29.171  1.00  0.00     0.060 A 
ATOM      9  C   UNL A   1      34.072  32.989  30.159  1.00  0.00     0.016 A 
ATOM     10  C   UNL A   1      35.496  34.262  28.702  1.00  0.00     0.016 A 
ATOM     11  C   UNL A   1      35.161  32.414  30.778  1.00  0.00     0.010 A 
ATOM     12  C   UNL A   1      36.599  33.593  29.234  1.00  0.00     0.010 A 
ATOM     13  C   UNL A   1      36.427  32.666  30.275  1.00  0.00    -0.014 A 
BRANCH  13  14
ATOM     14  C   UNL A   1      37.559  31.926  30.848  1.00  0.00     0.031 A 
ATOM     15  C   UNL A   1      38.138  32.397  32.135  1.00  0.00     0.074 A 
ATOM     16  C   UNL A   1      38.009  30.823  30.223  1.00  0.00     0.049 A 
ATOM     17  N   UNL A   1      39.275  32.088  32.688  1.00  0.00    -0.248 NA
ATOM     18  C   UNL A   1      37.327  33.363  32.895  1.00  0.00     0.031 C 
ATOM     19  C   UNL A   1      37.407  30.220  29.028  1.00  0.00     0.029 A 
ATOM     20  N   UNL A   1      39.070  30.008  30.503  1.00  0.00    -0.354 N 
ATOM     21  C   UNL A   1      39.357  32.882  33.822  1.00  0.00     0.074 A 
ATOM     22  C   UNL A   1      38.140  33.659  33.897  1.00  0.00     0.031 C 
ATOM     23  C   UNL A   1      38.100  29.124  28.689  1.00  0.00     0.029 A 
ATOM     24  C   UNL A   1      39.255  29.019  29.568  1.00  0.00     0.049 A 
ATOM     25  H   UNL A   1      39.644  30.119  31.296  1.00  0.00     0.167 HD
ATOM     26  C   UNL A   1      40.391  32.964  34.690  1.00  0.00     0.037 A 
ATOM     27  C   UNL A   1      40.289  28.178  29.398  1.00  0.00     0.037 A 
ATOM     28  C   UNL A   1      41.570  32.150  34.568  1.00  0.00     0.049 A 
ATOM     29  C   UNL A   1      41.447  28.310  30.344  1.00  0.00     0.074 A 
ATOM     30  C   UNL A   1      42.720  32.159  35.331  1.00  0.00     0.029 A 
ATOM     31  N   UNL A   1      41.732  31.159  33.603  1.00  0.00    -0.354 N 
ATOM     32  N   UNL A   1      41.589  29.137  31.354  1.00  0.00    -0.248 NA
ATOM     33  C   UNL A   1      42.596  27.428  30.116  1.00  0.00     0.031 C 
ATOM     34  C   UNL A   1      43.591  31.195  34.807  1.00  0.00     0.029 A 
ATOM     35  C   UNL A   1      42.966  30.556  33.744  1.00  0.00     0.049 A 
ATOM     36  H   UNL A   1      41.064  30.923  32.920  1.00  0.00     0.167 HD
ATOM     37  C   UNL A   1      42.841  28.878  31.888  1.00  0.00     0.074 A 
ATOM     38  C   UNL A   1      43.410  27.801  31.095  1.00  0.00     0.031 C 
ATOM     39  C   UNL A   1      43.471  29.477  32.928  1.00  0.00     0.037 A 
BRANCH  26  40
ATOM     40  C   UNL A   1      40.305  34.034  35.735  1.00  0.00     0.057 A 
ATOM     41  C   UNL A   1      39.736  33.812  36.996  1.00  0.00     0.134 A 
ATOM     42  C   UNL A   1      40.710  35.341  35.432  1.00  0.00     0.134 A 
ATOM     43  F   UNL A   1      39.295  32.592  37.337  1.00  0.00    -0.206 F 
ATOM     44  C   UNL A   1      39.532  34.859  37.899  1.00  0.00     0.040 A 
ATOM     45  C   UNL A   1      40.534  36.390  36.336  1.00  0.00     0.040 A 
ATOM     46  F   UNL A   1      41.254  35.626  34.239  1.00  0.00    -0.206 F 
ATOM     47  C   UNL A   1      39.929  36.153  37.568  1.00  0.00     0.006 A 
ENDBRANCH  26  40
BRANCH  27  48
ATOM     48  C   UNL A   1      40.294  27.231  28.254  1.00  0.00     0.057 A 
ATOM     49  C   UNL A   1      40.985  27.517  27.073  1.00  0.00     0.134 A 
ATOM     50  C   UNL A   1      39.658  25.983  28.338  1.00  0.00     0.134 A 
ATOM     51  F   UNL A   1      41.605  28.697  26.923  1.00  0.00    -0.206 F 
ATOM     52  C   UNL A   1      41.047  26.599  26.019  1.00  0.00     0.040 A 
ATOM     53  C   UNL A   1      39.733  25.047  27.305  1.00  0.00     0.040 A 
ATOM     54  F   UNL A   1      38.985  25.640  29.446  1.00  0.00    -0.206 F 
ATOM     55  C   UNL A   1      40.429  25.356  26.139  1.00  0.00     0.006 A 
ENDBRANCH  27  48
BRANCH  39  56
ATOM     56  C   UNL A   1      44.828  28.952  33.278  1.00  0.00     0.057 A 
ATOM     57  C   UNL A   1      44.991  27.875  34.156  1.00  0.00     0.134 A 
ATOM     58  C   UNL A   1      45.968  29.481  32.665  1.00  0.00     0.134 A 
ATOM     59  F   UNL A   1      43.932  27.340  34.782  1.00  0.00    -0.206 F 
ATOM     60  C   UNL A   1      46.251  27.339  34.413  1.00  0.00     0.040 A 
ATOM     61  C   UNL A   1      47.231  28.940  32.899  1.00  0.00     0.040 A 
ATOM     62  F   UNL A   1      45.867  30.511  31.812  1.00  0.00    -0.206 F 
ATOM     63  C   UNL A   1      47.373  27.865  33.775  1.00  0.00     0.006 A 
ENDBRANCH  39  56
ENDBRANCH  13  14
ENDBRANCH   6   8
ENDBRANCH   5   6
ENDBRANCH   4   5
ENDBRANCH   3   4
ENDBRANCH   2   3
ENDBRANCH   1   2
BRANCH   1  64
ATOM     64  C   UNL A   1      31.984  28.771  26.799  1.00  0.00     0.261 C 
BRANCH  64  65
ATOM     65  O   UNL A   1      32.923  27.691  26.672  1.00  0.00    -0.459 OA
BRANCH  65  66
ATOM     66  C   UNL A   1      32.415  26.503  26.214  1.00  0.00     0.344 C 
ATOM     67  O   UNL A   1      31.606  25.807  26.806  1.00  0.00    -0.246 OA
BRANCH  66  68
ATOM     68  C   UNL A   1      32.860  26.263  24.860  1.00  0.00     0.133 A 
ATOM     69  C   UNL A   1      32.345  26.719  23.611  1.00  0.00     0.128 A 
ATOM     70  C   UNL A   1      33.906  25.437  24.505  1.00  0.00     0.177 A 
ATOM     71  N   UNL A   1      33.149  26.337  22.605  1.00  0.00    -0.079 NA
ATOM     72  O   UNL A   1      34.103  25.512  23.166  1.00  0.00    -0.357 OA
BRANCH  69  73
ATOM     73  C   UNL A   1      31.141  27.494  23.334  1.00  0.00     0.005 A 
ATOM     74  C   UNL A   1      31.231  28.800  22.829  1.00  0.00     0.012 A 
ATOM     75  C   UNL A   1      29.877  26.942  23.575  1.00  0.00     0.012 A 
ATOM     76  C   UNL A   1      30.074  29.563  22.640  1.00  0.00     0.021 A 
ATOM     77  C   UNL A   1      28.719  27.693  23.356  1.00  0.00     0.021 A 
ATOM     78  C   UNL A   1      28.824  29.007  22.906  1.00  0.00     0.041 A 
ATOM     79  Cl  UNL A   1      27.402  29.949  22.685  1.00  0.00    -0.084 Cl
ENDBRANCH  69  73
BRANCH  70  80
ATOM     80  C   UNL A   1      34.717  24.445  25.247  1.00  0.00     0.242 C 
BRANCH  80  81
ATOM     81  O   UNL A   1      33.988  23.217  25.238  1.00  0.00    -0.345 OA
BRANCH  81  82
ATOM     82  C   UNL A   1      34.368  22.300  24.211  1.00  0.00     0.250 C 
ATOM     83  C   UNL A   1      33.184  22.107  23.265  1.00  0.00     0.062 C 
ATOM     84  O   UNL A   1      34.801  21.031  24.695  1.00  0.00    -0.353 OA
ATOM     85  C   UNL A   1      32.048  21.369  23.970  1.00  0.00     0.008 C 
ATOM     86  C   UNL A   1      33.793  20.274  25.364  1.00  0.00     0.163 C 
ATOM     87  C   UNL A   1      32.557  20.046  24.520  1.00  0.00     0.029 C 
ENDBRANCH  81  82
ENDBRANCH  80  81
ENDBRANCH  70  80
ENDBRANCH  66  68
ENDBRANCH  65  66
ENDBRANCH  64  65
ENDBRANCH   1  64
TORSDOF 18
ENDMDL
