MODEL 1
REMARK VINA RESULT:     -11.4      0.000      0.000
REMARK SMILES O=C(C[C@H](C1CCCCC1)N1Cc2ccccc2C1=O)OCCOCCOC(=O)c1ccc(-c2c3nc(c(-c4c(F)cccc4F)c4ccc([nH]4)c(-c4c(F)cccc4F)c4nc(c(-c5c(F)cccc5F)c5ccc2[nH]5)C=C4)C=C3)cc1
REMARK SMILES IDX 24 1 23 2 22 3 21 4 2 5 1 6 3 7 4 8 11 9 12 10 19 11 13 12
REMARK SMILES IDX 18 13 20 14 14 15 17 16 15 17 16 18 5 19 6 20 10 21 7 22
REMARK SMILES IDX 9 23 8 24 25 25 26 26 27 27 28 28 29 29 30 30 31 31 83 32
REMARK SMILES IDX 32 33 82 34 33 35 34 36 35 37 76 38 36 39 81 40 75 41 77 42
REMARK SMILES IDX 37 43 80 44 74 45 73 46 38 48 64 49 47 50 63 51 48 52 51 53
REMARK SMILES IDX 62 54 78 55 49 56 50 57 61 59 79 60 52 61 39 62 40 63 45 64
REMARK SMILES IDX 41 65 42 66 44 67 46 68 43 69 65 70 66 71 71 72 67 73 68 74
REMARK SMILES IDX 70 75 72 76 69 77 53 78 54 79 59 80 55 81 56 82 58 83 60 84
REMARK SMILES IDX 57 85
REMARK H PARENT 77 47 51 58
REMARK Flexibility Score: inf
ROOT
ATOM      1  O   UNL A   1      41.427  20.829  25.547  1.00  0.00    -0.374 OA
ENDROOT
BRANCH   1   2
ATOM      2  C   UNL A   1      40.294  20.827  26.402  1.00  0.00     0.202 C 
BRANCH   2   3
ATOM      3  C   UNL A   1      39.399  22.062  26.504  1.00  0.00     0.261 C 
BRANCH   3   4
ATOM      4  O   UNL A   1      38.089  21.947  25.947  1.00  0.00    -0.463 OA
BRANCH   4   5
ATOM      5  C   UNL A   1      37.279  22.972  25.609  1.00  0.00     0.307 C 
ATOM      6  O   UNL A   1      37.512  24.086  26.076  1.00  0.00    -0.252 OA
BRANCH   5   7
ATOM      7  C   UNL A   1      36.049  22.730  24.767  1.00  0.00     0.148 C 
BRANCH   7   8
ATOM      8  C   UNL A   1      34.707  22.648  25.488  1.00  0.00     0.100 C 
BRANCH   8   9
ATOM      9  N   UNL A   1      34.112  24.004  25.588  1.00  0.00    -0.330 N 
ATOM     10  C   UNL A   1      34.574  25.105  24.734  1.00  0.00     0.156 C 
ATOM     11  C   UNL A   1      32.989  24.369  26.315  1.00  0.00     0.254 C 
ATOM     12  C   UNL A   1      33.631  26.211  25.068  1.00  0.00    -0.016 A 
ATOM     13  C   UNL A   1      32.687  25.758  25.982  1.00  0.00     0.045 A 
ATOM     14  O   UNL A   1      32.326  23.738  27.108  1.00  0.00    -0.269 OA
ATOM     15  C   UNL A   1      33.572  27.518  24.615  1.00  0.00     0.006 A 
ATOM     16  C   UNL A   1      31.655  26.539  26.463  1.00  0.00     0.014 A 
ATOM     17  C   UNL A   1      32.542  28.340  25.099  1.00  0.00     0.000 A 
ATOM     18  C   UNL A   1      31.587  27.853  26.010  1.00  0.00     0.001 A 
ENDBRANCH   8   9
BRANCH   8  19
ATOM     19  C   UNL A   1      33.740  21.561  24.944  1.00  0.00     0.012 C 
ATOM     20  C   UNL A   1      33.200  21.831  23.529  1.00  0.00     0.006 C 
ATOM     21  C   UNL A   1      34.379  20.151  24.933  1.00  0.00     0.006 C 
ATOM     22  C   UNL A   1      32.081  20.849  23.220  1.00  0.00     0.000 C 
ATOM     23  C   UNL A   1      33.372  19.079  24.504  1.00  0.00     0.000 C 
ATOM     24  C   UNL A   1      32.634  19.428  23.211  1.00  0.00     0.000 C 
ENDBRANCH   8  19
ENDBRANCH   7   8
ENDBRANCH   5   7
ENDBRANCH   4   5
ENDBRANCH   3   4
ENDBRANCH   2   3
ENDBRANCH   1   2
BRANCH   1  25
ATOM     25  C   UNL A   1      42.736  20.854  26.127  1.00  0.00     0.202 C 
BRANCH  25  26
ATOM     26  C   UNL A   1      43.769  21.837  25.578  1.00  0.00     0.261 C 
BRANCH  26  27
ATOM     27  O   UNL A   1      43.157  23.014  25.039  1.00  0.00    -0.460 OA
BRANCH  27  28
ATOM     28  C   UNL A   1      43.886  24.144  25.189  1.00  0.00     0.338 C 
ATOM     29  O   UNL A   1      44.901  24.459  24.594  1.00  0.00    -0.246 OA
BRANCH  28  30
ATOM     30  C   UNL A   1      43.124  25.082  26.029  1.00  0.00     0.060 A 
ATOM     31  C   UNL A   1      43.490  26.436  25.994  1.00  0.00     0.016 A 
ATOM     32  C   UNL A   1      42.092  24.636  26.856  1.00  0.00     0.016 A 
ATOM     33  C   UNL A   1      42.866  27.345  26.837  1.00  0.00     0.010 A 
ATOM     34  C   UNL A   1      41.480  25.542  27.716  1.00  0.00     0.010 A 
ATOM     35  C   UNL A   1      41.902  26.884  27.740  1.00  0.00    -0.014 A 
BRANCH  35  36
ATOM     36  C   UNL A   1      41.499  27.749  28.864  1.00  0.00     0.031 A 
ATOM     37  C   UNL A   1      42.270  27.638  30.146  1.00  0.00     0.074 A 
ATOM     38  C   UNL A   1      40.480  28.612  28.733  1.00  0.00     0.049 A 
ATOM     39  N   UNL A   1      42.057  28.218  31.297  1.00  0.00    -0.248 NA
ATOM     40  C   UNL A   1      43.439  26.740  30.131  1.00  0.00     0.031 C 
ATOM     41  C   UNL A   1      39.702  28.821  27.514  1.00  0.00     0.029 A 
ATOM     42  N   UNL A   1      39.917  29.459  29.649  1.00  0.00    -0.354 N 
ATOM     43  C   UNL A   1      43.049  27.742  32.145  1.00  0.00     0.074 A 
ATOM     44  C   UNL A   1      43.848  26.805  31.388  1.00  0.00     0.031 C 
ATOM     45  C   UNL A   1      38.740  29.725  27.765  1.00  0.00     0.029 A 
ATOM     46  C   UNL A   1      38.816  30.124  29.170  1.00  0.00     0.049 A 
ATOM     47  H   UNL A   1      40.266  29.580  30.561  1.00  0.00     0.167 HD
ATOM     48  C   UNL A   1      43.272  28.066  33.439  1.00  0.00     0.037 A 
ATOM     49  C   UNL A   1      37.952  30.931  29.811  1.00  0.00     0.037 A 
ATOM     50  C   UNL A   1      42.462  29.000  34.174  1.00  0.00     0.049 A 
ATOM     51  C   UNL A   1      38.180  31.224  31.270  1.00  0.00     0.074 A 
ATOM     52  C   UNL A   1      42.606  29.423  35.482  1.00  0.00     0.029 A 
ATOM     53  N   UNL A   1      41.345  29.645  33.662  1.00  0.00    -0.354 N 
ATOM     54  N   UNL A   1      39.135  30.796  32.062  1.00  0.00    -0.248 NA
ATOM     55  C   UNL A   1      37.213  32.115  31.926  1.00  0.00     0.031 C 
ATOM     56  C   UNL A   1      41.542  30.279  35.779  1.00  0.00     0.029 A 
ATOM     57  C   UNL A   1      40.772  30.441  34.637  1.00  0.00     0.049 A 
ATOM     58  H   UNL A   1      41.012  29.551  32.740  1.00  0.00     0.167 HD
ATOM     59  C   UNL A   1      38.901  31.387  33.298  1.00  0.00     0.074 A 
ATOM     60  C   UNL A   1      37.722  32.213  33.145  1.00  0.00     0.031 C 
ATOM     61  C   UNL A   1      39.599  31.261  34.455  1.00  0.00     0.037 A 
BRANCH  48  62
ATOM     62  C   UNL A   1      44.404  27.376  34.141  1.00  0.00     0.057 A 
ATOM     63  C   UNL A   1      45.712  27.879  34.123  1.00  0.00     0.134 A 
ATOM     64  C   UNL A   1      44.180  26.193  34.858  1.00  0.00     0.134 A 
ATOM     65  F   UNL A   1      46.002  28.997  33.439  1.00  0.00    -0.206 F 
ATOM     66  C   UNL A   1      46.759  27.218  34.769  1.00  0.00     0.040 A 
ATOM     67  C   UNL A   1      45.212  25.540  35.533  1.00  0.00     0.040 A 
ATOM     68  F   UNL A   1      42.953  25.654  34.916  1.00  0.00    -0.206 F 
ATOM     69  C   UNL A   1      46.508  26.048  35.484  1.00  0.00     0.006 A 
ENDBRANCH  48  62
BRANCH  49  70
ATOM     70  C   UNL A   1      36.790  31.500  29.084  1.00  0.00     0.057 A 
ATOM     71  C   UNL A   1      36.784  32.831  28.652  1.00  0.00     0.134 A 
ATOM     72  C   UNL A   1      35.656  30.726  28.806  1.00  0.00     0.134 A 
ATOM     73  F   UNL A   1      37.833  33.627  28.904  1.00  0.00    -0.206 F 
ATOM     74  C   UNL A   1      35.686  33.377  27.985  1.00  0.00     0.040 A 
ATOM     75  C   UNL A   1      34.563  31.252  28.116  1.00  0.00     0.040 A 
ATOM     76  F   UNL A   1      35.601  29.442  29.188  1.00  0.00    -0.206 F 
ATOM     77  C   UNL A   1      34.573  32.584  27.711  1.00  0.00     0.006 A 
ENDBRANCH  49  70
BRANCH  61  78
ATOM     78  C   UNL A   1      39.130  32.067  35.631  1.00  0.00     0.057 A 
ATOM     79  C   UNL A   1      38.284  31.532  36.610  1.00  0.00     0.134 A 
ATOM     80  C   UNL A   1      39.576  33.383  35.811  1.00  0.00     0.134 A 
ATOM     81  F   UNL A   1      37.812  30.280  36.491  1.00  0.00    -0.206 F 
ATOM     82  C   UNL A   1      37.878  32.284  37.713  1.00  0.00     0.040 A 
ATOM     83  C   UNL A   1      39.203  34.134  36.925  1.00  0.00     0.040 A 
ATOM     84  F   UNL A   1      40.399  33.952  34.917  1.00  0.00    -0.206 F 
ATOM     85  C   UNL A   1      38.346  33.586  37.877  1.00  0.00     0.006 A 
ENDBRANCH  61  78
ENDBRANCH  35  36
ENDBRANCH  28  30
ENDBRANCH  27  28
ENDBRANCH  26  27
ENDBRANCH  25  26
ENDBRANCH   1  25
TORSDOF 17
ENDMDL
MODEL 2
REMARK VINA RESULT:     -11.3      3.995      7.843
REMARK SMILES O=C(C[C@H](C1CCCCC1)N1Cc2ccccc2C1=O)OCCOCCOC(=O)c1ccc(-c2c3nc(c(-c4c(F)cccc4F)c4ccc([nH]4)c(-c4c(F)cccc4F)c4nc(c(-c5c(F)cccc5F)c5ccc2[nH]5)C=C4)C=C3)cc1
REMARK SMILES IDX 24 1 23 2 22 3 21 4 2 5 1 6 3 7 4 8 11 9 12 10 19 11 13 12
REMARK SMILES IDX 18 13 20 14 14 15 17 16 15 17 16 18 5 19 6 20 10 21 7 22
REMARK SMILES IDX 9 23 8 24 25 25 26 26 27 27 28 28 29 29 30 30 31 31 83 32
REMARK SMILES IDX 32 33 82 34 33 35 34 36 35 37 76 38 36 39 81 40 75 41 77 42
REMARK SMILES IDX 37 43 80 44 74 45 73 46 38 48 64 49 47 50 63 51 48 52 51 53
REMARK SMILES IDX 62 54 78 55 49 56 50 57 61 59 79 60 52 61 39 62 40 63 45 64
REMARK SMILES IDX 41 65 42 66 44 67 46 68 43 69 65 70 66 71 71 72 67 73 68 74
REMARK SMILES IDX 70 75 72 76 69 77 53 78 54 79 59 80 55 81 56 82 58 83 60 84
REMARK SMILES IDX 57 85
REMARK H PARENT 77 47 51 58
REMARK Flexibility Score: inf
ROOT
ATOM      1  O   UNL A   1      35.434  22.596  24.802  1.00  0.00    -0.374 OA
ENDROOT
BRANCH   1   2
ATOM      2  C   UNL A   1      35.422  23.060  23.461  1.00  0.00     0.202 C 
BRANCH   2   3
ATOM      3  C   UNL A   1      34.100  23.400  22.772  1.00  0.00     0.261 C 
BRANCH   3   4
ATOM      4  O   UNL A   1      33.977  24.723  22.249  1.00  0.00    -0.463 OA
BRANCH   4   5
ATOM      5  C   UNL A   1      32.937  25.199  21.531  1.00  0.00     0.307 C 
ATOM      6  O   UNL A   1      33.090  25.383  20.325  1.00  0.00    -0.252 OA
BRANCH   5   7
ATOM      7  C   UNL A   1      31.652  25.600  22.216  1.00  0.00     0.148 C 
BRANCH   7   8
ATOM      8  C   UNL A   1      31.764  26.409  23.505  1.00  0.00     0.100 C 
BRANCH   8   9
ATOM      9  N   UNL A   1      30.901  27.611  23.414  1.00  0.00    -0.330 N 
ATOM     10  C   UNL A   1      29.511  27.520  22.949  1.00  0.00     0.156 C 
ATOM     11  C   UNL A   1      31.189  28.881  23.891  1.00  0.00     0.254 C 
ATOM     12  C   UNL A   1      28.996  28.906  23.147  1.00  0.00    -0.016 A 
ATOM     13  C   UNL A   1      29.986  29.692  23.725  1.00  0.00     0.045 A 
ATOM     14  O   UNL A   1      32.210  29.333  24.360  1.00  0.00    -0.269 OA
ATOM     15  C   UNL A   1      27.761  29.461  22.864  1.00  0.00     0.006 A 
ATOM     16  C   UNL A   1      29.805  31.018  24.064  1.00  0.00     0.014 A 
ATOM     17  C   UNL A   1      27.553  30.813  23.184  1.00  0.00     0.000 A 
ATOM     18  C   UNL A   1      28.565  31.583  23.786  1.00  0.00     0.001 A 
ENDBRANCH   8   9
BRANCH   8  19
ATOM     19  C   UNL A   1      31.584  25.585  24.809  1.00  0.00     0.012 C 
ATOM     20  C   UNL A   1      30.962  24.192  24.608  1.00  0.00     0.006 C 
ATOM     21  C   UNL A   1      32.913  25.391  25.577  1.00  0.00     0.006 C 
ATOM     22  C   UNL A   1      30.600  23.601  25.962  1.00  0.00     0.000 C 
ATOM     23  C   UNL A   1      32.693  24.679  26.916  1.00  0.00     0.000 C 
ATOM     24  C   UNL A   1      31.866  23.398  26.788  1.00  0.00     0.000 C 
ENDBRANCH   8  19
ENDBRANCH   7   8
ENDBRANCH   5   7
ENDBRANCH   4   5
ENDBRANCH   3   4
ENDBRANCH   2   3
ENDBRANCH   1   2
BRANCH   1  25
ATOM     25  C   UNL A   1      35.493  21.188  25.050  1.00  0.00     0.202 C 
BRANCH  25  26
ATOM     26  C   UNL A   1      36.853  20.490  25.028  1.00  0.00     0.261 C 
BRANCH  26  27
ATOM     27  O   UNL A   1      37.937  21.425  25.048  1.00  0.00    -0.460 OA
BRANCH  27  28
ATOM     28  C   UNL A   1      38.978  21.060  25.833  1.00  0.00     0.338 C 
ATOM     29  O   UNL A   1      39.553  19.987  25.854  1.00  0.00    -0.246 OA
BRANCH  28  30
ATOM     30  C   UNL A   1      39.491  22.260  26.514  1.00  0.00     0.060 A 
ATOM     31  C   UNL A   1      38.933  23.499  26.162  1.00  0.00     0.016 A 
ATOM     32  C   UNL A   1      40.518  22.174  27.454  1.00  0.00     0.016 A 
ATOM     33  C   UNL A   1      39.446  24.669  26.704  1.00  0.00     0.010 A 
ATOM     34  C   UNL A   1      41.046  23.347  27.983  1.00  0.00     0.010 A 
ATOM     35  C   UNL A   1      40.542  24.594  27.570  1.00  0.00    -0.014 A 
BRANCH  35  36
ATOM     36  C   UNL A   1      41.310  25.818  27.864  1.00  0.00     0.031 A 
ATOM     37  C   UNL A   1      40.619  26.917  28.617  1.00  0.00     0.074 A 
ATOM     38  C   UNL A   1      42.588  25.934  27.473  1.00  0.00     0.049 A 
ATOM     39  N   UNL A   1      41.045  28.115  28.915  1.00  0.00    -0.248 NA
ATOM     40  C   UNL A   1      39.254  26.626  29.091  1.00  0.00     0.031 C 
ATOM     41  C   UNL A   1      43.356  24.904  26.777  1.00  0.00     0.029 A 
ATOM     42  N   UNL A   1      43.457  26.984  27.596  1.00  0.00    -0.354 N 
ATOM     43  C   UNL A   1      39.997  28.726  29.592  1.00  0.00     0.074 A 
ATOM     44  C   UNL A   1      38.905  27.780  29.638  1.00  0.00     0.031 C 
ATOM     45  C   UNL A   1      44.581  25.385  26.509  1.00  0.00     0.029 A 
ATOM     46  C   UNL A   1      44.665  26.765  26.982  1.00  0.00     0.049 A 
ATOM     47  H   UNL A   1      43.238  27.815  28.075  1.00  0.00     0.167 HD
ATOM     48  C   UNL A   1      39.957  29.966  30.131  1.00  0.00     0.037 A 
ATOM     49  C   UNL A   1      45.700  27.605  26.797  1.00  0.00     0.037 A 
ATOM     50  C   UNL A   1      41.056  30.892  30.072  1.00  0.00     0.049 A 
ATOM     51  C   UNL A   1      45.607  29.004  27.345  1.00  0.00     0.074 A 
ATOM     52  C   UNL A   1      41.139  32.166  30.602  1.00  0.00     0.029 A 
ATOM     53  N   UNL A   1      42.261  30.643  29.429  1.00  0.00    -0.354 N 
ATOM     54  N   UNL A   1      44.627  29.569  28.009  1.00  0.00    -0.248 NA
ATOM     55  C   UNL A   1      46.764  29.881  27.121  1.00  0.00     0.031 C 
ATOM     56  C   UNL A   1      42.372  32.710  30.229  1.00  0.00     0.029 A 
ATOM     57  C   UNL A   1      43.084  31.751  29.524  1.00  0.00     0.049 A 
ATOM     58  H   UNL A   1      42.495  29.802  28.976  1.00  0.00     0.167 HD
ATOM     59  C   UNL A   1      45.060  30.856  28.308  1.00  0.00     0.074 A 
ATOM     60  C   UNL A   1      46.396  30.980  27.763  1.00  0.00     0.031 C 
ATOM     61  C   UNL A   1      44.415  31.845  28.976  1.00  0.00     0.037 A 
BRANCH  48  62
ATOM     62  C   UNL A   1      38.679  30.396  30.787  1.00  0.00     0.057 A 
ATOM     63  C   UNL A   1      38.390  30.102  32.127  1.00  0.00     0.134 A 
ATOM     64  C   UNL A   1      37.723  31.127  30.070  1.00  0.00     0.134 A 
ATOM     65  F   UNL A   1      39.253  29.387  32.868  1.00  0.00    -0.206 F 
ATOM     66  C   UNL A   1      37.189  30.496  32.721  1.00  0.00     0.040 A 
ATOM     67  C   UNL A   1      36.533  31.553  30.660  1.00  0.00     0.040 A 
ATOM     68  F   UNL A   1      37.932  31.442  28.782  1.00  0.00    -0.206 F 
ATOM     69  C   UNL A   1      36.259  31.231  31.988  1.00  0.00     0.006 A 
ENDBRANCH  48  62
BRANCH  49  70
ATOM     70  C   UNL A   1      46.897  27.150  26.046  1.00  0.00     0.057 A 
ATOM     71  C   UNL A   1      47.013  27.362  24.668  1.00  0.00     0.134 A 
ATOM     72  C   UNL A   1      47.953  26.492  26.689  1.00  0.00     0.134 A 
ATOM     73  F   UNL A   1      46.029  27.971  23.993  1.00  0.00    -0.206 F 
ATOM     74  C   UNL A   1      48.128  26.920  23.952  1.00  0.00     0.040 A 
ATOM     75  C   UNL A   1      49.085  26.069  25.991  1.00  0.00     0.040 A 
ATOM     76  F   UNL A   1      47.906  26.263  28.009  1.00  0.00    -0.206 F 
ATOM     77  C   UNL A   1      49.170  26.276  24.616  1.00  0.00     0.006 A 
ENDBRANCH  49  70
BRANCH  61  78
ATOM     78  C   UNL A   1      45.160  33.130  29.189  1.00  0.00     0.057 A 
ATOM     79  C   UNL A   1      45.052  34.209  28.304  1.00  0.00     0.134 A 
ATOM     80  C   UNL A   1      45.959  33.305  30.328  1.00  0.00     0.134 A 
ATOM     81  F   UNL A   1      44.312  34.102  27.189  1.00  0.00    -0.206 F 
ATOM     82  C   UNL A   1      45.729  35.408  28.530  1.00  0.00     0.040 A 
ATOM     83  C   UNL A   1      46.615  34.509  30.581  1.00  0.00     0.040 A 
ATOM     84  F   UNL A   1      46.095  32.316  31.223  1.00  0.00    -0.206 F 
ATOM     85  C   UNL A   1      46.506  35.563  29.676  1.00  0.00     0.006 A 
ENDBRANCH  61  78
ENDBRANCH  35  36
ENDBRANCH  28  30
ENDBRANCH  27  28
ENDBRANCH  26  27
ENDBRANCH  25  26
ENDBRANCH   1  25
TORSDOF 17
ENDMDL
MODEL 3
REMARK VINA RESULT:     -11.3      4.434      9.695
REMARK SMILES O=C(C[C@H](C1CCCCC1)N1Cc2ccccc2C1=O)OCCOCCOC(=O)c1ccc(-c2c3nc(c(-c4c(F)cccc4F)c4ccc([nH]4)c(-c4c(F)cccc4F)c4nc(c(-c5c(F)cccc5F)c5ccc2[nH]5)C=C4)C=C3)cc1
REMARK SMILES IDX 24 1 23 2 22 3 21 4 2 5 1 6 3 7 4 8 11 9 12 10 19 11 13 12
REMARK SMILES IDX 18 13 20 14 14 15 17 16 15 17 16 18 5 19 6 20 10 21 7 22
REMARK SMILES IDX 9 23 8 24 25 25 26 26 27 27 28 28 29 29 30 30 31 31 83 32
REMARK SMILES IDX 32 33 82 34 33 35 34 36 35 37 76 38 36 39 81 40 75 41 77 42
REMARK SMILES IDX 37 43 80 44 74 45 73 46 38 48 64 49 47 50 63 51 48 52 51 53
REMARK SMILES IDX 62 54 78 55 49 56 50 57 61 59 79 60 52 61 39 62 40 63 45 64
REMARK SMILES IDX 41 65 42 66 44 67 46 68 43 69 65 70 66 71 71 72 67 73 68 74
REMARK SMILES IDX 70 75 72 76 69 77 53 78 54 79 59 80 55 81 56 82 58 83 60 84
REMARK SMILES IDX 57 85
REMARK H PARENT 77 47 51 58
REMARK Flexibility Score: inf
ROOT
ATOM      1  O   UNL A   1      34.683  33.468  28.798  1.00  0.00    -0.374 OA
ENDROOT
BRANCH   1   2
ATOM      2  C   UNL A   1      33.929  32.657  27.910  1.00  0.00     0.202 C 
BRANCH   2   3
ATOM      3  C   UNL A   1      34.056  31.134  27.957  1.00  0.00     0.261 C 
BRANCH   3   4
ATOM      4  O   UNL A   1      33.826  30.438  26.732  1.00  0.00    -0.463 OA
BRANCH   4   5
ATOM      5  C   UNL A   1      32.625  30.039  26.261  1.00  0.00     0.307 C 
ATOM      6  O   UNL A   1      31.756  30.888  26.067  1.00  0.00    -0.252 OA
BRANCH   5   7
ATOM      7  C   UNL A   1      32.321  28.570  26.084  1.00  0.00     0.148 C 
BRANCH   7   8
ATOM      8  C   UNL A   1      32.414  27.997  24.673  1.00  0.00     0.100 C 
BRANCH   8   9
ATOM      9  N   UNL A   1      33.284  26.795  24.682  1.00  0.00    -0.330 N 
ATOM     10  C   UNL A   1      33.653  26.129  25.936  1.00  0.00     0.156 C 
ATOM     11  C   UNL A   1      33.701  26.062  23.581  1.00  0.00     0.254 C 
ATOM     12  C   UNL A   1      34.398  24.923  25.473  1.00  0.00    -0.016 A 
ATOM     13  C   UNL A   1      34.398  24.882  24.083  1.00  0.00     0.045 A 
ATOM     14  O   UNL A   1      33.574  26.279  22.396  1.00  0.00    -0.269 OA
ATOM     15  C   UNL A   1      35.027  23.917  26.186  1.00  0.00     0.006 A 
ATOM     16  C   UNL A   1      34.981  23.866  23.351  1.00  0.00     0.014 A 
ATOM     17  C   UNL A   1      35.642  22.879  25.467  1.00  0.00     0.000 A 
ATOM     18  C   UNL A   1      35.613  22.850  24.061  1.00  0.00     0.001 A 
ENDBRANCH   8   9
BRANCH   8  19
ATOM     19  C   UNL A   1      31.049  27.797  23.960  1.00  0.00     0.012 C 
ATOM     20  C   UNL A   1      30.094  26.817  24.663  1.00  0.00     0.006 C 
ATOM     21  C   UNL A   1      30.283  29.127  23.762  1.00  0.00     0.006 C 
ATOM     22  C   UNL A   1      28.921  26.511  23.745  1.00  0.00     0.000 C 
ATOM     23  C   UNL A   1      28.997  28.922  22.954  1.00  0.00     0.000 C 
ATOM     24  C   UNL A   1      28.124  27.785  23.488  1.00  0.00     0.000 C 
ENDBRANCH   8  19
ENDBRANCH   7   8
ENDBRANCH   5   7
ENDBRANCH   4   5
ENDBRANCH   3   4
ENDBRANCH   2   3
ENDBRANCH   1   2
BRANCH   1  25
ATOM     25  C   UNL A   1      34.024  34.075  29.914  1.00  0.00     0.202 C 
BRANCH  25  26
ATOM     26  C   UNL A   1      34.579  33.838  31.319  1.00  0.00     0.261 C 
BRANCH  26  27
ATOM     27  O   UNL A   1      34.705  32.444  31.618  1.00  0.00    -0.460 OA
BRANCH  27  28
ATOM     28  C   UNL A   1      35.707  32.143  32.477  1.00  0.00     0.338 C 
ATOM     29  O   UNL A   1      35.740  32.337  33.679  1.00  0.00    -0.246 OA
BRANCH  28  30
ATOM     30  C   UNL A   1      36.688  31.303  31.772  1.00  0.00     0.060 A 
ATOM     31  C   UNL A   1      37.574  30.540  32.549  1.00  0.00     0.016 A 
ATOM     32  C   UNL A   1      36.757  31.288  30.378  1.00  0.00     0.016 A 
ATOM     33  C   UNL A   1      38.578  29.805  31.935  1.00  0.00     0.010 A 
ATOM     34  C   UNL A   1      37.777  30.568  29.763  1.00  0.00     0.010 A 
ATOM     35  C   UNL A   1      38.714  29.868  30.544  1.00  0.00    -0.014 A 
BRANCH  35  36
ATOM     36  C   UNL A   1      39.965  29.395  29.923  1.00  0.00     0.031 A 
ATOM     37  C   UNL A   1      41.091  30.376  29.779  1.00  0.00     0.074 A 
ATOM     38  C   UNL A   1      40.087  28.124  29.511  1.00  0.00     0.049 A 
ATOM     39  N   UNL A   1      42.248  30.232  29.190  1.00  0.00    -0.248 NA
ATOM     40  C   UNL A   1      40.878  31.708  30.372  1.00  0.00     0.031 C 
ATOM     41  C   UNL A   1      39.065  27.089  29.650  1.00  0.00     0.029 A 
ATOM     42  N   UNL A   1      41.124  27.498  28.874  1.00  0.00    -0.354 N 
ATOM     43  C   UNL A   1      42.891  31.456  29.325  1.00  0.00     0.074 A 
ATOM     44  C   UNL A   1      41.987  32.341  30.025  1.00  0.00     0.031 C 
ATOM     45  C   UNL A   1      39.518  25.956  29.088  1.00  0.00     0.029 A 
ATOM     46  C   UNL A   1      40.842  26.203  28.520  1.00  0.00     0.049 A 
ATOM     47  H   UNL A   1      41.986  27.934  28.687  1.00  0.00     0.167 HD
ATOM     48  C   UNL A   1      44.128  31.804  28.904  1.00  0.00     0.037 A 
ATOM     49  C   UNL A   1      41.564  25.335  27.788  1.00  0.00     0.037 A 
ATOM     50  C   UNL A   1      45.010  30.907  28.206  1.00  0.00     0.049 A 
ATOM     51  C   UNL A   1      42.910  25.766  27.270  1.00  0.00     0.074 A 
ATOM     52  C   UNL A   1      46.294  31.141  27.752  1.00  0.00     0.029 A 
ATOM     53  N   UNL A   1      44.687  29.605  27.851  1.00  0.00    -0.354 N 
ATOM     54  N   UNL A   1      43.527  26.914  27.424  1.00  0.00    -0.248 NA
ATOM     55  C   UNL A   1      43.662  24.782  26.481  1.00  0.00     0.031 C 
ATOM     56  C   UNL A   1      46.726  30.000  27.069  1.00  0.00     0.029 A 
ATOM     57  C   UNL A   1      45.737  29.032  27.156  1.00  0.00     0.049 A 
ATOM     58  H   UNL A   1      43.837  29.156  28.064  1.00  0.00     0.167 HD
ATOM     59  C   UNL A   1      44.750  26.780  26.777  1.00  0.00     0.074 A 
ATOM     60  C   UNL A   1      44.790  25.435  26.241  1.00  0.00     0.031 C 
ATOM     61  C   UNL A   1      45.752  27.685  26.639  1.00  0.00     0.037 A 
BRANCH  48  62
ATOM     62  C   UNL A   1      44.574  33.215  29.152  1.00  0.00     0.057 A 
ATOM     63  C   UNL A   1      45.269  33.587  30.311  1.00  0.00     0.134 A 
ATOM     64  C   UNL A   1      44.313  34.218  28.209  1.00  0.00     0.134 A 
ATOM     65  F   UNL A   1      45.535  32.681  31.265  1.00  0.00    -0.206 F 
ATOM     66  C   UNL A   1      45.664  34.907  30.535  1.00  0.00     0.040 A 
ATOM     67  C   UNL A   1      44.729  35.535  28.407  1.00  0.00     0.040 A 
ATOM     68  F   UNL A   1      43.650  33.934  27.077  1.00  0.00    -0.206 F 
ATOM     69  C   UNL A   1      45.401  35.885  29.576  1.00  0.00     0.006 A 
ENDBRANCH  48  62
BRANCH  49  70
ATOM     70  C   UNL A   1      41.020  23.986  27.489  1.00  0.00     0.057 A 
ATOM     71  C   UNL A   1      39.993  23.808  26.556  1.00  0.00     0.134 A 
ATOM     72  C   UNL A   1      41.514  22.843  28.131  1.00  0.00     0.134 A 
ATOM     73  F   UNL A   1      39.467  24.865  25.921  1.00  0.00    -0.206 F 
ATOM     74  C   UNL A   1      39.464  22.545  26.284  1.00  0.00     0.040 A 
ATOM     75  C   UNL A   1      41.014  21.572  27.848  1.00  0.00     0.040 A 
ATOM     76  F   UNL A   1      42.502  22.945  29.032  1.00  0.00    -0.206 F 
ATOM     77  C   UNL A   1      39.980  21.422  26.928  1.00  0.00     0.006 A 
ENDBRANCH  49  70
BRANCH  61  78
ATOM     78  C   UNL A   1      46.990  27.236  25.919  1.00  0.00     0.057 A 
ATOM     79  C   UNL A   1      47.200  27.508  24.561  1.00  0.00     0.134 A 
ATOM     80  C   UNL A   1      48.008  26.566  26.610  1.00  0.00     0.134 A 
ATOM     81  F   UNL A   1      46.259  28.137  23.840  1.00  0.00    -0.206 F 
ATOM     82  C   UNL A   1      48.369  27.108  23.911  1.00  0.00     0.040 A 
ATOM     83  C   UNL A   1      49.193  26.189  25.979  1.00  0.00     0.040 A 
ATOM     84  F   UNL A   1      47.876  26.285  27.915  1.00  0.00    -0.206 F 
ATOM     85  C   UNL A   1      49.373  26.455  24.623  1.00  0.00     0.006 A 
ENDBRANCH  61  78
ENDBRANCH  35  36
ENDBRANCH  28  30
ENDBRANCH  27  28
ENDBRANCH  26  27
ENDBRANCH  25  26
ENDBRANCH   1  25
TORSDOF 17
ENDMDL
