MODEL 1
REMARK VINA RESULT:     -11.6      0.000      0.000
REMARK SMILES Cc1ccc([C@H](C)NC(=O)[C@H]2[C@@H]3CC[C@@H](C3)[C@@H]2C(=O)OCCOCCOC(=O)c2ccc(-c3c4nc(c(-c5c(F)cccc5F)c5ccc([nH]5)c(-c5c(F)cccc5F)c5nc(c(-c6c(F)cccc6F)c6ccc3[nH]6)C=C5)C=C4)cc2)cc1
REMARK SMILES IDX 22 1 21 2 20 3 18 4 19 5 17 6 11 7 12 8 13 9 16 10 15 11
REMARK SMILES IDX 14 12 9 13 8 14 10 16 6 17 7 18 5 19 1 20 2 21 3 22 84 23
REMARK SMILES IDX 4 24 83 25 23 26 24 27 25 28 26 29 27 30 28 31 29 32 30 33
REMARK SMILES IDX 82 34 31 35 81 36 32 37 33 38 34 39 75 40 35 41 80 42 74 43
REMARK SMILES IDX 76 44 36 45 79 46 73 47 72 48 37 50 63 51 46 52 62 53 47 54
REMARK SMILES IDX 50 55 61 56 77 57 48 58 49 59 60 61 78 62 51 63 38 64 39 65
REMARK SMILES IDX 44 66 40 67 41 68 43 69 45 70 42 71 64 72 65 73 70 74 66 75
REMARK SMILES IDX 67 76 69 77 71 78 68 79 52 80 53 81 58 82 54 83 55 84 57 85
REMARK SMILES IDX 59 86 56 87
REMARK H PARENT 8 15 76 49 50 60
REMARK Flexibility Score: inf
ROOT
ATOM      1  C   UNL A   1      36.926  23.696  25.011  1.00  0.00     0.202 C 
ENDROOT
BRANCH   1   2
ATOM      2  C   UNL A   1      35.583  24.033  25.528  1.00  0.00     0.261 C 
BRANCH   2   3
ATOM      3  O   UNL A   1      35.286  23.362  26.755  1.00  0.00    -0.463 OA
BRANCH   3   4
ATOM      4  C   UNL A   1      34.193  22.558  26.866  1.00  0.00     0.310 C 
ATOM      5  O   UNL A   1      34.111  21.535  27.509  1.00  0.00    -0.252 OA
BRANCH   4   6
ATOM      6  C   UNL A   1      33.076  23.077  25.981  1.00  0.00     0.115 C 
ATOM      7  C   UNL A   1      31.679  22.502  26.293  1.00  0.00     0.096 C 
ATOM      8  C   UNL A   1      31.350  21.705  25.017  1.00  0.00     0.002 C 
ATOM      9  C   UNL A   1      32.327  20.501  24.934  1.00  0.00     0.005 C 
ATOM     10  C   UNL A   1      31.887  22.620  23.926  1.00  0.00     0.009 C 
ATOM     11  C   UNL A   1      33.303  22.644  24.505  1.00  0.00     0.004 C 
ATOM     12  C   UNL A   1      33.633  21.142  24.435  1.00  0.00     0.005 C 
BRANCH   7  13
ATOM     13  C   UNL A   1      30.550  23.411  26.762  1.00  0.00     0.224 C 
ATOM     14  N   UNL A   1      30.176  24.592  26.243  1.00  0.00    -0.349 N 
ATOM     15  H   UNL A   1      29.380  24.952  26.695  1.00  0.00     0.164 HD
ATOM     16  O   UNL A   1      29.836  23.006  27.693  1.00  0.00    -0.275 OA
BRANCH  14  17
ATOM     17  C   UNL A   1      30.639  25.482  25.185  1.00  0.00     0.109 C 
ATOM     18  C   UNL A   1      29.454  26.206  24.542  1.00  0.00     0.036 C 
BRANCH  17  19
ATOM     19  C   UNL A   1      31.612  26.513  25.726  1.00  0.00    -0.026 A 
ATOM     20  C   UNL A   1      34.482  29.293  27.400  1.00  0.00     0.044 C 
ATOM     21  C   UNL A   1      33.479  28.310  26.862  1.00  0.00    -0.051 A 
ATOM     22  C   UNL A   1      32.180  28.194  27.382  1.00  0.00     0.004 A 
ATOM     23  C   UNL A   1      33.828  27.531  25.762  1.00  0.00     0.004 A 
ATOM     24  C   UNL A   1      31.248  27.324  26.806  1.00  0.00     0.006 A 
ATOM     25  C   UNL A   1      32.918  26.627  25.218  1.00  0.00     0.006 A 
ENDBRANCH  17  19
ENDBRANCH  14  17
ENDBRANCH   7  13
ENDBRANCH   4   6
ENDBRANCH   3   4
ENDBRANCH   2   3
ENDBRANCH   1   2
BRANCH   1  26
ATOM     26  O   UNL A   1      37.428  22.861  26.040  1.00  0.00    -0.374 OA
BRANCH  26  27
ATOM     27  C   UNL A   1      38.173  21.757  25.603  1.00  0.00     0.202 C 
BRANCH  27  28
ATOM     28  C   UNL A   1      39.586  21.754  26.195  1.00  0.00     0.261 C 
BRANCH  28  29
ATOM     29  O   UNL A   1      39.743  22.860  27.116  1.00  0.00    -0.460 OA
BRANCH  29  30
ATOM     30  C   UNL A   1      40.618  23.848  26.757  1.00  0.00     0.338 C 
ATOM     31  O   UNL A   1      41.782  23.669  26.425  1.00  0.00    -0.246 OA
BRANCH  30  32
ATOM     32  C   UNL A   1      40.067  25.184  27.154  1.00  0.00     0.060 A 
ATOM     33  C   UNL A   1      40.572  26.372  26.585  1.00  0.00     0.016 A 
ATOM     34  C   UNL A   1      39.385  25.242  28.359  1.00  0.00     0.016 A 
ATOM     35  C   UNL A   1      40.547  27.579  27.315  1.00  0.00     0.010 A 
ATOM     36  C   UNL A   1      39.520  26.379  29.121  1.00  0.00     0.010 A 
ATOM     37  C   UNL A   1      40.087  27.561  28.634  1.00  0.00    -0.014 A 
BRANCH  37  38
ATOM     38  C   UNL A   1      40.209  28.648  29.628  1.00  0.00     0.031 A 
ATOM     39  C   UNL A   1      39.049  29.563  29.699  1.00  0.00     0.074 A 
ATOM     40  C   UNL A   1      41.245  28.745  30.495  1.00  0.00     0.049 A 
ATOM     41  N   UNL A   1      39.018  30.772  29.231  1.00  0.00    -0.248 NA
ATOM     42  C   UNL A   1      37.734  29.082  30.152  1.00  0.00     0.031 C 
ATOM     43  C   UNL A   1      41.443  29.612  31.649  1.00  0.00     0.029 A 
ATOM     44  N   UNL A   1      42.409  27.974  30.502  1.00  0.00    -0.354 N 
ATOM     45  C   UNL A   1      37.807  31.281  29.675  1.00  0.00     0.074 A 
ATOM     46  C   UNL A   1      36.960  30.130  29.879  1.00  0.00     0.031 C 
ATOM     47  C   UNL A   1      42.735  29.542  32.036  1.00  0.00     0.029 A 
ATOM     48  C   UNL A   1      43.441  28.645  31.136  1.00  0.00     0.049 A 
ATOM     49  H   UNL A   1      42.485  27.074  30.109  1.00  0.00     0.167 HD
ATOM     50  C   UNL A   1      37.759  32.407  30.453  1.00  0.00     0.037 A 
ATOM     51  C   UNL A   1      44.611  28.841  30.483  1.00  0.00     0.037 A 
ATOM     52  C   UNL A   1      39.108  32.738  30.927  1.00  0.00     0.049 A 
ATOM     53  C   UNL A   1      44.588  30.302  30.170  1.00  0.00     0.074 A 
ATOM     54  C   UNL A   1      39.605  32.666  32.211  1.00  0.00     0.029 A 
ATOM     55  N   UNL A   1      40.230  32.867  30.079  1.00  0.00    -0.354 N 
ATOM     56  N   UNL A   1      43.505  30.965  29.827  1.00  0.00    -0.248 NA
ATOM     57  C   UNL A   1      45.689  31.138  30.629  1.00  0.00     0.031 C 
ATOM     58  C   UNL A   1      40.984  32.872  32.133  1.00  0.00     0.029 A 
ATOM     59  C   UNL A   1      41.404  32.902  30.817  1.00  0.00     0.049 A 
ATOM     60  H   UNL A   1      40.184  32.922  29.097  1.00  0.00     0.167 HD
ATOM     61  C   UNL A   1      43.687  32.272  30.206  1.00  0.00     0.074 A 
ATOM     62  C   UNL A   1      45.068  32.321  30.696  1.00  0.00     0.031 C 
ATOM     63  C   UNL A   1      42.728  33.247  30.298  1.00  0.00     0.037 A 
BRANCH  50  64
ATOM     64  C   UNL A   1      36.482  32.832  31.212  1.00  0.00     0.057 A 
ATOM     65  C   UNL A   1      35.562  33.765  30.687  1.00  0.00     0.134 A 
ATOM     66  C   UNL A   1      36.108  32.339  32.480  1.00  0.00     0.134 A 
ATOM     67  F   UNL A   1      35.622  34.182  29.416  1.00  0.00    -0.206 F 
ATOM     68  C   UNL A   1      34.491  34.299  31.422  1.00  0.00     0.040 A 
ATOM     69  C   UNL A   1      35.046  32.872  33.237  1.00  0.00     0.040 A 
ATOM     70  F   UNL A   1      36.736  31.289  33.031  1.00  0.00    -0.206 F 
ATOM     71  C   UNL A   1      34.247  33.877  32.718  1.00  0.00     0.006 A 
ENDBRANCH  50  64
BRANCH  51  72
ATOM     72  C   UNL A   1      45.124  27.648  29.741  1.00  0.00     0.057 A 
ATOM     73  C   UNL A   1      45.706  26.620  30.521  1.00  0.00     0.134 A 
ATOM     74  C   UNL A   1      44.758  27.287  28.440  1.00  0.00     0.134 A 
ATOM     75  F   UNL A   1      46.085  26.877  31.784  1.00  0.00    -0.206 F 
ATOM     76  C   UNL A   1      45.806  25.287  30.085  1.00  0.00     0.040 A 
ATOM     77  C   UNL A   1      44.848  25.951  27.989  1.00  0.00     0.040 A 
ATOM     78  F   UNL A   1      44.210  28.185  27.612  1.00  0.00    -0.206 F 
ATOM     79  C   UNL A   1      45.340  24.941  28.821  1.00  0.00     0.006 A 
ENDBRANCH  51  72
BRANCH  63  80
ATOM     80  C   UNL A   1      43.110  34.708  30.267  1.00  0.00     0.057 A 
ATOM     81  C   UNL A   1      42.873  35.537  29.159  1.00  0.00     0.134 A 
ATOM     82  C   UNL A   1      43.605  35.368  31.411  1.00  0.00     0.134 A 
ATOM     83  F   UNL A   1      42.251  35.092  28.057  1.00  0.00    -0.206 F 
ATOM     84  C   UNL A   1      43.223  36.886  29.142  1.00  0.00     0.040 A 
ATOM     85  C   UNL A   1      43.899  36.729  31.425  1.00  0.00     0.040 A 
ATOM     86  F   UNL A   1      43.789  34.744  32.582  1.00  0.00    -0.206 F 
ATOM     87  C   UNL A   1      43.733  37.488  30.280  1.00  0.00     0.006 A 
ENDBRANCH  63  80
ENDBRANCH  37  38
ENDBRANCH  30  32
ENDBRANCH  29  30
ENDBRANCH  28  29
ENDBRANCH  27  28
ENDBRANCH  26  27
ENDBRANCH   1  26
TORSDOF 17
ENDMDL
MODEL 2
REMARK VINA RESULT:     -11.6      3.780      8.352
REMARK SMILES Cc1ccc([C@H](C)NC(=O)[C@H]2[C@@H]3CC[C@@H](C3)[C@@H]2C(=O)OCCOCCOC(=O)c2ccc(-c3c4nc(c(-c5c(F)cccc5F)c5ccc([nH]5)c(-c5c(F)cccc5F)c5nc(c(-c6c(F)cccc6F)c6ccc3[nH]6)C=C5)C=C4)cc2)cc1
REMARK SMILES IDX 22 1 21 2 20 3 18 4 19 5 17 6 11 7 12 8 13 9 16 10 15 11
REMARK SMILES IDX 14 12 9 13 8 14 10 16 6 17 7 18 5 19 1 20 2 21 3 22 84 23
REMARK SMILES IDX 4 24 83 25 23 26 24 27 25 28 26 29 27 30 28 31 29 32 30 33
REMARK SMILES IDX 82 34 31 35 81 36 32 37 33 38 34 39 75 40 35 41 80 42 74 43
REMARK SMILES IDX 76 44 36 45 79 46 73 47 72 48 37 50 63 51 46 52 62 53 47 54
REMARK SMILES IDX 50 55 61 56 77 57 48 58 49 59 60 61 78 62 51 63 38 64 39 65
REMARK SMILES IDX 44 66 40 67 41 68 43 69 45 70 42 71 64 72 65 73 70 74 66 75
REMARK SMILES IDX 67 76 69 77 71 78 68 79 52 80 53 81 58 82 54 83 55 84 57 85
REMARK SMILES IDX 59 86 56 87
REMARK H PARENT 8 15 76 49 50 60
REMARK Flexibility Score: inf
ROOT
ATOM      1  C   UNL A   1      34.415  31.115  27.612  1.00  0.00     0.202 C 
ENDROOT
BRANCH   1   2
ATOM      2  C   UNL A   1      33.048  30.695  27.240  1.00  0.00     0.261 C 
BRANCH   2   3
ATOM      3  O   UNL A   1      33.006  30.029  25.975  1.00  0.00    -0.463 OA
BRANCH   3   4
ATOM      4  C   UNL A   1      32.908  28.674  25.900  1.00  0.00     0.310 C 
ATOM      5  O   UNL A   1      33.593  27.867  26.488  1.00  0.00    -0.252 OA
BRANCH   4   6
ATOM      6  C   UNL A   1      31.852  28.285  24.882  1.00  0.00     0.115 C 
ATOM      7  C   UNL A   1      31.721  26.770  24.628  1.00  0.00     0.096 C 
ATOM      8  C   UNL A   1      32.160  26.636  23.158  1.00  0.00     0.002 C 
ATOM      9  C   UNL A   1      33.672  26.981  23.072  1.00  0.00     0.005 C 
ATOM     10  C   UNL A   1      31.522  27.865  22.525  1.00  0.00     0.009 C 
ATOM     11  C   UNL A   1      32.218  28.839  23.477  1.00  0.00     0.004 C 
ATOM     12  C   UNL A   1      33.686  28.517  23.143  1.00  0.00     0.005 C 
BRANCH   7  13
ATOM     13  C   UNL A   1      30.428  26.034  24.956  1.00  0.00     0.224 C 
ATOM     14  N   UNL A   1      30.284  24.900  25.663  1.00  0.00    -0.349 N 
ATOM     15  H   UNL A   1      29.336  24.663  25.779  1.00  0.00     0.164 HD
ATOM     16  O   UNL A   1      29.362  26.556  24.594  1.00  0.00    -0.275 OA
BRANCH  14  17
ATOM     17  C   UNL A   1      31.162  23.928  26.302  1.00  0.00     0.109 C 
ATOM     18  C   UNL A   1      30.471  22.567  26.395  1.00  0.00     0.036 C 
BRANCH  17  19
ATOM     19  C   UNL A   1      32.458  23.772  25.528  1.00  0.00    -0.026 A 
ATOM     20  C   UNL A   1      36.179  23.118  23.408  1.00  0.00     0.044 C 
ATOM     21  C   UNL A   1      34.907  23.325  24.183  1.00  0.00    -0.051 A 
ATOM     22  C   UNL A   1      34.870  24.015  25.405  1.00  0.00     0.004 A 
ATOM     23  C   UNL A   1      33.708  22.877  23.634  1.00  0.00     0.004 A 
ATOM     24  C   UNL A   1      33.657  24.258  26.060  1.00  0.00     0.006 A 
ATOM     25  C   UNL A   1      32.505  23.073  24.309  1.00  0.00     0.006 A 
ENDBRANCH  17  19
ENDBRANCH  14  17
ENDBRANCH   7  13
ENDBRANCH   4   6
ENDBRANCH   3   4
ENDBRANCH   2   3
ENDBRANCH   1   2
BRANCH   1  26
ATOM     26  O   UNL A   1      34.162  31.975  28.709  1.00  0.00    -0.374 OA
BRANCH  26  27
ATOM     27  C   UNL A   1      34.475  33.324  28.495  1.00  0.00     0.202 C 
BRANCH  27  28
ATOM     28  C   UNL A   1      34.147  34.185  29.719  1.00  0.00     0.261 C 
BRANCH  28  29
ATOM     29  O   UNL A   1      34.153  33.372  30.917  1.00  0.00    -0.460 OA
BRANCH  29  30
ATOM     30  C   UNL A   1      34.346  34.019  32.106  1.00  0.00     0.338 C 
ATOM     31  O   UNL A   1      33.647  34.927  32.534  1.00  0.00    -0.246 OA
BRANCH  30  32
ATOM     32  C   UNL A   1      35.710  33.703  32.642  1.00  0.00     0.060 A 
ATOM     33  C   UNL A   1      36.817  34.519  32.328  1.00  0.00     0.016 A 
ATOM     34  C   UNL A   1      35.923  32.402  33.071  1.00  0.00     0.016 A 
ATOM     35  C   UNL A   1      38.115  33.970  32.275  1.00  0.00     0.010 A 
ATOM     36  C   UNL A   1      37.161  31.845  32.851  1.00  0.00     0.010 A 
ATOM     37  C   UNL A   1      38.276  32.594  32.460  1.00  0.00    -0.014 A 
BRANCH  37  38
ATOM     38  C   UNL A   1      39.497  31.804  32.203  1.00  0.00     0.031 A 
ATOM     39  C   UNL A   1      39.368  30.785  31.137  1.00  0.00     0.074 A 
ATOM     40  C   UNL A   1      40.683  32.056  32.805  1.00  0.00     0.049 A 
ATOM     41  N   UNL A   1      39.273  29.506  31.330  1.00  0.00    -0.248 NA
ATOM     42  C   UNL A   1      39.138  31.180  29.739  1.00  0.00     0.031 C 
ATOM     43  C   UNL A   1      42.015  31.525  32.546  1.00  0.00     0.029 A 
ATOM     44  N   UNL A   1      40.922  32.955  33.846  1.00  0.00    -0.354 N 
ATOM     45  C   UNL A   1      39.344  28.961  30.057  1.00  0.00     0.074 A 
ATOM     46  C   UNL A   1      38.888  30.004  29.168  1.00  0.00     0.031 C 
ATOM     47  C   UNL A   1      42.829  31.857  33.571  1.00  0.00     0.029 A 
ATOM     48  C   UNL A   1      42.057  32.600  34.554  1.00  0.00     0.049 A 
ATOM     49  H   UNL A   1      40.358  33.737  34.049  1.00  0.00     0.167 HD
ATOM     50  C   UNL A   1      40.321  28.059  29.730  1.00  0.00     0.037 A 
ATOM     51  C   UNL A   1      41.977  32.411  35.893  1.00  0.00     0.037 A 
ATOM     52  C   UNL A   1      41.342  28.034  30.784  1.00  0.00     0.049 A 
ATOM     53  C   UNL A   1      42.091  30.928  36.038  1.00  0.00     0.074 A 
ATOM     54  C   UNL A   1      42.646  28.477  30.721  1.00  0.00     0.029 A 
ATOM     55  N   UNL A   1      41.054  27.857  32.155  1.00  0.00    -0.354 N 
ATOM     56  N   UNL A   1      41.556  30.064  35.202  1.00  0.00    -0.248 NA
ATOM     57  C   UNL A   1      43.143  30.382  36.884  1.00  0.00     0.031 C 
ATOM     58  C   UNL A   1      43.158  28.444  32.020  1.00  0.00     0.029 A 
ATOM     59  C   UNL A   1      42.162  28.156  32.934  1.00  0.00     0.049 A 
ATOM     60  H   UNL A   1      40.184  27.563  32.509  1.00  0.00     0.167 HD
ATOM     61  C   UNL A   1      42.318  28.922  35.252  1.00  0.00     0.074 A 
ATOM     62  C   UNL A   1      43.289  29.176  36.321  1.00  0.00     0.031 C 
ATOM     63  C   UNL A   1      42.301  27.878  34.364  1.00  0.00     0.037 A 
BRANCH  50  64
ATOM     64  C   UNL A   1      40.622  27.660  28.268  1.00  0.00     0.057 A 
ATOM     65  C   UNL A   1      40.123  26.476  27.686  1.00  0.00     0.134 A 
ATOM     66  C   UNL A   1      41.407  28.426  27.381  1.00  0.00     0.134 A 
ATOM     67  F   UNL A   1      39.190  25.728  28.287  1.00  0.00    -0.206 F 
ATOM     68  C   UNL A   1      40.520  26.003  26.424  1.00  0.00     0.040 A 
ATOM     69  C   UNL A   1      41.826  27.962  26.118  1.00  0.00     0.040 A 
ATOM     70  F   UNL A   1      41.777  29.680  27.684  1.00  0.00    -0.206 F 
ATOM     71  C   UNL A   1      41.402  26.731  25.645  1.00  0.00     0.006 A 
ENDBRANCH  50  64
BRANCH  51  72
ATOM     72  C   UNL A   1      41.191  33.449  36.629  1.00  0.00     0.057 A 
ATOM     73  C   UNL A   1      41.847  34.679  36.881  1.00  0.00     0.134 A 
ATOM     74  C   UNL A   1      39.798  33.470  36.753  1.00  0.00     0.134 A 
ATOM     75  F   UNL A   1      43.184  34.752  36.781  1.00  0.00    -0.206 F 
ATOM     76  C   UNL A   1      41.160  35.881  37.119  1.00  0.00     0.040 A 
ATOM     77  C   UNL A   1      39.093  34.671  36.987  1.00  0.00     0.040 A 
ATOM     78  F   UNL A   1      39.079  32.359  36.549  1.00  0.00    -0.206 F 
ATOM     79  C   UNL A   1      39.769  35.886  37.137  1.00  0.00     0.006 A 
ENDBRANCH  51  72
BRANCH  63  80
ATOM     80  C   UNL A   1      42.817  26.516  34.766  1.00  0.00     0.057 A 
ATOM     81  C   UNL A   1      44.183  26.191  34.781  1.00  0.00     0.134 A 
ATOM     82  C   UNL A   1      41.962  25.525  35.289  1.00  0.00     0.134 A 
ATOM     83  F   UNL A   1      45.132  27.087  34.473  1.00  0.00    -0.206 F 
ATOM     84  C   UNL A   1      44.652  24.935  35.160  1.00  0.00     0.040 A 
ATOM     85  C   UNL A   1      42.426  24.288  35.730  1.00  0.00     0.040 A 
ATOM     86  F   UNL A   1      40.644  25.714  35.442  1.00  0.00    -0.206 F 
ATOM     87  C   UNL A   1      43.772  23.979  35.642  1.00  0.00     0.006 A 
ENDBRANCH  63  80
ENDBRANCH  37  38
ENDBRANCH  30  32
ENDBRANCH  29  30
ENDBRANCH  28  29
ENDBRANCH  27  28
ENDBRANCH  26  27
ENDBRANCH   1  26
TORSDOF 17
ENDMDL
MODEL 3
REMARK VINA RESULT:     -11.6      3.813      7.711
REMARK SMILES Cc1ccc([C@H](C)NC(=O)[C@H]2[C@@H]3CC[C@@H](C3)[C@@H]2C(=O)OCCOCCOC(=O)c2ccc(-c3c4nc(c(-c5c(F)cccc5F)c5ccc([nH]5)c(-c5c(F)cccc5F)c5nc(c(-c6c(F)cccc6F)c6ccc3[nH]6)C=C5)C=C4)cc2)cc1
REMARK SMILES IDX 22 1 21 2 20 3 18 4 19 5 17 6 11 7 12 8 13 9 16 10 15 11
REMARK SMILES IDX 14 12 9 13 8 14 10 16 6 17 7 18 5 19 1 20 2 21 3 22 84 23
REMARK SMILES IDX 4 24 83 25 23 26 24 27 25 28 26 29 27 30 28 31 29 32 30 33
REMARK SMILES IDX 82 34 31 35 81 36 32 37 33 38 34 39 75 40 35 41 80 42 74 43
REMARK SMILES IDX 76 44 36 45 79 46 73 47 72 48 37 50 63 51 46 52 62 53 47 54
REMARK SMILES IDX 50 55 61 56 77 57 48 58 49 59 60 61 78 62 51 63 38 64 39 65
REMARK SMILES IDX 44 66 40 67 41 68 43 69 45 70 42 71 64 72 65 73 70 74 66 75
REMARK SMILES IDX 67 76 69 77 71 78 68 79 52 80 53 81 58 82 54 83 55 84 57 85
REMARK SMILES IDX 59 86 56 87
REMARK H PARENT 8 15 76 49 50 60
REMARK Flexibility Score: inf
ROOT
ATOM      1  C   UNL A   1      32.584  28.637  27.366  1.00  0.00     0.202 C 
ENDROOT
BRANCH   1   2
ATOM      2  C   UNL A   1      31.878  27.422  26.907  1.00  0.00     0.261 C 
BRANCH   2   3
ATOM      3  O   UNL A   1      32.718  26.265  26.921  1.00  0.00    -0.463 OA
BRANCH   3   4
ATOM      4  C   UNL A   1      32.485  25.221  26.078  1.00  0.00     0.310 C 
ATOM      5  O   UNL A   1      31.564  24.438  26.136  1.00  0.00    -0.252 OA
BRANCH   4   6
ATOM      6  C   UNL A   1      33.615  25.105  25.072  1.00  0.00     0.115 C 
ATOM      7  C   UNL A   1      33.286  24.268  23.819  1.00  0.00     0.096 C 
ATOM      8  C   UNL A   1      34.243  23.069  23.955  1.00  0.00     0.002 C 
ATOM      9  C   UNL A   1      33.800  22.234  25.187  1.00  0.00     0.005 C 
ATOM     10  C   UNL A   1      35.512  23.735  24.467  1.00  0.00     0.009 C 
ATOM     11  C   UNL A   1      34.819  24.341  25.689  1.00  0.00     0.004 C 
ATOM     12  C   UNL A   1      34.336  23.050  26.375  1.00  0.00     0.005 C 
BRANCH   7  13
ATOM     13  C   UNL A   1      33.285  24.905  22.435  1.00  0.00     0.224 C 
ATOM     14  N   UNL A   1      33.177  26.209  22.130  1.00  0.00    -0.349 N 
ATOM     15  H   UNL A   1      33.261  26.363  21.162  1.00  0.00     0.164 HD
ATOM     16  O   UNL A   1      33.468  24.159  21.460  1.00  0.00    -0.275 OA
BRANCH  14  17
ATOM     17  C   UNL A   1      32.968  27.456  22.856  1.00  0.00     0.109 C 
ATOM     18  C   UNL A   1      33.799  28.579  22.234  1.00  0.00     0.036 C 
BRANCH  17  19
ATOM     19  C   UNL A   1      31.504  27.858  22.839  1.00  0.00    -0.026 A 
ATOM     20  C   UNL A   1      27.361  29.114  22.986  1.00  0.00     0.044 C 
ATOM     21  C   UNL A   1      28.797  28.668  22.982  1.00  0.00    -0.051 A 
ATOM     22  C   UNL A   1      29.199  27.405  23.445  1.00  0.00     0.004 A 
ATOM     23  C   UNL A   1      29.759  29.513  22.433  1.00  0.00     0.004 A 
ATOM     24  C   UNL A   1      30.532  26.993  23.353  1.00  0.00     0.006 A 
ATOM     25  C   UNL A   1      31.097  29.125  22.386  1.00  0.00     0.006 A 
ENDBRANCH  17  19
ENDBRANCH  14  17
ENDBRANCH   7  13
ENDBRANCH   4   6
ENDBRANCH   3   4
ENDBRANCH   2   3
ENDBRANCH   1   2
BRANCH   1  26
ATOM     26  O   UNL A   1      33.267  29.032  26.189  1.00  0.00    -0.374 OA
BRANCH  26  27
ATOM     27  C   UNL A   1      34.665  29.061  26.293  1.00  0.00     0.202 C 
BRANCH  27  28
ATOM     28  C   UNL A   1      35.125  29.666  27.623  1.00  0.00     0.261 C 
BRANCH  28  29
ATOM     29  O   UNL A   1      36.335  29.013  28.077  1.00  0.00    -0.460 OA
BRANCH  29  30
ATOM     30  C   UNL A   1      37.441  29.799  28.244  1.00  0.00     0.338 C 
ATOM     31  O   UNL A   1      37.447  31.022  28.203  1.00  0.00    -0.246 OA
BRANCH  30  32
ATOM     32  C   UNL A   1      38.680  28.962  28.139  1.00  0.00     0.060 A 
ATOM     33  C   UNL A   1      39.300  28.441  29.294  1.00  0.00     0.016 A 
ATOM     34  C   UNL A   1      39.411  29.077  26.967  1.00  0.00     0.016 A 
ATOM     35  C   UNL A   1      40.691  28.209  29.314  1.00  0.00     0.010 A 
ATOM     36  C   UNL A   1      40.782  29.009  27.054  1.00  0.00     0.010 A 
ATOM     37  C   UNL A   1      41.453  28.576  28.202  1.00  0.00    -0.014 A 
BRANCH  37  38
ATOM     38  C   UNL A   1      42.927  28.644  28.123  1.00  0.00     0.031 A 
ATOM     39  C   UNL A   1      43.477  29.993  27.867  1.00  0.00     0.074 A 
ATOM     40  C   UNL A   1      43.731  27.585  28.377  1.00  0.00     0.049 A 
ATOM     41  N   UNL A   1      43.972  30.400  26.740  1.00  0.00    -0.248 NA
ATOM     42  C   UNL A   1      43.323  31.072  28.856  1.00  0.00     0.031 C 
ATOM     43  C   UNL A   1      45.177  27.504  28.536  1.00  0.00     0.029 A 
ATOM     44  N   UNL A   1      43.337  26.262  28.589  1.00  0.00    -0.354 N 
ATOM     45  C   UNL A   1      44.504  31.647  27.028  1.00  0.00     0.074 A 
ATOM     46  C   UNL A   1      43.762  32.125  28.170  1.00  0.00     0.031 C 
ATOM     47  C   UNL A   1      45.552  26.206  28.504  1.00  0.00     0.029 A 
ATOM     48  C   UNL A   1      44.369  25.386  28.298  1.00  0.00     0.049 A 
ATOM     49  H   UNL A   1      42.444  25.989  28.903  1.00  0.00     0.167 HD
ATOM     50  C   UNL A   1      45.831  31.913  26.821  1.00  0.00     0.037 A 
ATOM     51  C   UNL A   1      44.168  24.392  27.401  1.00  0.00     0.037 A 
ATOM     52  C   UNL A   1      46.551  30.659  26.562  1.00  0.00     0.049 A 
ATOM     53  C   UNL A   1      44.948  24.842  26.208  1.00  0.00     0.074 A 
ATOM     54  C   UNL A   1      47.476  30.024  27.362  1.00  0.00     0.029 A 
ATOM     55  N   UNL A   1      46.159  29.713  25.590  1.00  0.00    -0.354 N 
ATOM     56  N   UNL A   1      45.036  26.095  25.817  1.00  0.00    -0.248 NA
ATOM     57  C   UNL A   1      45.976  23.964  25.667  1.00  0.00     0.031 C 
ATOM     58  C   UNL A   1      47.718  28.769  26.800  1.00  0.00     0.029 A 
ATOM     59  C   UNL A   1      46.844  28.519  25.759  1.00  0.00     0.049 A 
ATOM     60  H   UNL A   1      45.489  29.879  24.888  1.00  0.00     0.167 HD
ATOM     61  C   UNL A   1      46.229  26.231  25.150  1.00  0.00     0.074 A 
ATOM     62  C   UNL A   1      46.769  24.870  25.084  1.00  0.00     0.031 C 
ATOM     63  C   UNL A   1      46.859  27.402  24.815  1.00  0.00     0.037 A 
BRANCH  50  64
ATOM     64  C   UNL A   1      46.524  33.166  27.400  1.00  0.00     0.057 A 
ATOM     65  C   UNL A   1      46.878  33.278  28.761  1.00  0.00     0.134 A 
ATOM     66  C   UNL A   1      46.871  34.305  26.643  1.00  0.00     0.134 A 
ATOM     67  F   UNL A   1      46.831  32.230  29.595  1.00  0.00    -0.206 F 
ATOM     68  C   UNL A   1      47.347  34.464  29.349  1.00  0.00     0.040 A 
ATOM     69  C   UNL A   1      47.328  35.508  27.216  1.00  0.00     0.040 A 
ATOM     70  F   UNL A   1      46.815  34.293  25.302  1.00  0.00    -0.206 F 
ATOM     71  C   UNL A   1      47.543  35.599  28.582  1.00  0.00     0.006 A 
ENDBRANCH  50  64
BRANCH  51  72
ATOM     72  C   UNL A   1      42.873  23.659  27.554  1.00  0.00     0.057 A 
ATOM     73  C   UNL A   1      41.938  23.799  26.499  1.00  0.00     0.134 A 
ATOM     74  C   UNL A   1      42.651  22.584  28.420  1.00  0.00     0.134 A 
ATOM     75  F   UNL A   1      42.077  24.802  25.618  1.00  0.00    -0.206 F 
ATOM     76  C   UNL A   1      40.921  22.863  26.245  1.00  0.00     0.040 A 
ATOM     77  C   UNL A   1      41.636  21.632  28.175  1.00  0.00     0.040 A 
ATOM     78  F   UNL A   1      43.467  22.366  29.459  1.00  0.00    -0.206 F 
ATOM     79  C   UNL A   1      40.790  21.750  27.068  1.00  0.00     0.006 A 
ENDBRANCH  51  72
BRANCH  63  80
ATOM     80  C   UNL A   1      47.886  27.434  23.708  1.00  0.00     0.057 A 
ATOM     81  C   UNL A   1      47.635  27.999  22.447  1.00  0.00     0.134 A 
ATOM     82  C   UNL A   1      49.217  27.020  23.921  1.00  0.00     0.134 A 
ATOM     83  F   UNL A   1      46.467  28.588  22.151  1.00  0.00    -0.206 F 
ATOM     84  C   UNL A   1      48.591  28.031  21.434  1.00  0.00     0.040 A 
ATOM     85  C   UNL A   1      50.198  27.105  22.937  1.00  0.00     0.040 A 
ATOM     86  F   UNL A   1      49.649  26.555  25.102  1.00  0.00    -0.206 F 
ATOM     87  C   UNL A   1      49.880  27.587  21.679  1.00  0.00     0.006 A 
ENDBRANCH  63  80
ENDBRANCH  37  38
ENDBRANCH  30  32
ENDBRANCH  29  30
ENDBRANCH  28  29
ENDBRANCH  27  28
ENDBRANCH  26  27
ENDBRANCH   1  26
TORSDOF 17
ENDMDL
