MODEL 1
REMARK VINA RESULT:     -11.3      0.000      0.000
REMARK SMILES C[NH+]1CCC(NC(=O)N[C@H]2C=C[C@H](C(=O)OCCOCCOC(=O)c3ccc(-c4c5nc(c(-c6c(F)cccc6F)c6ccc([nH]6)c(-c6c(F)cccc6F)c6nc(c(-c7c(F)cccc7F)c7ccc4[nH]7)C=C6)C=C5)cc3)C2)CC1
REMARK SMILES IDX 19 1 18 2 17 3 16 4 14 5 15 6 13 7 10 8 11 9 79 10 12 11
REMARK SMILES IDX 9 12 6 13 7 14 8 16 5 18 1 19 2 20 3 21 81 22 4 24 80 25
REMARK SMILES IDX 20 26 21 27 22 28 23 29 24 30 25 31 26 32 78 33 27 34 77 35
REMARK SMILES IDX 28 36 29 37 30 38 71 39 31 40 76 41 70 42 72 43 32 44 75 45
REMARK SMILES IDX 69 46 68 47 33 49 59 50 42 51 58 52 43 53 46 54 57 55 73 56
REMARK SMILES IDX 44 57 45 58 56 60 74 61 47 62 34 63 35 64 40 65 36 66 37 67
REMARK SMILES IDX 39 68 41 69 38 70 60 71 61 72 66 73 62 74 63 75 65 76 67 77
REMARK SMILES IDX 64 78 48 79 49 80 54 81 50 82 51 83 53 84 55 85 52 86
REMARK H PARENT 6 15 9 17 2 23 72 48 46 59
REMARK Flexibility Score: inf
ROOT
ATOM      1  O   UNL A   1      35.064  21.877  26.235  1.00  0.00    -0.374 OA
ENDROOT
BRANCH   1   2
ATOM      2  C   UNL A   1      34.139  21.449  27.237  1.00  0.00     0.202 C 
BRANCH   2   3
ATOM      3  C   UNL A   1      33.073  22.487  27.596  1.00  0.00     0.261 C 
BRANCH   3   4
ATOM      4  O   UNL A   1      32.379  22.904  26.415  1.00  0.00    -0.463 OA
BRANCH   4   5
ATOM      5  C   UNL A   1      31.956  24.206  26.362  1.00  0.00     0.312 C 
ATOM      6  O   UNL A   1      31.384  24.815  27.251  1.00  0.00    -0.252 OA
BRANCH   5   7
ATOM      7  C   UNL A   1      32.388  24.773  25.021  1.00  0.00     0.124 C 
ATOM      8  C   UNL A   1      32.954  23.866  22.812  1.00  0.00     0.107 C 
ATOM      9  C   UNL A   1      34.160  24.340  23.544  1.00  0.00    -0.006 C 
ATOM     10  C   UNL A   1      31.794  24.049  23.794  1.00  0.00     0.048 C 
ATOM     11  C   UNL A   1      33.863  24.775  24.774  1.00  0.00    -0.014 C 
BRANCH   8  12
ATOM     12  N   UNL A   1      32.857  24.418  21.466  1.00  0.00    -0.332 N 
ATOM     13  N   UNL A   1      32.820  26.796  21.275  1.00  0.00    -0.335 N 
ATOM     14  C   UNL A   1      32.857  25.559  20.776  1.00  0.00     0.315 C 
ATOM     15  H   UNL A   1      32.993  27.498  20.606  1.00  0.00     0.165 HD
ATOM     16  O   UNL A   1      32.904  25.455  19.546  1.00  0.00    -0.249 OA
ATOM     17  H   UNL A   1      32.749  23.672  20.831  1.00  0.00     0.165 HD
BRANCH  13  18
ATOM     18  C   UNL A   1      32.575  27.306  22.598  1.00  0.00     0.095 C 
ATOM     19  C   UNL A   1      31.778  29.251  26.248  1.00  0.00     0.332 C 
ATOM     20  N   UNL A   1      31.991  29.121  24.799  1.00  0.00    -0.337 N 
ATOM     21  C   UNL A   1      30.943  28.270  24.219  1.00  0.00     0.264 C 
ATOM     22  C   UNL A   1      33.365  28.666  24.539  1.00  0.00     0.264 C 
ATOM     23  H   UNL A   1      31.904  30.023  24.334  1.00  0.00     0.347 HD
ATOM     24  C   UNL A   1      31.190  27.927  22.749  1.00  0.00     0.086 C 
ATOM     25  C   UNL A   1      33.627  28.297  23.075  1.00  0.00     0.086 C 
ENDBRANCH  13  18
ENDBRANCH   8  12
ENDBRANCH   5   7
ENDBRANCH   4   5
ENDBRANCH   3   4
ENDBRANCH   2   3
ENDBRANCH   1   2
BRANCH   1  26
ATOM     26  C   UNL A   1      35.239  20.982  25.136  1.00  0.00     0.202 C 
BRANCH  26  27
ATOM     27  C   UNL A   1      36.641  20.383  25.002  1.00  0.00     0.261 C 
BRANCH  27  28
ATOM     28  O   UNL A   1      37.641  21.411  25.065  1.00  0.00    -0.460 OA
BRANCH  28  29
ATOM     29  C   UNL A   1      38.745  21.065  25.768  1.00  0.00     0.338 C 
ATOM     30  O   UNL A   1      39.305  19.985  25.788  1.00  0.00    -0.246 OA
BRANCH  29  31
ATOM     31  C   UNL A   1      39.312  22.265  26.408  1.00  0.00     0.060 A 
ATOM     32  C   UNL A   1      38.738  23.498  26.076  1.00  0.00     0.016 A 
ATOM     33  C   UNL A   1      40.419  22.196  27.255  1.00  0.00     0.016 A 
ATOM     34  C   UNL A   1      39.311  24.676  26.540  1.00  0.00     0.010 A 
ATOM     35  C   UNL A   1      40.996  23.381  27.719  1.00  0.00     0.010 A 
ATOM     36  C   UNL A   1      40.469  24.625  27.327  1.00  0.00    -0.014 A 
BRANCH  36  37
ATOM     37  C   UNL A   1      41.210  25.875  27.609  1.00  0.00     0.031 A 
ATOM     38  C   UNL A   1      40.528  26.967  28.386  1.00  0.00     0.074 A 
ATOM     39  C   UNL A   1      42.487  26.015  27.214  1.00  0.00     0.049 A 
ATOM     40  N   UNL A   1      40.977  28.149  28.723  1.00  0.00    -0.248 NA
ATOM     41  C   UNL A   1      39.156  26.690  28.840  1.00  0.00     0.031 C 
ATOM     42  C   UNL A   1      43.262  25.008  26.493  1.00  0.00     0.029 A 
ATOM     43  N   UNL A   1      43.354  27.066  27.364  1.00  0.00    -0.354 N 
ATOM     44  C   UNL A   1      39.941  28.759  29.422  1.00  0.00     0.074 A 
ATOM     45  C   UNL A   1      38.830  27.832  29.428  1.00  0.00     0.031 C 
ATOM     46  C   UNL A   1      44.493  25.493  26.258  1.00  0.00     0.029 A 
ATOM     47  C   UNL A   1      44.578  26.855  26.780  1.00  0.00     0.049 A 
ATOM     48  H   UNL A   1      43.121  27.894  27.845  1.00  0.00     0.167 HD
ATOM     49  C   UNL A   1      39.924  29.976  30.015  1.00  0.00     0.037 A 
ATOM     50  C   UNL A   1      45.636  27.679  26.663  1.00  0.00     0.037 A 
ATOM     51  C   UNL A   1      41.034  30.893  30.004  1.00  0.00     0.049 A 
ATOM     52  C   UNL A   1      45.564  29.058  27.263  1.00  0.00     0.074 A 
ATOM     53  C   UNL A   1      41.124  32.145  30.587  1.00  0.00     0.029 A 
ATOM     54  N   UNL A   1      42.245  30.659  29.369  1.00  0.00    -0.354 N 
ATOM     55  N   UNL A   1      44.590  29.617  27.941  1.00  0.00    -0.248 NA
ATOM     56  C   UNL A   1      46.742  29.918  27.084  1.00  0.00     0.031 C 
ATOM     57  C   UNL A   1      42.367  32.692  30.255  1.00  0.00     0.029 A 
ATOM     58  C   UNL A   1      43.078  31.755  29.522  1.00  0.00     0.049 A 
ATOM     59  H   UNL A   1      42.477  29.836  28.881  1.00  0.00     0.167 HD
ATOM     60  C   UNL A   1      45.049  30.879  28.297  1.00  0.00     0.074 A 
ATOM     61  C   UNL A   1      46.394  30.997  27.772  1.00  0.00     0.031 C 
ATOM     62  C   UNL A   1      44.417  31.854  28.998  1.00  0.00     0.037 A 
BRANCH  49  63
ATOM     63  C   UNL A   1      38.655  30.395  30.701  1.00  0.00     0.057 A 
ATOM     64  C   UNL A   1      37.646  31.101  30.032  1.00  0.00     0.134 A 
ATOM     65  C   UNL A   1      38.425  30.062  32.042  1.00  0.00     0.134 A 
ATOM     66  F   UNL A   1      37.806  31.465  28.750  1.00  0.00    -0.206 F 
ATOM     67  C   UNL A   1      36.467  31.482  30.678  1.00  0.00     0.040 A 
ATOM     68  C   UNL A   1      37.240  30.410  32.691  1.00  0.00     0.040 A 
ATOM     69  F   UNL A   1      39.347  29.383  32.742  1.00  0.00    -0.206 F 
ATOM     70  C   UNL A   1      36.259  31.128  32.010  1.00  0.00     0.006 A 
ENDBRANCH  49  63
BRANCH  50  71
ATOM     71  C   UNL A   1      46.853  27.228  25.939  1.00  0.00     0.057 A 
ATOM     72  C   UNL A   1      46.999  27.437  24.564  1.00  0.00     0.134 A 
ATOM     73  C   UNL A   1      47.889  26.559  26.603  1.00  0.00     0.134 A 
ATOM     74  F   UNL A   1      46.031  28.054  23.868  1.00  0.00    -0.206 F 
ATOM     75  C   UNL A   1      48.120  26.980  23.869  1.00  0.00     0.040 A 
ATOM     76  C   UNL A   1      49.029  26.122  25.927  1.00  0.00     0.040 A 
ATOM     77  F   UNL A   1      47.813  26.331  27.922  1.00  0.00    -0.206 F 
ATOM     78  C   UNL A   1      49.142  26.324  24.553  1.00  0.00     0.006 A 
ENDBRANCH  50  71
BRANCH  62  79
ATOM     79  C   UNL A   1      45.187  33.113  29.275  1.00  0.00     0.057 A 
ATOM     80  C   UNL A   1      45.982  33.264  30.418  1.00  0.00     0.134 A 
ATOM     81  C   UNL A   1      45.159  34.179  28.365  1.00  0.00     0.134 A 
ATOM     82  F   UNL A   1      46.045  32.288  31.337  1.00  0.00    -0.206 F 
ATOM     83  C   UNL A   1      46.695  34.440  30.663  1.00  0.00     0.040 A 
ATOM     84  C   UNL A   1      45.892  35.347  28.582  1.00  0.00     0.040 A 
ATOM     85  F   UNL A   1      44.427  34.099  27.243  1.00  0.00    -0.206 F 
ATOM     86  C   UNL A   1      46.657  35.483  29.738  1.00  0.00     0.006 A 
ENDBRANCH  62  79
ENDBRANCH  36  37
ENDBRANCH  29  31
ENDBRANCH  28  29
ENDBRANCH  27  28
ENDBRANCH  26  27
ENDBRANCH   1  26
TORSDOF 16
ENDMDL
MODEL 2
REMARK VINA RESULT:     -11.1      4.115      8.282
REMARK SMILES C[NH+]1CCC(NC(=O)N[C@H]2C=C[C@H](C(=O)OCCOCCOC(=O)c3ccc(-c4c5nc(c(-c6c(F)cccc6F)c6ccc([nH]6)c(-c6c(F)cccc6F)c6nc(c(-c7c(F)cccc7F)c7ccc4[nH]7)C=C6)C=C5)cc3)C2)CC1
REMARK SMILES IDX 19 1 18 2 17 3 16 4 14 5 15 6 13 7 10 8 11 9 79 10 12 11
REMARK SMILES IDX 9 12 6 13 7 14 8 16 5 18 1 19 2 20 3 21 81 22 4 24 80 25
REMARK SMILES IDX 20 26 21 27 22 28 23 29 24 30 25 31 26 32 78 33 27 34 77 35
REMARK SMILES IDX 28 36 29 37 30 38 71 39 31 40 76 41 70 42 72 43 32 44 75 45
REMARK SMILES IDX 69 46 68 47 33 49 59 50 42 51 58 52 43 53 46 54 57 55 73 56
REMARK SMILES IDX 44 57 45 58 56 60 74 61 47 62 34 63 35 64 40 65 36 66 37 67
REMARK SMILES IDX 39 68 41 69 38 70 60 71 61 72 66 73 62 74 63 75 65 76 67 77
REMARK SMILES IDX 64 78 48 79 49 80 54 81 50 82 51 83 53 84 55 85 52 86
REMARK H PARENT 6 15 9 17 2 23 72 48 46 59
REMARK Flexibility Score: inf
ROOT
ATOM      1  O   UNL A   1      41.552  20.499  25.686  1.00  0.00    -0.374 OA
ENDROOT
BRANCH   1   2
ATOM      2  C   UNL A   1      40.264  20.660  26.285  1.00  0.00     0.202 C 
BRANCH   2   3
ATOM      3  C   UNL A   1      39.841  22.117  26.489  1.00  0.00     0.261 C 
BRANCH   3   4
ATOM      4  O   UNL A   1      38.515  22.316  25.988  1.00  0.00    -0.463 OA
BRANCH   4   5
ATOM      5  C   UNL A   1      37.938  23.538  26.208  1.00  0.00     0.312 C 
ATOM      6  O   UNL A   1      38.304  24.374  27.018  1.00  0.00    -0.252 OA
BRANCH   5   7
ATOM      7  C   UNL A   1      36.801  23.692  25.213  1.00  0.00     0.124 C 
ATOM      8  C   UNL A   1      34.977  22.282  24.373  1.00  0.00     0.107 C 
ATOM      9  C   UNL A   1      36.054  22.458  23.362  1.00  0.00    -0.006 C 
ATOM     10  C   UNL A   1      35.485  23.000  25.627  1.00  0.00     0.048 C 
ATOM     11  C   UNL A   1      37.080  23.172  23.839  1.00  0.00    -0.014 C 
BRANCH   8  12
ATOM     12  N   UNL A   1      33.653  22.593  23.848  1.00  0.00    -0.332 N 
ATOM     13  N   UNL A   1      32.053  20.822  23.837  1.00  0.00    -0.335 N 
ATOM     14  C   UNL A   1      32.433  22.089  23.659  1.00  0.00     0.315 C 
ATOM     15  H   UNL A   1      31.078  20.692  23.801  1.00  0.00     0.165 HD
ATOM     16  O   UNL A   1      31.564  22.883  23.284  1.00  0.00    -0.249 OA
ATOM     17  H   UNL A   1      33.663  23.517  23.505  1.00  0.00     0.165 HD
BRANCH  13  18
ATOM     18  C   UNL A   1      32.790  19.608  24.073  1.00  0.00     0.095 C 
ATOM     19  C   UNL A   1      34.494  15.818  24.756  1.00  0.00     0.332 C 
ATOM     20  N   UNL A   1      33.426  16.809  24.565  1.00  0.00    -0.337 N 
ATOM     21  C   UNL A   1      33.516  17.382  23.216  1.00  0.00     0.264 C 
ATOM     22  C   UNL A   1      33.465  17.797  25.654  1.00  0.00     0.264 C 
ATOM     23  H   UNL A   1      32.507  16.373  24.620  1.00  0.00     0.347 HD
ATOM     24  C   UNL A   1      32.561  18.556  22.992  1.00  0.00     0.086 C 
ATOM     25  C   UNL A   1      32.531  18.992  25.440  1.00  0.00     0.086 C 
ENDBRANCH  13  18
ENDBRANCH   8  12
ENDBRANCH   5   7
ENDBRANCH   4   5
ENDBRANCH   3   4
ENDBRANCH   2   3
ENDBRANCH   1   2
BRANCH   1  26
ATOM     26  C   UNL A   1      42.621  21.199  26.324  1.00  0.00     0.202 C 
BRANCH  26  27
ATOM     27  C   UNL A   1      43.618  21.866  25.375  1.00  0.00     0.261 C 
BRANCH  27  28
ATOM     28  O   UNL A   1      43.084  23.094  24.856  1.00  0.00    -0.460 OA
BRANCH  28  29
ATOM     29  C   UNL A   1      43.854  24.179  25.102  1.00  0.00     0.338 C 
ATOM     30  O   UNL A   1      44.921  24.464  24.591  1.00  0.00    -0.246 OA
BRANCH  29  31
ATOM     31  C   UNL A   1      43.124  25.105  25.986  1.00  0.00     0.060 A 
ATOM     32  C   UNL A   1      43.675  26.378  26.172  1.00  0.00     0.016 A 
ATOM     33  C   UNL A   1      41.971  24.716  26.670  1.00  0.00     0.016 A 
ATOM     34  C   UNL A   1      43.110  27.249  27.097  1.00  0.00     0.010 A 
ATOM     35  C   UNL A   1      41.405  25.592  27.600  1.00  0.00     0.010 A 
ATOM     36  C   UNL A   1      41.999  26.843  27.848  1.00  0.00    -0.014 A 
BRANCH  36  37
ATOM     37  C   UNL A   1      41.557  27.669  28.994  1.00  0.00     0.031 A 
ATOM     38  C   UNL A   1      42.310  27.576  30.292  1.00  0.00     0.074 A 
ATOM     39  C   UNL A   1      40.526  28.521  28.863  1.00  0.00     0.049 A 
ATOM     40  N   UNL A   1      42.085  28.186  31.427  1.00  0.00    -0.248 NA
ATOM     41  C   UNL A   1      43.470  26.671  30.314  1.00  0.00     0.031 C 
ATOM     42  C   UNL A   1      39.751  28.727  27.642  1.00  0.00     0.029 A 
ATOM     43  N   UNL A   1      39.955  29.371  29.774  1.00  0.00    -0.354 N 
ATOM     44  C   UNL A   1      43.068  27.734  32.299  1.00  0.00     0.074 A 
ATOM     45  C   UNL A   1      43.869  26.772  31.574  1.00  0.00     0.031 C 
ATOM     46  C   UNL A   1      38.798  29.644  27.881  1.00  0.00     0.029 A 
ATOM     47  C   UNL A   1      38.876  30.061  29.280  1.00  0.00     0.049 A 
ATOM     48  H   UNL A   1      40.287  29.478  30.696  1.00  0.00     0.167 HD
ATOM     49  C   UNL A   1      43.291  28.099  33.584  1.00  0.00     0.037 A 
ATOM     50  C   UNL A   1      38.035  30.913  29.896  1.00  0.00     0.037 A 
ATOM     51  C   UNL A   1      42.489  29.058  34.300  1.00  0.00     0.049 A 
ATOM     52  C   UNL A   1      38.257  31.243  31.348  1.00  0.00     0.074 A 
ATOM     53  C   UNL A   1      42.638  29.507  35.600  1.00  0.00     0.029 A 
ATOM     54  N   UNL A   1      41.380  29.706  33.776  1.00  0.00    -0.354 N 
ATOM     55  N   UNL A   1      39.202  30.830  32.157  1.00  0.00    -0.248 NA
ATOM     56  C   UNL A   1      37.295  32.163  31.970  1.00  0.00     0.031 C 
ATOM     57  C   UNL A   1      41.585  30.384  35.882  1.00  0.00     0.029 A 
ATOM     58  C   UNL A   1      40.819  30.532  34.737  1.00  0.00     0.049 A 
ATOM     59  H   UNL A   1      41.042  29.596  32.858  1.00  0.00     0.167 HD
ATOM     60  C   UNL A   1      38.968  31.462  33.372  1.00  0.00     0.074 A 
ATOM     61  C   UNL A   1      37.800  32.299  33.188  1.00  0.00     0.031 C 
ATOM     62  C   UNL A   1      39.659  31.363  34.535  1.00  0.00     0.037 A 
BRANCH  49  63
ATOM     63  C   UNL A   1      44.430  27.438  34.305  1.00  0.00     0.057 A 
ATOM     64  C   UNL A   1      45.706  28.016  34.370  1.00  0.00     0.134 A 
ATOM     65  C   UNL A   1      44.242  26.221  34.973  1.00  0.00     0.134 A 
ATOM     66  F   UNL A   1      45.960  29.175  33.743  1.00  0.00    -0.206 F 
ATOM     67  C   UNL A   1      46.756  27.395  35.050  1.00  0.00     0.040 A 
ATOM     68  C   UNL A   1      45.275  25.605  35.679  1.00  0.00     0.040 A 
ATOM     69  F   UNL A   1      43.046  25.613  34.955  1.00  0.00    -0.206 F 
ATOM     70  C   UNL A   1      46.540  26.189  35.713  1.00  0.00     0.006 A 
ENDBRANCH  49  63
BRANCH  50  71
ATOM     71  C   UNL A   1      36.900  31.509  29.145  1.00  0.00     0.057 A 
ATOM     72  C   UNL A   1      36.928  32.843  28.725  1.00  0.00     0.134 A 
ATOM     73  C   UNL A   1      35.751  30.764  28.850  1.00  0.00     0.134 A 
ATOM     74  F   UNL A   1      37.993  33.614  28.996  1.00  0.00    -0.206 F 
ATOM     75  C   UNL A   1      35.849  33.422  28.055  1.00  0.00     0.040 A 
ATOM     76  C   UNL A   1      34.676  31.322  28.156  1.00  0.00     0.040 A 
ATOM     77  F   UNL A   1      35.663  29.479  29.221  1.00  0.00    -0.206 F 
ATOM     78  C   UNL A   1      34.720  32.658  27.765  1.00  0.00     0.006 A 
ENDBRANCH  50  71
BRANCH  62  79
ATOM     79  C   UNL A   1      39.196  32.212  35.685  1.00  0.00     0.057 A 
ATOM     80  C   UNL A   1      39.594  33.547  35.833  1.00  0.00     0.134 A 
ATOM     81  C   UNL A   1      38.312  31.693  36.641  1.00  0.00     0.134 A 
ATOM     82  F   UNL A   1      40.448  34.103  34.961  1.00  0.00    -0.206 F 
ATOM     83  C   UNL A   1      39.154  34.325  36.906  1.00  0.00     0.040 A 
ATOM     84  C   UNL A   1      37.840  32.470  37.700  1.00  0.00     0.040 A 
ATOM     85  F   UNL A   1      37.881  30.425  36.555  1.00  0.00    -0.206 F 
ATOM     86  C   UNL A   1      38.268  33.789  37.839  1.00  0.00     0.006 A 
ENDBRANCH  62  79
ENDBRANCH  36  37
ENDBRANCH  29  31
ENDBRANCH  28  29
ENDBRANCH  27  28
ENDBRANCH  26  27
ENDBRANCH   1  26
TORSDOF 16
ENDMDL
MODEL 3
REMARK VINA RESULT:     -11.1      4.159      7.586
REMARK SMILES C[NH+]1CCC(NC(=O)N[C@H]2C=C[C@H](C(=O)OCCOCCOC(=O)c3ccc(-c4c5nc(c(-c6c(F)cccc6F)c6ccc([nH]6)c(-c6c(F)cccc6F)c6nc(c(-c7c(F)cccc7F)c7ccc4[nH]7)C=C6)C=C5)cc3)C2)CC1
REMARK SMILES IDX 19 1 18 2 17 3 16 4 14 5 15 6 13 7 10 8 11 9 79 10 12 11
REMARK SMILES IDX 9 12 6 13 7 14 8 16 5 18 1 19 2 20 3 21 81 22 4 24 80 25
REMARK SMILES IDX 20 26 21 27 22 28 23 29 24 30 25 31 26 32 78 33 27 34 77 35
REMARK SMILES IDX 28 36 29 37 30 38 71 39 31 40 76 41 70 42 72 43 32 44 75 45
REMARK SMILES IDX 69 46 68 47 33 49 59 50 42 51 58 52 43 53 46 54 57 55 73 56
REMARK SMILES IDX 44 57 45 58 56 60 74 61 47 62 34 63 35 64 40 65 36 66 37 67
REMARK SMILES IDX 39 68 41 69 38 70 60 71 61 72 66 73 62 74 63 75 65 76 67 77
REMARK SMILES IDX 64 78 48 79 49 80 54 81 50 82 51 83 53 84 55 85 52 86
REMARK H PARENT 6 15 9 17 2 23 72 48 46 59
REMARK Flexibility Score: inf
ROOT
ATOM      1  O   UNL A   1      31.254  31.343  26.798  1.00  0.00    -0.374 OA
ENDROOT
BRANCH   1   2
ATOM      2  C   UNL A   1      32.193  30.507  26.117  1.00  0.00     0.202 C 
BRANCH   2   3
ATOM      3  C   UNL A   1      33.061  29.651  27.042  1.00  0.00     0.261 C 
BRANCH   3   4
ATOM      4  O   UNL A   1      33.171  28.322  26.519  1.00  0.00    -0.463 OA
BRANCH   4   5
ATOM      5  C   UNL A   1      32.042  27.546  26.536  1.00  0.00     0.312 C 
ATOM      6  O   UNL A   1      31.242  27.457  27.452  1.00  0.00    -0.252 OA
BRANCH   5   7
ATOM      7  C   UNL A   1      31.935  26.867  25.182  1.00  0.00     0.124 C 
ATOM      8  C   UNL A   1      32.137  27.551  22.834  1.00  0.00     0.107 C 
ATOM      9  C   UNL A   1      30.723  27.293  23.217  1.00  0.00    -0.006 C 
ATOM     10  C   UNL A   1      32.940  27.373  24.126  1.00  0.00     0.048 C 
ATOM     11  C   UNL A   1      30.602  26.983  24.513  1.00  0.00    -0.014 C 
BRANCH   8  12
ATOM     12  N   UNL A   1      32.536  26.833  21.629  1.00  0.00    -0.332 N 
ATOM     13  N   UNL A   1      32.622  24.453  21.770  1.00  0.00    -0.335 N 
ATOM     14  C   UNL A   1      32.693  25.613  21.115  1.00  0.00     0.315 C 
ATOM     15  H   UNL A   1      32.605  23.665  21.180  1.00  0.00     0.165 HD
ATOM     16  O   UNL A   1      32.924  25.555  19.903  1.00  0.00    -0.249 OA
ATOM     17  H   UNL A   1      32.782  27.494  20.940  1.00  0.00     0.165 HD
BRANCH  13  18
ATOM     18  C   UNL A   1      32.564  24.126  23.171  1.00  0.00     0.095 C 
ATOM     19  C   UNL A   1      32.619  22.731  27.144  1.00  0.00     0.332 C 
ATOM     20  N   UNL A   1      32.814  22.684  25.688  1.00  0.00    -0.337 N 
ATOM     21  C   UNL A   1      33.808  23.688  25.287  1.00  0.00     0.264 C 
ATOM     22  C   UNL A   1      31.514  22.802  25.010  1.00  0.00     0.264 C 
ATOM     23  H   UNL A   1      33.196  21.784  25.398  1.00  0.00     0.347 HD
ATOM     24  C   UNL A   1      33.937  23.839  23.771  1.00  0.00     0.086 C 
ATOM     25  C   UNL A   1      31.621  22.976  23.492  1.00  0.00     0.086 C 
ENDBRANCH  13  18
ENDBRANCH   8  12
ENDBRANCH   5   7
ENDBRANCH   4   5
ENDBRANCH   3   4
ENDBRANCH   2   3
ENDBRANCH   1   2
BRANCH   1  26
ATOM     26  C   UNL A   1      31.425  32.748  26.603  1.00  0.00     0.202 C 
BRANCH  26  27
ATOM     27  C   UNL A   1      32.692  33.340  27.224  1.00  0.00     0.261 C 
BRANCH  27  28
ATOM     28  O   UNL A   1      32.369  34.151  28.364  1.00  0.00    -0.460 OA
BRANCH  28  29
ATOM     29  C   UNL A   1      33.416  34.850  28.859  1.00  0.00     0.338 C 
ATOM     30  O   UNL A   1      33.435  36.017  29.205  1.00  0.00    -0.246 OA
BRANCH  29  31
ATOM     31  C   UNL A   1      34.545  33.934  29.096  1.00  0.00     0.060 A 
ATOM     32  C   UNL A   1      34.278  32.762  29.812  1.00  0.00     0.016 A 
ATOM     33  C   UNL A   1      35.845  34.245  28.691  1.00  0.00     0.016 A 
ATOM     34  C   UNL A   1      35.323  31.924  30.185  1.00  0.00     0.010 A 
ATOM     35  C   UNL A   1      36.894  33.403  29.068  1.00  0.00     0.010 A 
ATOM     36  C   UNL A   1      36.641  32.264  29.853  1.00  0.00    -0.014 A 
BRANCH  36  37
ATOM     37  C   UNL A   1      37.759  31.506  30.459  1.00  0.00     0.031 A 
ATOM     38  C   UNL A   1      38.107  31.749  31.901  1.00  0.00     0.074 A 
ATOM     39  C   UNL A   1      38.425  30.584  29.743  1.00  0.00     0.049 A 
ATOM     40  N   UNL A   1      39.059  31.220  32.626  1.00  0.00    -0.248 NA
ATOM     41  C   UNL A   1      37.272  32.723  32.622  1.00  0.00     0.031 C 
ATOM     42  C   UNL A   1      38.149  30.234  28.352  1.00  0.00     0.029 A 
ATOM     43  N   UNL A   1      39.476  29.776  30.093  1.00  0.00    -0.354 N 
ATOM     44  C   UNL A   1      38.941  31.800  33.884  1.00  0.00     0.074 A 
ATOM     45  C   UNL A   1      37.851  32.748  33.813  1.00  0.00     0.031 C 
ATOM     46  C   UNL A   1      39.014  29.282  27.963  1.00  0.00     0.029 A 
ATOM     47  C   UNL A   1      39.924  28.984  29.066  1.00  0.00     0.049 A 
ATOM     48  H   UNL A   1      39.871  29.765  30.995  1.00  0.00     0.167 HD
ATOM     49  C   UNL A   1      39.669  31.554  34.998  1.00  0.00     0.037 A 
ATOM     50  C   UNL A   1      40.968  28.134  29.018  1.00  0.00     0.037 A 
ATOM     51  C   UNL A   1      40.753  30.608  35.060  1.00  0.00     0.049 A 
ATOM     52  C   UNL A   1      41.811  27.936  30.250  1.00  0.00     0.074 A 
ATOM     53  C   UNL A   1      41.546  30.274  36.145  1.00  0.00     0.029 A 
ATOM     54  N   UNL A   1      41.203  29.852  33.988  1.00  0.00    -0.354 N 
ATOM     55  N   UNL A   1      41.679  28.470  31.440  1.00  0.00    -0.248 NA
ATOM     56  C   UNL A   1      42.947  27.011  30.130  1.00  0.00     0.031 C 
ATOM     57  C   UNL A   1      42.512  29.360  35.714  1.00  0.00     0.029 A 
ATOM     58  C   UNL A   1      42.281  29.074  34.378  1.00  0.00     0.049 A 
ATOM     59  H   UNL A   1      40.815  29.867  33.083  1.00  0.00     0.167 HD
ATOM     60  C   UNL A   1      42.692  27.924  32.218  1.00  0.00     0.074 A 
ATOM     61  C   UNL A   1      43.421  27.005  31.368  1.00  0.00     0.031 C 
ATOM     62  C   UNL A   1      42.992  28.159  33.520  1.00  0.00     0.037 A 
BRANCH  49  63
ATOM     63  C   UNL A   1      39.333  32.339  36.233  1.00  0.00     0.057 A 
ATOM     64  C   UNL A   1      39.925  33.580  36.510  1.00  0.00     0.134 A 
ATOM     65  C   UNL A   1      38.381  31.864  37.145  1.00  0.00     0.134 A 
ATOM     66  F   UNL A   1      40.854  34.089  35.687  1.00  0.00    -0.206 F 
ATOM     67  C   UNL A   1      39.601  34.305  37.659  1.00  0.00     0.040 A 
ATOM     68  C   UNL A   1      38.027  32.592  38.281  1.00  0.00     0.040 A 
ATOM     69  F   UNL A   1      37.773  30.686  36.941  1.00  0.00    -0.206 F 
ATOM     70  C   UNL A   1      38.643  33.814  38.544  1.00  0.00     0.006 A 
ENDBRANCH  49  63
BRANCH  50  71
ATOM     71  C   UNL A   1      41.280  27.411  27.759  1.00  0.00     0.057 A 
ATOM     72  C   UNL A   1      40.771  26.132  27.510  1.00  0.00     0.134 A 
ATOM     73  C   UNL A   1      42.112  27.974  26.783  1.00  0.00     0.134 A 
ATOM     74  F   UNL A   1      39.984  25.531  28.416  1.00  0.00    -0.206 F 
ATOM     75  C   UNL A   1      41.092  25.429  26.348  1.00  0.00     0.040 A 
ATOM     76  C   UNL A   1      42.419  27.295  25.603  1.00  0.00     0.040 A 
ATOM     77  F   UNL A   1      42.629  29.198  26.957  1.00  0.00    -0.206 F 
ATOM     78  C   UNL A   1      41.916  26.013  25.388  1.00  0.00     0.006 A 
ENDBRANCH  50  71
BRANCH  62  79
ATOM     79  C   UNL A   1      44.128  27.378  34.117  1.00  0.00     0.057 A 
ATOM     80  C   UNL A   1      43.945  26.109  34.681  1.00  0.00     0.134 A 
ATOM     81  C   UNL A   1      45.432  27.892  34.095  1.00  0.00     0.134 A 
ATOM     82  F   UNL A   1      42.721  25.563  34.745  1.00  0.00    -0.206 F 
ATOM     83  C   UNL A   1      45.011  25.393  35.230  1.00  0.00     0.040 A 
ATOM     84  C   UNL A   1      46.511  27.172  34.611  1.00  0.00     0.040 A 
ATOM     85  F   UNL A   1      45.682  29.097  33.560  1.00  0.00    -0.206 F 
ATOM     86  C   UNL A   1      46.300  25.922  35.189  1.00  0.00     0.006 A 
ENDBRANCH  62  79
ENDBRANCH  36  37
ENDBRANCH  29  31
ENDBRANCH  28  29
ENDBRANCH  27  28
ENDBRANCH  26  27
ENDBRANCH   1  26
TORSDOF 16
ENDMDL
