MODEL 1
REMARK VINA RESULT:     -11.0      0.000      0.000
REMARK SMILES C[C@@H](C(=O)OCCOCCOC(=O)c1ccc(-c2c3nc(c(-c4c(F)cccc4F)c4ccc([nH]4)c(-c4c(F)cccc4F)c4nc(c(-c5c(F)cccc5F)c5ccc2[nH]5)C=C4)C=C3)cc1)S(=O)(=O)N[C@@]12C[C@@H]3C[C@@](C)(C[C@@](C)(C3)C1)C2
REMARK SMILES IDX 7 1 6 2 5 3 3 4 4 5 2 6 1 7 68 8 69 9 70 10 71 11 72 13
REMARK SMILES IDX 73 14 82 15 83 16 74 17 79 18 76 19 81 20 75 21 78 22 80 23
REMARK SMILES IDX 77 24 8 25 9 26 10 27 11 28 12 29 13 30 14 31 15 32 67 33
REMARK SMILES IDX 16 34 66 35 17 36 18 37 19 38 60 39 20 40 65 41 59 42 61 43
REMARK SMILES IDX 21 44 64 45 58 46 57 47 22 49 48 50 31 51 47 52 32 53 35 54
REMARK SMILES IDX 46 55 62 56 33 57 34 58 45 60 63 61 36 62 23 63 24 64 29 65
REMARK SMILES IDX 25 66 26 67 28 68 30 69 27 70 49 71 50 72 55 73 51 74 52 75
REMARK SMILES IDX 54 76 56 77 53 78 37 79 38 80 43 81 39 82 40 83 42 84 44 85
REMARK SMILES IDX 41 86
REMARK H PARENT 71 12 61 48 35 59
REMARK Flexibility Score: inf
ROOT
ATOM      1  C   UNL A   1      36.671  22.787  23.884  1.00  0.00     0.202 C 
ENDROOT
BRANCH   1   2
ATOM      2  C   UNL A   1      35.591  23.618  24.590  1.00  0.00     0.261 C 
BRANCH   2   3
ATOM      3  O   UNL A   1      34.237  23.231  24.291  1.00  0.00    -0.462 OA
BRANCH   3   4
ATOM      4  C   UNL A   1      33.636  22.382  25.186  1.00  0.00     0.325 C 
ATOM      5  O   UNL A   1      33.358  21.222  24.919  1.00  0.00    -0.251 OA
BRANCH   4   6
ATOM      6  C   UNL A   1      33.225  23.087  26.456  1.00  0.00     0.230 C 
ATOM      7  C   UNL A   1      33.664  22.410  27.744  1.00  0.00     0.039 C 
BRANCH   6   8
ATOM      8  S   UNL A   1      31.536  23.757  26.402  1.00  0.00     0.225 S 
ATOM      9  O   UNL A   1      31.027  23.536  25.064  1.00  0.00    -0.212 OA
ATOM     10  O   UNL A   1      30.789  23.223  27.521  1.00  0.00    -0.212 OA
BRANCH   8  11
ATOM     11  N   UNL A   1      31.468  25.402  26.684  1.00  0.00    -0.208 NA
ATOM     12  H   UNL A   1      32.007  25.531  27.541  1.00  0.00     0.141 HD
BRANCH  11  13
ATOM     13  C   UNL A   1      31.886  26.537  25.815  1.00  0.00     0.034 C 
ATOM     14  C   UNL A   1      33.314  26.412  25.272  1.00  0.00     0.027 C 
ATOM     15  C   UNL A   1      30.968  26.784  24.585  1.00  0.00     0.030 C 
ATOM     16  C   UNL A   1      31.696  27.773  26.698  1.00  0.00     0.030 C 
ATOM     17  C   UNL A   1      33.774  27.717  24.624  1.00  0.00    -0.008 C 
ATOM     18  C   UNL A   1      31.402  28.109  23.849  1.00  0.00    -0.030 C 
ATOM     19  C   UNL A   1      32.189  29.068  26.057  1.00  0.00    -0.030 C 
ATOM     20  C   UNL A   1      32.881  27.995  23.410  1.00  0.00     0.010 C 
ATOM     21  C   UNL A   1      33.660  28.860  25.643  1.00  0.00     0.010 C 
ATOM     22  C   UNL A   1      31.314  29.315  24.819  1.00  0.00     0.013 C 
ATOM     23  C   UNL A   1      30.519  28.388  22.630  1.00  0.00     0.011 C 
ATOM     24  C   UNL A   1      32.078  30.237  27.041  1.00  0.00     0.011 C 
ENDBRANCH  11  13
ENDBRANCH   8  11
ENDBRANCH   6   8
ENDBRANCH   4   6
ENDBRANCH   3   4
ENDBRANCH   2   3
ENDBRANCH   1   2
BRANCH   1  25
ATOM     25  O   UNL A   1      36.998  21.503  24.398  1.00  0.00    -0.374 OA
BRANCH  25  26
ATOM     26  C   UNL A   1      38.091  21.376  25.289  1.00  0.00     0.202 C 
BRANCH  26  27
ATOM     27  C   UNL A   1      38.926  20.097  25.279  1.00  0.00     0.261 C 
BRANCH  27  28
ATOM     28  O   UNL A   1      39.808  19.910  26.361  1.00  0.00    -0.460 OA
BRANCH  28  29
ATOM     29  C   UNL A   1      41.107  19.897  26.034  1.00  0.00     0.338 C 
ATOM     30  O   UNL A   1      41.766  19.030  25.492  1.00  0.00    -0.246 OA
BRANCH  29  31
ATOM     31  C   UNL A   1      41.633  21.121  26.613  1.00  0.00     0.060 A 
ATOM     32  C   UNL A   1      41.553  21.300  27.992  1.00  0.00     0.016 A 
ATOM     33  C   UNL A   1      42.226  22.058  25.762  1.00  0.00     0.016 A 
ATOM     34  C   UNL A   1      41.993  22.497  28.525  1.00  0.00     0.010 A 
ATOM     35  C   UNL A   1      42.697  23.242  26.305  1.00  0.00     0.010 A 
ATOM     36  C   UNL A   1      42.526  23.480  27.677  1.00  0.00    -0.014 A 
BRANCH  36  37
ATOM     37  C   UNL A   1      42.762  24.826  28.219  1.00  0.00     0.031 A 
ATOM     38  C   UNL A   1      44.159  25.206  28.603  1.00  0.00     0.074 A 
ATOM     39  C   UNL A   1      41.738  25.689  28.299  1.00  0.00     0.049 A 
ATOM     40  N   UNL A   1      44.606  26.335  29.080  1.00  0.00    -0.248 NA
ATOM     41  C   UNL A   1      45.196  24.171  28.432  1.00  0.00     0.031 C 
ATOM     42  C   UNL A   1      40.355  25.391  27.919  1.00  0.00     0.029 A 
ATOM     43  N   UNL A   1      41.704  26.989  28.715  1.00  0.00    -0.354 N 
ATOM     44  C   UNL A   1      45.969  26.149  29.267  1.00  0.00     0.074 A 
ATOM     45  C   UNL A   1      46.271  24.785  28.900  1.00  0.00     0.031 C 
ATOM     46  C   UNL A   1      39.607  26.488  28.113  1.00  0.00     0.029 A 
ATOM     47  C   UNL A   1      40.451  27.543  28.665  1.00  0.00     0.049 A 
ATOM     48  H   UNL A   1      42.501  27.480  29.021  1.00  0.00     0.167 HD
ATOM     49  C   UNL A   1      46.884  27.049  29.692  1.00  0.00     0.037 A 
ATOM     50  C   UNL A   1      40.040  28.764  29.045  1.00  0.00     0.037 A 
ATOM     51  C   UNL A   1      46.548  28.401  30.053  1.00  0.00     0.049 A 
ATOM     52  C   UNL A   1      41.066  29.727  29.572  1.00  0.00     0.074 A 
ATOM     53  C   UNL A   1      47.382  29.411  30.492  1.00  0.00     0.029 A 
ATOM     54  N   UNL A   1      45.261  28.924  30.024  1.00  0.00    -0.354 N 
ATOM     55  N   UNL A   1      42.360  29.556  29.723  1.00  0.00    -0.248 NA
ATOM     56  C   UNL A   1      40.583  31.052  29.975  1.00  0.00     0.031 C 
ATOM     57  C   UNL A   1      46.592  30.528  30.784  1.00  0.00     0.029 A 
ATOM     58  C   UNL A   1      45.274  30.236  30.463  1.00  0.00     0.049 A 
ATOM     59  H   UNL A   1      44.459  28.433  29.733  1.00  0.00     0.167 HD
ATOM     60  C   UNL A   1      42.850  30.758  30.215  1.00  0.00     0.074 A 
ATOM     61  C   UNL A   1      41.713  31.653  30.318  1.00  0.00     0.031 C 
ATOM     62  C   UNL A   1      44.119  31.096  30.552  1.00  0.00     0.037 A 
BRANCH  49  63
ATOM     63  C   UNL A   1      48.307  26.588  29.816  1.00  0.00     0.057 A 
ATOM     64  C   UNL A   1      49.242  26.765  28.787  1.00  0.00     0.134 A 
ATOM     65  C   UNL A   1      48.752  25.959  30.986  1.00  0.00     0.134 A 
ATOM     66  F   UNL A   1      48.879  27.341  27.629  1.00  0.00    -0.206 F 
ATOM     67  C   UNL A   1      50.557  26.312  28.906  1.00  0.00     0.040 A 
ATOM     68  C   UNL A   1      50.073  25.529  31.129  1.00  0.00     0.040 A 
ATOM     69  F   UNL A   1      47.912  25.754  32.011  1.00  0.00    -0.206 F 
ATOM     70  C   UNL A   1      50.977  25.698  30.083  1.00  0.00     0.006 A 
ENDBRANCH  49  63
BRANCH  50  71
ATOM     71  C   UNL A   1      38.606  29.126  28.943  1.00  0.00     0.057 A 
ATOM     72  C   UNL A   1      37.747  29.024  30.044  1.00  0.00     0.134 A 
ATOM     73  C   UNL A   1      38.061  29.600  27.742  1.00  0.00     0.134 A 
ATOM     74  F   UNL A   1      38.207  28.569  31.218  1.00  0.00    -0.206 F 
ATOM     75  C   UNL A   1      36.396  29.361  29.949  1.00  0.00     0.040 A 
ATOM     76  C   UNL A   1      36.719  29.967  27.641  1.00  0.00     0.040 A 
ATOM     77  F   UNL A   1      38.833  29.735  26.655  1.00  0.00    -0.206 F 
ATOM     78  C   UNL A   1      35.879  29.839  28.745  1.00  0.00     0.006 A 
ENDBRANCH  50  71
BRANCH  62  79
ATOM     79  C   UNL A   1      44.342  32.502  31.028  1.00  0.00     0.057 A 
ATOM     80  C   UNL A   1      44.603  33.553  30.139  1.00  0.00     0.134 A 
ATOM     81  C   UNL A   1      44.254  32.811  32.391  1.00  0.00     0.134 A 
ATOM     82  F   UNL A   1      44.710  33.320  28.822  1.00  0.00    -0.206 F 
ATOM     83  C   UNL A   1      44.799  34.857  30.594  1.00  0.00     0.040 A 
ATOM     84  C   UNL A   1      44.415  34.116  32.854  1.00  0.00     0.040 A 
ATOM     85  F   UNL A   1      43.994  31.852  33.293  1.00  0.00    -0.206 F 
ATOM     86  C   UNL A   1      44.697  35.142  31.955  1.00  0.00     0.006 A 
ENDBRANCH  62  79
ENDBRANCH  36  37
ENDBRANCH  29  31
ENDBRANCH  28  29
ENDBRANCH  27  28
ENDBRANCH  26  27
ENDBRANCH  25  26
ENDBRANCH   1  25
TORSDOF 17
ENDMDL
MODEL 2
REMARK VINA RESULT:     -11.0      2.033      2.610
REMARK SMILES C[C@@H](C(=O)OCCOCCOC(=O)c1ccc(-c2c3nc(c(-c4c(F)cccc4F)c4ccc([nH]4)c(-c4c(F)cccc4F)c4nc(c(-c5c(F)cccc5F)c5ccc2[nH]5)C=C4)C=C3)cc1)S(=O)(=O)N[C@@]12C[C@@H]3C[C@@](C)(C[C@@](C)(C3)C1)C2
REMARK SMILES IDX 7 1 6 2 5 3 3 4 4 5 2 6 1 7 68 8 69 9 70 10 71 11 72 13
REMARK SMILES IDX 73 14 82 15 83 16 74 17 79 18 76 19 81 20 75 21 78 22 80 23
REMARK SMILES IDX 77 24 8 25 9 26 10 27 11 28 12 29 13 30 14 31 15 32 67 33
REMARK SMILES IDX 16 34 66 35 17 36 18 37 19 38 60 39 20 40 65 41 59 42 61 43
REMARK SMILES IDX 21 44 64 45 58 46 57 47 22 49 48 50 31 51 47 52 32 53 35 54
REMARK SMILES IDX 46 55 62 56 33 57 34 58 45 60 63 61 36 62 23 63 24 64 29 65
REMARK SMILES IDX 25 66 26 67 28 68 30 69 27 70 49 71 50 72 55 73 51 74 52 75
REMARK SMILES IDX 54 76 56 77 53 78 37 79 38 80 43 81 39 82 40 83 42 84 44 85
REMARK SMILES IDX 41 86
REMARK H PARENT 71 12 61 48 35 59
REMARK Flexibility Score: inf
ROOT
ATOM      1  C   UNL A   1      35.840  21.976  24.353  1.00  0.00     0.202 C 
ENDROOT
BRANCH   1   2
ATOM      2  C   UNL A   1      34.413  22.541  24.376  1.00  0.00     0.261 C 
BRANCH   2   3
ATOM      3  O   UNL A   1      33.370  21.560  24.232  1.00  0.00    -0.462 OA
BRANCH   3   4
ATOM      4  C   UNL A   1      32.535  21.397  25.309  1.00  0.00     0.325 C 
ATOM      5  O   UNL A   1      31.701  20.505  25.376  1.00  0.00    -0.251 OA
BRANCH   4   6
ATOM      6  C   UNL A   1      32.661  22.522  26.306  1.00  0.00     0.230 C 
ATOM      7  C   UNL A   1      33.254  22.134  27.651  1.00  0.00     0.039 C 
BRANCH   6   8
ATOM      8  S   UNL A   1      31.233  23.646  26.319  1.00  0.00     0.225 S 
ATOM      9  O   UNL A   1      30.706  23.690  24.970  1.00  0.00    -0.212 OA
ATOM     10  O   UNL A   1      30.345  23.256  27.394  1.00  0.00    -0.212 OA
BRANCH   8  11
ATOM     11  N   UNL A   1      31.628  25.214  26.739  1.00  0.00    -0.208 NA
ATOM     12  H   UNL A   1      32.456  25.113  27.328  1.00  0.00     0.141 HD
BRANCH  11  13
ATOM     13  C   UNL A   1      31.937  26.385  25.873  1.00  0.00     0.034 C 
ATOM     14  C   UNL A   1      33.180  26.201  24.997  1.00  0.00     0.027 C 
ATOM     15  C   UNL A   1      30.784  26.806  24.919  1.00  0.00     0.030 C 
ATOM     16  C   UNL A   1      32.074  27.551  26.856  1.00  0.00     0.030 C 
ATOM     17  C   UNL A   1      33.597  27.519  24.345  1.00  0.00    -0.008 C 
ATOM     18  C   UNL A   1      31.157  28.154  24.190  1.00  0.00    -0.030 C 
ATOM     19  C   UNL A   1      32.523  28.855  26.203  1.00  0.00    -0.030 C 
ATOM     20  C   UNL A   1      32.476  27.967  23.402  1.00  0.00     0.010 C 
ATOM     21  C   UNL A   1      33.830  28.574  25.436  1.00  0.00     0.010 C 
ATOM     22  C   UNL A   1      31.411  29.274  25.230  1.00  0.00     0.013 C 
ATOM     23  C   UNL A   1      30.043  28.603  23.239  1.00  0.00     0.011 C 
ATOM     24  C   UNL A   1      32.755  29.940  27.260  1.00  0.00     0.011 C 
ENDBRANCH  11  13
ENDBRANCH   8  11
ENDBRANCH   6   8
ENDBRANCH   4   6
ENDBRANCH   3   4
ENDBRANCH   2   3
ENDBRANCH   1   2
BRANCH   1  25
ATOM     25  O   UNL A   1      36.189  20.949  25.272  1.00  0.00    -0.374 OA
BRANCH  25  26
ATOM     26  C   UNL A   1      36.940  19.840  24.811  1.00  0.00     0.202 C 
BRANCH  26  27
ATOM     27  C   UNL A   1      38.410  19.712  25.206  1.00  0.00     0.261 C 
BRANCH  27  28
ATOM     28  O   UNL A   1      39.058  20.892  25.621  1.00  0.00    -0.460 OA
BRANCH  28  29
ATOM     29  C   UNL A   1      40.103  20.704  26.437  1.00  0.00     0.338 C 
ATOM     30  O   UNL A   1      40.621  19.671  26.816  1.00  0.00    -0.246 OA
BRANCH  29  31
ATOM     31  C   UNL A   1      40.420  22.036  26.922  1.00  0.00     0.060 A 
ATOM     32  C   UNL A   1      39.756  23.129  26.369  1.00  0.00     0.016 A 
ATOM     33  C   UNL A   1      41.360  22.163  27.949  1.00  0.00     0.016 A 
ATOM     34  C   UNL A   1      40.115  24.396  26.788  1.00  0.00     0.010 A 
ATOM     35  C   UNL A   1      41.691  23.433  28.391  1.00  0.00     0.010 A 
ATOM     36  C   UNL A   1      41.108  24.547  27.768  1.00  0.00    -0.014 A 
BRANCH  36  37
ATOM     37  C   UNL A   1      41.645  25.892  28.025  1.00  0.00     0.031 A 
ATOM     38  C   UNL A   1      43.002  26.233  27.490  1.00  0.00     0.074 A 
ATOM     39  C   UNL A   1      40.885  26.786  28.674  1.00  0.00     0.049 A 
ATOM     40  N   UNL A   1      43.664  27.354  27.576  1.00  0.00    -0.248 NA
ATOM     41  C   UNL A   1      43.714  25.165  26.765  1.00  0.00     0.031 C 
ATOM     42  C   UNL A   1      39.544  26.527  29.201  1.00  0.00     0.029 A 
ATOM     43  N   UNL A   1      41.129  28.092  28.993  1.00  0.00    -0.354 N 
ATOM     44  C   UNL A   1      44.866  27.128  26.919  1.00  0.00     0.074 A 
ATOM     45  C   UNL A   1      44.867  25.751  26.483  1.00  0.00     0.031 C 
ATOM     46  C   UNL A   1      39.077  27.649  29.772  1.00  0.00     0.029 A 
ATOM     47  C   UNL A   1      40.103  28.684  29.683  1.00  0.00     0.049 A 
ATOM     48  H   UNL A   1      41.959  28.562  28.750  1.00  0.00     0.167 HD
ATOM     49  C   UNL A   1      45.870  28.005  26.691  1.00  0.00     0.037 A 
ATOM     50  C   UNL A   1      40.020  29.921  30.199  1.00  0.00     0.037 A 
ATOM     51  C   UNL A   1      45.839  29.371  27.143  1.00  0.00     0.049 A 
ATOM     52  C   UNL A   1      41.176  30.858  29.984  1.00  0.00     0.074 A 
ATOM     53  C   UNL A   1      46.788  30.360  26.970  1.00  0.00     0.029 A 
ATOM     54  N   UNL A   1      44.798  29.933  27.871  1.00  0.00    -0.354 N 
ATOM     55  N   UNL A   1      42.301  30.650  29.339  1.00  0.00    -0.248 NA
ATOM     56  C   UNL A   1      41.051  32.203  30.558  1.00  0.00     0.031 C 
ATOM     57  C   UNL A   1      46.347  31.504  27.643  1.00  0.00     0.029 A 
ATOM     58  C   UNL A   1      45.093  31.249  28.179  1.00  0.00     0.049 A 
ATOM     59  H   UNL A   1      43.972  29.463  28.129  1.00  0.00     0.167 HD
ATOM     60  C   UNL A   1      43.008  31.842  29.409  1.00  0.00     0.074 A 
ATOM     61  C   UNL A   1      42.173  32.773  30.144  1.00  0.00     0.031 C 
ATOM     62  C   UNL A   1      44.234  32.145  28.914  1.00  0.00     0.037 A 
BRANCH  49  63
ATOM     63  C   UNL A   1      47.079  27.502  25.956  1.00  0.00     0.057 A 
ATOM     64  C   UNL A   1      47.182  27.563  24.559  1.00  0.00     0.134 A 
ATOM     65  C   UNL A   1      48.159  26.950  26.656  1.00  0.00     0.134 A 
ATOM     66  F   UNL A   1      46.176  28.060  23.823  1.00  0.00    -0.206 F 
ATOM     67  C   UNL A   1      48.302  27.071  23.885  1.00  0.00     0.040 A 
ATOM     68  C   UNL A   1      49.298  26.483  25.996  1.00  0.00     0.040 A 
ATOM     69  F   UNL A   1      48.128  26.857  27.993  1.00  0.00    -0.206 F 
ATOM     70  C   UNL A   1      49.367  26.536  24.606  1.00  0.00     0.006 A 
ENDBRANCH  49  63
BRANCH  50  71
ATOM     71  C   UNL A   1      38.815  30.326  30.961  1.00  0.00     0.057 A 
ATOM     72  C   UNL A   1      37.735  30.960  30.337  1.00  0.00     0.134 A 
ATOM     73  C   UNL A   1      38.707  30.072  32.335  1.00  0.00     0.134 A 
ATOM     74  F   UNL A   1      37.782  31.238  29.026  1.00  0.00    -0.206 F 
ATOM     75  C   UNL A   1      36.600  31.345  31.054  1.00  0.00     0.040 A 
ATOM     76  C   UNL A   1      37.567  30.425  33.058  1.00  0.00     0.040 A 
ATOM     77  F   UNL A   1      39.700  29.454  32.990  1.00  0.00    -0.206 F 
ATOM     78  C   UNL A   1      36.513  31.072  32.418  1.00  0.00     0.006 A 
ENDBRANCH  50  71
BRANCH  62  79
ATOM     79  C   UNL A   1      44.721  33.549  29.124  1.00  0.00     0.057 A 
ATOM     80  C   UNL A   1      44.416  34.582  28.227  1.00  0.00     0.134 A 
ATOM     81  C   UNL A   1      45.471  33.876  30.261  1.00  0.00     0.134 A 
ATOM     82  F   UNL A   1      43.711  34.330  27.114  1.00  0.00    -0.206 F 
ATOM     83  C   UNL A   1      44.868  35.884  28.440  1.00  0.00     0.040 A 
ATOM     84  C   UNL A   1      45.899  35.181  30.500  1.00  0.00     0.040 A 
ATOM     85  F   UNL A   1      45.786  32.936  31.165  1.00  0.00    -0.206 F 
ATOM     86  C   UNL A   1      45.605  36.188  29.583  1.00  0.00     0.006 A 
ENDBRANCH  62  79
ENDBRANCH  36  37
ENDBRANCH  29  31
ENDBRANCH  28  29
ENDBRANCH  27  28
ENDBRANCH  26  27
ENDBRANCH  25  26
ENDBRANCH   1  25
TORSDOF 17
ENDMDL
MODEL 3
REMARK VINA RESULT:     -10.8      1.191      6.282
REMARK SMILES C[C@@H](C(=O)OCCOCCOC(=O)c1ccc(-c2c3nc(c(-c4c(F)cccc4F)c4ccc([nH]4)c(-c4c(F)cccc4F)c4nc(c(-c5c(F)cccc5F)c5ccc2[nH]5)C=C4)C=C3)cc1)S(=O)(=O)N[C@@]12C[C@@H]3C[C@@](C)(C[C@@](C)(C3)C1)C2
REMARK SMILES IDX 7 1 6 2 5 3 3 4 4 5 2 6 1 7 68 8 69 9 70 10 71 11 72 13
REMARK SMILES IDX 73 14 82 15 83 16 74 17 79 18 76 19 81 20 75 21 78 22 80 23
REMARK SMILES IDX 77 24 8 25 9 26 10 27 11 28 12 29 13 30 14 31 15 32 67 33
REMARK SMILES IDX 16 34 66 35 17 36 18 37 19 38 60 39 20 40 65 41 59 42 61 43
REMARK SMILES IDX 21 44 64 45 58 46 57 47 22 49 48 50 31 51 47 52 32 53 35 54
REMARK SMILES IDX 46 55 62 56 33 57 34 58 45 60 63 61 36 62 23 63 24 64 29 65
REMARK SMILES IDX 25 66 26 67 28 68 30 69 27 70 49 71 50 72 55 73 51 74 52 75
REMARK SMILES IDX 54 76 56 77 53 78 37 79 38 80 43 81 39 82 40 83 42 84 44 85
REMARK SMILES IDX 41 86
REMARK H PARENT 71 12 61 48 35 59
REMARK Flexibility Score: inf
ROOT
ATOM      1  C   UNL A   1      36.208  21.892  24.970  1.00  0.00     0.202 C 
ENDROOT
BRANCH   1   2
ATOM      2  C   UNL A   1      34.958  21.003  25.037  1.00  0.00     0.261 C 
BRANCH   2   3
ATOM      3  O   UNL A   1      33.728  21.659  24.681  1.00  0.00    -0.462 OA
BRANCH   3   4
ATOM      4  C   UNL A   1      32.686  21.519  25.563  1.00  0.00     0.325 C 
ATOM      5  O   UNL A   1      31.846  20.635  25.467  1.00  0.00    -0.251 OA
BRANCH   4   6
ATOM      6  C   UNL A   1      32.615  22.658  26.551  1.00  0.00     0.230 C 
ATOM      7  C   UNL A   1      33.111  22.334  27.951  1.00  0.00     0.039 C 
BRANCH   6   8
ATOM      8  S   UNL A   1      31.096  23.646  26.413  1.00  0.00     0.225 S 
ATOM      9  O   UNL A   1      30.668  23.590  25.031  1.00  0.00    -0.212 OA
ATOM     10  O   UNL A   1      30.170  23.220  27.441  1.00  0.00    -0.212 OA
BRANCH   8  11
ATOM     11  N   UNL A   1      31.321  25.259  26.788  1.00  0.00    -0.208 NA
ATOM     12  H   UNL A   1      31.984  25.245  27.564  1.00  0.00     0.141 HD
BRANCH  11  13
ATOM     13  C   UNL A   1      31.788  26.382  25.929  1.00  0.00     0.034 C 
ATOM     14  C   UNL A   1      33.106  26.102  25.200  1.00  0.00     0.027 C 
ATOM     15  C   UNL A   1      30.771  26.833  24.844  1.00  0.00     0.030 C 
ATOM     16  C   UNL A   1      31.886  27.571  26.890  1.00  0.00     0.030 C 
ATOM     17  C   UNL A   1      33.665  27.372  24.562  1.00  0.00    -0.008 C 
ATOM     18  C   UNL A   1      31.297  28.133  24.123  1.00  0.00    -0.030 C 
ATOM     19  C   UNL A   1      32.476  28.827  26.254  1.00  0.00    -0.030 C 
ATOM     20  C   UNL A   1      32.680  27.849  23.490  1.00  0.00     0.010 C 
ATOM     21  C   UNL A   1      33.841  28.449  25.642  1.00  0.00     0.010 C 
ATOM     22  C   UNL A   1      31.502  29.272  25.154  1.00  0.00     0.013 C 
ATOM     23  C   UNL A   1      30.320  28.611  23.045  1.00  0.00     0.011 C 
ATOM     24  C   UNL A   1      32.656  29.931  27.301  1.00  0.00     0.011 C 
ENDBRANCH  11  13
ENDBRANCH   8  11
ENDBRANCH   6   8
ENDBRANCH   4   6
ENDBRANCH   3   4
ENDBRANCH   2   3
ENDBRANCH   1   2
BRANCH   1  25
ATOM     25  O   UNL A   1      37.468  21.336  25.322  1.00  0.00    -0.374 OA
BRANCH  25  26
ATOM     26  C   UNL A   1      37.776  20.015  24.913  1.00  0.00     0.202 C 
BRANCH  26  27
ATOM     27  C   UNL A   1      39.074  19.365  25.385  1.00  0.00     0.261 C 
BRANCH  27  28
ATOM     28  O   UNL A   1      39.910  20.149  26.206  1.00  0.00    -0.460 OA
BRANCH  28  29
ATOM     29  C   UNL A   1      41.206  19.808  26.179  1.00  0.00     0.338 C 
ATOM     30  O   UNL A   1      41.723  18.719  26.017  1.00  0.00    -0.246 OA
BRANCH  29  31
ATOM     31  C   UNL A   1      41.902  21.028  26.548  1.00  0.00     0.060 A 
ATOM     32  C   UNL A   1      42.044  21.340  27.898  1.00  0.00     0.016 A 
ATOM     33  C   UNL A   1      42.430  21.825  25.528  1.00  0.00     0.016 A 
ATOM     34  C   UNL A   1      42.646  22.538  28.235  1.00  0.00     0.010 A 
ATOM     35  C   UNL A   1      43.064  23.008  25.872  1.00  0.00     0.010 A 
ATOM     36  C   UNL A   1      43.119  23.386  27.222  1.00  0.00    -0.014 A 
BRANCH  36  37
ATOM     37  C   UNL A   1      43.533  24.750  27.582  1.00  0.00     0.031 A 
ATOM     38  C   UNL A   1      42.473  25.749  27.934  1.00  0.00     0.074 A 
ATOM     39  C   UNL A   1      44.841  25.042  27.643  1.00  0.00     0.049 A 
ATOM     40  N   UNL A   1      42.602  26.995  28.299  1.00  0.00    -0.248 NA
ATOM     41  C   UNL A   1      41.076  25.284  27.857  1.00  0.00     0.031 C 
ATOM     42  C   UNL A   1      45.927  24.109  27.338  1.00  0.00     0.029 A 
ATOM     43  N   UNL A   1      45.475  26.201  27.991  1.00  0.00    -0.354 N 
ATOM     44  C   UNL A   1      41.309  27.462  28.495  1.00  0.00     0.074 A 
ATOM     45  C   UNL A   1      40.407  26.385  28.162  1.00  0.00     0.031 C 
ATOM     46  C   UNL A   1      47.100  24.734  27.522  1.00  0.00     0.029 A 
ATOM     47  C   UNL A   1      46.841  26.115  27.918  1.00  0.00     0.049 A 
ATOM     48  H   UNL A   1      44.999  27.017  28.267  1.00  0.00     0.167 HD
ATOM     49  C   UNL A   1      40.920  28.681  28.932  1.00  0.00     0.037 A 
ATOM     50  C   UNL A   1      47.771  27.062  28.130  1.00  0.00     0.037 A 
ATOM     51  C   UNL A   1      41.846  29.734  29.252  1.00  0.00     0.049 A 
ATOM     52  C   UNL A   1      47.309  28.427  28.555  1.00  0.00     0.074 A 
ATOM     53  C   UNL A   1      41.579  31.010  29.711  1.00  0.00     0.029 A 
ATOM     54  N   UNL A   1      43.226  29.628  29.135  1.00  0.00    -0.354 N 
ATOM     55  N   UNL A   1      46.086  28.859  28.766  1.00  0.00    -0.248 NA
ATOM     56  C   UNL A   1      48.350  29.435  28.782  1.00  0.00     0.031 C 
ATOM     57  C   UNL A   1      42.795  31.694  29.815  1.00  0.00     0.029 A 
ATOM     58  C   UNL A   1      43.825  30.825  29.486  1.00  0.00     0.049 A 
ATOM     59  H   UNL A   1      43.708  28.819  28.845  1.00  0.00     0.167 HD
ATOM     60  C   UNL A   1      46.211  30.179  29.171  1.00  0.00     0.074 A 
ATOM     61  C   UNL A   1      47.632  30.470  29.195  1.00  0.00     0.031 C 
ATOM     62  C   UNL A   1      45.246  31.075  29.496  1.00  0.00     0.037 A 
BRANCH  49  63
ATOM     63  C   UNL A   1      39.446  28.937  29.051  1.00  0.00     0.057 A 
ATOM     64  C   UNL A   1      38.750  28.750  30.254  1.00  0.00     0.134 A 
ATOM     65  C   UNL A   1      38.708  29.384  27.947  1.00  0.00     0.134 A 
ATOM     66  F   UNL A   1      39.389  28.304  31.348  1.00  0.00    -0.206 F 
ATOM     67  C   UNL A   1      37.375  28.971  30.348  1.00  0.00     0.040 A 
ATOM     68  C   UNL A   1      37.338  29.638  28.035  1.00  0.00     0.040 A 
ATOM     69  F   UNL A   1      39.307  29.581  26.764  1.00  0.00    -0.206 F 
ATOM     70  C   UNL A   1      36.666  29.424  29.236  1.00  0.00     0.006 A 
ENDBRANCH  49  63
BRANCH  50  71
ATOM     71  C   UNL A   1      49.206  26.745  27.936  1.00  0.00     0.057 A 
ATOM     72  C   UNL A   1      49.821  26.877  26.686  1.00  0.00     0.134 A 
ATOM     73  C   UNL A   1      50.005  26.316  29.005  1.00  0.00     0.134 A 
ATOM     74  F   UNL A   1      49.108  27.275  25.623  1.00  0.00    -0.206 F 
ATOM     75  C   UNL A   1      51.172  26.576  26.501  1.00  0.00     0.040 A 
ATOM     76  C   UNL A   1      51.362  26.039  28.841  1.00  0.00     0.040 A 
ATOM     77  F   UNL A   1      49.480  26.183  30.232  1.00  0.00    -0.206 F 
ATOM     78  C   UNL A   1      51.947  26.161  27.583  1.00  0.00     0.006 A 
ENDBRANCH  50  71
BRANCH  62  79
ATOM     79  C   UNL A   1      45.703  32.435  29.936  1.00  0.00     0.057 A 
ATOM     80  C   UNL A   1      45.855  33.494  29.032  1.00  0.00     0.134 A 
ATOM     81  C   UNL A   1      45.955  32.694  31.289  1.00  0.00     0.134 A 
ATOM     82  F   UNL A   1      45.640  33.307  27.721  1.00  0.00    -0.206 F 
ATOM     83  C   UNL A   1      46.272  34.756  29.456  1.00  0.00     0.040 A 
ATOM     84  C   UNL A   1      46.340  33.960  31.728  1.00  0.00     0.040 A 
ATOM     85  F   UNL A   1      45.816  31.726  32.207  1.00  0.00    -0.206 F 
ATOM     86  C   UNL A   1      46.507  34.993  30.809  1.00  0.00     0.006 A 
ENDBRANCH  62  79
ENDBRANCH  36  37
ENDBRANCH  29  31
ENDBRANCH  28  29
ENDBRANCH  27  28
ENDBRANCH  26  27
ENDBRANCH  25  26
ENDBRANCH   1  25
TORSDOF 17
ENDMDL
