MODEL 1
REMARK VINA RESULT:     -10.9      0.000      0.000
REMARK SMILES C[C@@H](C(=O)OCCOCCOC(=O)c1ccc(-c2c3nc(c(-c4c(F)cccc4F)c4ccc([nH]4)c(-c4c(F)cccc4F)c4nc(c(-c5c(F)cccc5F)c5ccc2[nH]5)C=C4)C=C3)cc1)c1ccc(C[C@H]2CCC[C@@H]2O)cc1F
REMARK SMILES IDX 7 1 6 2 5 3 3 4 4 5 2 6 1 7 68 8 69 9 80 10 70 11 79 12
REMARK SMILES IDX 81 13 71 14 72 15 73 16 74 17 77 18 75 19 76 20 78 21 8 23
REMARK SMILES IDX 9 24 10 25 11 26 12 27 13 28 14 29 15 30 67 31 16 32 66 33
REMARK SMILES IDX 17 34 18 35 19 36 60 37 20 38 65 39 59 40 61 41 21 42 64 43
REMARK SMILES IDX 58 44 57 45 22 47 48 48 31 49 47 50 32 51 35 52 46 53 62 54
REMARK SMILES IDX 33 55 34 56 45 58 63 59 36 60 23 61 24 62 29 63 25 64 26 65
REMARK SMILES IDX 28 66 30 67 27 68 49 69 50 70 55 71 51 72 52 73 54 74 56 75
REMARK SMILES IDX 53 76 37 77 38 78 43 79 39 80 40 81 42 82 44 83 41 84
REMARK H PARENT 78 22 61 46 35 57
REMARK Flexibility Score: inf
ROOT
ATOM      1  C   UNL A   1      34.781  33.977  28.351  1.00  0.00     0.202 C 
ENDROOT
BRANCH   1   2
ATOM      2  C   UNL A   1      33.996  32.676  28.543  1.00  0.00     0.261 C 
BRANCH   2   3
ATOM      3  O   UNL A   1      34.284  31.765  27.472  1.00  0.00    -0.463 OA
BRANCH   3   4
ATOM      4  C   UNL A   1      33.346  30.806  27.244  1.00  0.00     0.313 C 
ATOM      5  O   UNL A   1      32.257  31.020  26.722  1.00  0.00    -0.252 OA
BRANCH   4   6
ATOM      6  C   UNL A   1      33.865  29.406  27.570  1.00  0.00     0.129 C 
ATOM      7  C   UNL A   1      35.398  29.321  27.564  1.00  0.00     0.025 C 
BRANCH   6   8
ATOM      8  C   UNL A   1      33.213  28.308  26.731  1.00  0.00     0.002 A 
ATOM      9  C   UNL A   1      33.772  27.817  25.539  1.00  0.00     0.008 A 
ATOM     10  C   UNL A   1      31.972  27.789  27.115  1.00  0.00     0.127 A 
ATOM     11  C   UNL A   1      33.081  26.901  24.738  1.00  0.00     0.004 A 
ATOM     12  C   UNL A   1      31.275  26.879  26.320  1.00  0.00     0.043 A 
ATOM     13  F   UNL A   1      31.396  28.203  28.252  1.00  0.00    -0.207 F 
ATOM     14  C   UNL A   1      31.800  26.472  25.089  1.00  0.00    -0.045 A 
BRANCH  14  15
ATOM     15  C   UNL A   1      30.962  25.660  24.128  1.00  0.00     0.041 C 
BRANCH  15  16
ATOM     16  C   UNL A   1      29.983  26.478  23.259  1.00  0.00     0.022 C 
ATOM     17  C   UNL A   1      28.602  26.773  23.876  1.00  0.00     0.007 C 
ATOM     18  C   UNL A   1      30.502  27.846  22.797  1.00  0.00     0.117 C 
ATOM     19  C   UNL A   1      28.266  28.219  23.501  1.00  0.00     0.003 C 
ATOM     20  C   UNL A   1      29.233  28.577  22.387  1.00  0.00     0.032 C 
BRANCH  18  21
ATOM     21  O   UNL A   1      31.401  27.707  21.715  1.00  0.00    -0.393 OA
ATOM     22  H   UNL A   1      32.091  27.065  21.946  1.00  0.00     0.210 HD
ENDBRANCH  18  21
ENDBRANCH  15  16
ENDBRANCH  14  15
ENDBRANCH   6   8
ENDBRANCH   4   6
ENDBRANCH   3   4
ENDBRANCH   2   3
ENDBRANCH   1   2
BRANCH   1  23
ATOM     23  O   UNL A   1      34.605  34.965  29.368  1.00  0.00    -0.374 OA
BRANCH  23  24
ATOM     24  C   UNL A   1      33.928  34.574  30.565  1.00  0.00     0.202 C 
BRANCH  24  25
ATOM     25  C   UNL A   1      34.804  34.175  31.757  1.00  0.00     0.261 C 
BRANCH  25  26
ATOM     26  O   UNL A   1      34.871  32.749  31.933  1.00  0.00    -0.460 OA
BRANCH  26  27
ATOM     27  C   UNL A   1      35.875  32.325  32.737  1.00  0.00     0.338 C 
ATOM     28  O   UNL A   1      35.952  32.441  33.952  1.00  0.00    -0.246 OA
BRANCH  27  29
ATOM     29  C   UNL A   1      36.841  31.519  31.971  1.00  0.00     0.060 A 
ATOM     30  C   UNL A   1      37.859  30.883  32.691  1.00  0.00     0.016 A 
ATOM     31  C   UNL A   1      36.820  31.470  30.577  1.00  0.00     0.016 A 
ATOM     32  C   UNL A   1      38.893  30.236  32.017  1.00  0.00     0.010 A 
ATOM     33  C   UNL A   1      37.864  30.829  29.899  1.00  0.00     0.010 A 
ATOM     34  C   UNL A   1      38.923  30.242  30.615  1.00  0.00    -0.014 A 
BRANCH  34  35
ATOM     35  C   UNL A   1      40.141  29.765  29.916  1.00  0.00     0.031 A 
ATOM     36  C   UNL A   1      41.287  30.718  29.713  1.00  0.00     0.074 A 
ATOM     37  C   UNL A   1      40.245  28.489  29.507  1.00  0.00     0.049 A 
ATOM     38  N   UNL A   1      42.438  30.519  29.123  1.00  0.00    -0.248 NA
ATOM     39  C   UNL A   1      41.113  32.078  30.251  1.00  0.00     0.031 C 
ATOM     40  C   UNL A   1      39.222  27.460  29.682  1.00  0.00     0.029 A 
ATOM     41  N   UNL A   1      41.267  27.844  28.858  1.00  0.00    -0.354 N 
ATOM     42  C   UNL A   1      43.124  31.723  29.217  1.00  0.00     0.074 A 
ATOM     43  C   UNL A   1      42.250  32.657  29.894  1.00  0.00     0.031 C 
ATOM     44  C   UNL A   1      39.664  26.312  29.140  1.00  0.00     0.029 A 
ATOM     45  C   UNL A   1      40.987  26.533  28.561  1.00  0.00     0.049 A 
ATOM     46  H   UNL A   1      42.119  28.279  28.627  1.00  0.00     0.167 HD
ATOM     47  C   UNL A   1      44.373  32.022  28.788  1.00  0.00     0.037 A 
ATOM     48  C   UNL A   1      41.710  25.622  27.881  1.00  0.00     0.037 A 
ATOM     49  C   UNL A   1      45.243  31.095  28.114  1.00  0.00     0.049 A 
ATOM     50  C   UNL A   1      43.069  25.998  27.352  1.00  0.00     0.074 A 
ATOM     51  C   UNL A   1      46.531  31.301  27.649  1.00  0.00     0.029 A 
ATOM     52  N   UNL A   1      44.911  29.785  27.802  1.00  0.00    -0.354 N 
ATOM     53  N   UNL A   1      43.715  27.133  27.464  1.00  0.00    -0.248 NA
ATOM     54  C   UNL A   1      43.800  24.963  26.606  1.00  0.00     0.031 C 
ATOM     55  C   UNL A   1      46.962  30.129  27.020  1.00  0.00     0.029 A 
ATOM     56  C   UNL A   1      45.960  29.178  27.132  1.00  0.00     0.049 A 
ATOM     57  H   UNL A   1      44.056  29.351  28.025  1.00  0.00     0.167 HD
ATOM     58  C   UNL A   1      44.935  26.942  26.827  1.00  0.00     0.074 A 
ATOM     59  C   UNL A   1      44.944  25.579  26.341  1.00  0.00     0.031 C 
ATOM     60  C   UNL A   1      45.956  27.818  26.659  1.00  0.00     0.037 A 
BRANCH  47  61
ATOM     61  C   UNL A   1      44.867  33.419  29.021  1.00  0.00     0.057 A 
ATOM     62  C   UNL A   1      44.615  34.451  28.110  1.00  0.00     0.134 A 
ATOM     63  C   UNL A   1      45.576  33.740  30.185  1.00  0.00     0.134 A 
ATOM     64  F   UNL A   1      43.954  34.205  26.969  1.00  0.00    -0.206 F 
ATOM     65  C   UNL A   1      45.068  35.753  28.339  1.00  0.00     0.040 A 
ATOM     66  C   UNL A   1      46.015  35.041  30.436  1.00  0.00     0.040 A 
ATOM     67  F   UNL A   1      45.847  32.797  31.100  1.00  0.00    -0.206 F 
ATOM     68  C   UNL A   1      45.765  36.050  29.508  1.00  0.00     0.006 A 
ENDBRANCH  47  61
BRANCH  48  69
ATOM     69  C   UNL A   1      41.158  24.265  27.643  1.00  0.00     0.057 A 
ATOM     70  C   UNL A   1      41.643  23.151  28.336  1.00  0.00     0.134 A 
ATOM     71  C   UNL A   1      40.146  24.050  26.700  1.00  0.00     0.134 A 
ATOM     72  F   UNL A   1      42.629  23.291  29.234  1.00  0.00    -0.206 F 
ATOM     73  C   UNL A   1      41.153  21.868  28.089  1.00  0.00     0.040 A 
ATOM     74  C   UNL A   1      39.630  22.776  26.459  1.00  0.00     0.040 A 
ATOM     75  F   UNL A   1      39.641  25.078  26.003  1.00  0.00    -0.206 F 
ATOM     76  C   UNL A   1      40.139  21.679  27.151  1.00  0.00     0.006 A 
ENDBRANCH  48  69
BRANCH  60  77
ATOM     77  C   UNL A   1      47.181  27.320  25.949  1.00  0.00     0.057 A 
ATOM     78  C   UNL A   1      48.217  26.670  26.631  1.00  0.00     0.134 A 
ATOM     79  C   UNL A   1      47.304  27.456  24.560  1.00  0.00     0.134 A 
ATOM     80  F   UNL A   1      48.164  26.520  27.963  1.00  0.00    -0.206 F 
ATOM     81  C   UNL A   1      49.342  26.190  25.959  1.00  0.00     0.040 A 
ATOM     82  C   UNL A   1      48.413  26.959  23.875  1.00  0.00     0.040 A 
ATOM     83  F   UNL A   1      46.343  28.061  23.847  1.00  0.00    -0.206 F 
ATOM     84  C   UNL A   1      49.439  26.329  24.576  1.00  0.00     0.006 A 
ENDBRANCH  60  77
ENDBRANCH  34  35
ENDBRANCH  27  29
ENDBRANCH  26  27
ENDBRANCH  25  26
ENDBRANCH  24  25
ENDBRANCH  23  24
ENDBRANCH   1  23
TORSDOF 18
ENDMDL
MODEL 2
REMARK VINA RESULT:     -10.6      4.823      9.728
REMARK SMILES C[C@@H](C(=O)OCCOCCOC(=O)c1ccc(-c2c3nc(c(-c4c(F)cccc4F)c4ccc([nH]4)c(-c4c(F)cccc4F)c4nc(c(-c5c(F)cccc5F)c5ccc2[nH]5)C=C4)C=C3)cc1)c1ccc(C[C@H]2CCC[C@@H]2O)cc1F
REMARK SMILES IDX 7 1 6 2 5 3 3 4 4 5 2 6 1 7 68 8 69 9 80 10 70 11 79 12
REMARK SMILES IDX 81 13 71 14 72 15 73 16 74 17 77 18 75 19 76 20 78 21 8 23
REMARK SMILES IDX 9 24 10 25 11 26 12 27 13 28 14 29 15 30 67 31 16 32 66 33
REMARK SMILES IDX 17 34 18 35 19 36 60 37 20 38 65 39 59 40 61 41 21 42 64 43
REMARK SMILES IDX 58 44 57 45 22 47 48 48 31 49 47 50 32 51 35 52 46 53 62 54
REMARK SMILES IDX 33 55 34 56 45 58 63 59 36 60 23 61 24 62 29 63 25 64 26 65
REMARK SMILES IDX 28 66 30 67 27 68 49 69 50 70 55 71 51 72 52 73 54 74 56 75
REMARK SMILES IDX 53 76 37 77 38 78 43 79 39 80 40 81 42 82 44 83 41 84
REMARK H PARENT 78 22 61 46 35 57
REMARK Flexibility Score: inf
ROOT
ATOM      1  C   UNL A   1      39.927  21.859  27.022  1.00  0.00     0.202 C 
ENDROOT
BRANCH   1   2
ATOM      2  C   UNL A   1      39.230  21.829  25.659  1.00  0.00     0.261 C 
BRANCH   2   3
ATOM      3  O   UNL A   1      37.811  21.959  25.830  1.00  0.00    -0.463 OA
BRANCH   3   4
ATOM      4  C   UNL A   1      37.049  21.084  25.118  1.00  0.00     0.313 C 
ATOM      5  O   UNL A   1      37.505  20.204  24.397  1.00  0.00    -0.252 OA
BRANCH   4   6
ATOM      6  C   UNL A   1      35.561  21.223  25.443  1.00  0.00     0.129 C 
ATOM      7  C   UNL A   1      34.744  19.989  25.035  1.00  0.00     0.025 C 
BRANCH   6   8
ATOM      8  C   UNL A   1      34.949  22.527  24.934  1.00  0.00     0.002 A 
ATOM      9  C   UNL A   1      34.763  22.808  23.570  1.00  0.00     0.008 A 
ATOM     10  C   UNL A   1      34.602  23.530  25.846  1.00  0.00     0.127 A 
ATOM     11  C   UNL A   1      34.315  24.063  23.145  1.00  0.00     0.004 A 
ATOM     12  C   UNL A   1      34.160  24.784  25.429  1.00  0.00     0.043 A 
ATOM     13  F   UNL A   1      34.740  23.315  27.162  1.00  0.00    -0.207 F 
ATOM     14  C   UNL A   1      34.069  25.084  24.066  1.00  0.00    -0.045 A 
BRANCH  14  15
ATOM     15  C   UNL A   1      33.800  26.498  23.605  1.00  0.00     0.041 C 
BRANCH  15  16
ATOM     16  C   UNL A   1      32.371  27.014  23.876  1.00  0.00     0.022 C 
ATOM     17  C   UNL A   1      32.154  27.761  25.207  1.00  0.00     0.007 C 
ATOM     18  C   UNL A   1      31.799  27.953  22.806  1.00  0.00     0.117 C 
ATOM     19  C   UNL A   1      31.236  28.944  24.888  1.00  0.00     0.003 C 
ATOM     20  C   UNL A   1      30.644  28.634  23.524  1.00  0.00     0.032 C 
BRANCH  18  21
ATOM     21  O   UNL A   1      31.358  27.225  21.677  1.00  0.00    -0.393 OA
ATOM     22  H   UNL A   1      31.127  26.321  21.945  1.00  0.00     0.210 HD
ENDBRANCH  18  21
ENDBRANCH  15  16
ENDBRANCH  14  15
ENDBRANCH   6   8
ENDBRANCH   4   6
ENDBRANCH   3   4
ENDBRANCH   2   3
ENDBRANCH   1   2
BRANCH   1  23
ATOM     23  O   UNL A   1      41.035  20.969  27.175  1.00  0.00    -0.374 OA
BRANCH  23  24
ATOM     24  C   UNL A   1      41.875  20.753  26.039  1.00  0.00     0.202 C 
BRANCH  24  25
ATOM     25  C   UNL A   1      43.054  21.716  25.857  1.00  0.00     0.261 C 
BRANCH  25  26
ATOM     26  O   UNL A   1      42.781  22.734  24.877  1.00  0.00    -0.460 OA
BRANCH  26  27
ATOM     27  C   UNL A   1      43.564  23.835  24.973  1.00  0.00     0.338 C 
ATOM     28  O   UNL A   1      44.595  24.068  24.358  1.00  0.00    -0.246 OA
BRANCH  27  29
ATOM     29  C   UNL A   1      42.919  24.850  25.823  1.00  0.00     0.060 A 
ATOM     30  C   UNL A   1      43.681  25.971  26.173  1.00  0.00     0.016 A 
ATOM     31  C   UNL A   1      41.642  24.665  26.353  1.00  0.00     0.016 A 
ATOM     32  C   UNL A   1      43.189  26.889  27.098  1.00  0.00     0.010 A 
ATOM     33  C   UNL A   1      41.151  25.583  27.290  1.00  0.00     0.010 A 
ATOM     34  C   UNL A   1      41.938  26.678  27.694  1.00  0.00    -0.014 A 
BRANCH  34  35
ATOM     35  C   UNL A   1      41.532  27.522  28.843  1.00  0.00     0.031 A 
ATOM     36  C   UNL A   1      42.311  27.433  30.127  1.00  0.00     0.074 A 
ATOM     37  C   UNL A   1      40.512  28.390  28.733  1.00  0.00     0.049 A 
ATOM     38  N   UNL A   1      42.128  28.068  31.256  1.00  0.00    -0.248 NA
ATOM     39  C   UNL A   1      43.453  26.504  30.137  1.00  0.00     0.031 C 
ATOM     40  C   UNL A   1      39.706  28.599  27.532  1.00  0.00     0.029 A 
ATOM     41  N   UNL A   1      39.981  29.259  29.653  1.00  0.00    -0.354 N 
ATOM     42  C   UNL A   1      43.127  27.618  32.110  1.00  0.00     0.074 A 
ATOM     43  C   UNL A   1      43.896  26.634  31.380  1.00  0.00     0.031 C 
ATOM     44  C   UNL A   1      38.772  29.530  27.793  1.00  0.00     0.029 A 
ATOM     45  C   UNL A   1      38.899  29.962  29.183  1.00  0.00     0.049 A 
ATOM     46  H   UNL A   1      40.340  29.368  30.563  1.00  0.00     0.167 HD
ATOM     47  C   UNL A   1      43.388  27.999  33.383  1.00  0.00     0.037 A 
ATOM     48  C   UNL A   1      38.092  30.839  29.811  1.00  0.00     0.037 A 
ATOM     49  C   UNL A   1      42.623  28.977  34.110  1.00  0.00     0.049 A 
ATOM     50  C   UNL A   1      38.360  31.195  31.249  1.00  0.00     0.074 A 
ATOM     51  C   UNL A   1      42.815  29.436  35.403  1.00  0.00     0.029 A 
ATOM     52  N   UNL A   1      41.515  29.643  33.611  1.00  0.00    -0.354 N 
ATOM     53  N   UNL A   1      39.318  30.778  32.040  1.00  0.00    -0.248 NA
ATOM     54  C   UNL A   1      37.434  32.147  31.880  1.00  0.00     0.031 C 
ATOM     55  C   UNL A   1      41.798  30.349  35.698  1.00  0.00     0.029 A 
ATOM     56  C   UNL A   1      40.999  30.493  34.575  1.00  0.00     0.049 A 
ATOM     57  H   UNL A   1      41.148  29.529  32.704  1.00  0.00     0.167 HD
ATOM     58  C   UNL A   1      39.127  31.433  33.250  1.00  0.00     0.074 A 
ATOM     59  C   UNL A   1      37.968  32.284  33.086  1.00  0.00     0.031 C 
ATOM     60  C   UNL A   1      39.847  31.338  34.395  1.00  0.00     0.037 A 
BRANCH  47  61
ATOM     61  C   UNL A   1      44.541  27.338  34.077  1.00  0.00     0.057 A 
ATOM     62  C   UNL A   1      44.390  26.133  34.773  1.00  0.00     0.134 A 
ATOM     63  C   UNL A   1      45.823  27.900  34.023  1.00  0.00     0.134 A 
ATOM     64  F   UNL A   1      43.186  25.551  34.874  1.00  0.00    -0.206 F 
ATOM     65  C   UNL A   1      45.472  25.518  35.408  1.00  0.00     0.040 A 
ATOM     66  C   UNL A   1      46.915  27.283  34.634  1.00  0.00     0.040 A 
ATOM     67  F   UNL A   1      46.035  29.052  33.369  1.00  0.00    -0.206 F 
ATOM     68  C   UNL A   1      46.740  26.091  35.334  1.00  0.00     0.006 A 
ENDBRANCH  47  61
BRANCH  48  69
ATOM     69  C   UNL A   1      36.940  31.434  29.089  1.00  0.00     0.057 A 
ATOM     70  C   UNL A   1      36.975  32.753  28.625  1.00  0.00     0.134 A 
ATOM     71  C   UNL A   1      35.768  30.701  28.867  1.00  0.00     0.134 A 
ATOM     72  F   UNL A   1      38.061  33.513  28.830  1.00  0.00    -0.206 F 
ATOM     73  C   UNL A   1      35.880  33.329  27.979  1.00  0.00     0.040 A 
ATOM     74  C   UNL A   1      34.674  31.256  28.202  1.00  0.00     0.040 A 
ATOM     75  F   UNL A   1      35.672  29.432  29.289  1.00  0.00    -0.206 F 
ATOM     76  C   UNL A   1      34.726  32.577  27.761  1.00  0.00     0.006 A 
ENDBRANCH  48  69
BRANCH  60  77
ATOM     77  C   UNL A   1      39.423  32.199  35.549  1.00  0.00     0.057 A 
ATOM     78  C   UNL A   1      39.901  33.504  35.711  1.00  0.00     0.134 A 
ATOM     79  C   UNL A   1      38.493  31.728  36.484  1.00  0.00     0.134 A 
ATOM     80  F   UNL A   1      40.803  34.009  34.856  1.00  0.00    -0.206 F 
ATOM     81  C   UNL A   1      39.483  34.306  36.775  1.00  0.00     0.040 A 
ATOM     82  C   UNL A   1      38.049  32.528  37.538  1.00  0.00     0.040 A 
ATOM     83  F   UNL A   1      37.989  30.489  36.380  1.00  0.00    -0.206 F 
ATOM     84  C   UNL A   1      38.550  33.820  37.689  1.00  0.00     0.006 A 
ENDBRANCH  60  77
ENDBRANCH  34  35
ENDBRANCH  27  29
ENDBRANCH  26  27
ENDBRANCH  25  26
ENDBRANCH  24  25
ENDBRANCH  23  24
ENDBRANCH   1  23
TORSDOF 18
ENDMDL
MODEL 3
REMARK VINA RESULT:     -10.6      4.449      7.685
REMARK SMILES C[C@@H](C(=O)OCCOCCOC(=O)c1ccc(-c2c3nc(c(-c4c(F)cccc4F)c4ccc([nH]4)c(-c4c(F)cccc4F)c4nc(c(-c5c(F)cccc5F)c5ccc2[nH]5)C=C4)C=C3)cc1)c1ccc(C[C@H]2CCC[C@@H]2O)cc1F
REMARK SMILES IDX 7 1 6 2 5 3 3 4 4 5 2 6 1 7 68 8 69 9 80 10 70 11 79 12
REMARK SMILES IDX 81 13 71 14 72 15 73 16 74 17 77 18 75 19 76 20 78 21 8 23
REMARK SMILES IDX 9 24 10 25 11 26 12 27 13 28 14 29 15 30 67 31 16 32 66 33
REMARK SMILES IDX 17 34 18 35 19 36 60 37 20 38 65 39 59 40 61 41 21 42 64 43
REMARK SMILES IDX 58 44 57 45 22 47 48 48 31 49 47 50 32 51 35 52 46 53 62 54
REMARK SMILES IDX 33 55 34 56 45 58 63 59 36 60 23 61 24 62 29 63 25 64 26 65
REMARK SMILES IDX 28 66 30 67 27 68 49 69 50 70 55 71 51 72 52 73 54 74 56 75
REMARK SMILES IDX 53 76 37 77 38 78 43 79 39 80 40 81 42 82 44 83 41 84
REMARK H PARENT 78 22 61 46 35 57
REMARK Flexibility Score: inf
ROOT
ATOM      1  C   UNL A   1      34.430  35.895  33.282  1.00  0.00     0.202 C 
ENDROOT
BRANCH   1   2
ATOM      2  C   UNL A   1      34.990  34.726  34.096  1.00  0.00     0.261 C 
BRANCH   2   3
ATOM      3  O   UNL A   1      36.158  34.193  33.453  1.00  0.00    -0.463 OA
BRANCH   3   4
ATOM      4  C   UNL A   1      37.287  34.163  34.212  1.00  0.00     0.313 C 
ATOM      5  O   UNL A   1      38.013  35.132  34.402  1.00  0.00    -0.252 OA
BRANCH   4   6
ATOM      6  C   UNL A   1      37.462  32.823  34.928  1.00  0.00     0.129 C 
ATOM      7  C   UNL A   1      37.431  32.956  36.457  1.00  0.00     0.025 C 
BRANCH   6   8
ATOM      8  C   UNL A   1      38.665  32.024  34.432  1.00  0.00     0.002 A 
ATOM      9  C   UNL A   1      38.551  30.906  33.588  1.00  0.00     0.008 A 
ATOM     10  C   UNL A   1      39.950  32.365  34.870  1.00  0.00     0.127 A 
ATOM     11  C   UNL A   1      39.667  30.130  33.260  1.00  0.00     0.004 A 
ATOM     12  C   UNL A   1      41.066  31.593  34.550  1.00  0.00     0.043 A 
ATOM     13  F   UNL A   1      40.127  33.431  35.662  1.00  0.00    -0.207 F 
ATOM     14  C   UNL A   1      40.925  30.428  33.788  1.00  0.00    -0.045 A 
BRANCH  14  15
ATOM     15  C   UNL A   1      42.086  29.476  33.618  1.00  0.00     0.041 C 
BRANCH  15  16
ATOM     16  C   UNL A   1      41.827  28.033  34.103  1.00  0.00     0.022 C 
ATOM     17  C   UNL A   1      42.657  26.925  33.427  1.00  0.00     0.007 C 
ATOM     18  C   UNL A   1      42.021  27.802  35.606  1.00  0.00     0.117 C 
ATOM     19  C   UNL A   1      43.059  25.953  34.540  1.00  0.00     0.003 C 
ATOM     20  C   UNL A   1      42.152  26.291  35.711  1.00  0.00     0.032 C 
BRANCH  18  21
ATOM     21  O   UNL A   1      40.912  28.284  36.341  1.00  0.00    -0.393 OA
ATOM     22  H   UNL A   1      41.043  28.098  37.284  1.00  0.00     0.210 HD
ENDBRANCH  18  21
ENDBRANCH  15  16
ENDBRANCH  14  15
ENDBRANCH   6   8
ENDBRANCH   4   6
ENDBRANCH   3   4
ENDBRANCH   2   3
ENDBRANCH   1   2
BRANCH   1  23
ATOM     23  O   UNL A   1      33.343  35.581  32.408  1.00  0.00    -0.374 OA
BRANCH  23  24
ATOM     24  C   UNL A   1      32.980  36.552  31.423  1.00  0.00     0.202 C 
BRANCH  24  25
ATOM     25  C   UNL A   1      32.993  36.093  29.962  1.00  0.00     0.261 C 
BRANCH  25  26
ATOM     26  O   UNL A   1      32.656  34.700  29.824  1.00  0.00    -0.460 OA
BRANCH  26  27
ATOM     27  C   UNL A   1      33.333  34.049  28.848  1.00  0.00     0.338 C 
ATOM     28  O   UNL A   1      32.977  33.868  27.692  1.00  0.00    -0.246 OA
BRANCH  27  29
ATOM     29  C   UNL A   1      34.690  33.706  29.305  1.00  0.00     0.060 A 
ATOM     30  C   UNL A   1      35.761  34.122  28.506  1.00  0.00     0.016 A 
ATOM     31  C   UNL A   1      34.910  32.908  30.428  1.00  0.00     0.016 A 
ATOM     32  C   UNL A   1      37.056  33.698  28.796  1.00  0.00     0.010 A 
ATOM     33  C   UNL A   1      36.210  32.473  30.714  1.00  0.00     0.010 A 
ATOM     34  C   UNL A   1      37.282  32.836  29.879  1.00  0.00    -0.014 A 
BRANCH  34  35
ATOM     35  C   UNL A   1      38.614  32.203  30.034  1.00  0.00     0.031 A 
ATOM     36  C   UNL A   1      39.700  32.953  30.756  1.00  0.00     0.074 A 
ATOM     37  C   UNL A   1      38.842  30.960  29.578  1.00  0.00     0.049 A 
ATOM     38  N   UNL A   1      40.936  32.597  30.997  1.00  0.00    -0.248 NA
ATOM     39  C   UNL A   1      39.343  34.282  31.279  1.00  0.00     0.031 C 
ATOM     40  C   UNL A   1      37.861  30.116  28.899  1.00  0.00     0.029 A 
ATOM     41  N   UNL A   1      39.979  30.192  29.620  1.00  0.00    -0.354 N 
ATOM     42  C   UNL A   1      41.503  33.654  31.698  1.00  0.00     0.074 A 
ATOM     43  C   UNL A   1      40.488  34.677  31.818  1.00  0.00     0.031 C 
ATOM     44  C   UNL A   1      38.443  28.948  28.576  1.00  0.00     0.029 A 
ATOM     45  C   UNL A   1      39.841  28.973  29.003  1.00  0.00     0.049 A 
ATOM     46  H   UNL A   1      40.813  30.486  30.052  1.00  0.00     0.167 HD
ATOM     47  C   UNL A   1      42.754  33.758  32.206  1.00  0.00     0.037 A 
ATOM     48  C   UNL A   1      40.746  27.998  28.790  1.00  0.00     0.037 A 
ATOM     49  C   UNL A   1      43.766  32.741  32.087  1.00  0.00     0.049 A 
ATOM     50  C   UNL A   1      42.151  28.167  29.304  1.00  0.00     0.074 A 
ATOM     51  C   UNL A   1      45.061  32.750  32.577  1.00  0.00     0.029 A 
ATOM     52  N   UNL A   1      43.598  31.534  31.427  1.00  0.00    -0.354 N 
ATOM     53  N   UNL A   1      42.671  29.161  29.982  1.00  0.00    -0.248 NA
ATOM     54  C   UNL A   1      43.094  27.073  29.026  1.00  0.00     0.031 C 
ATOM     55  C   UNL A   1      45.689  31.567  32.177  1.00  0.00     0.029 A 
ATOM     56  C   UNL A   1      44.771  30.800  31.476  1.00  0.00     0.049 A 
ATOM     57  H   UNL A   1      42.766  31.242  30.987  1.00  0.00     0.167 HD
ATOM     58  C   UNL A   1      43.990  28.804  30.232  1.00  0.00     0.074 A 
ATOM     59  C   UNL A   1      44.189  27.496  29.644  1.00  0.00     0.031 C 
ATOM     60  C   UNL A   1      44.951  29.497  30.891  1.00  0.00     0.037 A 
BRANCH  47  61
ATOM     61  C   UNL A   1      43.103  35.028  32.923  1.00  0.00     0.057 A 
ATOM     62  C   UNL A   1      43.132  35.101  34.321  1.00  0.00     0.134 A 
ATOM     63  C   UNL A   1      43.444  36.181  32.207  1.00  0.00     0.134 A 
ATOM     64  F   UNL A   1      42.801  34.035  35.066  1.00  0.00    -0.206 F 
ATOM     65  C   UNL A   1      43.469  36.285  34.982  1.00  0.00     0.040 A 
ATOM     66  C   UNL A   1      43.804  37.363  32.856  1.00  0.00     0.040 A 
ATOM     67  F   UNL A   1      43.440  36.176  30.865  1.00  0.00    -0.206 F 
ATOM     68  C   UNL A   1      43.812  37.418  34.248  1.00  0.00     0.006 A 
ENDBRANCH  47  61
BRANCH  48  69
ATOM     69  C   UNL A   1      40.358  26.778  28.040  1.00  0.00     0.057 A 
ATOM     70  C   UNL A   1      40.778  26.572  26.721  1.00  0.00     0.134 A 
ATOM     71  C   UNL A   1      39.539  25.802  28.618  1.00  0.00     0.134 A 
ATOM     72  F   UNL A   1      41.543  27.486  26.105  1.00  0.00    -0.206 F 
ATOM     73  C   UNL A   1      40.384  25.445  25.998  1.00  0.00     0.040 A 
ATOM     74  C   UNL A   1      39.158  24.658  27.916  1.00  0.00     0.040 A 
ATOM     75  F   UNL A   1      39.104  25.942  29.878  1.00  0.00    -0.206 F 
ATOM     76  C   UNL A   1      39.576  24.481  26.598  1.00  0.00     0.006 A 
ENDBRANCH  48  69
BRANCH  60  77
ATOM     77  C   UNL A   1      46.294  28.842  31.038  1.00  0.00     0.057 A 
ATOM     78  C   UNL A   1      47.272  28.932  30.041  1.00  0.00     0.134 A 
ATOM     79  C   UNL A   1      46.623  28.149  32.210  1.00  0.00     0.134 A 
ATOM     80  F   UNL A   1      47.013  29.571  28.890  1.00  0.00    -0.206 F 
ATOM     81  C   UNL A   1      48.527  28.339  30.197  1.00  0.00     0.040 A 
ATOM     82  C   UNL A   1      47.882  27.573  32.387  1.00  0.00     0.040 A 
ATOM     83  F   UNL A   1      45.733  28.034  33.208  1.00  0.00    -0.206 F 
ATOM     84  C   UNL A   1      48.836  27.662  31.375  1.00  0.00     0.006 A 
ENDBRANCH  60  77
ENDBRANCH  34  35
ENDBRANCH  27  29
ENDBRANCH  26  27
ENDBRANCH  25  26
ENDBRANCH  24  25
ENDBRANCH  23  24
ENDBRANCH   1  23
TORSDOF 18
ENDMDL
