MODEL 1
REMARK VINA RESULT:     -11.6      0.000      0.000
REMARK SMILES Cc1cc2nc(NC(=O)[C@H]3[C@@H](C(=O)OCCOCCOC(=O)c4ccc(-c5c6nc(c(-c7c(F)cccc7F)c7ccc([nH]7)c(-c7c(F)cccc7F)c7nc(c(-c8c(F)cccc8F)c8ccc5[nH]8)C=C7)C=C6)cc4)[C@@H]4C=C[C@H]3C4)sc2cc1C
REMARK SMILES IDX 17 1 16 2 15 3 14 4 12 5 13 6 11 7 10 8 80 9 77 10 79 11
REMARK SMILES IDX 81 12 78 13 8 14 7 15 9 17 6 18 1 19 2 20 3 21 85 22 4 23
REMARK SMILES IDX 84 24 86 25 5 26 83 27 82 28 18 29 19 30 20 31 21 32 22 33
REMARK SMILES IDX 23 34 24 35 76 36 25 37 75 38 26 39 27 40 28 41 69 42 29 43
REMARK SMILES IDX 74 44 68 45 70 46 30 47 73 48 67 49 66 50 31 52 57 53 40 54
REMARK SMILES IDX 56 55 41 56 44 57 55 58 71 59 42 60 43 61 54 63 72 64 45 65
REMARK SMILES IDX 32 66 33 67 38 68 34 69 35 70 37 71 39 72 36 73 58 74 59 75
REMARK SMILES IDX 64 76 60 77 61 78 63 79 65 80 62 81 46 82 47 83 52 84 48 85
REMARK SMILES IDX 49 86 51 87 53 88 50 89
REMARK H PARENT 7 16 70 51 44 62
REMARK Flexibility Score: inf
ROOT
ATOM      1  O   UNL A   1      32.263  28.755  25.309  1.00  0.00    -0.374 OA
ENDROOT
BRANCH   1   2
ATOM      2  C   UNL A   1      32.478  27.717  26.254  1.00  0.00     0.202 C 
BRANCH   2   3
ATOM      3  C   UNL A   1      33.641  26.719  26.109  1.00  0.00     0.261 C 
BRANCH   3   4
ATOM      4  O   UNL A   1      34.027  26.349  24.780  1.00  0.00    -0.463 OA
BRANCH   4   5
ATOM      5  C   UNL A   1      33.053  25.652  24.146  1.00  0.00     0.310 C 
ATOM      6  O   UNL A   1      32.524  26.036  23.110  1.00  0.00    -0.252 OA
BRANCH   5   7
ATOM      7  C   UNL A   1      32.675  24.353  24.811  1.00  0.00     0.119 C 
ATOM      8  C   UNL A   1      33.384  23.053  24.302  1.00  0.00     0.100 C 
ATOM      9  C   UNL A   1      32.165  22.112  24.061  1.00  0.00     0.025 C 
ATOM     10  C   UNL A   1      31.170  24.003  24.721  1.00  0.00     0.027 C 
ATOM     11  C   UNL A   1      31.520  21.838  25.409  1.00  0.00    -0.027 C 
ATOM     12  C   UNL A   1      31.111  23.076  23.506  1.00  0.00     0.017 C 
ATOM     13  C   UNL A   1      30.913  22.970  25.799  1.00  0.00    -0.027 C 
BRANCH   8  14
ATOM     14  C   UNL A   1      34.260  23.203  23.058  1.00  0.00     0.230 C 
ATOM     15  N   UNL A   1      35.622  23.222  23.143  1.00  0.00    -0.302 N 
ATOM     16  H   UNL A   1      36.120  23.316  22.299  1.00  0.00     0.172 HD
ATOM     17  O   UNL A   1      33.759  23.329  21.936  1.00  0.00    -0.274 OA
BRANCH  15  18
ATOM     18  C   UNL A   1      36.361  23.122  24.286  1.00  0.00     0.190 A 
ATOM     19  C   UNL A   1      40.350  24.976  28.309  1.00  0.00     0.044 C 
ATOM     20  C   UNL A   1      39.613  23.992  27.441  1.00  0.00    -0.046 A 
ATOM     21  C   UNL A   1      38.455  24.473  26.795  1.00  0.00     0.033 A 
ATOM     22  C   UNL A   1      40.004  22.656  27.248  1.00  0.00    -0.047 A 
ATOM     23  C   UNL A   1      37.726  23.658  25.909  1.00  0.00     0.084 A 
ATOM     24  C   UNL A   1      39.285  21.834  26.351  1.00  0.00     0.025 A 
ATOM     25  C   UNL A   1      41.211  22.041  27.908  1.00  0.00     0.044 C 
ATOM     26  N   UNL A   1      36.633  24.058  25.154  1.00  0.00    -0.220 NA
ATOM     27  C   UNL A   1      38.162  22.352  25.689  1.00  0.00     0.057 A 
ATOM     28  S   UNL A   1      37.131  21.619  24.511  1.00  0.00    -0.097 S 
ENDBRANCH  15  18
ENDBRANCH   8  14
ENDBRANCH   5   7
ENDBRANCH   4   5
ENDBRANCH   3   4
ENDBRANCH   2   3
ENDBRANCH   1   2
BRANCH   1  29
ATOM     29  C   UNL A   1      31.960  30.075  25.757  1.00  0.00     0.202 C 
BRANCH  29  30
ATOM     30  C   UNL A   1      32.633  30.612  27.028  1.00  0.00     0.261 C 
BRANCH  30  31
ATOM     31  O   UNL A   1      34.061  30.586  26.922  1.00  0.00    -0.460 OA
BRANCH  31  32
ATOM     32  C   UNL A   1      34.696  31.413  27.793  1.00  0.00     0.338 C 
ATOM     33  O   UNL A   1      34.189  32.247  28.526  1.00  0.00    -0.246 OA
BRANCH  32  34
ATOM     34  C   UNL A   1      36.050  30.861  27.977  1.00  0.00     0.060 A 
ATOM     35  C   UNL A   1      36.328  29.524  27.702  1.00  0.00     0.016 A 
ATOM     36  C   UNL A   1      36.976  31.666  28.663  1.00  0.00     0.016 A 
ATOM     37  C   UNL A   1      37.536  28.991  28.142  1.00  0.00     0.010 A 
ATOM     38  C   UNL A   1      38.171  31.121  29.127  1.00  0.00     0.010 A 
ATOM     39  C   UNL A   1      38.453  29.780  28.871  1.00  0.00    -0.014 A 
BRANCH  39  40
ATOM     40  C   UNL A   1      39.792  29.217  29.084  1.00  0.00     0.031 A 
ATOM     41  C   UNL A   1      40.093  29.013  30.529  1.00  0.00     0.074 A 
ATOM     42  C   UNL A   1      40.685  28.754  28.185  1.00  0.00     0.049 A 
ATOM     43  N   UNL A   1      40.975  29.627  31.245  1.00  0.00    -0.248 NA
ATOM     44  C   UNL A   1      39.220  28.104  31.285  1.00  0.00     0.031 C 
ATOM     45  C   UNL A   1      40.523  28.534  26.748  1.00  0.00     0.029 A 
ATOM     46  N   UNL A   1      41.957  28.304  28.424  1.00  0.00    -0.354 N 
ATOM     47  C   UNL A   1      40.882  29.075  32.519  1.00  0.00     0.074 A 
ATOM     48  C   UNL A   1      39.710  28.236  32.518  1.00  0.00     0.031 C 
ATOM     49  C   UNL A   1      41.577  27.816  26.286  1.00  0.00     0.029 A 
ATOM     50  C   UNL A   1      42.551  27.648  27.354  1.00  0.00     0.049 A 
ATOM     51  H   UNL A   1      42.414  28.435  29.287  1.00  0.00     0.167 HD
ATOM     52  C   UNL A   1      41.884  29.207  33.427  1.00  0.00     0.037 A 
ATOM     53  C   UNL A   1      43.740  26.992  27.365  1.00  0.00     0.037 A 
ATOM     54  C   UNL A   1      42.788  30.267  33.074  1.00  0.00     0.049 A 
ATOM     55  C   UNL A   1      44.538  27.509  28.499  1.00  0.00     0.074 A 
ATOM     56  C   UNL A   1      42.681  31.630  32.886  1.00  0.00     0.029 A 
ATOM     57  N   UNL A   1      44.004  29.912  32.550  1.00  0.00    -0.354 N 
ATOM     58  N   UNL A   1      45.067  28.698  28.549  1.00  0.00    -0.248 NA
ATOM     59  C   UNL A   1      44.503  26.785  29.760  1.00  0.00     0.031 C 
ATOM     60  C   UNL A   1      43.621  31.941  31.860  1.00  0.00     0.029 A 
ATOM     61  C   UNL A   1      44.258  30.752  31.501  1.00  0.00     0.049 A 
ATOM     62  H   UNL A   1      44.587  29.185  32.870  1.00  0.00     0.167 HD
ATOM     63  C   UNL A   1      45.032  29.036  29.890  1.00  0.00     0.074 A 
ATOM     64  C   UNL A   1      44.810  27.780  30.595  1.00  0.00     0.031 C 
ATOM     65  C   UNL A   1      44.904  30.337  30.279  1.00  0.00     0.037 A 
BRANCH  52  66
ATOM     66  C   UNL A   1      42.260  28.146  34.431  1.00  0.00     0.057 A 
ATOM     67  C   UNL A   1      42.707  26.894  33.968  1.00  0.00     0.134 A 
ATOM     68  C   UNL A   1      41.902  28.190  35.792  1.00  0.00     0.134 A 
ATOM     69  F   UNL A   1      43.063  26.720  32.687  1.00  0.00    -0.206 F 
ATOM     70  C   UNL A   1      42.712  25.753  34.779  1.00  0.00     0.040 A 
ATOM     71  C   UNL A   1      41.955  27.069  36.624  1.00  0.00     0.040 A 
ATOM     72  F   UNL A   1      41.384  29.285  36.363  1.00  0.00    -0.206 F 
ATOM     73  C   UNL A   1      42.326  25.837  36.110  1.00  0.00     0.006 A 
ENDBRANCH  52  66
BRANCH  53  74
ATOM     74  C   UNL A   1      44.186  25.790  26.618  1.00  0.00     0.057 A 
ATOM     75  C   UNL A   1      45.046  25.900  25.511  1.00  0.00     0.134 A 
ATOM     76  C   UNL A   1      44.043  24.503  27.157  1.00  0.00     0.134 A 
ATOM     77  F   UNL A   1      45.277  27.093  24.941  1.00  0.00    -0.206 F 
ATOM     78  C   UNL A   1      45.756  24.806  25.001  1.00  0.00     0.040 A 
ATOM     79  C   UNL A   1      44.741  23.399  26.654  1.00  0.00     0.040 A 
ATOM     80  F   UNL A   1      43.295  24.293  28.250  1.00  0.00    -0.206 F 
ATOM     81  C   UNL A   1      45.617  23.551  25.585  1.00  0.00     0.006 A 
ENDBRANCH  53  74
BRANCH  65  82
ATOM     82  C   UNL A   1      45.182  31.412  29.270  1.00  0.00     0.057 A 
ATOM     83  C   UNL A   1      44.247  31.883  28.337  1.00  0.00     0.134 A 
ATOM     84  C   UNL A   1      46.394  32.107  29.366  1.00  0.00     0.134 A 
ATOM     85  F   UNL A   1      43.029  31.336  28.234  1.00  0.00    -0.206 F 
ATOM     86  C   UNL A   1      44.522  32.984  27.521  1.00  0.00     0.040 A 
ATOM     87  C   UNL A   1      46.664  33.228  28.582  1.00  0.00     0.040 A 
ATOM     88  F   UNL A   1      47.316  31.736  30.270  1.00  0.00    -0.206 F 
ATOM     89  C   UNL A   1      45.728  33.668  27.650  1.00  0.00     0.006 A 
ENDBRANCH  65  82
ENDBRANCH  39  40
ENDBRANCH  32  34
ENDBRANCH  31  32
ENDBRANCH  30  31
ENDBRANCH  29  30
ENDBRANCH   1  29
TORSDOF 16
ENDMDL
MODEL 2
REMARK VINA RESULT:     -11.5      2.804      7.789
REMARK SMILES Cc1cc2nc(NC(=O)[C@H]3[C@@H](C(=O)OCCOCCOC(=O)c4ccc(-c5c6nc(c(-c7c(F)cccc7F)c7ccc([nH]7)c(-c7c(F)cccc7F)c7nc(c(-c8c(F)cccc8F)c8ccc5[nH]8)C=C7)C=C6)cc4)[C@@H]4C=C[C@H]3C4)sc2cc1C
REMARK SMILES IDX 17 1 16 2 15 3 14 4 12 5 13 6 11 7 10 8 80 9 77 10 79 11
REMARK SMILES IDX 81 12 78 13 8 14 7 15 9 17 6 18 1 19 2 20 3 21 85 22 4 23
REMARK SMILES IDX 84 24 86 25 5 26 83 27 82 28 18 29 19 30 20 31 21 32 22 33
REMARK SMILES IDX 23 34 24 35 76 36 25 37 75 38 26 39 27 40 28 41 69 42 29 43
REMARK SMILES IDX 74 44 68 45 70 46 30 47 73 48 67 49 66 50 31 52 57 53 40 54
REMARK SMILES IDX 56 55 41 56 44 57 55 58 71 59 42 60 43 61 54 63 72 64 45 65
REMARK SMILES IDX 32 66 33 67 38 68 34 69 35 70 37 71 39 72 36 73 58 74 59 75
REMARK SMILES IDX 64 76 60 77 61 78 63 79 65 80 62 81 46 82 47 83 52 84 48 85
REMARK SMILES IDX 49 86 51 87 53 88 50 89
REMARK H PARENT 7 16 70 51 44 62
REMARK Flexibility Score: inf
ROOT
ATOM      1  O   UNL A   1      35.456  21.205  26.137  1.00  0.00    -0.374 OA
ENDROOT
BRANCH   1   2
ATOM      2  C   UNL A   1      34.730  22.333  26.604  1.00  0.00     0.202 C 
BRANCH   2   3
ATOM      3  C   UNL A   1      34.685  23.652  25.810  1.00  0.00     0.261 C 
BRANCH   3   4
ATOM      4  O   UNL A   1      33.626  24.566  26.114  1.00  0.00    -0.463 OA
BRANCH   4   5
ATOM      5  C   UNL A   1      32.532  24.347  25.345  1.00  0.00     0.310 C 
ATOM      6  O   UNL A   1      31.795  23.379  25.491  1.00  0.00    -0.252 OA
BRANCH   5   7
ATOM      7  C   UNL A   1      32.281  25.401  24.296  1.00  0.00     0.119 C 
ATOM      8  C   UNL A   1      31.513  26.690  24.742  1.00  0.00     0.100 C 
ATOM      9  C   UNL A   1      30.406  26.784  23.648  1.00  0.00     0.025 C 
ATOM     10  C   UNL A   1      31.473  24.904  23.073  1.00  0.00     0.027 C 
ATOM     11  C   UNL A   1      31.093  27.042  22.318  1.00  0.00    -0.027 C 
ATOM     12  C   UNL A   1      30.042  25.312  23.425  1.00  0.00     0.017 C 
ATOM     13  C   UNL A   1      31.723  25.910  21.967  1.00  0.00    -0.027 C 
BRANCH   8  14
ATOM     14  C   UNL A   1      30.935  26.678  26.157  1.00  0.00     0.230 C 
ATOM     15  N   UNL A   1      31.445  27.473  27.143  1.00  0.00    -0.302 N 
ATOM     16  H   UNL A   1      31.018  27.414  28.028  1.00  0.00     0.172 HD
ATOM     17  O   UNL A   1      29.997  25.933  26.458  1.00  0.00    -0.274 OA
BRANCH  15  18
ATOM     18  C   UNL A   1      32.490  28.342  27.019  1.00  0.00     0.190 A 
ATOM     19  C   UNL A   1      37.871  30.532  28.355  1.00  0.00     0.044 C 
ATOM     20  C   UNL A   1      36.417  30.570  27.969  1.00  0.00    -0.046 A 
ATOM     21  C   UNL A   1      35.831  29.336  27.619  1.00  0.00     0.033 A 
ATOM     22  C   UNL A   1      35.635  31.738  27.936  1.00  0.00    -0.047 A 
ATOM     23  C   UNL A   1      34.462  29.245  27.304  1.00  0.00     0.084 A 
ATOM     24  C   UNL A   1      34.257  31.655  27.633  1.00  0.00     0.025 A 
ATOM     25  C   UNL A   1      36.171  33.105  28.272  1.00  0.00     0.044 C 
ATOM     26  N   UNL A   1      33.768  28.075  27.038  1.00  0.00    -0.220 NA
ATOM     27  C   UNL A   1      33.691  30.407  27.330  1.00  0.00     0.057 A 
ATOM     28  S   UNL A   1      32.051  29.988  26.980  1.00  0.00    -0.097 S 
ENDBRANCH  15  18
ENDBRANCH   8  14
ENDBRANCH   5   7
ENDBRANCH   4   5
ENDBRANCH   3   4
ENDBRANCH   2   3
ENDBRANCH   1   2
BRANCH   1  29
ATOM     29  C   UNL A   1      36.289  21.322  24.985  1.00  0.00     0.202 C 
BRANCH  29  30
ATOM     30  C   UNL A   1      37.814  21.263  25.148  1.00  0.00     0.261 C 
BRANCH  30  31
ATOM     31  O   UNL A   1      38.326  22.445  25.774  1.00  0.00    -0.460 OA
BRANCH  31  32
ATOM     32  C   UNL A   1      39.542  22.280  26.358  1.00  0.00     0.338 C 
ATOM     33  O   UNL A   1      40.338  21.376  26.168  1.00  0.00    -0.246 OA
BRANCH  32  34
ATOM     34  C   UNL A   1      39.890  23.577  26.966  1.00  0.00     0.060 A 
ATOM     35  C   UNL A   1      41.041  23.727  27.736  1.00  0.00     0.016 A 
ATOM     36  C   UNL A   1      38.902  24.576  26.939  1.00  0.00     0.016 A 
ATOM     37  C   UNL A   1      41.184  24.880  28.501  1.00  0.00     0.010 A 
ATOM     38  C   UNL A   1      39.036  25.716  27.729  1.00  0.00     0.010 A 
ATOM     39  C   UNL A   1      40.177  25.870  28.515  1.00  0.00    -0.014 A 
BRANCH  39  40
ATOM     40  C   UNL A   1      40.511  27.150  29.150  1.00  0.00     0.031 A 
ATOM     41  C   UNL A   1      41.649  27.834  28.474  1.00  0.00     0.074 A 
ATOM     42  C   UNL A   1      39.867  27.821  30.127  1.00  0.00     0.049 A 
ATOM     43  N   UNL A   1      42.828  28.062  28.950  1.00  0.00    -0.248 NA
ATOM     44  C   UNL A   1      41.486  28.191  27.057  1.00  0.00     0.031 C 
ATOM     45  C   UNL A   1      38.565  27.548  30.735  1.00  0.00     0.029 A 
ATOM     46  N   UNL A   1      40.256  28.983  30.742  1.00  0.00    -0.354 N 
ATOM     47  C   UNL A   1      43.519  28.736  27.948  1.00  0.00     0.074 A 
ATOM     48  C   UNL A   1      42.692  28.679  26.769  1.00  0.00     0.031 C 
ATOM     49  C   UNL A   1      38.190  28.615  31.483  1.00  0.00     0.029 A 
ATOM     50  C   UNL A   1      39.277  29.582  31.523  1.00  0.00     0.049 A 
ATOM     51  H   UNL A   1      41.159  29.362  30.639  1.00  0.00     0.167 HD
ATOM     52  C   UNL A   1      44.643  29.451  28.215  1.00  0.00     0.037 A 
ATOM     53  C   UNL A   1      39.352  30.796  32.127  1.00  0.00     0.037 A 
ATOM     54  C   UNL A   1      45.214  29.094  29.485  1.00  0.00     0.049 A 
ATOM     55  C   UNL A   1      40.783  31.149  32.268  1.00  0.00     0.074 A 
ATOM     56  C   UNL A   1      45.726  27.940  30.045  1.00  0.00     0.029 A 
ATOM     57  N   UNL A   1      45.030  29.965  30.528  1.00  0.00    -0.354 N 
ATOM     58  N   UNL A   1      41.610  30.566  33.088  1.00  0.00    -0.248 NA
ATOM     59  C   UNL A   1      41.396  31.986  31.249  1.00  0.00     0.031 C 
ATOM     60  C   UNL A   1      45.394  28.017  31.429  1.00  0.00     0.029 A 
ATOM     61  C   UNL A   1      44.719  29.221  31.632  1.00  0.00     0.049 A 
ATOM     62  H   UNL A   1      45.108  30.945  30.488  1.00  0.00     0.167 HD
ATOM     63  C   UNL A   1      42.830  30.608  32.437  1.00  0.00     0.074 A 
ATOM     64  C   UNL A   1      42.668  31.608  31.389  1.00  0.00     0.031 C 
ATOM     65  C   UNL A   1      43.759  29.630  32.631  1.00  0.00     0.037 A 
BRANCH  52  66
ATOM     66  C   UNL A   1      45.020  30.729  27.509  1.00  0.00     0.057 A 
ATOM     67  C   UNL A   1      46.294  30.836  26.920  1.00  0.00     0.134 A 
ATOM     68  C   UNL A   1      44.324  31.944  27.659  1.00  0.00     0.134 A 
ATOM     69  F   UNL A   1      47.062  29.752  26.737  1.00  0.00    -0.206 F 
ATOM     70  C   UNL A   1      46.865  32.070  26.590  1.00  0.00     0.040 A 
ATOM     71  C   UNL A   1      44.864  33.176  27.283  1.00  0.00     0.040 A 
ATOM     72  F   UNL A   1      43.136  32.019  28.273  1.00  0.00    -0.206 F 
ATOM     73  C   UNL A   1      46.153  33.247  26.780  1.00  0.00     0.006 A 
ENDBRANCH  52  66
BRANCH  53  74
ATOM     74  C   UNL A   1      38.298  31.802  32.405  1.00  0.00     0.057 A 
ATOM     75  C   UNL A   1      37.686  31.883  33.668  1.00  0.00     0.134 A 
ATOM     76  C   UNL A   1      38.099  32.901  31.556  1.00  0.00     0.134 A 
ATOM     77  F   UNL A   1      37.843  30.899  34.567  1.00  0.00    -0.206 F 
ATOM     78  C   UNL A   1      36.958  33.007  34.078  1.00  0.00     0.040 A 
ATOM     79  C   UNL A   1      37.368  34.028  31.950  1.00  0.00     0.040 A 
ATOM     80  F   UNL A   1      38.686  32.957  30.352  1.00  0.00    -0.206 F 
ATOM     81  C   UNL A   1      36.812  34.094  33.222  1.00  0.00     0.006 A 
ENDBRANCH  53  74
BRANCH  65  82
ATOM     82  C   UNL A   1      43.607  28.730  33.821  1.00  0.00     0.057 A 
ATOM     83  C   UNL A   1      44.120  29.009  35.096  1.00  0.00     0.134 A 
ATOM     84  C   UNL A   1      42.763  27.619  33.702  1.00  0.00     0.134 A 
ATOM     85  F   UNL A   1      44.866  30.098  35.324  1.00  0.00    -0.206 F 
ATOM     86  C   UNL A   1      43.823  28.200  36.196  1.00  0.00     0.040 A 
ATOM     87  C   UNL A   1      42.431  26.825  34.800  1.00  0.00     0.040 A 
ATOM     88  F   UNL A   1      42.202  27.319  32.519  1.00  0.00    -0.206 F 
ATOM     89  C   UNL A   1      42.966  27.111  36.053  1.00  0.00     0.006 A 
ENDBRANCH  65  82
ENDBRANCH  39  40
ENDBRANCH  32  34
ENDBRANCH  31  32
ENDBRANCH  30  31
ENDBRANCH  29  30
ENDBRANCH   1  29
TORSDOF 16
ENDMDL
MODEL 3
REMARK VINA RESULT:     -10.8      1.946      3.707
REMARK SMILES Cc1cc2nc(NC(=O)[C@H]3[C@@H](C(=O)OCCOCCOC(=O)c4ccc(-c5c6nc(c(-c7c(F)cccc7F)c7ccc([nH]7)c(-c7c(F)cccc7F)c7nc(c(-c8c(F)cccc8F)c8ccc5[nH]8)C=C7)C=C6)cc4)[C@@H]4C=C[C@H]3C4)sc2cc1C
REMARK SMILES IDX 17 1 16 2 15 3 14 4 12 5 13 6 11 7 10 8 80 9 77 10 79 11
REMARK SMILES IDX 81 12 78 13 8 14 7 15 9 17 6 18 1 19 2 20 3 21 85 22 4 23
REMARK SMILES IDX 84 24 86 25 5 26 83 27 82 28 18 29 19 30 20 31 21 32 22 33
REMARK SMILES IDX 23 34 24 35 76 36 25 37 75 38 26 39 27 40 28 41 69 42 29 43
REMARK SMILES IDX 74 44 68 45 70 46 30 47 73 48 67 49 66 50 31 52 57 53 40 54
REMARK SMILES IDX 56 55 41 56 44 57 55 58 71 59 42 60 43 61 54 63 72 64 45 65
REMARK SMILES IDX 32 66 33 67 38 68 34 69 35 70 37 71 39 72 36 73 58 74 59 75
REMARK SMILES IDX 64 76 60 77 61 78 63 79 65 80 62 81 46 82 47 83 52 84 48 85
REMARK SMILES IDX 49 86 51 87 53 88 50 89
REMARK H PARENT 7 16 70 51 44 62
REMARK Flexibility Score: inf
ROOT
ATOM      1  O   UNL A   1      33.168  31.044  27.664  1.00  0.00    -0.374 OA
ENDROOT
BRANCH   1   2
ATOM      2  C   UNL A   1      33.386  29.826  26.965  1.00  0.00     0.202 C 
BRANCH   2   3
ATOM      3  C   UNL A   1      32.759  28.501  27.436  1.00  0.00     0.261 C 
BRANCH   3   4
ATOM      4  O   UNL A   1      31.457  28.175  26.938  1.00  0.00    -0.463 OA
BRANCH   4   5
ATOM      5  C   UNL A   1      31.430  26.952  26.355  1.00  0.00     0.310 C 
ATOM      6  O   UNL A   1      31.743  25.924  26.942  1.00  0.00    -0.252 OA
BRANCH   5   7
ATOM      7  C   UNL A   1      30.969  26.952  24.919  1.00  0.00     0.119 C 
ATOM      8  C   UNL A   1      32.033  26.610  23.823  1.00  0.00     0.100 C 
ATOM      9  C   UNL A   1      31.838  27.791  22.824  1.00  0.00     0.025 C 
ATOM     10  C   UNL A   1      30.376  28.299  24.439  1.00  0.00     0.027 C 
ATOM     11  C   UNL A   1      30.445  27.668  22.229  1.00  0.00    -0.027 C 
ATOM     12  C   UNL A   1      31.572  28.973  23.763  1.00  0.00     0.017 C 
ATOM     13  C   UNL A   1      29.569  27.985  23.195  1.00  0.00    -0.027 C 
BRANCH   8  14
ATOM     14  C   UNL A   1      33.480  26.483  24.300  1.00  0.00     0.230 C 
ATOM     15  N   UNL A   1      34.030  25.268  24.594  1.00  0.00    -0.302 N 
ATOM     16  H   UNL A   1      34.969  25.265  24.890  1.00  0.00     0.172 HD
ATOM     17  O   UNL A   1      34.192  27.480  24.452  1.00  0.00    -0.274 OA
BRANCH  15  18
ATOM     18  C   UNL A   1      33.404  24.058  24.514  1.00  0.00     0.190 A 
ATOM     19  C   UNL A   1      32.700  18.262  25.712  1.00  0.00     0.044 C 
ATOM     20  C   UNL A   1      32.674  19.518  24.884  1.00  0.00    -0.046 A 
ATOM     21  C   UNL A   1      32.867  20.730  25.580  1.00  0.00     0.033 A 
ATOM     22  C   UNL A   1      32.473  19.547  23.493  1.00  0.00    -0.047 A 
ATOM     23  C   UNL A   1      32.926  21.958  24.896  1.00  0.00     0.084 A 
ATOM     24  C   UNL A   1      32.543  20.775  22.796  1.00  0.00     0.025 A 
ATOM     25  C   UNL A   1      32.239  18.312  22.663  1.00  0.00     0.044 C 
ATOM     26  N   UNL A   1      33.202  23.191  25.468  1.00  0.00    -0.220 NA
ATOM     27  C   UNL A   1      32.778  21.960  23.509  1.00  0.00     0.057 A 
ATOM     28  S   UNL A   1      32.970  23.580  22.937  1.00  0.00    -0.097 S 
ENDBRANCH  15  18
ENDBRANCH   8  14
ENDBRANCH   5   7
ENDBRANCH   4   5
ENDBRANCH   3   4
ENDBRANCH   2   3
ENDBRANCH   1   2
BRANCH   1  29
ATOM     29  C   UNL A   1      34.260  31.930  27.906  1.00  0.00     0.202 C 
BRANCH  29  30
ATOM     30  C   UNL A   1      34.097  33.069  28.922  1.00  0.00     0.261 C 
BRANCH  30  31
ATOM     31  O   UNL A   1      35.275  33.242  29.717  1.00  0.00    -0.460 OA
BRANCH  31  32
ATOM     32  C   UNL A   1      35.299  32.481  30.843  1.00  0.00     0.338 C 
ATOM     33  O   UNL A   1      34.381  32.281  31.621  1.00  0.00    -0.246 OA
BRANCH  32  34
ATOM     34  C   UNL A   1      36.504  31.639  30.748  1.00  0.00     0.060 A 
ATOM     35  C   UNL A   1      37.780  32.195  30.808  1.00  0.00     0.016 A 
ATOM     36  C   UNL A   1      36.316  30.302  30.357  1.00  0.00     0.016 A 
ATOM     37  C   UNL A   1      38.868  31.405  30.448  1.00  0.00     0.010 A 
ATOM     38  C   UNL A   1      37.405  29.524  29.970  1.00  0.00     0.010 A 
ATOM     39  C   UNL A   1      38.685  30.076  30.011  1.00  0.00    -0.014 A 
BRANCH  39  40
ATOM     40  C   UNL A   1      39.888  29.245  29.884  1.00  0.00     0.031 A 
ATOM     41  C   UNL A   1      40.511  28.950  31.205  1.00  0.00     0.074 A 
ATOM     42  C   UNL A   1      40.399  28.629  28.798  1.00  0.00     0.049 A 
ATOM     43  N   UNL A   1      41.656  29.352  31.646  1.00  0.00    -0.248 NA
ATOM     44  C   UNL A   1      39.700  28.223  32.194  1.00  0.00     0.031 C 
ATOM     45  C   UNL A   1      39.824  28.479  27.462  1.00  0.00     0.029 A 
ATOM     46  N   UNL A   1      41.570  27.920  28.710  1.00  0.00    -0.354 N 
ATOM     47  C   UNL A   1      41.790  28.802  32.917  1.00  0.00     0.074 A 
ATOM     48  C   UNL A   1      40.514  28.223  33.249  1.00  0.00     0.031 C 
ATOM     49  C   UNL A   1      40.549  27.570  26.763  1.00  0.00     0.029 A 
ATOM     50  C   UNL A   1      41.714  27.181  27.544  1.00  0.00     0.049 A 
ATOM     51  H   UNL A   1      42.254  27.935  29.419  1.00  0.00     0.167 HD
ATOM     52  C   UNL A   1      43.000  28.704  33.526  1.00  0.00     0.037 A 
ATOM     53  C   UNL A   1      42.704  26.294  27.264  1.00  0.00     0.037 A 
ATOM     54  C   UNL A   1      43.977  29.563  32.914  1.00  0.00     0.049 A 
ATOM     55  C   UNL A   1      43.860  26.610  28.132  1.00  0.00     0.074 A 
ATOM     56  C   UNL A   1      44.105  30.923  32.716  1.00  0.00     0.029 A 
ATOM     57  N   UNL A   1      44.913  28.977  32.101  1.00  0.00    -0.354 N 
ATOM     58  N   UNL A   1      44.615  27.663  28.004  1.00  0.00    -0.248 NA
ATOM     59  C   UNL A   1      44.011  25.880  29.381  1.00  0.00     0.031 C 
ATOM     60  C   UNL A   1      44.785  31.057  31.470  1.00  0.00     0.029 A 
ATOM     61  C   UNL A   1      45.049  29.771  30.996  1.00  0.00     0.049 A 
ATOM     62  H   UNL A   1      45.398  28.139  32.281  1.00  0.00     0.167 HD
ATOM     63  C   UNL A   1      45.004  27.970  29.295  1.00  0.00     0.074 A 
ATOM     64  C   UNL A   1      44.723  26.771  30.074  1.00  0.00     0.031 C 
ATOM     65  C   UNL A   1      45.252  29.260  29.661  1.00  0.00     0.037 A 
BRANCH  52  66
ATOM     66  C   UNL A   1      43.402  27.566  34.430  1.00  0.00     0.057 A 
ATOM     67  C   UNL A   1      43.512  26.270  33.891  1.00  0.00     0.134 A 
ATOM     68  C   UNL A   1      43.369  27.630  35.837  1.00  0.00     0.134 A 
ATOM     69  F   UNL A   1      43.538  26.075  32.564  1.00  0.00    -0.206 F 
ATOM     70  C   UNL A   1      43.501  25.122  34.691  1.00  0.00     0.040 A 
ATOM     71  C   UNL A   1      43.412  26.493  36.646  1.00  0.00     0.040 A 
ATOM     72  F   UNL A   1      43.188  28.780  36.498  1.00  0.00    -0.206 F 
ATOM     73  C   UNL A   1      43.441  25.231  36.074  1.00  0.00     0.006 A 
ENDBRANCH  52  66
BRANCH  53  74
ATOM     74  C   UNL A   1      42.681  25.044  26.466  1.00  0.00     0.057 A 
ATOM     75  C   UNL A   1      43.526  24.876  25.355  1.00  0.00     0.134 A 
ATOM     76  C   UNL A   1      42.075  23.878  26.957  1.00  0.00     0.134 A 
ATOM     77  F   UNL A   1      44.180  25.924  24.830  1.00  0.00    -0.206 F 
ATOM     78  C   UNL A   1      43.789  23.620  24.795  1.00  0.00     0.040 A 
ATOM     79  C   UNL A   1      42.323  22.616  26.403  1.00  0.00     0.040 A 
ATOM     80  F   UNL A   1      41.298  23.912  28.049  1.00  0.00    -0.206 F 
ATOM     81  C   UNL A   1      43.198  22.480  25.331  1.00  0.00     0.006 A 
ENDBRANCH  53  74
BRANCH  65  82
ATOM     82  C   UNL A   1      45.468  30.278  28.581  1.00  0.00     0.057 A 
ATOM     83  C   UNL A   1      46.708  30.548  27.985  1.00  0.00     0.134 A 
ATOM     84  C   UNL A   1      44.341  30.883  28.012  1.00  0.00     0.134 A 
ATOM     85  F   UNL A   1      47.830  29.949  28.406  1.00  0.00    -0.206 F 
ATOM     86  C   UNL A   1      46.819  31.405  26.886  1.00  0.00     0.040 A 
ATOM     87  C   UNL A   1      44.435  31.711  26.893  1.00  0.00     0.040 A 
ATOM     88  F   UNL A   1      43.117  30.632  28.505  1.00  0.00    -0.206 F 
ATOM     89  C   UNL A   1      45.678  31.979  26.329  1.00  0.00     0.006 A 
ENDBRANCH  65  82
ENDBRANCH  39  40
ENDBRANCH  32  34
ENDBRANCH  31  32
ENDBRANCH  30  31
ENDBRANCH  29  30
ENDBRANCH   1  29
TORSDOF 16
ENDMDL
