MODEL 1
REMARK VINA RESULT:     -13.0      0.000      0.000
REMARK SMILES Cc1cccc(N2C(=O)/C(=C/c3ccc(C(=O)OCCOCCOC(=O)c4ccc(-c5c6nc(c(-c7c(F)cccc7F)c7ccc([nH]7)c(-c7c(F)cccc7F)c7nc(c(-c8c(F)cccc8F)c8ccc5[nH]8)C=C7)C=C6)cc4)cc3)c3ccccc3C2=O)c1
REMARK SMILES IDX 21 1 20 2 19 3 18 4 16 5 17 6 15 7 12 8 13 9 82 10 14 11
REMARK SMILES IDX 81 12 11 13 7 14 8 15 89 16 9 17 10 18 88 19 90 20 83 21
REMARK SMILES IDX 87 22 84 23 86 24 85 25 6 26 1 27 2 28 3 29 91 30 4 31 5 32
REMARK SMILES IDX 22 33 23 34 24 35 25 36 26 37 27 38 28 39 80 40 29 41 79 42
REMARK SMILES IDX 30 43 31 44 32 45 73 46 33 47 78 48 72 49 74 50 34 51 77 52
REMARK SMILES IDX 71 53 70 54 35 56 61 57 44 58 60 59 45 60 48 61 59 62 75 63
REMARK SMILES IDX 46 64 47 65 58 67 76 68 49 69 36 70 37 71 42 72 38 73 39 74
REMARK SMILES IDX 41 75 43 76 40 77 62 78 63 79 68 80 64 81 65 82 67 83 69 84
REMARK SMILES IDX 66 85 50 86 51 87 56 88 52 89 53 90 55 91 57 92 54 93
REMARK H PARENT 74 55 48 66
REMARK Flexibility Score: inf
ROOT
ATOM      1  O   UNL A   1      41.502  19.297  25.604  1.00  0.00    -0.374 OA
ENDROOT
BRANCH   1   2
ATOM      2  C   UNL A   1      40.612  19.886  26.536  1.00  0.00     0.202 C 
BRANCH   2   3
ATOM      3  C   UNL A   1      39.813  20.904  25.770  1.00  0.00     0.261 C 
BRANCH   3   4
ATOM      4  O   UNL A   1      38.434  20.950  26.186  1.00  0.00    -0.460 OA
BRANCH   4   5
ATOM      5  C   UNL A   1      37.431  20.787  25.270  1.00  0.00     0.338 C 
ATOM      6  O   UNL A   1      36.809  19.797  24.979  1.00  0.00    -0.246 OA
BRANCH   5   7
ATOM      7  C   UNL A   1      37.093  22.148  24.827  1.00  0.00     0.060 A 
ATOM      8  C   UNL A   1      35.518  24.213  23.944  1.00  0.00    -0.025 A 
ATOM      9  C   UNL A   1      36.149  23.382  23.010  1.00  0.00     0.009 A 
ATOM     10  C   UNL A   1      35.885  24.163  25.292  1.00  0.00     0.009 A 
ATOM     11  C   UNL A   1      36.958  22.345  23.453  1.00  0.00     0.016 A 
ATOM     12  C   UNL A   1      36.651  23.102  25.746  1.00  0.00     0.016 A 
BRANCH   8  13
ATOM     13  C   UNL A   1      34.389  25.026  23.498  1.00  0.00     0.022 C 
ATOM     14  N   UNL A   1      31.243  26.264  24.188  1.00  0.00    -0.242 N 
ATOM     15  C   UNL A   1      32.164  25.814  23.221  1.00  0.00     0.265 C 
ATOM     16  C   UNL A   1      31.007  25.500  25.360  1.00  0.00     0.265 C 
ATOM     17  O   UNL A   1      32.321  26.184  22.061  1.00  0.00    -0.268 OA
ATOM     18  C   UNL A   1      33.083  24.759  23.721  1.00  0.00     0.049 C 
ATOM     19  C   UNL A   1      31.450  24.079  25.355  1.00  0.00     0.048 A 
ATOM     20  O   UNL A   1      30.453  25.862  26.394  1.00  0.00    -0.268 OA
ATOM     21  C   UNL A   1      32.471  23.682  24.496  1.00  0.00    -0.000 A 
ATOM     22  C   UNL A   1      30.847  23.150  26.216  1.00  0.00     0.014 A 
ATOM     23  C   UNL A   1      32.823  22.329  24.428  1.00  0.00     0.010 A 
ATOM     24  C   UNL A   1      31.238  21.810  26.180  1.00  0.00     0.001 A 
ATOM     25  C   UNL A   1      32.214  21.398  25.276  1.00  0.00     0.001 A 
BRANCH  14  26
ATOM     26  C   UNL A   1      30.554  27.538  23.981  1.00  0.00     0.053 A 
ATOM     27  C   UNL A   1      27.155  28.800  22.721  1.00  0.00     0.044 C 
ATOM     28  C   UNL A   1      28.558  28.812  23.252  1.00  0.00    -0.049 A 
ATOM     29  C   UNL A   1      29.194  30.013  23.544  1.00  0.00     0.003 A 
ATOM     30  C   UNL A   1      29.236  27.602  23.487  1.00  0.00     0.030 A 
ATOM     31  C   UNL A   1      30.490  29.995  24.041  1.00  0.00     0.002 A 
ATOM     32  C   UNL A   1      31.157  28.778  24.249  1.00  0.00     0.027 A 
ENDBRANCH  14  26
ENDBRANCH   8  13
ENDBRANCH   5   7
ENDBRANCH   4   5
ENDBRANCH   3   4
ENDBRANCH   2   3
ENDBRANCH   1   2
BRANCH   1  33
ATOM     33  C   UNL A   1      42.660  18.698  26.149  1.00  0.00     0.202 C 
BRANCH  33  34
ATOM     34  C   UNL A   1      43.878  18.789  25.222  1.00  0.00     0.261 C 
BRANCH  34  35
ATOM     35  O   UNL A   1      43.897  20.077  24.573  1.00  0.00    -0.460 OA
BRANCH  35  36
ATOM     36  C   UNL A   1      44.727  21.005  25.124  1.00  0.00     0.338 C 
ATOM     37  O   UNL A   1      45.871  20.799  25.499  1.00  0.00    -0.246 OA
BRANCH  36  38
ATOM     38  C   UNL A   1      43.951  22.230  25.472  1.00  0.00     0.060 A 
ATOM     39  C   UNL A   1      43.894  23.304  24.563  1.00  0.00     0.016 A 
ATOM     40  C   UNL A   1      43.578  22.427  26.799  1.00  0.00     0.016 A 
ATOM     41  C   UNL A   1      43.632  24.604  25.023  1.00  0.00     0.010 A 
ATOM     42  C   UNL A   1      43.412  23.716  27.257  1.00  0.00     0.010 A 
ATOM     43  C   UNL A   1      43.481  24.820  26.389  1.00  0.00    -0.014 A 
BRANCH  43  44
ATOM     44  C   UNL A   1      43.504  26.120  27.069  1.00  0.00     0.031 A 
ATOM     45  C   UNL A   1      42.223  26.850  27.246  1.00  0.00     0.074 A 
ATOM     46  C   UNL A   1      44.577  26.499  27.810  1.00  0.00     0.049 A 
ATOM     47  N   UNL A   1      42.135  28.012  27.792  1.00  0.00    -0.248 NA
ATOM     48  C   UNL A   1      40.923  26.358  26.785  1.00  0.00     0.031 C 
ATOM     49  C   UNL A   1      44.593  27.372  28.988  1.00  0.00     0.029 A 
ATOM     50  N   UNL A   1      45.933  26.185  27.648  1.00  0.00    -0.354 N 
ATOM     51  C   UNL A   1      40.818  28.216  28.117  1.00  0.00     0.074 A 
ATOM     52  C   UNL A   1      40.094  27.258  27.327  1.00  0.00     0.031 C 
ATOM     53  C   UNL A   1      45.853  27.761  29.246  1.00  0.00     0.029 A 
ATOM     54  C   UNL A   1      46.677  27.261  28.163  1.00  0.00     0.049 A 
ATOM     55  H   UNL A   1      46.298  25.363  27.248  1.00  0.00     0.167 HD
ATOM     56  C   UNL A   1      40.538  29.079  29.134  1.00  0.00     0.037 A 
ATOM     57  C   UNL A   1      47.523  27.973  27.372  1.00  0.00     0.037 A 
ATOM     58  C   UNL A   1      41.739  29.839  29.513  1.00  0.00     0.049 A 
ATOM     59  C   UNL A   1      47.057  29.397  27.317  1.00  0.00     0.074 A 
ATOM     60  C   UNL A   1      42.546  29.872  30.637  1.00  0.00     0.029 A 
ATOM     61  N   UNL A   1      42.426  30.543  28.522  1.00  0.00    -0.354 N 
ATOM     62  N   UNL A   1      45.829  29.731  27.607  1.00  0.00    -0.248 NA
ATOM     63  C   UNL A   1      47.900  30.556  27.050  1.00  0.00     0.031 C 
ATOM     64  C   UNL A   1      43.768  30.514  30.274  1.00  0.00     0.029 A 
ATOM     65  C   UNL A   1      43.685  30.914  28.948  1.00  0.00     0.049 A 
ATOM     66  H   UNL A   1      42.058  30.750  27.631  1.00  0.00     0.167 HD
ATOM     67  C   UNL A   1      45.721  31.083  27.673  1.00  0.00     0.074 A 
ATOM     68  C   UNL A   1      47.031  31.563  27.266  1.00  0.00     0.031 C 
ATOM     69  C   UNL A   1      44.569  31.688  28.077  1.00  0.00     0.037 A 
BRANCH  56  70
ATOM     70  C   UNL A   1      39.231  29.138  29.903  1.00  0.00     0.057 A 
ATOM     71  C   UNL A   1      38.112  29.794  29.348  1.00  0.00     0.134 A 
ATOM     72  C   UNL A   1      39.019  28.664  31.215  1.00  0.00     0.134 A 
ATOM     73  F   UNL A   1      38.156  30.330  28.121  1.00  0.00    -0.206 F 
ATOM     74  C   UNL A   1      36.894  29.946  30.030  1.00  0.00     0.040 A 
ATOM     75  C   UNL A   1      37.790  28.764  31.887  1.00  0.00     0.040 A 
ATOM     76  F   UNL A   1      39.997  28.131  31.954  1.00  0.00    -0.206 F 
ATOM     77  C   UNL A   1      36.721  29.415  31.298  1.00  0.00     0.006 A 
ENDBRANCH  56  70
BRANCH  57  78
ATOM     78  C   UNL A   1      48.133  27.113  26.316  1.00  0.00     0.057 A 
ATOM     79  C   UNL A   1      47.621  27.256  25.007  1.00  0.00     0.134 A 
ATOM     80  C   UNL A   1      49.442  26.632  26.426  1.00  0.00     0.134 A 
ATOM     81  F   UNL A   1      46.380  27.736  24.820  1.00  0.00    -0.206 F 
ATOM     82  C   UNL A   1      48.416  27.071  23.869  1.00  0.00     0.040 A 
ATOM     83  C   UNL A   1      50.246  26.441  25.288  1.00  0.00     0.040 A 
ATOM     84  F   UNL A   1      50.017  26.490  27.628  1.00  0.00    -0.206 F 
ATOM     85  C   UNL A   1      49.749  26.706  24.012  1.00  0.00     0.006 A 
ENDBRANCH  57  78
BRANCH  69  86
ATOM     86  C   UNL A   1      44.191  33.096  27.712  1.00  0.00     0.057 A 
ATOM     87  C   UNL A   1      44.245  34.168  28.615  1.00  0.00     0.134 A 
ATOM     88  C   UNL A   1      43.970  33.451  26.365  1.00  0.00     0.134 A 
ATOM     89  F   UNL A   1      44.553  33.989  29.908  1.00  0.00    -0.206 F 
ATOM     90  C   UNL A   1      44.049  35.492  28.217  1.00  0.00     0.040 A 
ATOM     91  C   UNL A   1      43.838  34.776  25.947  1.00  0.00     0.040 A 
ATOM     92  F   UNL A   1      43.915  32.533  25.388  1.00  0.00    -0.206 F 
ATOM     93  C   UNL A   1      43.864  35.803  26.877  1.00  0.00     0.006 A 
ENDBRANCH  69  86
ENDBRANCH  43  44
ENDBRANCH  36  38
ENDBRANCH  35  36
ENDBRANCH  34  35
ENDBRANCH  33  34
ENDBRANCH   1  33
TORSDOF 16
ENDMDL
MODEL 2
REMARK VINA RESULT:     -12.3      4.517     10.670
REMARK SMILES Cc1cccc(N2C(=O)/C(=C/c3ccc(C(=O)OCCOCCOC(=O)c4ccc(-c5c6nc(c(-c7c(F)cccc7F)c7ccc([nH]7)c(-c7c(F)cccc7F)c7nc(c(-c8c(F)cccc8F)c8ccc5[nH]8)C=C7)C=C6)cc4)cc3)c3ccccc3C2=O)c1
REMARK SMILES IDX 21 1 20 2 19 3 18 4 16 5 17 6 15 7 12 8 13 9 82 10 14 11
REMARK SMILES IDX 81 12 11 13 7 14 8 15 89 16 9 17 10 18 88 19 90 20 83 21
REMARK SMILES IDX 87 22 84 23 86 24 85 25 6 26 1 27 2 28 3 29 91 30 4 31 5 32
REMARK SMILES IDX 22 33 23 34 24 35 25 36 26 37 27 38 28 39 80 40 29 41 79 42
REMARK SMILES IDX 30 43 31 44 32 45 73 46 33 47 78 48 72 49 74 50 34 51 77 52
REMARK SMILES IDX 71 53 70 54 35 56 61 57 44 58 60 59 45 60 48 61 59 62 75 63
REMARK SMILES IDX 46 64 47 65 58 67 76 68 49 69 36 70 37 71 42 72 38 73 39 74
REMARK SMILES IDX 41 75 43 76 40 77 62 78 63 79 68 80 64 81 65 82 67 83 69 84
REMARK SMILES IDX 66 85 50 86 51 87 56 88 52 89 53 90 55 91 57 92 54 93
REMARK H PARENT 74 55 48 66
REMARK Flexibility Score: inf
ROOT
ATOM      1  O   UNL A   1      34.305  34.809  28.453  1.00  0.00    -0.374 OA
ENDROOT
BRANCH   1   2
ATOM      2  C   UNL A   1      34.647  33.711  27.625  1.00  0.00     0.202 C 
BRANCH   2   3
ATOM      3  C   UNL A   1      34.089  32.487  28.297  1.00  0.00     0.261 C 
BRANCH   3   4
ATOM      4  O   UNL A   1      33.757  31.446  27.359  1.00  0.00    -0.460 OA
BRANCH   4   5
ATOM      5  C   UNL A   1      32.458  31.245  26.980  1.00  0.00     0.338 C 
ATOM      6  O   UNL A   1      31.555  32.035  26.881  1.00  0.00    -0.246 OA
BRANCH   5   7
ATOM      7  C   UNL A   1      32.412  29.857  26.496  1.00  0.00     0.060 A 
ATOM      8  C   UNL A   1      33.150  27.226  26.257  1.00  0.00    -0.025 A 
ATOM      9  C   UNL A   1      33.708  28.177  25.393  1.00  0.00     0.009 A 
ATOM     10  C   UNL A   1      32.047  27.555  27.050  1.00  0.00     0.009 A 
ATOM     11  C   UNL A   1      33.326  29.507  25.503  1.00  0.00     0.016 A 
ATOM     12  C   UNL A   1      31.695  28.886  27.201  1.00  0.00     0.016 A 
BRANCH   8  13
ATOM     13  C   UNL A   1      33.826  25.939  26.401  1.00  0.00     0.022 C 
ATOM     14  N   UNL A   1      35.411  23.296  24.850  1.00  0.00    -0.242 N 
ATOM     15  C   UNL A   1      34.603  23.746  25.911  1.00  0.00     0.265 C 
ATOM     16  C   UNL A   1      35.113  23.671  23.515  1.00  0.00     0.265 C 
ATOM     17  O   UNL A   1      34.541  23.345  27.071  1.00  0.00    -0.268 OA
ATOM     18  C   UNL A   1      33.731  24.894  25.549  1.00  0.00     0.049 C 
ATOM     19  C   UNL A   1      33.753  24.211  23.240  1.00  0.00     0.048 A 
ATOM     20  O   UNL A   1      35.841  23.588  22.529  1.00  0.00    -0.268 OA
ATOM     21  C   UNL A   1      33.025  24.792  24.274  1.00  0.00    -0.000 A 
ATOM     22  C   UNL A   1      33.214  24.140  21.947  1.00  0.00     0.014 A 
ATOM     23  C   UNL A   1      31.712  25.216  24.034  1.00  0.00     0.010 A 
ATOM     24  C   UNL A   1      31.923  24.611  21.701  1.00  0.00     0.001 A 
ATOM     25  C   UNL A   1      31.168  25.135  22.748  1.00  0.00     0.001 A 
BRANCH  14  26
ATOM     26  C   UNL A   1      36.576  22.458  25.143  1.00  0.00     0.053 A 
ATOM     27  C   UNL A   1      39.978  22.772  26.892  1.00  0.00     0.044 C 
ATOM     28  C   UNL A   1      38.831  22.178  26.129  1.00  0.00    -0.049 A 
ATOM     29  C   UNL A   1      38.871  20.854  25.707  1.00  0.00     0.003 A 
ATOM     30  C   UNL A   1      37.687  22.950  25.856  1.00  0.00     0.030 A 
ATOM     31  C   UNL A   1      37.794  20.328  25.009  1.00  0.00     0.002 A 
ATOM     32  C   UNL A   1      36.670  21.120  24.728  1.00  0.00     0.027 A 
ENDBRANCH  14  26
ENDBRANCH   8  13
ENDBRANCH   5   7
ENDBRANCH   4   5
ENDBRANCH   3   4
ENDBRANCH   2   3
ENDBRANCH   1   2
BRANCH   1  33
ATOM     33  C   UNL A   1      33.035  34.745  29.070  1.00  0.00     0.202 C 
BRANCH  33  34
ATOM     34  C   UNL A   1      32.956  35.560  30.367  1.00  0.00     0.261 C 
BRANCH  34  35
ATOM     35  O   UNL A   1      34.246  35.571  31.012  1.00  0.00    -0.460 OA
BRANCH  35  36
ATOM     36  C   UNL A   1      34.418  34.658  32.007  1.00  0.00     0.338 C 
ATOM     37  O   UNL A   1      34.138  34.830  33.184  1.00  0.00    -0.246 OA
BRANCH  36  38
ATOM     38  C   UNL A   1      35.263  33.531  31.516  1.00  0.00     0.060 A 
ATOM     39  C   UNL A   1      35.084  32.240  32.048  1.00  0.00     0.016 A 
ATOM     40  C   UNL A   1      36.417  33.830  30.795  1.00  0.00     0.016 A 
ATOM     41  C   UNL A   1      36.133  31.309  32.005  1.00  0.00     0.010 A 
ATOM     42  C   UNL A   1      37.472  32.944  30.838  1.00  0.00     0.010 A 
ATOM     43  C   UNL A   1      37.362  31.698  31.479  1.00  0.00    -0.014 A 
BRANCH  43  44
ATOM     44  C   UNL A   1      38.634  30.980  31.623  1.00  0.00     0.031 A 
ATOM     45  C   UNL A   1      38.859  29.766  30.799  1.00  0.00     0.074 A 
ATOM     46  C   UNL A   1      39.700  31.570  32.221  1.00  0.00     0.049 A 
ATOM     47  N   UNL A   1      39.920  29.041  30.874  1.00  0.00    -0.248 NA
ATOM     48  C   UNL A   1      37.892  29.228  29.841  1.00  0.00     0.031 C 
ATOM     49  C   UNL A   1      41.123  31.338  31.951  1.00  0.00     0.029 A 
ATOM     50  N   UNL A   1      39.739  32.523  33.246  1.00  0.00    -0.354 N 
ATOM     51  C   UNL A   1      39.958  28.248  29.756  1.00  0.00     0.074 A 
ATOM     52  C   UNL A   1      38.614  28.272  29.245  1.00  0.00     0.031 C 
ATOM     53  C   UNL A   1      41.863  31.859  32.943  1.00  0.00     0.029 A 
ATOM     54  C   UNL A   1      40.937  32.327  33.956  1.00  0.00     0.049 A 
ATOM     55  H   UNL A   1      39.055  33.204  33.436  1.00  0.00     0.167 HD
ATOM     56  C   UNL A   1      41.173  27.799  29.333  1.00  0.00     0.037 A 
ATOM     57  C   UNL A   1      40.927  32.008  35.278  1.00  0.00     0.037 A 
ATOM     58  C   UNL A   1      42.202  28.052  30.353  1.00  0.00     0.049 A 
ATOM     59  C   UNL A   1      41.566  30.664  35.460  1.00  0.00     0.074 A 
ATOM     60  C   UNL A   1      43.310  28.879  30.422  1.00  0.00     0.029 A 
ATOM     61  N   UNL A   1      41.990  27.579  31.650  1.00  0.00    -0.354 N 
ATOM     62  N   UNL A   1      41.672  29.813  34.475  1.00  0.00    -0.248 NA
ATOM     63  C   UNL A   1      42.220  30.192  36.674  1.00  0.00     0.031 C 
ATOM     64  C   UNL A   1      43.693  28.976  31.794  1.00  0.00     0.029 A 
ATOM     65  C   UNL A   1      42.852  28.171  32.550  1.00  0.00     0.049 A 
ATOM     66  H   UNL A   1      41.311  26.906  31.892  1.00  0.00     0.167 HD
ATOM     67  C   UNL A   1      42.457  28.770  34.849  1.00  0.00     0.074 A 
ATOM     68  C   UNL A   1      42.737  29.022  36.253  1.00  0.00     0.031 C 
ATOM     69  C   UNL A   1      42.824  27.800  33.965  1.00  0.00     0.037 A 
BRANCH  56  70
ATOM     70  C   UNL A   1      41.482  27.273  27.943  1.00  0.00     0.057 A 
ATOM     71  C   UNL A   1      41.996  25.970  27.777  1.00  0.00     0.134 A 
ATOM     72  C   UNL A   1      41.393  28.007  26.741  1.00  0.00     0.134 A 
ATOM     73  F   UNL A   1      42.175  25.152  28.823  1.00  0.00    -0.206 F 
ATOM     74  C   UNL A   1      42.368  25.444  26.529  1.00  0.00     0.040 A 
ATOM     75  C   UNL A   1      41.712  27.474  25.482  1.00  0.00     0.040 A 
ATOM     76  F   UNL A   1      41.051  29.298  26.710  1.00  0.00    -0.206 F 
ATOM     77  C   UNL A   1      42.210  26.188  25.371  1.00  0.00     0.006 A 
ENDBRANCH  56  70
BRANCH  57  78
ATOM     78  C   UNL A   1      39.766  32.631  35.978  1.00  0.00     0.057 A 
ATOM     79  C   UNL A   1      38.681  31.781  36.288  1.00  0.00     0.134 A 
ATOM     80  C   UNL A   1      39.915  33.769  36.778  1.00  0.00     0.134 A 
ATOM     81  F   UNL A   1      38.489  30.654  35.581  1.00  0.00    -0.206 F 
ATOM     82  C   UNL A   1      37.878  31.974  37.418  1.00  0.00     0.040 A 
ATOM     83  C   UNL A   1      39.111  33.973  37.913  1.00  0.00     0.040 A 
ATOM     84  F   UNL A   1      40.932  34.618  36.573  1.00  0.00    -0.206 F 
ATOM     85  C   UNL A   1      38.124  33.051  38.262  1.00  0.00     0.006 A 
ENDBRANCH  57  78
BRANCH  69  86
ATOM     86  C   UNL A   1      43.232  26.411  34.367  1.00  0.00     0.057 A 
ATOM     87  C   UNL A   1      42.359  25.495  34.970  1.00  0.00     0.134 A 
ATOM     88  C   UNL A   1      44.472  25.882  33.952  1.00  0.00     0.134 A 
ATOM     89  F   UNL A   1      41.108  25.831  35.317  1.00  0.00    -0.206 F 
ATOM     90  C   UNL A   1      42.708  24.159  35.185  1.00  0.00     0.040 A 
ATOM     91  C   UNL A   1      44.805  24.535  34.104  1.00  0.00     0.040 A 
ATOM     92  F   UNL A   1      45.399  26.637  33.343  1.00  0.00    -0.206 F 
ATOM     93  C   UNL A   1      43.926  23.670  34.735  1.00  0.00     0.006 A 
ENDBRANCH  69  86
ENDBRANCH  43  44
ENDBRANCH  36  38
ENDBRANCH  35  36
ENDBRANCH  34  35
ENDBRANCH  33  34
ENDBRANCH   1  33
TORSDOF 16
ENDMDL
MODEL 3
REMARK VINA RESULT:     -12.1      6.397     12.718
REMARK SMILES Cc1cccc(N2C(=O)/C(=C/c3ccc(C(=O)OCCOCCOC(=O)c4ccc(-c5c6nc(c(-c7c(F)cccc7F)c7ccc([nH]7)c(-c7c(F)cccc7F)c7nc(c(-c8c(F)cccc8F)c8ccc5[nH]8)C=C7)C=C6)cc4)cc3)c3ccccc3C2=O)c1
REMARK SMILES IDX 21 1 20 2 19 3 18 4 16 5 17 6 15 7 12 8 13 9 82 10 14 11
REMARK SMILES IDX 81 12 11 13 7 14 8 15 89 16 9 17 10 18 88 19 90 20 83 21
REMARK SMILES IDX 87 22 84 23 86 24 85 25 6 26 1 27 2 28 3 29 91 30 4 31 5 32
REMARK SMILES IDX 22 33 23 34 24 35 25 36 26 37 27 38 28 39 80 40 29 41 79 42
REMARK SMILES IDX 30 43 31 44 32 45 73 46 33 47 78 48 72 49 74 50 34 51 77 52
REMARK SMILES IDX 71 53 70 54 35 56 61 57 44 58 60 59 45 60 48 61 59 62 75 63
REMARK SMILES IDX 46 64 47 65 58 67 76 68 49 69 36 70 37 71 42 72 38 73 39 74
REMARK SMILES IDX 41 75 43 76 40 77 62 78 63 79 68 80 64 81 65 82 67 83 69 84
REMARK SMILES IDX 66 85 50 86 51 87 56 88 52 89 53 90 55 91 57 92 54 93
REMARK H PARENT 74 55 48 66
REMARK Flexibility Score: inf
ROOT
ATOM      1  O   UNL A   1      33.016  36.453  29.498  1.00  0.00    -0.374 OA
ENDROOT
BRANCH   1   2
ATOM      2  C   UNL A   1      33.197  35.059  29.316  1.00  0.00     0.202 C 
BRANCH   2   3
ATOM      3  C   UNL A   1      33.647  34.876  27.893  1.00  0.00     0.261 C 
BRANCH   3   4
ATOM      4  O   UNL A   1      34.547  33.762  27.738  1.00  0.00    -0.460 OA
BRANCH   4   5
ATOM      5  C   UNL A   1      34.072  32.480  27.766  1.00  0.00     0.338 C 
ATOM      6  O   UNL A   1      32.986  32.055  27.464  1.00  0.00    -0.246 OA
BRANCH   5   7
ATOM      7  C   UNL A   1      35.247  31.643  28.052  1.00  0.00     0.060 A 
ATOM      8  C   UNL A   1      36.981  30.125  29.540  1.00  0.00    -0.025 A 
ATOM      9  C   UNL A   1      37.200  31.503  29.425  1.00  0.00     0.009 A 
ATOM     10  C   UNL A   1      36.058  29.486  28.706  1.00  0.00     0.009 A 
ATOM     11  C   UNL A   1      36.333  32.272  28.662  1.00  0.00     0.016 A 
ATOM     12  C   UNL A   1      35.158  30.251  27.981  1.00  0.00     0.016 A 
BRANCH   8  13
ATOM     13  C   UNL A   1      37.638  29.406  30.628  1.00  0.00     0.022 C 
ATOM     14  N   UNL A   1      40.601  28.523  32.160  1.00  0.00    -0.242 N 
ATOM     15  C   UNL A   1      39.274  28.178  31.839  1.00  0.00     0.265 C 
ATOM     16  C   UNL A   1      41.472  29.021  31.158  1.00  0.00     0.265 C 
ATOM     17  O   UNL A   1      38.462  27.515  32.481  1.00  0.00    -0.268 OA
ATOM     18  C   UNL A   1      38.810  28.738  30.543  1.00  0.00     0.049 C 
ATOM     19  C   UNL A   1      41.079  28.811  29.738  1.00  0.00     0.048 A 
ATOM     20  O   UNL A   1      42.545  29.600  31.313  1.00  0.00    -0.268 OA
ATOM     21  C   UNL A   1      39.737  28.621  29.420  1.00  0.00    -0.000 A 
ATOM     22  C   UNL A   1      42.052  28.811  28.728  1.00  0.00     0.014 A 
ATOM     23  C   UNL A   1      39.379  28.332  28.097  1.00  0.00     0.010 A 
ATOM     24  C   UNL A   1      41.684  28.573  27.403  1.00  0.00     0.001 A 
ATOM     25  C   UNL A   1      40.351  28.319  27.091  1.00  0.00     0.001 A 
BRANCH  14  26
ATOM     26  C   UNL A   1      41.062  28.386  33.543  1.00  0.00     0.053 A 
ATOM     27  C   UNL A   1      42.835  25.785  35.740  1.00  0.00     0.044 C 
ATOM     28  C   UNL A   1      42.146  27.053  35.327  1.00  0.00    -0.049 A 
ATOM     29  C   UNL A   1      41.948  28.081  36.242  1.00  0.00     0.003 A 
ATOM     30  C   UNL A   1      41.717  27.225  33.999  1.00  0.00     0.030 A 
ATOM     31  C   UNL A   1      41.315  29.246  35.831  1.00  0.00     0.002 A 
ATOM     32  C   UNL A   1      40.875  29.390  34.507  1.00  0.00     0.027 A 
ENDBRANCH  14  26
ENDBRANCH   8  13
ENDBRANCH   5   7
ENDBRANCH   4   5
ENDBRANCH   3   4
ENDBRANCH   2   3
ENDBRANCH   1   2
BRANCH   1  33
ATOM     33  C   UNL A   1      32.945  36.896  30.839  1.00  0.00     0.202 C 
BRANCH  33  34
ATOM     34  C   UNL A   1      32.425  35.821  31.800  1.00  0.00     0.261 C 
BRANCH  34  35
ATOM     35  O   UNL A   1      33.507  35.343  32.624  1.00  0.00    -0.460 OA
BRANCH  35  36
ATOM     36  C   UNL A   1      33.632  33.990  32.713  1.00  0.00     0.338 C 
ATOM     37  O   UNL A   1      32.834  33.239  33.251  1.00  0.00    -0.246 OA
BRANCH  36  38
ATOM     38  C   UNL A   1      35.013  33.586  32.321  1.00  0.00     0.060 A 
ATOM     39  C   UNL A   1      35.525  32.345  32.747  1.00  0.00     0.016 A 
ATOM     40  C   UNL A   1      35.878  34.561  31.831  1.00  0.00     0.016 A 
ATOM     41  C   UNL A   1      36.911  32.151  32.843  1.00  0.00     0.010 A 
ATOM     42  C   UNL A   1      37.234  34.395  32.014  1.00  0.00     0.010 A 
ATOM     43  C   UNL A   1      37.765  33.213  32.561  1.00  0.00    -0.014 A 
BRANCH  43  44
ATOM     44  C   UNL A   1      39.193  33.290  32.890  1.00  0.00     0.031 A 
ATOM     45  C   UNL A   1      40.180  32.890  31.857  1.00  0.00     0.074 A 
ATOM     46  C   UNL A   1      39.622  34.010  33.958  1.00  0.00     0.049 A 
ATOM     47  N   UNL A   1      41.453  32.881  32.052  1.00  0.00    -0.248 NA
ATOM     48  C   UNL A   1      39.827  32.419  30.516  1.00  0.00     0.031 C 
ATOM     49  C   UNL A   1      40.904  34.703  34.117  1.00  0.00     0.029 A 
ATOM     50  N   UNL A   1      38.986  34.269  35.179  1.00  0.00    -0.354 N 
ATOM     51  C   UNL A   1      42.059  32.821  30.823  1.00  0.00     0.074 A 
ATOM     52  C   UNL A   1      41.028  32.365  29.930  1.00  0.00     0.031 C 
ATOM     53  C   UNL A   1      41.087  35.028  35.408  1.00  0.00     0.029 A 
ATOM     54  C   UNL A   1      39.990  34.435  36.148  1.00  0.00     0.049 A 
ATOM     55  H   UNL A   1      38.015  34.324  35.331  1.00  0.00     0.167 HD
ATOM     56  C   UNL A   1      43.324  33.316  30.710  1.00  0.00     0.037 A 
ATOM     57  C   UNL A   1      40.071  33.611  37.226  1.00  0.00     0.037 A 
ATOM     58  C   UNL A   1      43.894  33.584  32.039  1.00  0.00     0.049 A 
ATOM     59  C   UNL A   1      41.382  32.884  37.187  1.00  0.00     0.074 A 
ATOM     60  C   UNL A   1      44.254  34.733  32.722  1.00  0.00     0.029 A 
ATOM     61  N   UNL A   1      43.913  32.552  32.980  1.00  0.00    -0.354 N 
ATOM     62  N   UNL A   1      42.066  32.757  36.082  1.00  0.00    -0.248 NA
ATOM     63  C   UNL A   1      42.087  32.342  38.342  1.00  0.00     0.031 C 
ATOM     64  C   UNL A   1      44.384  34.393  34.103  1.00  0.00     0.029 A 
ATOM     65  C   UNL A   1      44.155  33.033  34.251  1.00  0.00     0.049 A 
ATOM     66  H   UNL A   1      43.772  31.601  32.765  1.00  0.00     0.167 HD
ATOM     67  C   UNL A   1      43.292  32.241  36.355  1.00  0.00     0.074 A 
ATOM     68  C   UNL A   1      43.244  31.946  37.777  1.00  0.00     0.031 C 
ATOM     69  C   UNL A   1      44.246  32.119  35.389  1.00  0.00     0.037 A 
BRANCH  56  70
ATOM     70  C   UNL A   1      44.001  33.712  29.411  1.00  0.00     0.057 A 
ATOM     71  C   UNL A   1      43.474  34.761  28.630  1.00  0.00     0.134 A 
ATOM     72  C   UNL A   1      45.103  33.060  28.819  1.00  0.00     0.134 A 
ATOM     73  F   UNL A   1      42.406  35.463  29.033  1.00  0.00    -0.206 F 
ATOM     74  C   UNL A   1      44.007  35.136  27.386  1.00  0.00     0.040 A 
ATOM     75  C   UNL A   1      45.677  33.459  27.601  1.00  0.00     0.040 A 
ATOM     76  F   UNL A   1      45.657  31.963  29.344  1.00  0.00    -0.206 F 
ATOM     77  C   UNL A   1      45.124  34.497  26.873  1.00  0.00     0.006 A 
ENDBRANCH  56  70
BRANCH  57  78
ATOM     78  C   UNL A   1      38.720  33.147  37.658  1.00  0.00     0.057 A 
ATOM     79  C   UNL A   1      38.281  31.906  37.145  1.00  0.00     0.134 A 
ATOM     80  C   UNL A   1      38.157  33.556  38.872  1.00  0.00     0.134 A 
ATOM     81  F   UNL A   1      38.796  31.435  35.997  1.00  0.00    -0.206 F 
ATOM     82  C   UNL A   1      37.440  31.053  37.870  1.00  0.00     0.040 A 
ATOM     83  C   UNL A   1      37.308  32.707  39.604  1.00  0.00     0.040 A 
ATOM     84  F   UNL A   1      38.535  34.707  39.445  1.00  0.00    -0.206 F 
ATOM     85  C   UNL A   1      36.987  31.436  39.127  1.00  0.00     0.006 A 
ENDBRANCH  57  78
BRANCH  69  86
ATOM     86  C   UNL A   1      45.385  31.142  35.457  1.00  0.00     0.057 A 
ATOM     87  C   UNL A   1      46.545  31.359  36.214  1.00  0.00     0.134 A 
ATOM     88  C   UNL A   1      45.244  29.841  34.927  1.00  0.00     0.134 A 
ATOM     89  F   UNL A   1      46.759  32.512  36.864  1.00  0.00    -0.206 F 
ATOM     90  C   UNL A   1      47.517  30.372  36.396  1.00  0.00     0.040 A 
ATOM     91  C   UNL A   1      46.177  28.829  35.157  1.00  0.00     0.040 A 
ATOM     92  F   UNL A   1      44.175  29.482  34.200  1.00  0.00    -0.206 F 
ATOM     93  C   UNL A   1      47.326  29.096  35.883  1.00  0.00     0.006 A 
ENDBRANCH  69  86
ENDBRANCH  43  44
ENDBRANCH  36  38
ENDBRANCH  35  36
ENDBRANCH  34  35
ENDBRANCH  33  34
ENDBRANCH   1  33
TORSDOF 16
ENDMDL
