MODEL 1
REMARK VINA RESULT:     -13.5      0.000      0.000
REMARK SMILES Cc1ccc(-c2cc(Cl)cc3c2O[C@H](C(F)(F)F)C(C(=O)OCCOCCOC(=O)c2ccc(-c4c5nc(c(-c6c(F)cccc6F)c6ccc([nH]6)c(-c6c(F)cccc6F)c6nc(c(-c7c(F)cccc7F)c7ccc4[nH]7)C=C6)C=C5)cc2)=C3)cc1F
REMARK SMILES IDX 26 1 25 2 24 3 23 4 22 5 20 6 21 7 19 8 6 9 7 10 12 11 8 12
REMARK SMILES IDX 11 13 13 14 9 15 10 16 85 17 14 18 5 19 1 20 2 21 3 22 87 23
REMARK SMILES IDX 4 24 86 25 88 26 15 27 16 28 17 29 18 30 27 31 28 32 29 33
REMARK SMILES IDX 30 34 31 35 32 36 84 37 33 38 83 39 34 40 35 41 36 42 77 43
REMARK SMILES IDX 37 44 82 45 76 46 78 47 38 48 81 49 75 50 74 51 39 53 65 54
REMARK SMILES IDX 48 55 64 56 49 57 52 58 63 59 79 60 50 61 51 62 62 64 80 65
REMARK SMILES IDX 53 66 40 67 41 68 46 69 42 70 43 71 45 72 47 73 44 74 66 75
REMARK SMILES IDX 67 76 72 77 68 78 69 79 71 80 73 81 70 82 54 83 55 84 60 85
REMARK SMILES IDX 56 86 57 87 59 88 61 89 58 90
REMARK H PARENT 78 52 52 63
REMARK Flexibility Score: inf
ROOT
ATOM      1  C   UNL A   1      37.795  21.739  25.258  1.00  0.00     0.202 C 
ENDROOT
BRANCH   1   2
ATOM      2  O   UNL A   1      36.425  21.800  25.663  1.00  0.00    -0.374 OA
BRANCH   2   3
ATOM      3  C   UNL A   1      35.436  21.133  24.898  1.00  0.00     0.202 C 
BRANCH   3   4
ATOM      4  C   UNL A   1      34.091  21.954  24.496  1.00  0.00     0.261 C 
BRANCH   4   5
ATOM      5  O   UNL A   1      32.915  23.070  25.680  1.00  0.00    -0.460 OA
BRANCH   5   6
ATOM      6  C   UNL A   1      32.207  24.086  26.338  1.00  0.00     0.338 C 
ATOM      7  O   UNL A   1      31.490  23.976  27.321  1.00  0.00    -0.246 OA
BRANCH   6   8
ATOM      8  C   UNL A   1      32.549  25.425  25.813  1.00  0.00     0.087 C 
ATOM      9  C   UNL A   1      32.228  29.431  25.003  1.00  0.00     0.026 A 
ATOM     10  C   UNL A   1      32.734  30.358  25.920  1.00  0.00     0.033 A 
ATOM     11  C   UNL A   1      32.582  28.077  25.151  1.00  0.00     0.135 A 
ATOM     12  C   UNL A   1      33.577  29.929  26.951  1.00  0.00     0.042 A 
ATOM     13  C   UNL A   1      33.339  27.636  26.239  1.00  0.00     0.019 A 
ATOM     14  O   UNL A   1      32.149  27.213  24.177  1.00  0.00    -0.475 OA
ATOM     15  Cl  UNL A   1      34.172  31.073  28.092  1.00  0.00    -0.084 Cl
ATOM     16  C   UNL A   1      33.881  28.575  27.117  1.00  0.00     0.032 A 
ATOM     17  C   UNL A   1      33.355  26.211  26.547  1.00  0.00     0.027 C 
ATOM     18  C   UNL A   1      31.824  25.869  24.584  1.00  0.00     0.316 C 
BRANCH   9  19
ATOM     19  C   UNL A   1      31.238  29.790  23.980  1.00  0.00    -0.012 A 
ATOM     20  C   UNL A   1      27.775  30.136  21.435  1.00  0.00     0.047 C 
ATOM     21  C   UNL A   1      29.022  30.085  22.262  1.00  0.00    -0.015 A 
ATOM     22  C   UNL A   1      30.148  29.360  21.853  1.00  0.00     0.007 A 
ATOM     23  C   UNL A   1      29.042  30.706  23.509  1.00  0.00     0.126 A 
ATOM     24  C   UNL A   1      31.249  29.213  22.705  1.00  0.00     0.009 A 
ATOM     25  C   UNL A   1      30.140  30.585  24.349  1.00  0.00     0.048 A 
ATOM     26  F   UNL A   1      27.969  31.383  23.941  1.00  0.00    -0.207 F 
ENDBRANCH   9  19
BRANCH  18  27
ATOM     27  C   UNL A   1      30.306  25.693  24.672  1.00  0.00     0.430 C 
ATOM     28  F   UNL A   1      29.957  24.402  24.467  1.00  0.00    -0.167 F 
ATOM     29  F   UNL A   1      29.844  26.019  25.901  1.00  0.00    -0.167 F 
ATOM     30  F   UNL A   1      29.654  26.448  23.763  1.00  0.00    -0.167 F 
ENDBRANCH  18  27
ENDBRANCH   6   8
ENDBRANCH   5   6
ENDBRANCH   4   5
ENDBRANCH   3   4
ENDBRANCH   2   3
ENDBRANCH   1   2
BRANCH   1  31
ATOM     31  C   UNL A   1      39.024  22.141  26.127  1.00  0.00     0.261 C 
BRANCH  31  32
ATOM     32  O   UNL A   1      39.070  23.496  26.590  1.00  0.00    -0.460 OA
BRANCH  32  33
ATOM     33  C   UNL A   1      40.278  24.089  26.724  1.00  0.00     0.338 C 
ATOM     34  O   UNL A   1      41.326  23.733  26.221  1.00  0.00    -0.246 OA
BRANCH  33  35
ATOM     35  C   UNL A   1      40.002  25.454  27.243  1.00  0.00     0.060 A 
ATOM     36  C   UNL A   1      40.545  26.615  26.668  1.00  0.00     0.016 A 
ATOM     37  C   UNL A   1      39.443  25.497  28.524  1.00  0.00     0.016 A 
ATOM     38  C   UNL A   1      40.614  27.795  27.425  1.00  0.00     0.010 A 
ATOM     39  C   UNL A   1      39.538  26.660  29.278  1.00  0.00     0.010 A 
ATOM     40  C   UNL A   1      40.158  27.799  28.751  1.00  0.00    -0.014 A 
BRANCH  40  41
ATOM     41  C   UNL A   1      40.271  28.972  29.623  1.00  0.00     0.031 A 
ATOM     42  C   UNL A   1      39.181  29.967  29.638  1.00  0.00     0.074 A 
ATOM     43  C   UNL A   1      41.336  29.206  30.428  1.00  0.00     0.049 A 
ATOM     44  N   UNL A   1      39.354  31.242  29.766  1.00  0.00    -0.248 NA
ATOM     45  C   UNL A   1      37.784  29.566  29.537  1.00  0.00     0.031 C 
ATOM     46  C   UNL A   1      41.503  30.298  31.386  1.00  0.00     0.029 A 
ATOM     47  N   UNL A   1      42.610  28.634  30.367  1.00  0.00    -0.354 N 
ATOM     48  C   UNL A   1      38.136  31.761  30.134  1.00  0.00     0.074 A 
ATOM     49  C   UNL A   1      37.174  30.712  29.855  1.00  0.00     0.031 C 
ATOM     50  C   UNL A   1      42.816  30.562  31.502  1.00  0.00     0.029 A 
ATOM     51  C   UNL A   1      43.520  29.703  30.561  1.00  0.00     0.049 A 
ATOM     52  H   UNL A   1      42.830  27.686  30.220  1.00  0.00     0.167 HD
ATOM     53  C   UNL A   1      38.064  32.934  30.827  1.00  0.00     0.037 A 
ATOM     54  C   UNL A   1      44.383  30.109  29.587  1.00  0.00     0.037 A 
ATOM     55  C   UNL A   1      39.369  33.551  31.055  1.00  0.00     0.049 A 
ATOM     56  C   UNL A   1      44.194  31.568  29.169  1.00  0.00     0.074 A 
ATOM     57  C   UNL A   1      40.194  33.702  32.160  1.00  0.00     0.029 A 
ATOM     58  N   UNL A   1      40.148  33.899  29.962  1.00  0.00    -0.354 N 
ATOM     59  N   UNL A   1      43.236  32.337  29.621  1.00  0.00    -0.248 NA
ATOM     60  C   UNL A   1      45.010  32.268  28.173  1.00  0.00     0.031 C 
ATOM     61  C   UNL A   1      41.466  34.157  31.723  1.00  0.00     0.029 A 
ATOM     62  C   UNL A   1      41.427  34.247  30.347  1.00  0.00     0.049 A 
ATOM     63  H   UNL A   1      39.830  33.898  29.031  1.00  0.00     0.167 HD
ATOM     64  C   UNL A   1      43.299  33.574  29.028  1.00  0.00     0.074 A 
ATOM     65  C   UNL A   1      44.419  33.478  28.115  1.00  0.00     0.031 C 
ATOM     66  C   UNL A   1      42.419  34.573  29.338  1.00  0.00     0.037 A 
BRANCH  53  67
ATOM     67  C   UNL A   1      36.792  33.309  31.544  1.00  0.00     0.057 A 
ATOM     68  C   UNL A   1      36.589  33.026  32.906  1.00  0.00     0.134 A 
ATOM     69  C   UNL A   1      35.693  33.895  30.893  1.00  0.00     0.134 A 
ATOM     70  F   UNL A   1      37.565  32.552  33.687  1.00  0.00    -0.206 F 
ATOM     71  C   UNL A   1      35.352  33.194  33.538  1.00  0.00     0.040 A 
ATOM     72  C   UNL A   1      34.436  34.023  31.498  1.00  0.00     0.040 A 
ATOM     73  F   UNL A   1      35.802  34.351  29.634  1.00  0.00    -0.206 F 
ATOM     74  C   UNL A   1      34.258  33.655  32.824  1.00  0.00     0.006 A 
ENDBRANCH  53  67
BRANCH  54  75
ATOM     75  C   UNL A   1      44.890  28.996  28.721  1.00  0.00     0.057 A 
ATOM     76  C   UNL A   1      44.242  28.819  27.032  1.00  0.00     0.134 A 
ATOM     77  C   UNL A   1      46.429  28.169  29.151  1.00  0.00     0.134 A 
ATOM     78  F   UNL A   1      43.179  29.537  26.643  1.00  0.00    -0.206 F 
ATOM     79  C   UNL A   1      45.158  27.869  25.779  1.00  0.00     0.040 A 
ATOM     80  C   UNL A   1      47.366  27.240  27.924  1.00  0.00     0.040 A 
ATOM     81  F   UNL A   1      46.980  28.369  30.357  1.00  0.00    -0.206 F 
ATOM     82  C   UNL A   1      46.718  27.047  26.240  1.00  0.00     0.006 A 
ENDBRANCH  54  75
BRANCH  66  83
ATOM     83  C   UNL A   1      42.437  35.980  28.804  1.00  0.00     0.057 A 
ATOM     84  C   UNL A   1      41.937  36.322  27.541  1.00  0.00     0.134 A 
ATOM     85  C   UNL A   1      43.156  36.995  29.471  1.00  0.00     0.134 A 
ATOM     86  F   UNL A   1      41.280  35.425  26.793  1.00  0.00    -0.206 F 
ATOM     87  C   UNL A   1      42.142  37.592  26.980  1.00  0.00     0.040 A 
ATOM     88  C   UNL A   1      43.402  38.249  28.905  1.00  0.00     0.040 A 
ATOM     89  F   UNL A   1      43.648  36.806  30.705  1.00  0.00    -0.206 F 
ATOM     90  C   UNL A   1      42.892  38.554  27.652  1.00  0.00     0.006 A 
ENDBRANCH  66  83
ENDBRANCH  40  41
ENDBRANCH  33  35
ENDBRANCH  32  33
ENDBRANCH  31  32
ENDBRANCH   1  31
TORSDOF 16
ENDMDL
MODEL 2
REMARK VINA RESULT:     -13.3      1.048      2.038
REMARK SMILES Cc1ccc(-c2cc(Cl)cc3c2O[C@H](C(F)(F)F)C(C(=O)OCCOCCOC(=O)c2ccc(-c4c5nc(c(-c6c(F)cccc6F)c6ccc([nH]6)c(-c6c(F)cccc6F)c6nc(c(-c7c(F)cccc7F)c7ccc4[nH]7)C=C6)C=C5)cc2)=C3)cc1F
REMARK SMILES IDX 26 1 25 2 24 3 23 4 22 5 20 6 21 7 19 8 6 9 7 10 12 11 8 12
REMARK SMILES IDX 11 13 13 14 9 15 10 16 85 17 14 18 5 19 1 20 2 21 3 22 87 23
REMARK SMILES IDX 4 24 86 25 88 26 15 27 16 28 17 29 18 30 27 31 28 32 29 33
REMARK SMILES IDX 30 34 31 35 32 36 84 37 33 38 83 39 34 40 35 41 36 42 77 43
REMARK SMILES IDX 37 44 82 45 76 46 78 47 38 48 81 49 75 50 74 51 39 53 65 54
REMARK SMILES IDX 48 55 64 56 49 57 52 58 63 59 79 60 50 61 51 62 62 64 80 65
REMARK SMILES IDX 53 66 40 67 41 68 46 69 42 70 43 71 45 72 47 73 44 74 66 75
REMARK SMILES IDX 67 76 72 77 68 78 69 79 71 80 73 81 70 82 54 83 55 84 60 85
REMARK SMILES IDX 56 86 57 87 59 88 61 89 58 90
REMARK H PARENT 78 52 52 63
REMARK Flexibility Score: inf
ROOT
ATOM      1  C   UNL A   1      37.793  21.592  25.235  1.00  0.00     0.202 C 
ENDROOT
BRANCH   1   2
ATOM      2  O   UNL A   1      36.481  21.658  25.800  1.00  0.00    -0.374 OA
BRANCH   2   3
ATOM      3  C   UNL A   1      35.383  21.109  25.093  1.00  0.00     0.202 C 
BRANCH   3   4
ATOM      4  C   UNL A   1      34.202  22.114  24.603  1.00  0.00     0.261 C 
BRANCH   4   5
ATOM      5  O   UNL A   1      32.928  23.178  25.731  1.00  0.00    -0.460 OA
BRANCH   5   6
ATOM      6  C   UNL A   1      32.141  24.160  26.350  1.00  0.00     0.338 C 
ATOM      7  O   UNL A   1      31.372  24.017  27.288  1.00  0.00    -0.246 OA
BRANCH   6   8
ATOM      8  C   UNL A   1      32.458  25.515  25.848  1.00  0.00     0.087 C 
ATOM      9  C   UNL A   1      32.027  29.512  25.044  1.00  0.00     0.026 A 
ATOM     10  C   UNL A   1      32.452  30.450  25.991  1.00  0.00     0.033 A 
ATOM     11  C   UNL A   1      32.424  28.171  25.203  1.00  0.00     0.135 A 
ATOM     12  C   UNL A   1      33.259  30.046  27.059  1.00  0.00     0.042 A 
ATOM     13  C   UNL A   1      33.142  27.751  26.325  1.00  0.00     0.019 A 
ATOM     14  O   UNL A   1      32.072  27.299  24.204  1.00  0.00    -0.475 OA
ATOM     15  Cl  UNL A   1      33.755  31.204  28.234  1.00  0.00    -0.084 Cl
ATOM     16  C   UNL A   1      33.605  28.703  27.233  1.00  0.00     0.032 A 
ATOM     17  C   UNL A   1      33.197  26.326  26.625  1.00  0.00     0.027 C 
ATOM     18  C   UNL A   1      31.777  25.940  24.588  1.00  0.00     0.316 C 
BRANCH   9  19
ATOM     19  C   UNL A   1      31.075  29.840  23.976  1.00  0.00    -0.012 A 
ATOM     20  C   UNL A   1      27.691  30.144  21.321  1.00  0.00     0.047 C 
ATOM     21  C   UNL A   1      28.914  30.103  22.184  1.00  0.00    -0.015 A 
ATOM     22  C   UNL A   1      30.027  29.322  21.847  1.00  0.00     0.007 A 
ATOM     23  C   UNL A   1      28.922  30.794  23.394  1.00  0.00     0.126 A 
ATOM     24  C   UNL A   1      31.101  29.191  22.736  1.00  0.00     0.009 A 
ATOM     25  C   UNL A   1      29.994  30.689  24.269  1.00  0.00     0.048 A 
ATOM     26  F   UNL A   1      27.860  31.527  23.757  1.00  0.00    -0.207 F 
ENDBRANCH   9  19
BRANCH  18  27
ATOM     27  C   UNL A   1      30.265  25.708  24.601  1.00  0.00     0.430 C 
ATOM     28  F   UNL A   1      29.636  26.574  23.773  1.00  0.00    -0.167 F 
ATOM     29  F   UNL A   1      29.954  24.468  24.157  1.00  0.00    -0.167 F 
ATOM     30  F   UNL A   1      29.738  25.858  25.834  1.00  0.00    -0.167 F 
ENDBRANCH  18  27
ENDBRANCH   6   8
ENDBRANCH   5   6
ENDBRANCH   4   5
ENDBRANCH   3   4
ENDBRANCH   2   3
ENDBRANCH   1   2
BRANCH   1  31
ATOM     31  C   UNL A   1      39.105  22.089  25.911  1.00  0.00     0.261 C 
BRANCH  31  32
ATOM     32  O   UNL A   1      39.009  23.272  26.713  1.00  0.00    -0.460 OA
BRANCH  32  33
ATOM     33  C   UNL A   1      40.153  23.894  27.080  1.00  0.00     0.338 C 
ATOM     34  O   UNL A   1      41.289  23.538  26.837  1.00  0.00    -0.246 OA
BRANCH  33  35
ATOM     35  C   UNL A   1      39.755  25.275  27.461  1.00  0.00     0.060 A 
ATOM     36  C   UNL A   1      40.302  26.422  26.860  1.00  0.00     0.016 A 
ATOM     37  C   UNL A   1      39.058  25.377  28.669  1.00  0.00     0.016 A 
ATOM     38  C   UNL A   1      40.231  27.654  27.527  1.00  0.00     0.010 A 
ATOM     39  C   UNL A   1      39.013  26.595  29.338  1.00  0.00     0.010 A 
ATOM     40  C   UNL A   1      39.632  27.727  28.793  1.00  0.00    -0.014 A 
BRANCH  40  41
ATOM     41  C   UNL A   1      39.592  28.963  29.580  1.00  0.00     0.031 A 
ATOM     42  C   UNL A   1      38.653  30.034  29.193  1.00  0.00     0.074 A 
ATOM     43  C   UNL A   1      40.379  29.189  30.660  1.00  0.00     0.049 A 
ATOM     44  N   UNL A   1      38.906  31.298  29.285  1.00  0.00    -0.248 NA
ATOM     45  C   UNL A   1      37.320  29.732  28.688  1.00  0.00     0.031 C 
ATOM     46  C   UNL A   1      40.356  30.348  31.550  1.00  0.00     0.029 A 
ATOM     47  N   UNL A   1      41.548  28.519  31.034  1.00  0.00    -0.354 N 
ATOM     48  C   UNL A   1      37.693  31.940  29.223  1.00  0.00     0.074 A 
ATOM     49  C   UNL A   1      36.760  30.945  28.727  1.00  0.00     0.031 C 
ATOM     50  C   UNL A   1      41.591  30.522  32.051  1.00  0.00     0.029 A 
ATOM     51  C   UNL A   1      42.458  29.529  31.432  1.00  0.00     0.049 A 
ATOM     52  H   UNL A   1      41.707  27.547  31.024  1.00  0.00     0.167 HD
ATOM     53  C   UNL A   1      37.531  33.174  29.783  1.00  0.00     0.037 A 
ATOM     54  C   UNL A   1      43.612  29.778  30.750  1.00  0.00     0.037 A 
ATOM     55  C   UNL A   1      38.760  33.709  30.365  1.00  0.00     0.049 A 
ATOM     56  C   UNL A   1      43.706  31.202  30.202  1.00  0.00     0.074 A 
ATOM     57  C   UNL A   1      39.222  33.898  31.659  1.00  0.00     0.029 A 
ATOM     58  N   UNL A   1      39.865  33.895  29.548  1.00  0.00    -0.354 N 
ATOM     59  N   UNL A   1      42.738  32.079  30.284  1.00  0.00    -0.248 NA
ATOM     60  C   UNL A   1      44.852  31.745  29.466  1.00  0.00     0.031 C 
ATOM     61  C   UNL A   1      40.605  34.213  31.610  1.00  0.00     0.029 A 
ATOM     62  C   UNL A   1      40.995  34.179  30.288  1.00  0.00     0.049 A 
ATOM     63  H   UNL A   1      39.846  33.833  28.566  1.00  0.00     0.167 HD
ATOM     64  C   UNL A   1      43.102  33.249  29.662  1.00  0.00     0.074 A 
ATOM     65  C   UNL A   1      44.431  32.985  29.149  1.00  0.00     0.031 C 
ATOM     66  C   UNL A   1      42.274  34.335  29.618  1.00  0.00     0.037 A 
BRANCH  53  67
ATOM     67  C   UNL A   1      36.145  33.708  30.044  1.00  0.00     0.057 A 
ATOM     68  C   UNL A   1      35.320  34.185  29.011  1.00  0.00     0.134 A 
ATOM     69  C   UNL A   1      35.610  33.840  31.336  1.00  0.00     0.134 A 
ATOM     70  F   UNL A   1      35.646  34.051  27.721  1.00  0.00    -0.206 F 
ATOM     71  C   UNL A   1      34.116  34.854  29.252  1.00  0.00     0.040 A 
ATOM     72  C   UNL A   1      34.430  34.550  31.596  1.00  0.00     0.040 A 
ATOM     73  F   UNL A   1      36.225  33.291  32.396  1.00  0.00    -0.206 F 
ATOM     74  C   UNL A   1      33.686  35.077  30.550  1.00  0.00     0.006 A 
ENDBRANCH  53  67
BRANCH  54  75
ATOM     75  C   UNL A   1      44.244  28.555  30.158  1.00  0.00     0.057 A 
ATOM     76  C   UNL A   1      44.993  27.320  31.261  1.00  0.00     0.134 A 
ATOM     77  C   UNL A   1      43.847  28.083  28.467  1.00  0.00     0.134 A 
ATOM     78  F   UNL A   1      45.166  27.598  32.560  1.00  0.00    -0.206 F 
ATOM     79  C   UNL A   1      45.288  25.618  30.687  1.00  0.00     0.040 A 
ATOM     80  C   UNL A   1      44.109  26.399  27.881  1.00  0.00     0.040 A 
ATOM     81  F   UNL A   1      43.201  28.943  27.667  1.00  0.00    -0.206 F 
ATOM     82  C   UNL A   1      44.870  25.164  28.972  1.00  0.00     0.006 A 
ENDBRANCH  54  75
BRANCH  66  83
ATOM     83  C   UNL A   1      42.593  35.682  29.026  1.00  0.00     0.057 A 
ATOM     84  C   UNL A   1      43.389  36.632  29.678  1.00  0.00     0.134 A 
ATOM     85  C   UNL A   1      41.926  36.136  27.868  1.00  0.00     0.134 A 
ATOM     86  F   UNL A   1      44.033  36.329  30.814  1.00  0.00    -0.206 F 
ATOM     87  C   UNL A   1      43.511  37.949  29.208  1.00  0.00     0.040 A 
ATOM     88  C   UNL A   1      42.007  37.456  27.414  1.00  0.00     0.040 A 
ATOM     89  F   UNL A   1      41.168  35.311  27.130  1.00  0.00    -0.206 F 
ATOM     90  C   UNL A   1      42.804  38.371  28.085  1.00  0.00     0.006 A 
ENDBRANCH  66  83
ENDBRANCH  40  41
ENDBRANCH  33  35
ENDBRANCH  32  33
ENDBRANCH  31  32
ENDBRANCH   1  31
TORSDOF 16
ENDMDL
MODEL 3
REMARK VINA RESULT:     -13.3      4.012      9.790
REMARK SMILES Cc1ccc(-c2cc(Cl)cc3c2O[C@H](C(F)(F)F)C(C(=O)OCCOCCOC(=O)c2ccc(-c4c5nc(c(-c6c(F)cccc6F)c6ccc([nH]6)c(-c6c(F)cccc6F)c6nc(c(-c7c(F)cccc7F)c7ccc4[nH]7)C=C6)C=C5)cc2)=C3)cc1F
REMARK SMILES IDX 26 1 25 2 24 3 23 4 22 5 20 6 21 7 19 8 6 9 7 10 12 11 8 12
REMARK SMILES IDX 11 13 13 14 9 15 10 16 85 17 14 18 5 19 1 20 2 21 3 22 87 23
REMARK SMILES IDX 4 24 86 25 88 26 15 27 16 28 17 29 18 30 27 31 28 32 29 33
REMARK SMILES IDX 30 34 31 35 32 36 84 37 33 38 83 39 34 40 35 41 36 42 77 43
REMARK SMILES IDX 37 44 82 45 76 46 78 47 38 48 81 49 75 50 74 51 39 53 65 54
REMARK SMILES IDX 48 55 64 56 49 57 52 58 63 59 79 60 50 61 51 62 62 64 80 65
REMARK SMILES IDX 53 66 40 67 41 68 46 69 42 70 43 71 45 72 47 73 44 74 66 75
REMARK SMILES IDX 67 76 72 77 68 78 69 79 71 80 73 81 70 82 54 83 55 84 60 85
REMARK SMILES IDX 56 86 57 87 59 88 61 89 58 90
REMARK H PARENT 78 52 52 63
REMARK Flexibility Score: inf
ROOT
ATOM      1  C   UNL A   1      32.873  29.026  26.492  1.00  0.00     0.202 C 
ENDROOT
BRANCH   1   2
ATOM      2  O   UNL A   1      32.754  29.445  25.130  1.00  0.00    -0.374 OA
BRANCH   2   3
ATOM      3  C   UNL A   1      31.500  29.358  24.477  1.00  0.00     0.202 C 
BRANCH   3   4
ATOM      4  C   UNL A   1      31.041  27.917  23.879  1.00  0.00     0.261 C 
BRANCH   4   5
ATOM      5  O   UNL A   1      31.283  26.099  24.696  1.00  0.00    -0.460 OA
BRANCH   5   6
ATOM      6  C   UNL A   1      31.199  24.907  25.430  1.00  0.00     0.338 C 
ATOM      7  O   UNL A   1      30.435  24.651  26.348  1.00  0.00    -0.246 OA
BRANCH   6   8
ATOM      8  C   UNL A   1      32.057  23.847  24.857  1.00  0.00     0.087 C 
ATOM      9  C   UNL A   1      34.769  20.777  24.682  1.00  0.00     0.026 A 
ATOM     10  C   UNL A   1      34.321  19.460  24.823  1.00  0.00     0.033 A 
ATOM     11  C   UNL A   1      33.816  21.791  24.469  1.00  0.00     0.135 A 
ATOM     12  C   UNL A   1      32.954  19.176  24.744  1.00  0.00     0.042 A 
ATOM     13  C   UNL A   1      32.446  21.521  24.493  1.00  0.00     0.019 A 
ATOM     14  O   UNL A   1      34.298  23.055  24.237  1.00  0.00    -0.475 OA
ATOM     15  Cl  UNL A   1      32.410  17.554  24.945  1.00  0.00    -0.084 Cl
ATOM     16  C   UNL A   1      32.014  20.197  24.581  1.00  0.00     0.032 A 
ATOM     17  C   UNL A   1      31.517  22.635  24.646  1.00  0.00     0.027 C 
ATOM     18  C   UNL A   1      33.512  24.161  24.726  1.00  0.00     0.316 C 
BRANCH   9  19
ATOM     19  C   UNL A   1      36.171  21.163  24.885  1.00  0.00    -0.012 A 
ATOM     20  C   UNL A   1      40.144  21.891  26.392  1.00  0.00     0.047 C 
ATOM     21  C   UNL A   1      38.792  21.683  25.784  1.00  0.00    -0.015 A 
ATOM     22  C   UNL A   1      37.833  22.704  25.756  1.00  0.00     0.007 A 
ATOM     23  C   UNL A   1      38.442  20.424  25.304  1.00  0.00     0.126 A 
ATOM     24  C   UNL A   1      36.531  22.447  25.309  1.00  0.00     0.009 A 
ATOM     25  C   UNL A   1      37.161  20.167  24.836  1.00  0.00     0.048 A 
ATOM     26  F   UNL A   1      39.329  19.420  25.344  1.00  0.00    -0.207 F 
ENDBRANCH   9  19
BRANCH  18  27
ATOM     27  C   UNL A   1      34.133  24.730  26.003  1.00  0.00     0.430 C 
ATOM     28  F   UNL A   1      33.415  25.781  26.462  1.00  0.00    -0.167 F 
ATOM     29  F   UNL A   1      34.141  23.814  26.998  1.00  0.00    -0.167 F 
ATOM     30  F   UNL A   1      35.401  25.150  25.807  1.00  0.00    -0.167 F 
ENDBRANCH  18  27
ENDBRANCH   6   8
ENDBRANCH   5   6
ENDBRANCH   4   5
ENDBRANCH   3   4
ENDBRANCH   2   3
ENDBRANCH   1   2
BRANCH   1  31
ATOM     31  C   UNL A   1      34.188  28.998  27.328  1.00  0.00     0.261 C 
BRANCH  31  32
ATOM     32  O   UNL A   1      35.016  30.165  27.266  1.00  0.00    -0.460 OA
BRANCH  32  33
ATOM     33  C   UNL A   1      35.714  30.516  28.371  1.00  0.00     0.338 C 
ATOM     34  O   UNL A   1      35.319  31.190  29.302  1.00  0.00    -0.246 OA
BRANCH  33  35
ATOM     35  C   UNL A   1      36.880  29.595  28.419  1.00  0.00     0.060 A 
ATOM     36  C   UNL A   1      37.249  28.888  29.576  1.00  0.00     0.016 A 
ATOM     37  C   UNL A   1      37.779  29.723  27.355  1.00  0.00     0.016 A 
ATOM     38  C   UNL A   1      38.557  28.397  29.699  1.00  0.00     0.010 A 
ATOM     39  C   UNL A   1      39.081  29.257  27.493  1.00  0.00     0.010 A 
ATOM     40  C   UNL A   1      39.488  28.630  28.677  1.00  0.00    -0.014 A 
BRANCH  40  41
ATOM     41  C   UNL A   1      40.891  28.214  28.773  1.00  0.00     0.031 A 
ATOM     42  C   UNL A   1      41.290  26.895  28.244  1.00  0.00     0.074 A 
ATOM     43  C   UNL A   1      41.861  28.978  29.331  1.00  0.00     0.049 A 
ATOM     44  N   UNL A   1      42.186  26.132  28.778  1.00  0.00    -0.248 NA
ATOM     45  C   UNL A   1      40.702  26.355  27.025  1.00  0.00     0.031 C 
ATOM     46  C   UNL A   1      43.292  28.686  29.401  1.00  0.00     0.029 A 
ATOM     47  N   UNL A   1      41.716  30.079  30.180  1.00  0.00    -0.354 N 
ATOM     48  C   UNL A   1      42.549  25.228  27.809  1.00  0.00     0.074 A 
ATOM     49  C   UNL A   1      41.519  25.323  26.793  1.00  0.00     0.031 C 
ATOM     50  C   UNL A   1      43.793  29.283  30.495  1.00  0.00     0.029 A 
ATOM     51  C   UNL A   1      42.682  29.905  31.201  1.00  0.00     0.049 A 
ATOM     52  H   UNL A   1      41.075  30.821  30.089  1.00  0.00     0.167 HD
ATOM     53  C   UNL A   1      43.777  24.634  27.841  1.00  0.00     0.037 A 
ATOM     54  C   UNL A   1      42.335  29.696  32.503  1.00  0.00     0.037 A 
ATOM     55  C   UNL A   1      44.575  25.020  29.003  1.00  0.00     0.049 A 
ATOM     56  C   UNL A   1      42.848  28.373  33.071  1.00  0.00     0.074 A 
ATOM     57  C   UNL A   1      45.682  25.832  29.196  1.00  0.00     0.029 A 
ATOM     58  N   UNL A   1      44.084  24.757  30.273  1.00  0.00    -0.354 N 
ATOM     59  N   UNL A   1      43.476  27.471  32.361  1.00  0.00    -0.248 NA
ATOM     60  C   UNL A   1      42.651  27.918  34.450  1.00  0.00     0.031 C 
ATOM     61  C   UNL A   1      45.860  26.041  30.590  1.00  0.00     0.029 A 
ATOM     62  C   UNL A   1      44.838  25.386  31.243  1.00  0.00     0.049 A 
ATOM     63  H   UNL A   1      43.299  24.193  30.459  1.00  0.00     0.167 HD
ATOM     64  C   UNL A   1      43.769  26.375  33.135  1.00  0.00     0.074 A 
ATOM     65  C   UNL A   1      43.217  26.695  34.435  1.00  0.00     0.031 C 
ATOM     66  C   UNL A   1      44.439  25.293  32.637  1.00  0.00     0.037 A 
BRANCH  53  67
ATOM     67  C   UNL A   1      44.314  23.947  26.612  1.00  0.00     0.057 A 
ATOM     68  C   UNL A   1      44.121  22.574  26.376  1.00  0.00     0.134 A 
ATOM     69  C   UNL A   1      45.109  24.603  25.657  1.00  0.00     0.134 A 
ATOM     70  F   UNL A   1      43.318  21.828  27.142  1.00  0.00    -0.206 F 
ATOM     71  C   UNL A   1      44.767  21.884  25.345  1.00  0.00     0.040 A 
ATOM     72  C   UNL A   1      45.801  23.917  24.649  1.00  0.00     0.040 A 
ATOM     73  F   UNL A   1      45.250  25.938  25.679  1.00  0.00    -0.206 F 
ATOM     74  C   UNL A   1      45.644  22.547  24.501  1.00  0.00     0.006 A 
ENDBRANCH  53  67
BRANCH  54  75
ATOM     75  C   UNL A   1      41.092  30.421  32.925  1.00  0.00     0.057 A 
ATOM     76  C   UNL A   1      41.074  32.238  32.906  1.00  0.00     0.134 A 
ATOM     77  C   UNL A   1      39.525  29.537  32.975  1.00  0.00     0.134 A 
ATOM     78  F   UNL A   1      42.214  32.918  32.724  1.00  0.00    -0.206 F 
ATOM     79  C   UNL A   1      39.500  33.153  32.882  1.00  0.00     0.040 A 
ATOM     80  C   UNL A   1      37.954  30.418  32.931  1.00  0.00     0.040 A 
ATOM     81  F   UNL A   1      39.509  28.199  32.885  1.00  0.00    -0.206 F 
ATOM     82  C   UNL A   1      37.928  32.233  32.926  1.00  0.00     0.006 A 
ENDBRANCH  54  75
BRANCH  66  83
ATOM     83  C   UNL A   1      44.871  24.074  33.407  1.00  0.00     0.057 A 
ATOM     84  C   UNL A   1      43.970  23.112  33.880  1.00  0.00     0.134 A 
ATOM     85  C   UNL A   1      46.197  23.950  33.876  1.00  0.00     0.134 A 
ATOM     86  F   UNL A   1      42.674  23.156  33.542  1.00  0.00    -0.206 F 
ATOM     87  C   UNL A   1      44.364  22.094  34.763  1.00  0.00     0.040 A 
ATOM     88  C   UNL A   1      46.592  22.966  34.787  1.00  0.00     0.040 A 
ATOM     89  F   UNL A   1      47.164  24.784  33.463  1.00  0.00    -0.206 F 
ATOM     90  C   UNL A   1      45.672  22.030  35.235  1.00  0.00     0.006 A 
ENDBRANCH  66  83
ENDBRANCH  40  41
ENDBRANCH  33  35
ENDBRANCH  32  33
ENDBRANCH  31  32
ENDBRANCH   1  31
TORSDOF 16
ENDMDL
