MODEL 1
REMARK VINA RESULT:     -10.9      0.000      0.000
REMARK SMILES CC(C)CCn1cc(C(=O)OCCOCCOC(=O)c2ccc(-c3c4nc(c(-c5c(F)cccc5F)c5ccc([nH]5)c(-c5c(F)cccc5F)c5nc(c(-c6c(F)cccc6F)c6ccc3[nH]6)C=C5)C=C4)cc2)c(-c2ccoc2)n1
REMARK SMILES IDX 13 1 12 2 11 3 9 4 10 5 8 6 6 7 7 8 80 9 74 10 5 11 4 12
REMARK SMILES IDX 2 13 1 14 3 15 75 16 76 17 79 18 77 19 78 20 14 21 15 22
REMARK SMILES IDX 16 23 17 24 18 25 19 26 20 27 21 28 73 29 22 30 72 31 23 32
REMARK SMILES IDX 24 33 25 34 66 35 26 36 71 37 65 38 67 39 27 40 70 41 64 42
REMARK SMILES IDX 63 43 28 45 54 46 37 47 53 48 38 49 41 50 52 51 68 52 39 53
REMARK SMILES IDX 40 54 51 56 69 57 42 58 29 59 30 60 35 61 31 62 32 63 34 64
REMARK SMILES IDX 36 65 33 66 55 67 56 68 61 69 57 70 58 71 60 72 62 73 59 74
REMARK SMILES IDX 43 75 44 76 49 77 45 78 46 79 48 80 50 81 47 82
REMARK H PARENT 67 44 41 55
REMARK Flexibility Score: inf
ROOT
ATOM      1  C   UNL A   1      40.219  21.055  26.684  1.00  0.00     0.202 C 
ENDROOT
BRANCH   1   2
ATOM      2  C   UNL A   1      39.327  22.057  25.948  1.00  0.00     0.261 C 
BRANCH   2   3
ATOM      3  O   UNL A   1      38.044  21.498  25.629  1.00  0.00    -0.460 OA
BRANCH   3   4
ATOM      4  C   UNL A   1      37.081  22.399  25.285  1.00  0.00     0.342 C 
ATOM      5  O   UNL A   1      37.284  23.589  25.058  1.00  0.00    -0.246 OA
BRANCH   4   6
ATOM      6  C   UNL A   1      35.788  21.778  25.112  1.00  0.00     0.106 A 
ATOM      7  N   UNL A   1      34.167  20.303  25.063  1.00  0.00    -0.271 N 
ATOM      8  C   UNL A   1      35.524  20.427  24.994  1.00  0.00     0.125 A 
ATOM      9  N   UNL A   1      33.531  21.480  24.914  1.00  0.00    -0.172 NA
ATOM     10  C   UNL A   1      34.517  22.381  24.959  1.00  0.00     0.110 A 
BRANCH   7  11
ATOM     11  C   UNL A   1      33.378  19.110  25.299  1.00  0.00     0.144 C 
BRANCH  11  12
ATOM     12  C   UNL A   1      33.103  18.225  24.076  1.00  0.00     0.027 C 
BRANCH  12  13
ATOM     13  C   UNL A   1      33.729  16.813  24.114  1.00  0.00    -0.016 C 
ATOM     14  C   UNL A   1      35.143  16.811  24.690  1.00  0.00     0.007 C 
ATOM     15  C   UNL A   1      32.823  15.869  24.906  1.00  0.00     0.007 C 
ENDBRANCH  12  13
ENDBRANCH  11  12
ENDBRANCH   7  11
BRANCH  10  16
ATOM     16  C   UNL A   1      34.284  23.794  24.710  1.00  0.00     0.041 A 
ATOM     17  C   UNL A   1      34.076  24.798  25.680  1.00  0.00     0.052 A 
ATOM     18  C   UNL A   1      34.216  24.413  23.484  1.00  0.00     0.205 A 
ATOM     19  C   UNL A   1      33.927  25.973  24.978  1.00  0.00     0.195 A 
ATOM     20  O   UNL A   1      34.016  25.747  23.639  1.00  0.00    -0.472 OA
ENDBRANCH  10  16
ENDBRANCH   4   6
ENDBRANCH   3   4
ENDBRANCH   2   3
ENDBRANCH   1   2
BRANCH   1  21
ATOM     21  O   UNL A   1      40.975  20.120  25.916  1.00  0.00    -0.374 OA
BRANCH  21  22
ATOM     22  C   UNL A   1      41.959  19.303  26.536  1.00  0.00     0.202 C 
BRANCH  22  23
ATOM     23  C   UNL A   1      43.203  18.903  25.756  1.00  0.00     0.261 C 
BRANCH  23  24
ATOM     24  O   UNL A   1      43.361  19.625  24.550  1.00  0.00    -0.460 OA
BRANCH  24  25
ATOM     25  C   UNL A   1      44.659  19.866  24.255  1.00  0.00     0.338 C 
ATOM     26  O   UNL A   1      45.523  19.048  23.984  1.00  0.00    -0.246 OA
BRANCH  25  27
ATOM     27  C   UNL A   1      44.942  21.277  24.518  1.00  0.00     0.060 A 
ATOM     28  C   UNL A   1      45.814  21.529  25.578  1.00  0.00     0.016 A 
ATOM     29  C   UNL A   1      44.076  22.255  24.009  1.00  0.00     0.016 A 
ATOM     30  C   UNL A   1      45.620  22.676  26.306  1.00  0.00     0.010 A 
ATOM     31  C   UNL A   1      43.869  23.389  24.749  1.00  0.00     0.010 A 
ATOM     32  C   UNL A   1      44.577  23.534  25.939  1.00  0.00    -0.014 A 
BRANCH  32  33
ATOM     33  C   UNL A   1      44.356  24.712  26.742  1.00  0.00     0.031 A 
ATOM     34  C   UNL A   1      45.472  25.665  26.577  1.00  0.00     0.074 A 
ATOM     35  C   UNL A   1      43.243  24.919  27.469  1.00  0.00     0.049 A 
ATOM     36  N   UNL A   1      46.440  25.862  27.405  1.00  0.00    -0.248 NA
ATOM     37  C   UNL A   1      45.690  26.254  25.245  1.00  0.00     0.031 C 
ATOM     38  C   UNL A   1      42.002  24.144  27.490  1.00  0.00     0.029 A 
ATOM     39  N   UNL A   1      42.969  25.954  28.309  1.00  0.00    -0.354 N 
ATOM     40  C   UNL A   1      47.255  26.802  26.792  1.00  0.00     0.074 A 
ATOM     41  C   UNL A   1      46.897  26.799  25.401  1.00  0.00     0.031 C 
ATOM     42  C   UNL A   1      41.037  24.860  28.116  1.00  0.00     0.029 A 
ATOM     43  C   UNL A   1      41.624  26.074  28.655  1.00  0.00     0.049 A 
ATOM     44  H   UNL A   1      43.662  26.567  28.644  1.00  0.00     0.167 HD
ATOM     45  C   UNL A   1      47.915  27.724  27.541  1.00  0.00     0.037 A 
ATOM     46  C   UNL A   1      41.068  27.149  29.276  1.00  0.00     0.037 A 
ATOM     47  C   UNL A   1      47.954  27.321  28.926  1.00  0.00     0.049 A 
ATOM     48  C   UNL A   1      42.177  27.904  29.923  1.00  0.00     0.074 A 
ATOM     49  C   UNL A   1      48.470  26.239  29.611  1.00  0.00     0.029 A 
ATOM     50  N   UNL A   1      47.031  27.899  29.765  1.00  0.00    -0.354 N 
ATOM     51  N   UNL A   1      42.846  27.457  30.949  1.00  0.00    -0.248 NA
ATOM     52  C   UNL A   1      42.861  28.907  29.121  1.00  0.00     0.031 C 
ATOM     53  C   UNL A   1      47.515  25.954  30.631  1.00  0.00     0.029 A 
ATOM     54  C   UNL A   1      46.513  26.924  30.574  1.00  0.00     0.049 A 
ATOM     55  H   UNL A   1      46.786  28.852  29.781  1.00  0.00     0.167 HD
ATOM     56  C   UNL A   1      44.170  27.759  30.661  1.00  0.00     0.074 A 
ATOM     57  C   UNL A   1      44.111  28.714  29.554  1.00  0.00     0.031 C 
ATOM     58  C   UNL A   1      45.184  26.979  31.137  1.00  0.00     0.037 A 
BRANCH  45  59
ATOM     59  C   UNL A   1      48.109  29.160  27.117  1.00  0.00     0.057 A 
ATOM     60  C   UNL A   1      49.397  29.714  27.212  1.00  0.00     0.134 A 
ATOM     61  C   UNL A   1      47.070  30.093  26.918  1.00  0.00     0.134 A 
ATOM     62  F   UNL A   1      50.470  28.933  27.411  1.00  0.00    -0.206 F 
ATOM     63  C   UNL A   1      49.621  31.095  27.199  1.00  0.00     0.040 A 
ATOM     64  C   UNL A   1      47.289  31.469  26.850  1.00  0.00     0.040 A 
ATOM     65  F   UNL A   1      45.778  29.751  26.880  1.00  0.00    -0.206 F 
ATOM     66  C   UNL A   1      48.563  31.979  27.027  1.00  0.00     0.006 A 
ENDBRANCH  45  59
BRANCH  46  67
ATOM     67  C   UNL A   1      39.732  27.763  29.082  1.00  0.00     0.057 A 
ATOM     68  C   UNL A   1      38.847  27.928  30.159  1.00  0.00     0.134 A 
ATOM     69  C   UNL A   1      39.416  28.477  27.915  1.00  0.00     0.134 A 
ATOM     70  F   UNL A   1      39.082  27.323  31.334  1.00  0.00    -0.206 F 
ATOM     71  C   UNL A   1      37.732  28.776  30.091  1.00  0.00     0.040 A 
ATOM     72  C   UNL A   1      38.305  29.324  27.831  1.00  0.00     0.040 A 
ATOM     73  F   UNL A   1      40.227  28.452  26.848  1.00  0.00    -0.206 F 
ATOM     74  C   UNL A   1      37.467  29.490  28.927  1.00  0.00     0.006 A 
ENDBRANCH  46  67
BRANCH  58  75
ATOM     75  C   UNL A   1      44.851  25.960  32.193  1.00  0.00     0.057 A 
ATOM     76  C   UNL A   1      44.693  26.246  33.558  1.00  0.00     0.134 A 
ATOM     77  C   UNL A   1      44.545  24.660  31.779  1.00  0.00     0.134 A 
ATOM     78  F   UNL A   1      44.866  27.487  34.034  1.00  0.00    -0.206 F 
ATOM     79  C   UNL A   1      44.294  25.265  34.473  1.00  0.00     0.040 A 
ATOM     80  C   UNL A   1      44.109  23.682  32.675  1.00  0.00     0.040 A 
ATOM     81  F   UNL A   1      44.620  24.329  30.480  1.00  0.00    -0.206 F 
ATOM     82  C   UNL A   1      43.995  23.979  34.030  1.00  0.00     0.006 A 
ENDBRANCH  58  75
ENDBRANCH  32  33
ENDBRANCH  25  27
ENDBRANCH  24  25
ENDBRANCH  23  24
ENDBRANCH  22  23
ENDBRANCH  21  22
ENDBRANCH   1  21
TORSDOF 18
ENDMDL
MODEL 2
REMARK VINA RESULT:     -10.1      2.258      6.334
REMARK SMILES CC(C)CCn1cc(C(=O)OCCOCCOC(=O)c2ccc(-c3c4nc(c(-c5c(F)cccc5F)c5ccc([nH]5)c(-c5c(F)cccc5F)c5nc(c(-c6c(F)cccc6F)c6ccc3[nH]6)C=C5)C=C4)cc2)c(-c2ccoc2)n1
REMARK SMILES IDX 13 1 12 2 11 3 9 4 10 5 8 6 6 7 7 8 80 9 74 10 5 11 4 12
REMARK SMILES IDX 2 13 1 14 3 15 75 16 76 17 79 18 77 19 78 20 14 21 15 22
REMARK SMILES IDX 16 23 17 24 18 25 19 26 20 27 21 28 73 29 22 30 72 31 23 32
REMARK SMILES IDX 24 33 25 34 66 35 26 36 71 37 65 38 67 39 27 40 70 41 64 42
REMARK SMILES IDX 63 43 28 45 54 46 37 47 53 48 38 49 41 50 52 51 68 52 39 53
REMARK SMILES IDX 40 54 51 56 69 57 42 58 29 59 30 60 35 61 31 62 32 63 34 64
REMARK SMILES IDX 36 65 33 66 55 67 56 68 61 69 57 70 58 71 60 72 62 73 59 74
REMARK SMILES IDX 43 75 44 76 49 77 45 78 46 79 48 80 50 81 47 82
REMARK H PARENT 67 44 41 55
REMARK Flexibility Score: inf
ROOT
ATOM      1  C   UNL A   1      35.557  23.289  25.917  1.00  0.00     0.202 C 
ENDROOT
BRANCH   1   2
ATOM      2  C   UNL A   1      34.495  23.009  26.982  1.00  0.00     0.261 C 
BRANCH   2   3
ATOM      3  O   UNL A   1      33.237  23.620  26.657  1.00  0.00    -0.460 OA
BRANCH   3   4
ATOM      4  C   UNL A   1      32.181  22.765  26.545  1.00  0.00     0.342 C 
ATOM      5  O   UNL A   1      31.142  22.847  27.194  1.00  0.00    -0.246 OA
BRANCH   4   6
ATOM      6  C   UNL A   1      32.375  21.795  25.493  1.00  0.00     0.106 A 
ATOM      7  N   UNL A   1      32.615  19.903  24.412  1.00  0.00    -0.271 N 
ATOM      8  C   UNL A   1      32.774  20.479  25.638  1.00  0.00     0.125 A 
ATOM      9  N   UNL A   1      32.433  20.807  23.432  1.00  0.00    -0.172 NA
ATOM     10  C   UNL A   1      32.272  21.959  24.091  1.00  0.00     0.110 A 
BRANCH   7  11
ATOM     11  C   UNL A   1      32.588  18.493  24.072  1.00  0.00     0.144 C 
BRANCH  11  12
ATOM     12  C   UNL A   1      33.936  17.761  24.107  1.00  0.00     0.027 C 
BRANCH  12  13
ATOM     13  C   UNL A   1      33.893  16.298  24.605  1.00  0.00    -0.016 C 
ATOM     14  C   UNL A   1      35.205  15.855  25.246  1.00  0.00     0.007 C 
ATOM     15  C   UNL A   1      32.729  16.121  25.581  1.00  0.00     0.007 C 
ENDBRANCH  12  13
ENDBRANCH  11  12
ENDBRANCH   7  11
BRANCH  10  16
ATOM     16  C   UNL A   1      32.169  23.235  23.403  1.00  0.00     0.041 A 
ATOM     17  C   UNL A   1      33.205  23.913  22.725  1.00  0.00     0.052 A 
ATOM     18  C   UNL A   1      31.046  24.021  23.290  1.00  0.00     0.205 A 
ATOM     19  C   UNL A   1      32.632  25.057  22.214  1.00  0.00     0.195 A 
ATOM     20  O   UNL A   1      31.316  25.127  22.550  1.00  0.00    -0.472 OA
ENDBRANCH  10  16
ENDBRANCH   4   6
ENDBRANCH   3   4
ENDBRANCH   2   3
ENDBRANCH   1   2
BRANCH   1  21
ATOM     21  O   UNL A   1      35.758  22.327  24.881  1.00  0.00    -0.374 OA
BRANCH  21  22
ATOM     22  C   UNL A   1      37.057  22.091  24.356  1.00  0.00     0.202 C 
BRANCH  22  23
ATOM     23  C   UNL A   1      37.766  20.781  24.670  1.00  0.00     0.261 C 
BRANCH  23  24
ATOM     24  O   UNL A   1      38.512  20.824  25.872  1.00  0.00    -0.460 OA
BRANCH  24  25
ATOM     25  C   UNL A   1      39.672  20.133  25.789  1.00  0.00     0.338 C 
ATOM     26  O   UNL A   1      39.821  18.973  25.444  1.00  0.00    -0.246 OA
BRANCH  25  27
ATOM     27  C   UNL A   1      40.737  20.938  26.390  1.00  0.00     0.060 A 
ATOM     28  C   UNL A   1      40.850  20.845  27.777  1.00  0.00     0.016 A 
ATOM     29  C   UNL A   1      41.287  22.000  25.659  1.00  0.00     0.016 A 
ATOM     30  C   UNL A   1      41.274  21.959  28.459  1.00  0.00     0.010 A 
ATOM     31  C   UNL A   1      41.690  23.118  26.341  1.00  0.00     0.010 A 
ATOM     32  C   UNL A   1      41.584  23.113  27.729  1.00  0.00    -0.014 A 
BRANCH  32  33
ATOM     33  C   UNL A   1      41.983  24.290  28.462  1.00  0.00     0.031 A 
ATOM     34  C   UNL A   1      40.991  25.369  28.286  1.00  0.00     0.074 A 
ATOM     35  C   UNL A   1      43.074  24.342  29.249  1.00  0.00     0.049 A 
ATOM     36  N   UNL A   1      41.103  26.393  27.511  1.00  0.00    -0.248 NA
ATOM     37  C   UNL A   1      39.629  25.150  28.801  1.00  0.00     0.031 C 
ATOM     38  C   UNL A   1      43.960  23.254  29.664  1.00  0.00     0.029 A 
ATOM     39  N   UNL A   1      43.574  25.414  29.922  1.00  0.00    -0.354 N 
ATOM     40  C   UNL A   1      39.908  27.082  27.649  1.00  0.00     0.074 A 
ATOM     41  C   UNL A   1      38.972  26.157  28.224  1.00  0.00     0.031 C 
ATOM     42  C   UNL A   1      44.738  23.676  30.690  1.00  0.00     0.029 A 
ATOM     43  C   UNL A   1      44.501  25.092  30.911  1.00  0.00     0.049 A 
ATOM     44  H   UNL A   1      43.302  26.340  29.726  1.00  0.00     0.167 HD
ATOM     45  C   UNL A   1      39.892  28.439  27.581  1.00  0.00     0.037 A 
ATOM     46  C   UNL A   1      44.957  25.947  31.865  1.00  0.00     0.037 A 
ATOM     47  C   UNL A   1      41.109  28.933  26.983  1.00  0.00     0.049 A 
ATOM     48  C   UNL A   1      44.682  27.329  31.383  1.00  0.00     0.074 A 
ATOM     49  C   UNL A   1      41.726  28.774  25.758  1.00  0.00     0.029 A 
ATOM     50  N   UNL A   1      42.078  29.394  27.841  1.00  0.00    -0.354 N 
ATOM     51  N   UNL A   1      45.301  27.874  30.374  1.00  0.00    -0.248 NA
ATOM     52  C   UNL A   1      43.381  27.902  31.701  1.00  0.00     0.031 C 
ATOM     53  C   UNL A   1      43.120  28.709  26.049  1.00  0.00     0.029 A 
ATOM     54  C   UNL A   1      43.291  28.919  27.418  1.00  0.00     0.049 A 
ATOM     55  H   UNL A   1      41.926  29.969  28.627  1.00  0.00     0.167 HD
ATOM     56  C   UNL A   1      44.302  28.518  29.658  1.00  0.00     0.074 A 
ATOM     57  C   UNL A   1      43.151  28.558  30.559  1.00  0.00     0.031 C 
ATOM     58  C   UNL A   1      44.404  28.678  28.305  1.00  0.00     0.037 A 
BRANCH  45  59
ATOM     59  C   UNL A   1      39.015  29.309  28.449  1.00  0.00     0.057 A 
ATOM     60  C   UNL A   1      39.151  29.211  29.845  1.00  0.00     0.134 A 
ATOM     61  C   UNL A   1      37.862  29.993  28.008  1.00  0.00     0.134 A 
ATOM     62  F   UNL A   1      40.200  28.577  30.391  1.00  0.00    -0.206 F 
ATOM     63  C   UNL A   1      38.172  29.678  30.728  1.00  0.00     0.040 A 
ATOM     64  C   UNL A   1      36.906  30.510  28.882  1.00  0.00     0.040 A 
ATOM     65  F   UNL A   1      37.534  30.115  26.718  1.00  0.00    -0.206 F 
ATOM     66  C   UNL A   1      37.040  30.323  30.247  1.00  0.00     0.006 A 
ENDBRANCH  45  59
BRANCH  46  67
ATOM     67  C   UNL A   1      45.296  25.682  33.284  1.00  0.00     0.057 A 
ATOM     68  C   UNL A   1      44.296  25.392  34.227  1.00  0.00     0.134 A 
ATOM     69  C   UNL A   1      46.613  25.405  33.684  1.00  0.00     0.134 A 
ATOM     70  F   UNL A   1      43.002  25.581  33.928  1.00  0.00    -0.206 F 
ATOM     71  C   UNL A   1      44.586  24.828  35.478  1.00  0.00     0.040 A 
ATOM     72  C   UNL A   1      46.918  24.846  34.931  1.00  0.00     0.040 A 
ATOM     73  F   UNL A   1      47.642  25.575  32.842  1.00  0.00    -0.206 F 
ATOM     74  C   UNL A   1      45.901  24.539  35.827  1.00  0.00     0.006 A 
ENDBRANCH  46  67
BRANCH  58  75
ATOM     75  C   UNL A   1      45.734  28.390  27.662  1.00  0.00     0.057 A 
ATOM     76  C   UNL A   1      46.152  27.124  27.223  1.00  0.00     0.134 A 
ATOM     77  C   UNL A   1      46.566  29.471  27.356  1.00  0.00     0.134 A 
ATOM     78  F   UNL A   1      45.377  26.042  27.381  1.00  0.00    -0.206 F 
ATOM     79  C   UNL A   1      47.366  26.942  26.551  1.00  0.00     0.040 A 
ATOM     80  C   UNL A   1      47.761  29.310  26.653  1.00  0.00     0.040 A 
ATOM     81  F   UNL A   1      46.204  30.719  27.697  1.00  0.00    -0.206 F 
ATOM     82  C   UNL A   1      48.172  28.040  26.260  1.00  0.00     0.006 A 
ENDBRANCH  58  75
ENDBRANCH  32  33
ENDBRANCH  25  27
ENDBRANCH  24  25
ENDBRANCH  23  24
ENDBRANCH  22  23
ENDBRANCH  21  22
ENDBRANCH   1  21
TORSDOF 18
ENDMDL
MODEL 3
REMARK VINA RESULT:     -10.0      1.640      3.417
REMARK SMILES CC(C)CCn1cc(C(=O)OCCOCCOC(=O)c2ccc(-c3c4nc(c(-c5c(F)cccc5F)c5ccc([nH]5)c(-c5c(F)cccc5F)c5nc(c(-c6c(F)cccc6F)c6ccc3[nH]6)C=C5)C=C4)cc2)c(-c2ccoc2)n1
REMARK SMILES IDX 13 1 12 2 11 3 9 4 10 5 8 6 6 7 7 8 80 9 74 10 5 11 4 12
REMARK SMILES IDX 2 13 1 14 3 15 75 16 76 17 79 18 77 19 78 20 14 21 15 22
REMARK SMILES IDX 16 23 17 24 18 25 19 26 20 27 21 28 73 29 22 30 72 31 23 32
REMARK SMILES IDX 24 33 25 34 66 35 26 36 71 37 65 38 67 39 27 40 70 41 64 42
REMARK SMILES IDX 63 43 28 45 54 46 37 47 53 48 38 49 41 50 52 51 68 52 39 53
REMARK SMILES IDX 40 54 51 56 69 57 42 58 29 59 30 60 35 61 31 62 32 63 34 64
REMARK SMILES IDX 36 65 33 66 55 67 56 68 61 69 57 70 58 71 60 72 62 73 59 74
REMARK SMILES IDX 43 75 44 76 49 77 45 78 46 79 48 80 50 81 47 82
REMARK H PARENT 67 44 41 55
REMARK Flexibility Score: inf
ROOT
ATOM      1  C   UNL A   1      39.251  22.179  26.249  1.00  0.00     0.202 C 
ENDROOT
BRANCH   1   2
ATOM      2  C   UNL A   1      37.909  21.859  25.587  1.00  0.00     0.261 C 
BRANCH   2   3
ATOM      3  O   UNL A   1      37.162  23.049  25.289  1.00  0.00    -0.460 OA
BRANCH   3   4
ATOM      4  C   UNL A   1      35.886  23.076  25.768  1.00  0.00     0.342 C 
ATOM      5  O   UNL A   1      35.573  22.865  26.937  1.00  0.00    -0.246 OA
BRANCH   4   6
ATOM      6  C   UNL A   1      34.934  23.484  24.762  1.00  0.00     0.106 A 
ATOM      7  N   UNL A   1      33.861  24.655  23.251  1.00  0.00    -0.271 N 
ATOM      8  C   UNL A   1      34.662  24.774  24.349  1.00  0.00     0.125 A 
ATOM      9  N   UNL A   1      33.357  23.415  23.108  1.00  0.00    -0.172 NA
ATOM     10  C   UNL A   1      34.021  22.697  24.020  1.00  0.00     0.110 A 
BRANCH   7  11
ATOM     11  C   UNL A   1      33.536  25.657  22.255  1.00  0.00     0.144 C 
BRANCH  11  12
ATOM     12  C   UNL A   1      32.953  26.974  22.783  1.00  0.00     0.027 C 
BRANCH  12  13
ATOM     13  C   UNL A   1      31.434  27.170  22.569  1.00  0.00    -0.016 C 
ATOM     14  C   UNL A   1      30.595  26.181  23.374  1.00  0.00     0.007 C 
ATOM     15  C   UNL A   1      31.047  28.609  22.910  1.00  0.00     0.007 C 
ENDBRANCH  12  13
ENDBRANCH  11  12
ENDBRANCH   7  11
BRANCH  10  16
ATOM     16  C   UNL A   1      33.696  21.307  24.295  1.00  0.00     0.041 A 
ATOM     17  C   UNL A   1      32.450  20.676  24.090  1.00  0.00     0.052 A 
ATOM     18  C   UNL A   1      34.540  20.351  24.811  1.00  0.00     0.205 A 
ATOM     19  C   UNL A   1      32.629  19.364  24.467  1.00  0.00     0.195 A 
ATOM     20  O   UNL A   1      33.901  19.157  24.903  1.00  0.00    -0.472 OA
ENDBRANCH  10  16
ENDBRANCH   4   6
ENDBRANCH   3   4
ENDBRANCH   2   3
ENDBRANCH   1   2
BRANCH   1  21
ATOM     21  O   UNL A   1      40.429  21.549  25.747  1.00  0.00    -0.374 OA
BRANCH  21  22
ATOM     22  C   UNL A   1      41.099  20.555  26.511  1.00  0.00     0.202 C 
BRANCH  22  23
ATOM     23  C   UNL A   1      42.176  19.703  25.854  1.00  0.00     0.261 C 
BRANCH  23  24
ATOM     24  O   UNL A   1      43.488  20.169  26.107  1.00  0.00    -0.460 OA
BRANCH  24  25
ATOM     25  C   UNL A   1      44.097  20.637  24.994  1.00  0.00     0.338 C 
ATOM     26  O   UNL A   1      44.561  19.986  24.073  1.00  0.00    -0.246 OA
BRANCH  25  27
ATOM     27  C   UNL A   1      44.314  22.076  25.152  1.00  0.00     0.060 A 
ATOM     28  C   UNL A   1      45.157  22.445  26.202  1.00  0.00     0.016 A 
ATOM     29  C   UNL A   1      43.417  22.972  24.557  1.00  0.00     0.016 A 
ATOM     30  C   UNL A   1      44.902  23.635  26.837  1.00  0.00     0.010 A 
ATOM     31  C   UNL A   1      43.149  24.150  25.205  1.00  0.00     0.010 A 
ATOM     32  C   UNL A   1      43.830  24.416  26.390  1.00  0.00    -0.014 A 
BRANCH  32  33
ATOM     33  C   UNL A   1      43.545  25.641  27.097  1.00  0.00     0.031 A 
ATOM     34  C   UNL A   1      44.582  26.653  26.814  1.00  0.00     0.074 A 
ATOM     35  C   UNL A   1      42.439  25.831  27.841  1.00  0.00     0.049 A 
ATOM     36  N   UNL A   1      45.556  26.989  27.590  1.00  0.00    -0.248 NA
ATOM     37  C   UNL A   1      44.720  27.137  25.431  1.00  0.00     0.031 C 
ATOM     38  C   UNL A   1      41.260  24.975  27.970  1.00  0.00     0.029 A 
ATOM     39  N   UNL A   1      42.113  26.913  28.599  1.00  0.00    -0.354 N 
ATOM     40  C   UNL A   1      46.282  27.927  26.872  1.00  0.00     0.074 A 
ATOM     41  C   UNL A   1      45.888  27.778  25.499  1.00  0.00     0.031 C 
ATOM     42  C   UNL A   1      40.263  25.673  28.564  1.00  0.00     0.029 A 
ATOM     43  C   UNL A   1      40.773  26.968  28.978  1.00  0.00     0.049 A 
ATOM     44  H   UNL A   1      42.769  27.601  28.857  1.00  0.00     0.167 HD
ATOM     45  C   UNL A   1      46.893  28.955  27.517  1.00  0.00     0.037 A 
ATOM     46  C   UNL A   1      40.157  28.051  29.524  1.00  0.00     0.037 A 
ATOM     47  C   UNL A   1      46.999  28.678  28.929  1.00  0.00     0.049 A 
ATOM     48  C   UNL A   1      41.225  28.935  30.067  1.00  0.00     0.074 A 
ATOM     49  C   UNL A   1      47.612  27.699  29.686  1.00  0.00     0.029 A 
ATOM     50  N   UNL A   1      46.060  29.260  29.747  1.00  0.00    -0.354 N 
ATOM     51  N   UNL A   1      41.952  28.628  31.104  1.00  0.00    -0.248 NA
ATOM     52  C   UNL A   1      41.811  29.911  29.160  1.00  0.00     0.031 C 
ATOM     53  C   UNL A   1      46.709  27.438  30.758  1.00  0.00     0.029 A 
ATOM     54  C   UNL A   1      45.637  28.325  30.653  1.00  0.00     0.049 A 
ATOM     55  H   UNL A   1      45.746  30.192  29.691  1.00  0.00     0.167 HD
ATOM     56  C   UNL A   1      43.242  28.997  30.747  1.00  0.00     0.074 A 
ATOM     57  C   UNL A   1      43.083  29.845  29.566  1.00  0.00     0.031 C 
ATOM     58  C   UNL A   1      44.324  28.335  31.253  1.00  0.00     0.037 A 
BRANCH  45  59
ATOM     59  C   UNL A   1      46.970  30.359  26.967  1.00  0.00     0.057 A 
ATOM     60  C   UNL A   1      48.206  31.025  27.012  1.00  0.00     0.134 A 
ATOM     61  C   UNL A   1      45.857  31.180  26.685  1.00  0.00     0.134 A 
ATOM     62  F   UNL A   1      49.339  30.358  27.279  1.00  0.00    -0.206 F 
ATOM     63  C   UNL A   1      48.314  32.414  26.875  1.00  0.00     0.040 A 
ATOM     64  C   UNL A   1      45.961  32.558  26.494  1.00  0.00     0.040 A 
ATOM     65  F   UNL A   1      44.599  30.729  26.678  1.00  0.00    -0.206 F 
ATOM     66  C   UNL A   1      47.187  33.186  26.625  1.00  0.00     0.006 A 
ENDBRANCH  45  59
BRANCH  46  67
ATOM     67  C   UNL A   1      38.775  28.549  29.323  1.00  0.00     0.057 A 
ATOM     68  C   UNL A   1      37.874  28.642  30.397  1.00  0.00     0.134 A 
ATOM     69  C   UNL A   1      38.404  29.230  28.152  1.00  0.00     0.134 A 
ATOM     70  F   UNL A   1      38.155  28.062  31.574  1.00  0.00    -0.206 F 
ATOM     71  C   UNL A   1      36.692  29.393  30.322  1.00  0.00     0.040 A 
ATOM     72  C   UNL A   1      37.225  29.981  28.062  1.00  0.00     0.040 A 
ATOM     73  F   UNL A   1      39.217  29.270  27.088  1.00  0.00    -0.206 F 
ATOM     74  C   UNL A   1      36.372  30.079  29.155  1.00  0.00     0.006 A 
ENDBRANCH  46  67
BRANCH  58  75
ATOM     75  C   UNL A   1      44.095  27.391  32.402  1.00  0.00     0.057 A 
ATOM     76  C   UNL A   1      43.973  25.998  32.281  1.00  0.00     0.134 A 
ATOM     77  C   UNL A   1      44.137  27.911  33.700  1.00  0.00     0.134 A 
ATOM     78  F   UNL A   1      44.023  25.397  31.083  1.00  0.00    -0.206 F 
ATOM     79  C   UNL A   1      43.852  25.169  33.402  1.00  0.00     0.040 A 
ATOM     80  C   UNL A   1      44.056  27.093  34.828  1.00  0.00     0.040 A 
ATOM     81  F   UNL A   1      44.307  29.228  33.894  1.00  0.00    -0.206 F 
ATOM     82  C   UNL A   1      43.899  25.718  34.681  1.00  0.00     0.006 A 
ENDBRANCH  58  75
ENDBRANCH  32  33
ENDBRANCH  25  27
ENDBRANCH  24  25
ENDBRANCH  23  24
ENDBRANCH  22  23
ENDBRANCH  21  22
ENDBRANCH   1  21
TORSDOF 18
ENDMDL
