MODEL 1
REMARK VINA RESULT:     -11.4      0.000      0.000
REMARK SMILES Cc1n[nH]c(C[N@H+]2CCC[C@H](c3cccc(C(=O)OCCOCCOC(=O)c4ccc(-c5c6nc(c(-c7c(F)cccc7F)c7ccc([nH]7)c(-c7c(F)cccc7F)c7nc(c(-c8c(F)cccc8F)c8ccc5[nH]8)C=C7)C=C6)cc4)c3)C2)n1
REMARK SMILES IDX 21 1 20 2 19 3 17 4 18 5 16 6 12 7 13 8 82 9 14 10 15 11
REMARK SMILES IDX 11 12 7 13 8 14 83 15 9 17 10 18 6 19 5 20 1 21 2 22 3 23
REMARK SMILES IDX 84 24 4 25 22 27 23 28 24 29 25 30 26 31 27 32 28 33 29 34
REMARK SMILES IDX 81 35 30 36 80 37 31 38 32 39 33 40 74 41 34 42 79 43 73 44
REMARK SMILES IDX 75 45 35 46 78 47 72 48 71 49 36 51 62 52 45 53 61 54 46 55
REMARK SMILES IDX 49 56 60 57 76 58 47 59 48 60 59 62 77 63 50 64 37 65 38 66
REMARK SMILES IDX 43 67 39 68 40 69 42 70 44 71 41 72 63 73 64 74 69 75 65 76
REMARK SMILES IDX 66 77 68 78 70 79 67 80 51 81 52 82 57 83 53 84 54 85 56 86
REMARK SMILES IDX 58 87 55 88
REMARK H PARENT 7 16 4 26 75 50 49 61
REMARK Flexibility Score: inf
ROOT
ATOM      1  C   UNL A   1      34.557  32.668  28.078  1.00  0.00     0.202 C 
ENDROOT
BRANCH   1   2
ATOM      2  C   UNL A   1      34.102  31.210  27.924  1.00  0.00     0.261 C 
BRANCH   2   3
ATOM      3  O   UNL A   1      33.541  30.906  26.640  1.00  0.00    -0.460 OA
BRANCH   3   4
ATOM      4  C   UNL A   1      32.183  30.836  26.623  1.00  0.00     0.338 C 
ATOM      5  O   UNL A   1      31.412  31.779  26.582  1.00  0.00    -0.246 OA
BRANCH   4   6
ATOM      6  C   UNL A   1      31.751  29.431  26.389  1.00  0.00     0.060 A 
ATOM      7  C   UNL A   1      31.114  27.610  24.916  1.00  0.00    -0.038 A 
ATOM      8  C   UNL A   1      31.151  26.749  26.028  1.00  0.00     0.004 A 
ATOM      9  C   UNL A   1      31.373  28.973  25.127  1.00  0.00     0.020 A 
ATOM     10  C   UNL A   1      31.383  27.229  27.313  1.00  0.00     0.001 A 
ATOM     11  C   UNL A   1      31.683  28.571  27.493  1.00  0.00     0.016 A 
BRANCH   7  12
ATOM     12  C   UNL A   1      30.804  27.109  23.508  1.00  0.00     0.074 C 
ATOM     13  N   UNL A   1      32.587  25.362  23.346  1.00  0.00    -0.328 N 
ATOM     14  C   UNL A   1      33.307  26.115  22.314  1.00  0.00     0.262 C 
ATOM     15  C   UNL A   1      31.130  25.619  23.275  1.00  0.00     0.270 C 
ATOM     16  H   UNL A   1      32.922  25.708  24.245  1.00  0.00     0.348 HD
ATOM     17  C   UNL A   1      33.029  27.617  22.415  1.00  0.00     0.062 C 
ATOM     18  C   UNL A   1      31.528  27.905  22.399  1.00  0.00     0.020 C 
BRANCH  13  19
ATOM     19  C   UNL A   1      32.897  23.920  23.338  1.00  0.00     0.340 C 
BRANCH  19  20
ATOM     20  C   UNL A   1      33.949  23.537  24.318  1.00  0.00     0.179 A 
ATOM     21  C   UNL A   1      37.143  23.729  25.763  1.00  0.00     0.092 C 
ATOM     22  C   UNL A   1      35.728  23.471  25.436  1.00  0.00     0.147 A 
ATOM     23  N   UNL A   1      34.805  23.119  26.338  1.00  0.00    -0.159 NA
ATOM     24  N   UNL A   1      35.251  23.666  24.175  1.00  0.00    -0.211 NA
ATOM     25  N   UNL A   1      33.686  23.127  25.592  1.00  0.00    -0.258 N 
ATOM     26  H   UNL A   1      32.794  22.871  25.922  1.00  0.00     0.192 HD
ENDBRANCH  19  20
ENDBRANCH  13  19
ENDBRANCH   7  12
ENDBRANCH   4   6
ENDBRANCH   3   4
ENDBRANCH   2   3
ENDBRANCH   1   2
BRANCH   1  27
ATOM     27  O   UNL A   1      34.228  33.445  29.230  1.00  0.00    -0.374 OA
BRANCH  27  28
ATOM     28  C   UNL A   1      33.311  34.525  29.126  1.00  0.00     0.202 C 
BRANCH  28  29
ATOM     29  C   UNL A   1      33.322  35.664  30.127  1.00  0.00     0.261 C 
BRANCH  29  30
ATOM     30  O   UNL A   1      34.061  35.312  31.279  1.00  0.00    -0.460 OA
BRANCH  30  31
ATOM     31  C   UNL A   1      33.286  34.993  32.358  1.00  0.00     0.338 C 
ATOM     32  O   UNL A   1      32.194  35.371  32.632  1.00  0.00    -0.246 OA
BRANCH  31  33
ATOM     33  C   UNL A   1      34.133  34.143  33.214  1.00  0.00     0.060 A 
ATOM     34  C   UNL A   1      35.124  34.762  33.972  1.00  0.00     0.016 A 
ATOM     35  C   UNL A   1      34.351  32.883  32.687  1.00  0.00     0.016 A 
ATOM     36  C   UNL A   1      36.445  34.377  33.663  1.00  0.00     0.010 A 
ATOM     37  C   UNL A   1      35.612  32.406  32.823  1.00  0.00     0.010 A 
ATOM     38  C   UNL A   1      36.648  33.330  32.715  1.00  0.00    -0.014 A 
BRANCH  38  39
ATOM     39  C   UNL A   1      37.940  32.601  32.336  1.00  0.00     0.031 A 
ATOM     40  C   UNL A   1      38.642  32.593  33.812  1.00  0.00     0.074 A 
ATOM     41  C   UNL A   1      38.324  32.005  31.073  1.00  0.00     0.049 A 
ATOM     42  N   UNL A   1      39.410  33.563  34.229  1.00  0.00    -0.248 NA
ATOM     43  C   UNL A   1      38.140  31.890  35.079  1.00  0.00     0.031 C 
ATOM     44  C   UNL A   1      37.753  31.892  29.634  1.00  0.00     0.029 A 
ATOM     45  N   UNL A   1      39.528  31.324  30.735  1.00  0.00    -0.354 N 
ATOM     46  C   UNL A   1      39.893  33.183  35.486  1.00  0.00     0.074 A 
ATOM     47  C   UNL A   1      38.886  32.390  36.076  1.00  0.00     0.031 C 
ATOM     48  C   UNL A   1      38.404  30.946  28.855  1.00  0.00     0.029 A 
ATOM     49  C   UNL A   1      39.548  30.429  29.577  1.00  0.00     0.049 A 
ATOM     50  H   UNL A   1      40.339  31.453  31.277  1.00  0.00     0.167 HD
ATOM     51  C   UNL A   1      41.235  33.172  35.698  1.00  0.00     0.037 A 
ATOM     52  C   UNL A   1      40.570  29.570  29.132  1.00  0.00     0.037 A 
ATOM     53  C   UNL A   1      41.842  33.884  34.605  1.00  0.00     0.049 A 
ATOM     54  C   UNL A   1      41.765  29.979  29.922  1.00  0.00     0.074 A 
ATOM     55  C   UNL A   1      41.749  35.182  34.147  1.00  0.00     0.029 A 
ATOM     56  N   UNL A   1      42.060  33.078  33.522  1.00  0.00    -0.354 N 
ATOM     57  N   UNL A   1      42.322  31.145  29.719  1.00  0.00    -0.248 NA
ATOM     58  C   UNL A   1      41.751  29.467  31.295  1.00  0.00     0.031 C 
ATOM     59  C   UNL A   1      41.637  35.081  32.730  1.00  0.00     0.029 A 
ATOM     60  C   UNL A   1      41.891  33.766  32.356  1.00  0.00     0.049 A 
ATOM     61  H   UNL A   1      42.307  32.127  33.575  1.00  0.00     0.167 HD
ATOM     62  C   UNL A   1      42.238  31.758  30.957  1.00  0.00     0.074 A 
ATOM     63  C   UNL A   1      41.877  30.658  31.902  1.00  0.00     0.031 C 
ATOM     64  C   UNL A   1      42.024  33.113  31.084  1.00  0.00     0.037 A 
BRANCH  51  65
ATOM     65  C   UNL A   1      42.014  32.147  36.485  1.00  0.00     0.057 A 
ATOM     66  C   UNL A   1      42.891  32.632  37.466  1.00  0.00     0.134 A 
ATOM     67  C   UNL A   1      42.162  30.780  36.163  1.00  0.00     0.134 A 
ATOM     68  F   UNL A   1      42.851  33.922  37.832  1.00  0.00    -0.206 F 
ATOM     69  C   UNL A   1      43.872  31.836  38.064  1.00  0.00     0.040 A 
ATOM     70  C   UNL A   1      43.107  29.957  36.797  1.00  0.00     0.040 A 
ATOM     71  F   UNL A   1      41.470  30.198  35.175  1.00  0.00    -0.206 F 
ATOM     72  C   UNL A   1      43.979  30.490  37.736  1.00  0.00     0.006 A 
ENDBRANCH  51  65
BRANCH  52  73
ATOM     73  C   UNL A   1      40.487  28.129  28.583  1.00  0.00     0.057 A 
ATOM     74  C   UNL A   1      39.724  27.001  29.033  1.00  0.00     0.134 A 
ATOM     75  C   UNL A   1      41.012  27.956  27.299  1.00  0.00     0.134 A 
ATOM     76  F   UNL A   1      39.112  26.987  30.229  1.00  0.00    -0.206 F 
ATOM     77  C   UNL A   1      39.523  25.829  28.235  1.00  0.00     0.040 A 
ATOM     78  C   UNL A   1      40.796  26.826  26.496  1.00  0.00     0.040 A 
ATOM     79  F   UNL A   1      41.698  28.950  26.726  1.00  0.00    -0.206 F 
ATOM     80  C   UNL A   1      40.045  25.755  26.948  1.00  0.00     0.006 A 
ENDBRANCH  52  73
BRANCH  64  81
ATOM     81  C   UNL A   1      41.989  34.023  29.867  1.00  0.00     0.057 A 
ATOM     82  C   UNL A   1      40.880  34.704  29.323  1.00  0.00     0.134 A 
ATOM     83  C   UNL A   1      43.225  34.402  29.349  1.00  0.00     0.134 A 
ATOM     84  F   UNL A   1      39.686  34.675  29.918  1.00  0.00    -0.206 F 
ATOM     85  C   UNL A   1      40.981  35.555  28.208  1.00  0.00     0.040 A 
ATOM     86  C   UNL A   1      43.353  35.306  28.292  1.00  0.00     0.040 A 
ATOM     87  F   UNL A   1      44.350  33.967  29.935  1.00  0.00    -0.206 F 
ATOM     88  C   UNL A   1      42.229  35.842  27.675  1.00  0.00     0.006 A 
ENDBRANCH  64  81
ENDBRANCH  38  39
ENDBRANCH  31  33
ENDBRANCH  30  31
ENDBRANCH  29  30
ENDBRANCH  28  29
ENDBRANCH  27  28
ENDBRANCH   1  27
TORSDOF 17
ENDMDL
MODEL 2
REMARK VINA RESULT:     -11.3      5.882     10.870
REMARK SMILES Cc1n[nH]c(C[N@H+]2CCC[C@H](c3cccc(C(=O)OCCOCCOC(=O)c4ccc(-c5c6nc(c(-c7c(F)cccc7F)c7ccc([nH]7)c(-c7c(F)cccc7F)c7nc(c(-c8c(F)cccc8F)c8ccc5[nH]8)C=C7)C=C6)cc4)c3)C2)n1
REMARK SMILES IDX 21 1 20 2 19 3 17 4 18 5 16 6 12 7 13 8 82 9 14 10 15 11
REMARK SMILES IDX 11 12 7 13 8 14 83 15 9 17 10 18 6 19 5 20 1 21 2 22 3 23
REMARK SMILES IDX 84 24 4 25 22 27 23 28 24 29 25 30 26 31 27 32 28 33 29 34
REMARK SMILES IDX 81 35 30 36 80 37 31 38 32 39 33 40 74 41 34 42 79 43 73 44
REMARK SMILES IDX 75 45 35 46 78 47 72 48 71 49 36 51 62 52 45 53 61 54 46 55
REMARK SMILES IDX 49 56 60 57 76 58 47 59 48 60 59 62 77 63 50 64 37 65 38 66
REMARK SMILES IDX 43 67 39 68 40 69 42 70 44 71 41 72 63 73 64 74 69 75 65 76
REMARK SMILES IDX 66 77 68 78 70 79 67 80 51 81 52 82 57 83 53 84 54 85 56 86
REMARK SMILES IDX 58 87 55 88
REMARK H PARENT 7 16 4 26 75 50 49 61
REMARK Flexibility Score: inf
ROOT
ATOM      1  C   UNL A   1      42.051  20.516  27.567  1.00  0.00     0.202 C 
ENDROOT
BRANCH   1   2
ATOM      2  C   UNL A   1      40.772  21.365  27.554  1.00  0.00     0.261 C 
BRANCH   2   3
ATOM      3  O   UNL A   1      40.352  21.768  26.243  1.00  0.00    -0.460 OA
BRANCH   3   4
ATOM      4  C   UNL A   1      39.321  21.042  25.736  1.00  0.00     0.338 C 
ATOM      5  O   UNL A   1      39.267  19.827  25.651  1.00  0.00    -0.246 OA
BRANCH   4   6
ATOM      6  C   UNL A   1      38.134  21.917  25.536  1.00  0.00     0.060 A 
ATOM      7  C   UNL A   1      35.837  22.272  24.836  1.00  0.00    -0.038 A 
ATOM      8  C   UNL A   1      35.909  23.563  25.390  1.00  0.00     0.004 A 
ATOM      9  C   UNL A   1      36.989  21.471  24.876  1.00  0.00     0.020 A 
ATOM     10  C   UNL A   1      37.095  24.065  25.918  1.00  0.00     0.001 A 
ATOM     11  C   UNL A   1      38.207  23.241  25.990  1.00  0.00     0.016 A 
BRANCH   7  12
ATOM     12  C   UNL A   1      34.560  21.728  24.201  1.00  0.00     0.074 C 
ATOM     13  N   UNL A   1      32.956  23.415  25.114  1.00  0.00    -0.328 N 
ATOM     14  C   UNL A   1      32.297  22.413  25.958  1.00  0.00     0.262 C 
ATOM     15  C   UNL A   1      33.499  22.801  23.881  1.00  0.00     0.270 C 
ATOM     16  H   UNL A   1      33.740  23.779  25.655  1.00  0.00     0.348 HD
ATOM     17  C   UNL A   1      33.244  21.264  26.312  1.00  0.00     0.062 C 
ATOM     18  C   UNL A   1      33.861  20.648  25.057  1.00  0.00     0.020 C 
BRANCH  13  19
ATOM     19  C   UNL A   1      32.104  24.583  24.823  1.00  0.00     0.340 C 
BRANCH  19  20
ATOM     20  C   UNL A   1      32.204  25.658  25.847  1.00  0.00     0.179 A 
ATOM     21  C   UNL A   1      33.523  28.612  27.209  1.00  0.00     0.092 C 
ATOM     22  C   UNL A   1      32.729  27.417  26.872  1.00  0.00     0.147 A 
ATOM     23  N   UNL A   1      31.447  27.248  27.221  1.00  0.00    -0.159 NA
ATOM     24  N   UNL A   1      33.244  26.427  26.091  1.00  0.00    -0.211 NA
ATOM     25  N   UNL A   1      31.148  26.098  26.590  1.00  0.00    -0.258 N 
ATOM     26  H   UNL A   1      30.281  25.637  26.655  1.00  0.00     0.192 HD
ENDBRANCH  19  20
ENDBRANCH  13  19
ENDBRANCH   7  12
ENDBRANCH   4   6
ENDBRANCH   3   4
ENDBRANCH   2   3
ENDBRANCH   1   2
BRANCH   1  27
ATOM     27  O   UNL A   1      42.031  19.115  27.293  1.00  0.00    -0.374 OA
BRANCH  27  28
ATOM     28  C   UNL A   1      42.716  18.598  26.160  1.00  0.00     0.202 C 
BRANCH  28  29
ATOM     29  C   UNL A   1      44.138  19.019  25.844  1.00  0.00     0.261 C 
BRANCH  29  30
ATOM     30  O   UNL A   1      44.176  20.356  25.391  1.00  0.00    -0.460 OA
BRANCH  30  31
ATOM     31  C   UNL A   1      44.604  20.492  24.100  1.00  0.00     0.338 C 
ATOM     32  O   UNL A   1      44.675  19.671  23.246  1.00  0.00    -0.246 OA
BRANCH  31  33
ATOM     33  C   UNL A   1      45.087  21.880  23.989  1.00  0.00     0.060 A 
ATOM     34  C   UNL A   1      46.286  22.207  24.618  1.00  0.00     0.016 A 
ATOM     35  C   UNL A   1      44.065  22.810  23.924  1.00  0.00     0.016 A 
ATOM     36  C   UNL A   1      46.185  23.174  25.639  1.00  0.00     0.010 A 
ATOM     37  C   UNL A   1      44.263  23.944  24.640  1.00  0.00     0.010 A 
ATOM     38  C   UNL A   1      44.926  23.810  25.856  1.00  0.00    -0.014 A 
BRANCH  38  39
ATOM     39  C   UNL A   1      44.583  25.003  26.754  1.00  0.00     0.031 A 
ATOM     40  C   UNL A   1      45.884  25.931  26.412  1.00  0.00     0.074 A 
ATOM     41  C   UNL A   1      43.396  25.245  27.548  1.00  0.00     0.049 A 
ATOM     42  N   UNL A   1      47.000  25.852  27.085  1.00  0.00    -0.248 NA
ATOM     43  C   UNL A   1      46.261  26.543  25.057  1.00  0.00     0.031 C 
ATOM     44  C   UNL A   1      42.089  24.496  27.921  1.00  0.00     0.029 A 
ATOM     45  N   UNL A   1      43.086  26.362  28.375  1.00  0.00    -0.354 N 
ATOM     46  C   UNL A   1      47.850  26.838  26.572  1.00  0.00     0.074 A 
ATOM     47  C   UNL A   1      47.521  26.978  25.208  1.00  0.00     0.031 C 
ATOM     48  C   UNL A   1      41.131  25.313  28.502  1.00  0.00     0.029 A 
ATOM     49  C   UNL A   1      41.693  26.628  28.733  1.00  0.00     0.049 A 
ATOM     50  H   UNL A   1      43.804  26.951  28.702  1.00  0.00     0.167 HD
ATOM     51  C   UNL A   1      48.392  27.745  27.427  1.00  0.00     0.037 A 
ATOM     52  C   UNL A   1      41.143  27.724  29.424  1.00  0.00     0.037 A 
ATOM     53  C   UNL A   1      48.181  27.250  28.761  1.00  0.00     0.049 A 
ATOM     54  C   UNL A   1      42.326  28.433  29.990  1.00  0.00     0.074 A 
ATOM     55  C   UNL A   1      48.590  26.115  29.429  1.00  0.00     0.029 A 
ATOM     56  N   UNL A   1      46.953  27.599  29.253  1.00  0.00    -0.354 N 
ATOM     57  N   UNL A   1      43.036  27.878  30.939  1.00  0.00    -0.248 NA
ATOM     58  C   UNL A   1      43.039  29.245  29.000  1.00  0.00     0.031 C 
ATOM     59  C   UNL A   1      47.440  25.647  30.130  1.00  0.00     0.029 A 
ATOM     60  C   UNL A   1      46.447  26.617  30.053  1.00  0.00     0.049 A 
ATOM     61  H   UNL A   1      46.495  28.448  29.056  1.00  0.00     0.167 HD
ATOM     62  C   UNL A   1      44.302  27.799  30.384  1.00  0.00     0.074 A 
ATOM     63  C   UNL A   1      44.242  28.675  29.174  1.00  0.00     0.031 C 
ATOM     64  C   UNL A   1      45.146  26.743  30.648  1.00  0.00     0.037 A 
BRANCH  51  65
ATOM     65  C   UNL A   1      48.591  29.218  27.168  1.00  0.00     0.057 A 
ATOM     66  C   UNL A   1      49.867  29.741  27.427  1.00  0.00     0.134 A 
ATOM     67  C   UNL A   1      47.576  30.177  26.958  1.00  0.00     0.134 A 
ATOM     68  F   UNL A   1      50.901  28.920  27.662  1.00  0.00    -0.206 F 
ATOM     69  C   UNL A   1      50.119  31.114  27.509  1.00  0.00     0.040 A 
ATOM     70  C   UNL A   1      47.829  31.558  26.984  1.00  0.00     0.040 A 
ATOM     71  F   UNL A   1      46.290  29.835  26.804  1.00  0.00    -0.206 F 
ATOM     72  C   UNL A   1      49.100  32.029  27.279  1.00  0.00     0.006 A 
ENDBRANCH  51  65
BRANCH  52  73
ATOM     73  C   UNL A   1      39.847  28.518  29.156  1.00  0.00     0.057 A 
ATOM     74  C   UNL A   1      39.314  29.053  27.937  1.00  0.00     0.134 A 
ATOM     75  C   UNL A   1      38.908  28.481  30.193  1.00  0.00     0.134 A 
ATOM     76  F   UNL A   1      40.052  29.143  26.817  1.00  0.00    -0.206 F 
ATOM     77  C   UNL A   1      37.957  29.493  27.807  1.00  0.00     0.040 A 
ATOM     78  C   UNL A   1      37.569  28.879  30.068  1.00  0.00     0.040 A 
ATOM     79  F   UNL A   1      39.247  27.954  31.373  1.00  0.00    -0.206 F 
ATOM     80  C   UNL A   1      37.075  29.381  28.876  1.00  0.00     0.006 A 
ENDBRANCH  52  73
BRANCH  64  81
ATOM     81  C   UNL A   1      44.774  25.669  31.656  1.00  0.00     0.057 A 
ATOM     82  C   UNL A   1      44.431  24.324  31.407  1.00  0.00     0.134 A 
ATOM     83  C   UNL A   1      44.999  25.980  32.995  1.00  0.00     0.134 A 
ATOM     84  F   UNL A   1      44.486  23.810  30.176  1.00  0.00    -0.206 F 
ATOM     85  C   UNL A   1      44.142  23.408  32.433  1.00  0.00     0.040 A 
ATOM     86  C   UNL A   1      44.791  25.062  34.027  1.00  0.00     0.040 A 
ATOM     87  F   UNL A   1      45.523  27.171  33.319  1.00  0.00    -0.206 F 
ATOM     88  C   UNL A   1      44.305  23.788  33.757  1.00  0.00     0.006 A 
ENDBRANCH  64  81
ENDBRANCH  38  39
ENDBRANCH  31  33
ENDBRANCH  30  31
ENDBRANCH  29  30
ENDBRANCH  28  29
ENDBRANCH  27  28
ENDBRANCH   1  27
TORSDOF 17
ENDMDL
MODEL 3
REMARK VINA RESULT:     -11.2      1.672      2.256
REMARK SMILES Cc1n[nH]c(C[N@H+]2CCC[C@H](c3cccc(C(=O)OCCOCCOC(=O)c4ccc(-c5c6nc(c(-c7c(F)cccc7F)c7ccc([nH]7)c(-c7c(F)cccc7F)c7nc(c(-c8c(F)cccc8F)c8ccc5[nH]8)C=C7)C=C6)cc4)c3)C2)n1
REMARK SMILES IDX 21 1 20 2 19 3 17 4 18 5 16 6 12 7 13 8 82 9 14 10 15 11
REMARK SMILES IDX 11 12 7 13 8 14 83 15 9 17 10 18 6 19 5 20 1 21 2 22 3 23
REMARK SMILES IDX 84 24 4 25 22 27 23 28 24 29 25 30 26 31 27 32 28 33 29 34
REMARK SMILES IDX 81 35 30 36 80 37 31 38 32 39 33 40 74 41 34 42 79 43 73 44
REMARK SMILES IDX 75 45 35 46 78 47 72 48 71 49 36 51 62 52 45 53 61 54 46 55
REMARK SMILES IDX 49 56 60 57 76 58 47 59 48 60 59 62 77 63 50 64 37 65 38 66
REMARK SMILES IDX 43 67 39 68 40 69 42 70 44 71 41 72 63 73 64 74 69 75 65 76
REMARK SMILES IDX 66 77 68 78 70 79 67 80 51 81 52 82 57 83 53 84 54 85 56 86
REMARK SMILES IDX 58 87 55 88
REMARK H PARENT 7 16 4 26 75 50 49 61
REMARK Flexibility Score: inf
ROOT
ATOM      1  C   UNL A   1      33.683  31.890  27.808  1.00  0.00     0.202 C 
ENDROOT
BRANCH   1   2
ATOM      2  C   UNL A   1      33.700  30.370  27.593  1.00  0.00     0.261 C 
BRANCH   2   3
ATOM      3  O   UNL A   1      33.647  29.974  26.216  1.00  0.00    -0.460 OA
BRANCH   3   4
ATOM      4  C   UNL A   1      32.533  29.272  25.876  1.00  0.00     0.338 C 
ATOM      5  O   UNL A   1      31.443  29.740  25.594  1.00  0.00    -0.246 OA
BRANCH   4   6
ATOM      6  C   UNL A   1      32.887  27.848  25.629  1.00  0.00     0.060 A 
ATOM      7  C   UNL A   1      32.623  25.476  26.072  1.00  0.00    -0.038 A 
ATOM      8  C   UNL A   1      33.452  25.217  24.964  1.00  0.00     0.004 A 
ATOM      9  C   UNL A   1      32.388  26.814  26.422  1.00  0.00     0.020 A 
ATOM     10  C   UNL A   1      34.071  26.246  24.261  1.00  0.00     0.001 A 
ATOM     11  C   UNL A   1      33.787  27.562  24.595  1.00  0.00     0.016 A 
BRANCH   7  12
ATOM     12  C   UNL A   1      31.983  24.357  26.889  1.00  0.00     0.074 C 
ATOM     13  N   UNL A   1      33.003  22.410  25.696  1.00  0.00    -0.328 N 
ATOM     14  C   UNL A   1      31.706  21.993  25.153  1.00  0.00     0.262 C 
ATOM     15  C   UNL A   1      32.843  23.080  27.006  1.00  0.00     0.270 C 
ATOM     16  H   UNL A   1      33.387  23.090  25.041  1.00  0.00     0.348 HD
ATOM     17  C   UNL A   1      30.742  23.175  25.027  1.00  0.00     0.062 C 
ATOM     18  C   UNL A   1      30.601  23.919  26.355  1.00  0.00     0.020 C 
BRANCH  13  19
ATOM     19  C   UNL A   1      33.990  21.315  25.751  1.00  0.00     0.340 C 
BRANCH  19  20
ATOM     20  C   UNL A   1      33.416  19.984  25.418  1.00  0.00     0.179 A 
ATOM     21  C   UNL A   1      33.291  16.945  23.665  1.00  0.00     0.092 C 
ATOM     22  C   UNL A   1      33.117  18.069  24.603  1.00  0.00     0.147 A 
ATOM     23  N   UNL A   1      32.613  17.942  25.837  1.00  0.00    -0.159 NA
ATOM     24  N   UNL A   1      33.552  19.321  24.289  1.00  0.00    -0.211 NA
ATOM     25  N   UNL A   1      32.776  19.187  26.321  1.00  0.00    -0.258 N 
ATOM     26  H   UNL A   1      32.475  19.482  27.211  1.00  0.00     0.192 HD
ENDBRANCH  19  20
ENDBRANCH  13  19
ENDBRANCH   7  12
ENDBRANCH   4   6
ENDBRANCH   3   4
ENDBRANCH   2   3
ENDBRANCH   1   2
BRANCH   1  27
ATOM     27  O   UNL A   1      34.148  32.487  29.018  1.00  0.00    -0.374 OA
BRANCH  27  28
ATOM     28  C   UNL A   1      34.382  33.888  29.081  1.00  0.00     0.202 C 
BRANCH  28  29
ATOM     29  C   UNL A   1      33.445  34.808  29.838  1.00  0.00     0.261 C 
BRANCH  29  30
ATOM     30  O   UNL A   1      34.030  35.231  31.052  1.00  0.00    -0.460 OA
BRANCH  30  31
ATOM     31  C   UNL A   1      33.281  34.944  32.158  1.00  0.00     0.338 C 
ATOM     32  O   UNL A   1      32.175  35.286  32.421  1.00  0.00    -0.246 OA
BRANCH  31  33
ATOM     33  C   UNL A   1      34.175  34.192  33.056  1.00  0.00     0.060 A 
ATOM     34  C   UNL A   1      35.191  34.891  33.702  1.00  0.00     0.016 A 
ATOM     35  C   UNL A   1      34.386  32.887  32.648  1.00  0.00     0.016 A 
ATOM     36  C   UNL A   1      36.502  34.488  33.374  1.00  0.00     0.010 A 
ATOM     37  C   UNL A   1      35.657  32.435  32.774  1.00  0.00     0.010 A 
ATOM     38  C   UNL A   1      36.675  33.352  32.527  1.00  0.00    -0.014 A 
BRANCH  38  39
ATOM     39  C   UNL A   1      37.959  32.598  32.165  1.00  0.00     0.031 A 
ATOM     40  C   UNL A   1      38.649  32.593  33.647  1.00  0.00     0.074 A 
ATOM     41  C   UNL A   1      38.343  31.985  30.910  1.00  0.00     0.049 A 
ATOM     42  N   UNL A   1      39.429  33.554  34.061  1.00  0.00    -0.248 NA
ATOM     43  C   UNL A   1      38.125  31.910  34.916  1.00  0.00     0.031 C 
ATOM     44  C   UNL A   1      37.781  31.868  29.468  1.00  0.00     0.029 A 
ATOM     45  N   UNL A   1      39.538  31.281  30.588  1.00  0.00    -0.354 N 
ATOM     46  C   UNL A   1      39.896  33.178  35.326  1.00  0.00     0.074 A 
ATOM     47  C   UNL A   1      38.871  32.407  35.914  1.00  0.00     0.031 C 
ATOM     48  C   UNL A   1      38.422  30.906  28.702  1.00  0.00     0.029 A 
ATOM     49  C   UNL A   1      39.553  30.376  29.438  1.00  0.00     0.049 A 
ATOM     50  H   UNL A   1      40.347  31.402  31.135  1.00  0.00     0.167 HD
ATOM     51  C   UNL A   1      41.236  33.147  35.548  1.00  0.00     0.037 A 
ATOM     52  C   UNL A   1      40.563  29.496  29.009  1.00  0.00     0.037 A 
ATOM     53  C   UNL A   1      41.864  33.839  34.454  1.00  0.00     0.049 A 
ATOM     54  C   UNL A   1      41.759  29.893  29.805  1.00  0.00     0.074 A 
ATOM     55  C   UNL A   1      41.794  35.133  33.984  1.00  0.00     0.029 A 
ATOM     56  N   UNL A   1      42.076  33.019  33.379  1.00  0.00    -0.354 N 
ATOM     57  N   UNL A   1      42.337  31.048  29.596  1.00  0.00    -0.248 NA
ATOM     58  C   UNL A   1      41.726  29.394  31.183  1.00  0.00     0.031 C 
ATOM     59  C   UNL A   1      41.692  35.022  32.566  1.00  0.00     0.029 A 
ATOM     60  C   UNL A   1      41.927  33.700  32.206  1.00  0.00     0.049 A 
ATOM     61  H   UNL A   1      42.307  32.065  33.443  1.00  0.00     0.167 HD
ATOM     62  C   UNL A   1      42.253  31.674  30.828  1.00  0.00     0.074 A 
ATOM     63  C   UNL A   1      41.867  30.588  31.780  1.00  0.00     0.031 C 
ATOM     64  C   UNL A   1      42.061  33.033  30.942  1.00  0.00     0.037 A 
BRANCH  51  65
ATOM     65  C   UNL A   1      41.991  32.116  36.350  1.00  0.00     0.057 A 
ATOM     66  C   UNL A   1      42.928  32.595  37.278  1.00  0.00     0.134 A 
ATOM     67  C   UNL A   1      42.060  30.731  36.082  1.00  0.00     0.134 A 
ATOM     68  F   UNL A   1      42.965  33.899  37.591  1.00  0.00    -0.206 F 
ATOM     69  C   UNL A   1      43.889  31.775  37.875  1.00  0.00     0.040 A 
ATOM     70  C   UNL A   1      42.986  29.887  36.717  1.00  0.00     0.040 A 
ATOM     71  F   UNL A   1      41.304  30.145  35.145  1.00  0.00    -0.206 F 
ATOM     72  C   UNL A   1      43.917  30.413  37.602  1.00  0.00     0.006 A 
ENDBRANCH  51  65
BRANCH  52  73
ATOM     73  C   UNL A   1      40.461  28.052  28.473  1.00  0.00     0.057 A 
ATOM     74  C   UNL A   1      39.656  26.949  28.910  1.00  0.00     0.134 A 
ATOM     75  C   UNL A   1      41.021  27.853  27.207  1.00  0.00     0.134 A 
ATOM     76  F   UNL A   1      39.008  26.963  30.087  1.00  0.00    -0.206 F 
ATOM     77  C   UNL A   1      39.451  25.773  28.117  1.00  0.00     0.040 A 
ATOM     78  C   UNL A   1      40.802  26.720  26.409  1.00  0.00     0.040 A 
ATOM     79  F   UNL A   1      41.750  28.822  26.646  1.00  0.00    -0.206 F 
ATOM     80  C   UNL A   1      40.011  25.673  26.849  1.00  0.00     0.006 A 
ENDBRANCH  52  73
BRANCH  64  81
ATOM     81  C   UNL A   1      42.050  33.932  29.716  1.00  0.00     0.057 A 
ATOM     82  C   UNL A   1      40.969  34.668  29.187  1.00  0.00     0.134 A 
ATOM     83  C   UNL A   1      43.293  34.239  29.170  1.00  0.00     0.134 A 
ATOM     84  F   UNL A   1      39.787  34.711  29.807  1.00  0.00    -0.206 F 
ATOM     85  C   UNL A   1      41.093  35.502  28.062  1.00  0.00     0.040 A 
ATOM     86  C   UNL A   1      43.449  35.124  28.101  1.00  0.00     0.040 A 
ATOM     87  F   UNL A   1      44.405  33.748  29.737  1.00  0.00    -0.206 F 
ATOM     88  C   UNL A   1      42.343  35.716  27.502  1.00  0.00     0.006 A 
ENDBRANCH  64  81
ENDBRANCH  38  39
ENDBRANCH  31  33
ENDBRANCH  30  31
ENDBRANCH  29  30
ENDBRANCH  28  29
ENDBRANCH  27  28
ENDBRANCH   1  27
TORSDOF 17
ENDMDL
