MODEL 1
REMARK VINA RESULT:     -10.2      0.000      0.000
REMARK SMILES C[C@@H]1CCC[C@H](NC(=O)N(C)CC(=O)OCCOCCOC(=O)c2ccc(-c3c4nc(c(-c5c(F)cccc5F)c5ccc([nH]5)c(-c5c(F)cccc5F)c5nc(c(-c6c(F)cccc6F)c6ccc3[nH]6)C=C5)C=C4)cc2)C1
REMARK SMILES IDX 17 1 16 2 15 3 13 4 14 5 12 6 10 7 11 8 8 9 7 10 9 12 6 13
REMARK SMILES IDX 1 14 2 15 3 16 78 17 4 18 5 19 18 20 19 21 20 22 21 23 22 24
REMARK SMILES IDX 23 25 24 26 25 27 77 28 26 29 76 30 27 31 28 32 29 33 70 34
REMARK SMILES IDX 30 35 75 36 69 37 71 38 31 39 74 40 68 41 67 42 32 44 58 45
REMARK SMILES IDX 41 46 57 47 42 48 45 49 56 50 72 51 43 52 44 53 55 55 73 56
REMARK SMILES IDX 46 57 33 58 34 59 39 60 35 61 36 62 38 63 40 64 37 65 59 66
REMARK SMILES IDX 60 67 65 68 61 69 62 70 64 71 66 72 63 73 47 74 48 75 53 76
REMARK SMILES IDX 49 77 50 78 52 79 54 80 51 81
REMARK H PARENT 7 11 71 43 45 54
REMARK Flexibility Score: inf
ROOT
ATOM      1  C   UNL A   1      41.017  20.694  27.097  1.00  0.00     0.202 C 
ENDROOT
BRANCH   1   2
ATOM      2  C   UNL A   1      40.225  21.998  26.946  1.00  0.00     0.261 C 
BRANCH   2   3
ATOM      3  O   UNL A   1      39.054  21.833  26.124  1.00  0.00    -0.462 OA
BRANCH   3   4
ATOM      4  C   UNL A   1      38.270  22.941  25.990  1.00  0.00     0.325 C 
ATOM      5  O   UNL A   1      38.268  23.889  26.770  1.00  0.00    -0.250 OA
BRANCH   4   6
ATOM      6  C   UNL A   1      37.373  22.918  24.747  1.00  0.00     0.243 C 
BRANCH   6   7
ATOM      7  N   UNL A   1      35.931  22.665  24.918  1.00  0.00    -0.317 N 
ATOM      8  C   UNL A   1      35.606  21.657  25.909  1.00  0.00     0.149 C 
BRANCH   7   9
ATOM      9  C   UNL A   1      35.070  23.381  24.139  1.00  0.00     0.317 C 
ATOM     10  N   UNL A   1      34.106  24.181  24.628  1.00  0.00    -0.335 N 
ATOM     11  H   UNL A   1      33.488  24.481  23.923  1.00  0.00     0.165 HD
ATOM     12  O   UNL A   1      35.140  23.356  22.905  1.00  0.00    -0.249 OA
BRANCH  10  13
ATOM     13  C   UNL A   1      33.741  24.718  25.935  1.00  0.00     0.084 C 
ATOM     14  C   UNL A   1      30.816  23.881  24.569  1.00  0.00     0.008 C 
ATOM     15  C   UNL A   1      31.141  24.478  25.939  1.00  0.00    -0.012 C 
ATOM     16  C   UNL A   1      31.039  26.007  25.918  1.00  0.00     0.003 C 
ATOM     17  C   UNL A   1      32.498  24.010  26.502  1.00  0.00     0.028 C 
ATOM     18  C   UNL A   1      32.226  26.665  25.224  1.00  0.00     0.002 C 
ATOM     19  C   UNL A   1      33.547  26.242  25.860  1.00  0.00     0.025 C 
ENDBRANCH  10  13
ENDBRANCH   7   9
ENDBRANCH   6   7
ENDBRANCH   4   6
ENDBRANCH   3   4
ENDBRANCH   2   3
ENDBRANCH   1   2
BRANCH   1  20
ATOM     20  O   UNL A   1      42.125  20.507  26.218  1.00  0.00    -0.374 OA
BRANCH  20  21
ATOM     21  C   UNL A   1      43.180  21.467  26.288  1.00  0.00     0.202 C 
BRANCH  21  22
ATOM     22  C   UNL A   1      43.681  22.035  24.953  1.00  0.00     0.261 C 
BRANCH  22  23
ATOM     23  O   UNL A   1      43.155  23.345  24.669  1.00  0.00    -0.460 OA
BRANCH  23  24
ATOM     24  C   UNL A   1      43.952  24.371  25.046  1.00  0.00     0.338 C 
ATOM     25  O   UNL A   1      45.071  24.641  24.626  1.00  0.00    -0.246 OA
BRANCH  24  26
ATOM     26  C   UNL A   1      43.229  25.272  25.959  1.00  0.00     0.060 A 
ATOM     27  C   UNL A   1      43.800  26.527  26.215  1.00  0.00     0.016 A 
ATOM     28  C   UNL A   1      42.069  24.872  26.624  1.00  0.00     0.016 A 
ATOM     29  C   UNL A   1      43.236  27.368  27.171  1.00  0.00     0.010 A 
ATOM     30  C   UNL A   1      41.508  25.715  27.590  1.00  0.00     0.010 A 
ATOM     31  C   UNL A   1      42.108  26.951  27.891  1.00  0.00    -0.014 A 
BRANCH  31  32
ATOM     32  C   UNL A   1      41.636  27.758  29.042  1.00  0.00     0.031 A 
ATOM     33  C   UNL A   1      42.354  27.651  30.358  1.00  0.00     0.074 A 
ATOM     34  C   UNL A   1      40.593  28.596  28.906  1.00  0.00     0.049 A 
ATOM     35  N   UNL A   1      42.097  28.247  31.494  1.00  0.00    -0.248 NA
ATOM     36  C   UNL A   1      43.516  26.749  30.400  1.00  0.00     0.031 C 
ATOM     37  C   UNL A   1      39.836  28.807  27.674  1.00  0.00     0.029 A 
ATOM     38  N   UNL A   1      39.987  29.419  29.821  1.00  0.00    -0.354 N 
ATOM     39  C   UNL A   1      43.058  27.789  32.387  1.00  0.00     0.074 A 
ATOM     40  C   UNL A   1      43.886  26.844  31.669  1.00  0.00     0.031 C 
ATOM     41  C   UNL A   1      38.855  29.694  27.913  1.00  0.00     0.029 A 
ATOM     42  C   UNL A   1      38.900  30.090  29.319  1.00  0.00     0.049 A 
ATOM     43  H   UNL A   1      40.302  29.519  30.748  1.00  0.00     0.167 HD
ATOM     44  C   UNL A   1      43.239  28.132  33.684  1.00  0.00     0.037 A 
ATOM     45  C   UNL A   1      38.028  30.914  29.931  1.00  0.00     0.037 A 
ATOM     46  C   UNL A   1      42.418  29.078  34.393  1.00  0.00     0.049 A 
ATOM     47  C   UNL A   1      38.215  31.237  31.389  1.00  0.00     0.074 A 
ATOM     48  C   UNL A   1      42.546  29.523  35.697  1.00  0.00     0.029 A 
ATOM     49  N   UNL A   1      41.309  29.716  33.858  1.00  0.00    -0.354 N 
ATOM     50  N   UNL A   1      39.151  30.830  32.212  1.00  0.00    -0.248 NA
ATOM     51  C   UNL A   1      37.225  32.134  32.003  1.00  0.00     0.031 C 
ATOM     52  C   UNL A   1      41.482  30.391  35.968  1.00  0.00     0.029 A 
ATOM     53  C   UNL A   1      40.722  30.525  34.817  1.00  0.00     0.049 A 
ATOM     54  H   UNL A   1      40.986  29.610  32.934  1.00  0.00     0.167 HD
ATOM     55  C   UNL A   1      38.876  31.434  33.433  1.00  0.00     0.074 A 
ATOM     56  C   UNL A   1      37.693  32.249  33.238  1.00  0.00     0.031 C 
ATOM     57  C   UNL A   1      39.543  31.326  34.608  1.00  0.00     0.037 A 
BRANCH  44  58
ATOM     58  C   UNL A   1      44.354  27.459  34.429  1.00  0.00     0.057 A 
ATOM     59  C   UNL A   1      45.632  28.025  34.522  1.00  0.00     0.134 A 
ATOM     60  C   UNL A   1      44.137  26.243  35.088  1.00  0.00     0.134 A 
ATOM     61  F   UNL A   1      45.910  29.182  33.904  1.00  0.00    -0.206 F 
ATOM     62  C   UNL A   1      46.660  27.392  35.224  1.00  0.00     0.040 A 
ATOM     63  C   UNL A   1      45.149  25.613  35.814  1.00  0.00     0.040 A 
ATOM     64  F   UNL A   1      42.934  25.648  35.044  1.00  0.00    -0.206 F 
ATOM     65  C   UNL A   1      46.419  26.185  35.878  1.00  0.00     0.006 A 
ENDBRANCH  44  58
BRANCH  45  66
ATOM     66  C   UNL A   1      36.887  31.480  29.168  1.00  0.00     0.057 A 
ATOM     67  C   UNL A   1      35.769  30.704  28.847  1.00  0.00     0.134 A 
ATOM     68  C   UNL A   1      36.892  32.814  28.739  1.00  0.00     0.134 A 
ATOM     69  F   UNL A   1      35.716  29.414  29.209  1.00  0.00    -0.206 F 
ATOM     70  C   UNL A   1      34.701  31.228  28.116  1.00  0.00     0.040 A 
ATOM     71  C   UNL A   1      35.822  33.358  28.029  1.00  0.00     0.040 A 
ATOM     72  F   UNL A   1      37.934  33.611  29.018  1.00  0.00    -0.206 F 
ATOM     73  C   UNL A   1      34.724  32.561  27.709  1.00  0.00     0.006 A 
ENDBRANCH  45  66
BRANCH  57  74
ATOM     74  C   UNL A   1      39.021  32.120  35.771  1.00  0.00     0.057 A 
ATOM     75  C   UNL A   1      38.203  31.542  36.750  1.00  0.00     0.134 A 
ATOM     76  C   UNL A   1      39.379  33.463  35.938  1.00  0.00     0.134 A 
ATOM     77  F   UNL A   1      37.814  30.262  36.642  1.00  0.00    -0.206 F 
ATOM     78  C   UNL A   1      37.746  32.277  37.844  1.00  0.00     0.040 A 
ATOM     79  C   UNL A   1      38.949  34.202  37.040  1.00  0.00     0.040 A 
ATOM     80  F   UNL A   1      40.168  34.075  35.041  1.00  0.00    -0.206 F 
ATOM     81  C   UNL A   1      38.125  33.610  37.996  1.00  0.00     0.006 A 
ENDBRANCH  57  74
ENDBRANCH  31  32
ENDBRANCH  24  26
ENDBRANCH  23  24
ENDBRANCH  22  23
ENDBRANCH  21  22
ENDBRANCH  20  21
ENDBRANCH   1  20
TORSDOF 17
ENDMDL
MODEL 2
REMARK VINA RESULT:     -10.1      1.182      2.248
REMARK SMILES C[C@@H]1CCC[C@H](NC(=O)N(C)CC(=O)OCCOCCOC(=O)c2ccc(-c3c4nc(c(-c5c(F)cccc5F)c5ccc([nH]5)c(-c5c(F)cccc5F)c5nc(c(-c6c(F)cccc6F)c6ccc3[nH]6)C=C5)C=C4)cc2)C1
REMARK SMILES IDX 17 1 16 2 15 3 13 4 14 5 12 6 10 7 11 8 8 9 7 10 9 12 6 13
REMARK SMILES IDX 1 14 2 15 3 16 78 17 4 18 5 19 18 20 19 21 20 22 21 23 22 24
REMARK SMILES IDX 23 25 24 26 25 27 77 28 26 29 76 30 27 31 28 32 29 33 70 34
REMARK SMILES IDX 30 35 75 36 69 37 71 38 31 39 74 40 68 41 67 42 32 44 58 45
REMARK SMILES IDX 41 46 57 47 42 48 45 49 56 50 72 51 43 52 44 53 55 55 73 56
REMARK SMILES IDX 46 57 33 58 34 59 39 60 35 61 36 62 38 63 40 64 37 65 59 66
REMARK SMILES IDX 60 67 65 68 61 69 62 70 64 71 66 72 63 73 47 74 48 75 53 76
REMARK SMILES IDX 49 77 50 78 52 79 54 80 51 81
REMARK H PARENT 7 11 71 43 45 54
REMARK Flexibility Score: inf
ROOT
ATOM      1  C   UNL A   1      43.674  19.813  25.388  1.00  0.00     0.202 C 
ENDROOT
BRANCH   1   2
ATOM      2  C   UNL A   1      42.504  19.080  26.054  1.00  0.00     0.261 C 
BRANCH   2   3
ATOM      3  O   UNL A   1      41.228  19.632  25.676  1.00  0.00    -0.462 OA
BRANCH   3   4
ATOM      4  C   UNL A   1      40.661  20.476  26.584  1.00  0.00     0.325 C 
ATOM      5  O   UNL A   1      40.696  20.313  27.800  1.00  0.00    -0.250 OA
BRANCH   4   6
ATOM      6  C   UNL A   1      39.965  21.688  25.952  1.00  0.00     0.243 C 
BRANCH   6   7
ATOM      7  N   UNL A   1      38.515  21.620  25.697  1.00  0.00    -0.317 N 
ATOM      8  C   UNL A   1      38.076  20.420  25.012  1.00  0.00     0.149 C 
BRANCH   7   9
ATOM      9  C   UNL A   1      37.753  22.672  26.115  1.00  0.00     0.317 C 
ATOM     10  N   UNL A   1      36.412  22.638  26.203  1.00  0.00    -0.335 N 
ATOM     11  H   UNL A   1      36.034  23.532  26.363  1.00  0.00     0.165 HD
ATOM     12  O   UNL A   1      38.265  23.741  26.470  1.00  0.00    -0.249 OA
BRANCH  10  13
ATOM     13  C   UNL A   1      35.374  21.615  26.122  1.00  0.00     0.084 C 
ATOM     14  C   UNL A   1      34.316  23.997  24.041  1.00  0.00     0.008 C 
ATOM     15  C   UNL A   1      33.702  22.643  24.400  1.00  0.00    -0.012 C 
ATOM     16  C   UNL A   1      32.679  22.777  25.533  1.00  0.00     0.003 C 
ATOM     17  C   UNL A   1      34.754  21.560  24.715  1.00  0.00     0.028 C 
ATOM     18  C   UNL A   1      33.335  22.968  26.896  1.00  0.00     0.002 C 
ATOM     19  C   UNL A   1      34.309  21.836  27.208  1.00  0.00     0.025 C 
ENDBRANCH  10  13
ENDBRANCH   7   9
ENDBRANCH   6   7
ENDBRANCH   4   6
ENDBRANCH   3   4
ENDBRANCH   2   3
ENDBRANCH   1   2
BRANCH   1  20
ATOM     20  O   UNL A   1      44.122  21.015  26.012  1.00  0.00    -0.374 OA
BRANCH  20  21
ATOM     21  C   UNL A   1      45.049  21.821  25.282  1.00  0.00     0.202 C 
BRANCH  21  22
ATOM     22  C   UNL A   1      44.485  22.602  24.088  1.00  0.00     0.261 C 
BRANCH  22  23
ATOM     23  O   UNL A   1      43.725  23.759  24.484  1.00  0.00    -0.460 OA
BRANCH  23  24
ATOM     24  C   UNL A   1      44.458  24.775  24.992  1.00  0.00     0.338 C 
ATOM     25  O   UNL A   1      45.586  25.121  24.661  1.00  0.00    -0.246 OA
BRANCH  24  26
ATOM     26  C   UNL A   1      43.652  25.566  25.937  1.00  0.00     0.060 A 
ATOM     27  C   UNL A   1      43.950  26.930  26.056  1.00  0.00     0.016 A 
ATOM     28  C   UNL A   1      42.688  24.976  26.757  1.00  0.00     0.016 A 
ATOM     29  C   UNL A   1      43.316  27.701  27.028  1.00  0.00     0.010 A 
ATOM     30  C   UNL A   1      42.058  25.750  27.738  1.00  0.00     0.010 A 
ATOM     31  C   UNL A   1      42.392  27.106  27.899  1.00  0.00    -0.014 A 
BRANCH  31  32
ATOM     32  C   UNL A   1      41.876  27.878  29.055  1.00  0.00     0.031 A 
ATOM     33  C   UNL A   1      42.585  27.786  30.377  1.00  0.00     0.074 A 
ATOM     34  C   UNL A   1      40.800  28.673  28.918  1.00  0.00     0.049 A 
ATOM     35  N   UNL A   1      42.292  28.357  31.517  1.00  0.00    -0.248 NA
ATOM     36  C   UNL A   1      43.784  26.933  30.420  1.00  0.00     0.031 C 
ATOM     37  C   UNL A   1      40.047  28.867  27.681  1.00  0.00     0.029 A 
ATOM     38  N   UNL A   1      40.151  29.459  29.837  1.00  0.00    -0.354 N 
ATOM     39  C   UNL A   1      43.263  27.928  32.415  1.00  0.00     0.074 A 
ATOM     40  C   UNL A   1      44.137  27.028  31.694  1.00  0.00     0.031 C 
ATOM     41  C   UNL A   1      39.027  29.709  27.920  1.00  0.00     0.029 A 
ATOM     42  C   UNL A   1      39.041  30.090  29.331  1.00  0.00     0.049 A 
ATOM     43  H   UNL A   1      40.452  29.561  30.768  1.00  0.00     0.167 HD
ATOM     44  C   UNL A   1      43.416  28.263  33.717  1.00  0.00     0.037 A 
ATOM     45  C   UNL A   1      38.129  30.869  29.944  1.00  0.00     0.037 A 
ATOM     46  C   UNL A   1      42.549  29.165  34.429  1.00  0.00     0.049 A 
ATOM     47  C   UNL A   1      38.288  31.181  31.408  1.00  0.00     0.074 A 
ATOM     48  C   UNL A   1      42.645  29.599  35.739  1.00  0.00     0.029 A 
ATOM     49  N   UNL A   1      41.420  29.762  33.890  1.00  0.00    -0.354 N 
ATOM     50  N   UNL A   1      39.232  30.804  32.235  1.00  0.00    -0.248 NA
ATOM     51  C   UNL A   1      37.255  32.028  32.021  1.00  0.00     0.031 C 
ATOM     52  C   UNL A   1      41.543  30.419  36.009  1.00  0.00     0.029 A 
ATOM     53  C   UNL A   1      40.790  30.534  34.852  1.00  0.00     0.049 A 
ATOM     54  H   UNL A   1      41.110  29.653  32.962  1.00  0.00     0.167 HD
ATOM     55  C   UNL A   1      38.920  31.381  33.460  1.00  0.00     0.074 A 
ATOM     56  C   UNL A   1      37.706  32.148  33.263  1.00  0.00     0.031 C 
ATOM     57  C   UNL A   1      39.580  31.287  34.641  1.00  0.00     0.037 A 
BRANCH  44  58
ATOM     58  C   UNL A   1      44.552  27.629  34.466  1.00  0.00     0.057 A 
ATOM     59  C   UNL A   1      44.421  26.386  35.098  1.00  0.00     0.134 A 
ATOM     60  C   UNL A   1      45.802  28.257  34.528  1.00  0.00     0.134 A 
ATOM     61  F   UNL A   1      43.247  25.737  35.086  1.00  0.00    -0.206 F 
ATOM     62  C   UNL A   1      45.487  25.802  35.786  1.00  0.00     0.040 A 
ATOM     63  C   UNL A   1      46.882  27.673  35.191  1.00  0.00     0.040 A 
ATOM     64  F   UNL A   1      45.997  29.447  33.939  1.00  0.00    -0.206 F 
ATOM     65  C   UNL A   1      46.724  26.443  35.829  1.00  0.00     0.006 A 
ENDBRANCH  44  58
BRANCH  45  66
ATOM     66  C   UNL A   1      36.973  31.395  29.177  1.00  0.00     0.057 A 
ATOM     67  C   UNL A   1      35.898  30.573  28.822  1.00  0.00     0.134 A 
ATOM     68  C   UNL A   1      36.919  32.736  28.775  1.00  0.00     0.134 A 
ATOM     69  F   UNL A   1      35.902  29.275  29.157  1.00  0.00    -0.206 F 
ATOM     70  C   UNL A   1      34.816  31.061  28.087  1.00  0.00     0.040 A 
ATOM     71  C   UNL A   1      35.834  33.243  28.060  1.00  0.00     0.040 A 
ATOM     72  F   UNL A   1      37.917  33.576  29.086  1.00  0.00    -0.206 F 
ATOM     73  C   UNL A   1      34.780  32.402  27.708  1.00  0.00     0.006 A 
ENDBRANCH  45  66
BRANCH  57  74
ATOM     74  C   UNL A   1      39.013  32.044  35.807  1.00  0.00     0.057 A 
ATOM     75  C   UNL A   1      39.261  33.411  35.989  1.00  0.00     0.134 A 
ATOM     76  C   UNL A   1      38.174  31.410  36.731  1.00  0.00     0.134 A 
ATOM     77  F   UNL A   1      40.067  34.074  35.146  1.00  0.00    -0.206 F 
ATOM     78  C   UNL A   1      38.707  34.115  37.059  1.00  0.00     0.040 A 
ATOM     79  C   UNL A   1      37.594  32.109  37.791  1.00  0.00     0.040 A 
ATOM     80  F   UNL A   1      37.889  30.105  36.609  1.00  0.00    -0.206 F 
ATOM     81  C   UNL A   1      37.864  33.465  37.959  1.00  0.00     0.006 A 
ENDBRANCH  57  74
ENDBRANCH  31  32
ENDBRANCH  24  26
ENDBRANCH  23  24
ENDBRANCH  22  23
ENDBRANCH  21  22
ENDBRANCH  20  21
ENDBRANCH   1  20
TORSDOF 17
ENDMDL
MODEL 3
REMARK VINA RESULT:     -10.0      4.819     10.016
REMARK SMILES C[C@@H]1CCC[C@H](NC(=O)N(C)CC(=O)OCCOCCOC(=O)c2ccc(-c3c4nc(c(-c5c(F)cccc5F)c5ccc([nH]5)c(-c5c(F)cccc5F)c5nc(c(-c6c(F)cccc6F)c6ccc3[nH]6)C=C5)C=C4)cc2)C1
REMARK SMILES IDX 17 1 16 2 15 3 13 4 14 5 12 6 10 7 11 8 8 9 7 10 9 12 6 13
REMARK SMILES IDX 1 14 2 15 3 16 78 17 4 18 5 19 18 20 19 21 20 22 21 23 22 24
REMARK SMILES IDX 23 25 24 26 25 27 77 28 26 29 76 30 27 31 28 32 29 33 70 34
REMARK SMILES IDX 30 35 75 36 69 37 71 38 31 39 74 40 68 41 67 42 32 44 58 45
REMARK SMILES IDX 41 46 57 47 42 48 45 49 56 50 72 51 43 52 44 53 55 55 73 56
REMARK SMILES IDX 46 57 33 58 34 59 39 60 35 61 36 62 38 63 40 64 37 65 59 66
REMARK SMILES IDX 60 67 65 68 61 69 62 70 64 71 66 72 63 73 47 74 48 75 53 76
REMARK SMILES IDX 49 77 50 78 52 79 54 80 51 81
REMARK H PARENT 7 11 71 43 45 54
REMARK Flexibility Score: inf
ROOT
ATOM      1  C   UNL A   1      34.616  33.525  28.436  1.00  0.00     0.202 C 
ENDROOT
BRANCH   1   2
ATOM      2  C   UNL A   1      35.052  32.191  27.818  1.00  0.00     0.261 C 
BRANCH   2   3
ATOM      3  O   UNL A   1      33.949  31.279  27.654  1.00  0.00    -0.462 OA
BRANCH   3   4
ATOM      4  C   UNL A   1      34.290  29.984  27.398  1.00  0.00     0.325 C 
ATOM      5  O   UNL A   1      35.001  29.297  28.126  1.00  0.00    -0.250 OA
BRANCH   4   6
ATOM      6  C   UNL A   1      33.691  29.430  26.100  1.00  0.00     0.243 C 
BRANCH   6   7
ATOM      7  N   UNL A   1      33.066  28.096  26.120  1.00  0.00    -0.317 N 
ATOM      8  C   UNL A   1      33.967  27.000  25.821  1.00  0.00     0.149 C 
BRANCH   7   9
ATOM      9  C   UNL A   1      31.733  28.030  26.404  1.00  0.00     0.317 C 
ATOM     10  N   UNL A   1      30.784  27.770  25.488  1.00  0.00    -0.335 N 
ATOM     11  H   UNL A   1      29.880  27.925  25.845  1.00  0.00     0.165 HD
ATOM     12  O   UNL A   1      31.308  28.186  27.555  1.00  0.00    -0.249 OA
BRANCH  10  13
ATOM     13  C   UNL A   1      30.750  27.318  24.101  1.00  0.00     0.084 C 
ATOM     14  C   UNL A   1      29.811  30.513  23.924  1.00  0.00     0.008 C 
ATOM     15  C   UNL A   1      30.004  29.469  22.822  1.00  0.00    -0.012 C 
ATOM     16  C   UNL A   1      28.687  28.764  22.485  1.00  0.00     0.003 C 
ATOM     17  C   UNL A   1      31.123  28.454  23.133  1.00  0.00     0.028 C 
ATOM     18  C   UNL A   1      28.281  27.741  23.540  1.00  0.00     0.002 C 
ATOM     19  C   UNL A   1      29.380  26.707  23.764  1.00  0.00     0.025 C 
ENDBRANCH  10  13
ENDBRANCH   7   9
ENDBRANCH   6   7
ENDBRANCH   4   6
ENDBRANCH   3   4
ENDBRANCH   2   3
ENDBRANCH   1   2
BRANCH   1  20
ATOM     20  O   UNL A   1      35.175  33.861  29.705  1.00  0.00    -0.374 OA
BRANCH  20  21
ATOM     21  C   UNL A   1      34.277  34.352  30.702  1.00  0.00     0.202 C 
BRANCH  21  22
ATOM     22  C   UNL A   1      34.430  33.765  32.111  1.00  0.00     0.261 C 
BRANCH  22  23
ATOM     23  O   UNL A   1      34.897  32.402  32.102  1.00  0.00    -0.460 OA
BRANCH  23  24
ATOM     24  C   UNL A   1      35.992  32.172  32.861  1.00  0.00     0.338 C 
ATOM     25  O   UNL A   1      36.139  32.412  34.053  1.00  0.00    -0.246 OA
BRANCH  24  26
ATOM     26  C   UNL A   1      36.997  31.417  32.094  1.00  0.00     0.060 A 
ATOM     27  C   UNL A   1      38.072  30.864  32.804  1.00  0.00     0.016 A 
ATOM     28  C   UNL A   1      36.945  31.325  30.702  1.00  0.00     0.016 A 
ATOM     29  C   UNL A   1      39.122  30.257  32.119  1.00  0.00     0.010 A 
ATOM     30  C   UNL A   1      38.005  30.721  30.016  1.00  0.00     0.010 A 
ATOM     31  C   UNL A   1      39.112  30.214  30.719  1.00  0.00    -0.014 A 
BRANCH  31  32
ATOM     32  C   UNL A   1      40.319  29.752  29.993  1.00  0.00     0.031 A 
ATOM     33  C   UNL A   1      41.448  30.716  29.755  1.00  0.00     0.074 A 
ATOM     34  C   UNL A   1      40.416  28.479  29.573  1.00  0.00     0.049 A 
ATOM     35  N   UNL A   1      42.580  30.528  29.127  1.00  0.00    -0.248 NA
ATOM     36  C   UNL A   1      41.276  32.074  30.296  1.00  0.00     0.031 C 
ATOM     37  C   UNL A   1      39.402  27.446  29.769  1.00  0.00     0.029 A 
ATOM     38  N   UNL A   1      41.418  27.843  28.884  1.00  0.00    -0.354 N 
ATOM     39  C   UNL A   1      43.253  31.744  29.190  1.00  0.00     0.074 A 
ATOM     40  C   UNL A   1      42.389  32.668  29.892  1.00  0.00     0.031 C 
ATOM     41  C   UNL A   1      39.827  26.305  29.201  1.00  0.00     0.029 A 
ATOM     42  C   UNL A   1      41.130  26.535  28.580  1.00  0.00     0.049 A 
ATOM     43  H   UNL A   1      42.263  28.281  28.633  1.00  0.00     0.167 HD
ATOM     44  C   UNL A   1      44.481  32.055  28.713  1.00  0.00     0.037 A 
ATOM     45  C   UNL A   1      41.828  25.635  27.862  1.00  0.00     0.037 A 
ATOM     46  C   UNL A   1      45.340  31.130  28.021  1.00  0.00     0.049 A 
ATOM     47  C   UNL A   1      43.166  26.022  27.292  1.00  0.00     0.074 A 
ATOM     48  C   UNL A   1      46.619  31.339  27.536  1.00  0.00     0.029 A 
ATOM     49  N   UNL A   1      45.000  29.823  27.707  1.00  0.00    -0.354 N 
ATOM     50  N   UNL A   1      43.809  27.160  27.393  1.00  0.00    -0.248 NA
ATOM     51  C   UNL A   1      43.876  24.999  26.510  1.00  0.00     0.031 C 
ATOM     52  C   UNL A   1      47.033  30.174  26.882  1.00  0.00     0.029 A 
ATOM     53  C   UNL A   1      46.031  29.223  27.004  1.00  0.00     0.049 A 
ATOM     54  H   UNL A   1      44.151  29.385  27.948  1.00  0.00     0.167 HD
ATOM     55  C   UNL A   1      45.005  26.985  26.706  1.00  0.00     0.074 A 
ATOM     56  C   UNL A   1      45.004  25.626  26.206  1.00  0.00     0.031 C 
ATOM     57  C   UNL A   1      46.013  27.870  26.509  1.00  0.00     0.037 A 
BRANCH  44  58
ATOM     58  C   UNL A   1      44.959  33.465  28.902  1.00  0.00     0.057 A 
ATOM     59  C   UNL A   1      45.738  33.844  30.002  1.00  0.00     0.134 A 
ATOM     60  C   UNL A   1      44.660  34.450  27.952  1.00  0.00     0.134 A 
ATOM     61  F   UNL A   1      46.049  32.952  30.954  1.00  0.00    -0.206 F 
ATOM     62  C   UNL A   1      46.183  35.158  30.163  1.00  0.00     0.040 A 
ATOM     63  C   UNL A   1      45.119  35.761  28.089  1.00  0.00     0.040 A 
ATOM     64  F   UNL A   1      43.922  34.154  26.871  1.00  0.00    -0.206 F 
ATOM     65  C   UNL A   1      45.879  36.120  29.202  1.00  0.00     0.006 A 
ENDBRANCH  44  58
BRANCH  45  66
ATOM     66  C   UNL A   1      41.266  24.281  27.627  1.00  0.00     0.057 A 
ATOM     67  C   UNL A   1      40.258  24.065  26.682  1.00  0.00     0.134 A 
ATOM     68  C   UNL A   1      41.723  23.171  28.349  1.00  0.00     0.134 A 
ATOM     69  F   UNL A   1      39.763  25.091  25.975  1.00  0.00    -0.206 F 
ATOM     70  C   UNL A   1      39.715  22.796  26.469  1.00  0.00     0.040 A 
ATOM     71  C   UNL A   1      41.206  21.894  28.132  1.00  0.00     0.040 A 
ATOM     72  F   UNL A   1      42.689  23.313  29.269  1.00  0.00    -0.206 F 
ATOM     73  C   UNL A   1      40.194  21.704  27.192  1.00  0.00     0.006 A 
ENDBRANCH  45  66
BRANCH  57  74
ATOM     74  C   UNL A   1      47.207  27.392  25.735  1.00  0.00     0.057 A 
ATOM     75  C   UNL A   1      47.296  27.550  24.346  1.00  0.00     0.134 A 
ATOM     76  C   UNL A   1      48.299  26.810  26.391  1.00  0.00     0.134 A 
ATOM     77  F   UNL A   1      46.279  28.089  23.656  1.00  0.00    -0.206 F 
ATOM     78  C   UNL A   1      48.422  27.130  23.635  1.00  0.00     0.040 A 
ATOM     79  C   UNL A   1      49.440  26.409  25.695  1.00  0.00     0.040 A 
ATOM     80  F   UNL A   1      48.281  26.638  27.721  1.00  0.00    -0.206 F 
ATOM     81  C   UNL A   1      49.501  26.565  24.312  1.00  0.00     0.006 A 
ENDBRANCH  57  74
ENDBRANCH  31  32
ENDBRANCH  24  26
ENDBRANCH  23  24
ENDBRANCH  22  23
ENDBRANCH  21  22
ENDBRANCH  20  21
ENDBRANCH   1  20
TORSDOF 17
ENDMDL
