MODEL 1
REMARK VINA RESULT:     -12.1      0.000      0.000
REMARK SMILES CS(=O)(=O)c1ccc(/C=C(/C(=O)OCCOCCOC(=O)c2ccc(-c3c4nc(c(-c5c(F)cccc5F)c5ccc([nH]5)c(-c5c(F)cccc5F)c5nc(c(-c6c(F)cccc6F)c6ccc3[nH]6)C=C5)C=C4)cc2)c2ccc(F)cc2)cc1
REMARK SMILES IDX 16 1 15 2 14 3 13 4 11 5 12 6 10 7 9 8 8 9 5 10 6 11 84 12
REMARK SMILES IDX 7 13 83 14 2 15 1 16 3 17 4 18 76 19 77 20 82 21 78 22 81 23
REMARK SMILES IDX 79 24 80 25 17 26 18 27 19 28 20 29 21 30 22 31 23 32 75 33
REMARK SMILES IDX 24 34 74 35 25 36 26 37 27 38 68 39 28 40 73 41 67 42 69 43
REMARK SMILES IDX 29 44 72 45 66 46 65 47 30 49 56 50 39 51 55 52 40 53 43 54
REMARK SMILES IDX 54 55 70 56 41 57 42 58 53 60 71 61 44 62 31 63 32 64 37 65
REMARK SMILES IDX 33 66 34 67 36 68 38 69 35 70 57 71 58 72 63 73 59 74 60 75
REMARK SMILES IDX 62 76 64 77 61 78 45 79 46 80 51 81 47 82 48 83 50 84 52 85
REMARK SMILES IDX 49 86
REMARK H PARENT 69 48 43 59
REMARK Flexibility Score: inf
ROOT
ATOM      1  O   UNL A   1      34.385  21.245  24.487  1.00  0.00    -0.374 OA
ENDROOT
BRANCH   1   2
ATOM      2  C   UNL A   1      33.096  20.758  24.854  1.00  0.00     0.202 C 
BRANCH   2   3
ATOM      3  C   UNL A   1      32.048  21.792  25.278  1.00  0.00     0.261 C 
BRANCH   3   4
ATOM      4  O   UNL A   1      32.658  23.014  25.731  1.00  0.00    -0.460 OA
BRANCH   4   5
ATOM      5  C   UNL A   1      31.814  23.852  26.385  1.00  0.00     0.338 C 
ATOM      6  O   UNL A   1      31.407  23.697  27.528  1.00  0.00    -0.246 OA
BRANCH   5   7
ATOM      7  C   UNL A   1      31.502  25.083  25.589  1.00  0.00     0.067 C 
ATOM      8  C   UNL A   1      30.713  25.009  24.490  1.00  0.00     0.024 C 
BRANCH   8   9
ATOM      9  C   UNL A   1      30.076  26.134  23.760  1.00  0.00    -0.025 A 
ATOM     10  C   UNL A   1      28.822  28.503  22.922  1.00  0.00     0.067 A 
ATOM     11  C   UNL A   1      30.168  28.285  22.625  1.00  0.00     0.021 A 
ATOM     12  C   UNL A   1      28.064  27.497  23.519  1.00  0.00     0.021 A 
ATOM     13  C   UNL A   1      30.778  27.089  23.014  1.00  0.00     0.009 A 
ATOM     14  C   UNL A   1      28.694  26.315  23.929  1.00  0.00     0.009 A 
BRANCH  10  15
ATOM     15  S   UNL A   1      28.133  30.116  22.642  1.00  0.00     0.175 S 
ATOM     16  C   UNL A   1      29.239  31.267  23.404  1.00  0.00     0.163 C 
ATOM     17  O   UNL A   1      26.881  30.182  23.374  1.00  0.00    -0.224 OA
ATOM     18  O   UNL A   1      28.174  30.333  21.209  1.00  0.00    -0.224 OA
ENDBRANCH  10  15
ENDBRANCH   8   9
BRANCH   7  19
ATOM     19  C   UNL A   1      32.036  26.346  26.141  1.00  0.00    -0.011 A 
ATOM     20  C   UNL A   1      33.365  26.709  25.861  1.00  0.00     0.012 A 
ATOM     21  C   UNL A   1      31.244  27.189  26.930  1.00  0.00     0.012 A 
ATOM     22  C   UNL A   1      33.890  27.904  26.350  1.00  0.00     0.040 A 
ATOM     23  C   UNL A   1      31.770  28.390  27.411  1.00  0.00     0.040 A 
ATOM     24  C   UNL A   1      33.085  28.735  27.117  1.00  0.00     0.123 A 
ATOM     25  F   UNL A   1      33.585  29.891  27.575  1.00  0.00    -0.207 F 
ENDBRANCH   7  19
ENDBRANCH   5   7
ENDBRANCH   4   5
ENDBRANCH   3   4
ENDBRANCH   2   3
ENDBRANCH   1   2
BRANCH   1  26
ATOM     26  C   UNL A   1      35.435  21.137  25.446  1.00  0.00     0.202 C 
BRANCH  26  27
ATOM     27  C   UNL A   1      36.752  20.495  25.000  1.00  0.00     0.261 C 
BRANCH  27  28
ATOM     28  O   UNL A   1      37.846  21.425  24.987  1.00  0.00    -0.460 OA
BRANCH  28  29
ATOM     29  C   UNL A   1      38.890  21.073  25.771  1.00  0.00     0.338 C 
ATOM     30  O   UNL A   1      39.439  19.980  25.840  1.00  0.00    -0.246 OA
BRANCH  29  31
ATOM     31  C   UNL A   1      39.426  22.268  26.441  1.00  0.00     0.060 A 
ATOM     32  C   UNL A   1      38.923  23.519  26.054  1.00  0.00     0.016 A 
ATOM     33  C   UNL A   1      40.446  22.169  27.388  1.00  0.00     0.016 A 
ATOM     34  C   UNL A   1      39.476  24.684  26.579  1.00  0.00     0.010 A 
ATOM     35  C   UNL A   1      41.009  23.337  27.902  1.00  0.00     0.010 A 
ATOM     36  C   UNL A   1      40.550  24.597  27.471  1.00  0.00    -0.014 A 
BRANCH  36  37
ATOM     37  C   UNL A   1      41.327  25.807  27.821  1.00  0.00     0.031 A 
ATOM     38  C   UNL A   1      40.636  26.898  28.589  1.00  0.00     0.074 A 
ATOM     39  C   UNL A   1      42.610  25.941  27.445  1.00  0.00     0.049 A 
ATOM     40  N   UNL A   1      41.054  28.102  28.880  1.00  0.00    -0.248 NA
ATOM     41  C   UNL A   1      39.284  26.591  29.086  1.00  0.00     0.031 C 
ATOM     42  C   UNL A   1      43.397  24.929  26.745  1.00  0.00     0.029 A 
ATOM     43  N   UNL A   1      43.467  27.002  27.585  1.00  0.00    -0.354 N 
ATOM     44  C   UNL A   1      40.010  28.702  29.575  1.00  0.00     0.074 A 
ATOM     45  C   UNL A   1      38.933  27.739  29.643  1.00  0.00     0.031 C 
ATOM     46  C   UNL A   1      44.619  25.429  26.492  1.00  0.00     0.029 A 
ATOM     47  C   UNL A   1      44.682  26.807  26.975  1.00  0.00     0.049 A 
ATOM     48  H   UNL A   1      43.234  27.824  28.074  1.00  0.00     0.167 HD
ATOM     49  C   UNL A   1      39.959  29.944  30.109  1.00  0.00     0.037 A 
ATOM     50  C   UNL A   1      45.709  27.660  26.801  1.00  0.00     0.037 A 
ATOM     51  C   UNL A   1      41.038  30.893  30.040  1.00  0.00     0.049 A 
ATOM     52  C   UNL A   1      45.603  29.061  27.342  1.00  0.00     0.074 A 
ATOM     53  C   UNL A   1      41.093  32.176  30.556  1.00  0.00     0.029 A 
ATOM     54  N   UNL A   1      42.251  30.660  29.409  1.00  0.00    -0.354 N 
ATOM     55  N   UNL A   1      44.617  29.623  27.999  1.00  0.00    -0.248 NA
ATOM     56  C   UNL A   1      46.752  29.949  27.115  1.00  0.00     0.031 C 
ATOM     57  C   UNL A   1      42.323  32.736  30.196  1.00  0.00     0.029 A 
ATOM     58  C   UNL A   1      43.054  31.782  29.506  1.00  0.00     0.049 A 
ATOM     59  H   UNL A   1      42.502  29.821  28.959  1.00  0.00     0.167 HD
ATOM     60  C   UNL A   1      45.041  30.912  28.300  1.00  0.00     0.074 A 
ATOM     61  C   UNL A   1      46.374  31.050  27.751  1.00  0.00     0.031 C 
ATOM     62  C   UNL A   1      44.390  31.891  28.974  1.00  0.00     0.037 A 
BRANCH  49  63
ATOM     63  C   UNL A   1      38.684  30.355  30.784  1.00  0.00     0.057 A 
ATOM     64  C   UNL A   1      37.644  30.986  30.089  1.00  0.00     0.134 A 
ATOM     65  C   UNL A   1      38.486  30.096  32.147  1.00  0.00     0.134 A 
ATOM     66  F   UNL A   1      37.777  31.278  28.786  1.00  0.00    -0.206 F 
ATOM     67  C   UNL A   1      36.462  31.364  30.729  1.00  0.00     0.040 A 
ATOM     68  C   UNL A   1      37.298  30.445  32.791  1.00  0.00     0.040 A 
ATOM     69  F   UNL A   1      39.440  29.494  32.873  1.00  0.00    -0.206 F 
ATOM     70  C   UNL A   1      36.285  31.087  32.083  1.00  0.00     0.006 A 
ENDBRANCH  49  63
BRANCH  50  71
ATOM     71  C   UNL A   1      46.922  27.223  26.065  1.00  0.00     0.057 A 
ATOM     72  C   UNL A   1      47.014  27.358  24.675  1.00  0.00     0.134 A 
ATOM     73  C   UNL A   1      48.011  26.644  26.730  1.00  0.00     0.134 A 
ATOM     74  F   UNL A   1      45.995  27.884  23.981  1.00  0.00    -0.206 F 
ATOM     75  C   UNL A   1      48.135  26.915  23.970  1.00  0.00     0.040 A 
ATOM     76  C   UNL A   1      49.149  26.221  26.040  1.00  0.00     0.040 A 
ATOM     77  F   UNL A   1      47.987  26.489  28.062  1.00  0.00    -0.206 F 
ATOM     78  C   UNL A   1      49.208  26.349  24.654  1.00  0.00     0.006 A 
ENDBRANCH  50  71
BRANCH  62  79
ATOM     79  C   UNL A   1      45.127  33.176  29.215  1.00  0.00     0.057 A 
ATOM     80  C   UNL A   1      45.983  33.349  30.309  1.00  0.00     0.134 A 
ATOM     81  C   UNL A   1      45.022  34.231  28.300  1.00  0.00     0.134 A 
ATOM     82  F   UNL A   1      46.119  32.380  31.227  1.00  0.00    -0.206 F 
ATOM     83  C   UNL A   1      46.698  34.534  30.492  1.00  0.00     0.040 A 
ATOM     84  C   UNL A   1      45.752  35.410  28.457  1.00  0.00     0.040 A 
ATOM     85  F   UNL A   1      44.226  34.125  27.225  1.00  0.00    -0.206 F 
ATOM     86  C   UNL A   1      46.590  35.565  29.560  1.00  0.00     0.006 A 
ENDBRANCH  62  79
ENDBRANCH  36  37
ENDBRANCH  29  31
ENDBRANCH  28  29
ENDBRANCH  27  28
ENDBRANCH  26  27
ENDBRANCH   1  26
TORSDOF 17
ENDMDL
MODEL 2
REMARK VINA RESULT:     -11.9      0.559      6.235
REMARK SMILES CS(=O)(=O)c1ccc(/C=C(/C(=O)OCCOCCOC(=O)c2ccc(-c3c4nc(c(-c5c(F)cccc5F)c5ccc([nH]5)c(-c5c(F)cccc5F)c5nc(c(-c6c(F)cccc6F)c6ccc3[nH]6)C=C5)C=C4)cc2)c2ccc(F)cc2)cc1
REMARK SMILES IDX 16 1 15 2 14 3 13 4 11 5 12 6 10 7 9 8 8 9 5 10 6 11 84 12
REMARK SMILES IDX 7 13 83 14 2 15 1 16 3 17 4 18 76 19 77 20 82 21 78 22 81 23
REMARK SMILES IDX 79 24 80 25 17 26 18 27 19 28 20 29 21 30 22 31 23 32 75 33
REMARK SMILES IDX 24 34 74 35 25 36 26 37 27 38 68 39 28 40 73 41 67 42 69 43
REMARK SMILES IDX 29 44 72 45 66 46 65 47 30 49 56 50 39 51 55 52 40 53 43 54
REMARK SMILES IDX 54 55 70 56 41 57 42 58 53 60 71 61 44 62 31 63 32 64 37 65
REMARK SMILES IDX 33 66 34 67 36 68 38 69 35 70 57 71 58 72 63 73 59 74 60 75
REMARK SMILES IDX 62 76 64 77 61 78 45 79 46 80 51 81 47 82 48 83 50 84 52 85
REMARK SMILES IDX 49 86
REMARK H PARENT 69 48 43 59
REMARK Flexibility Score: inf
ROOT
ATOM      1  O   UNL A   1      35.483  21.257  25.587  1.00  0.00    -0.374 OA
ENDROOT
BRANCH   1   2
ATOM      2  C   UNL A   1      34.061  21.347  25.626  1.00  0.00     0.202 C 
BRANCH   2   3
ATOM      3  C   UNL A   1      33.423  22.645  25.121  1.00  0.00     0.261 C 
BRANCH   3   4
ATOM      4  O   UNL A   1      33.396  23.658  26.143  1.00  0.00    -0.460 OA
BRANCH   4   5
ATOM      5  C   UNL A   1      32.154  24.118  26.442  1.00  0.00     0.338 C 
ATOM      6  O   UNL A   1      31.442  23.698  27.344  1.00  0.00    -0.246 OA
BRANCH   5   7
ATOM      7  C   UNL A   1      31.767  25.301  25.607  1.00  0.00     0.067 C 
ATOM      8  C   UNL A   1      30.975  25.144  24.519  1.00  0.00     0.024 C 
BRANCH   8   9
ATOM      9  C   UNL A   1      30.270  26.204  23.757  1.00  0.00    -0.025 A 
ATOM     10  C   UNL A   1      28.885  28.473  22.848  1.00  0.00     0.067 A 
ATOM     11  C   UNL A   1      30.234  28.308  22.533  1.00  0.00     0.021 A 
ATOM     12  C   UNL A   1      28.189  27.457  23.502  1.00  0.00     0.021 A 
ATOM     13  C   UNL A   1      30.910  27.161  22.957  1.00  0.00     0.009 A 
ATOM     14  C   UNL A   1      28.883  26.325  23.947  1.00  0.00     0.009 A 
BRANCH  10  15
ATOM     15  S   UNL A   1      28.112  30.038  22.516  1.00  0.00     0.175 S 
ATOM     16  C   UNL A   1      29.210  31.275  23.141  1.00  0.00     0.163 C 
ATOM     17  O   UNL A   1      26.903  30.099  23.317  1.00  0.00    -0.224 OA
ATOM     18  O   UNL A   1      28.060  30.168  21.074  1.00  0.00    -0.224 OA
ENDBRANCH  10  15
ENDBRANCH   8   9
BRANCH   7  19
ATOM     19  C   UNL A   1      32.232  26.610  26.110  1.00  0.00    -0.011 A 
ATOM     20  C   UNL A   1      31.377  27.375  26.924  1.00  0.00     0.012 A 
ATOM     21  C   UNL A   1      33.506  27.101  25.799  1.00  0.00     0.012 A 
ATOM     22  C   UNL A   1      31.795  28.604  27.431  1.00  0.00     0.040 A 
ATOM     23  C   UNL A   1      33.925  28.328  26.315  1.00  0.00     0.040 A 
ATOM     24  C   UNL A   1      33.068  29.067  27.124  1.00  0.00     0.123 A 
ATOM     25  F   UNL A   1      33.476  30.241  27.623  1.00  0.00    -0.207 F 
ENDBRANCH   7  19
ENDBRANCH   5   7
ENDBRANCH   4   5
ENDBRANCH   3   4
ENDBRANCH   2   3
ENDBRANCH   1   2
BRANCH   1  26
ATOM     26  C   UNL A   1      36.061  20.093  25.001  1.00  0.00     0.202 C 
BRANCH  26  27
ATOM     27  C   UNL A   1      37.589  19.975  24.991  1.00  0.00     0.261 C 
BRANCH  27  28
ATOM     28  O   UNL A   1      38.242  21.212  25.313  1.00  0.00    -0.460 OA
BRANCH  28  29
ATOM     29  C   UNL A   1      39.324  21.084  26.114  1.00  0.00     0.338 C 
ATOM     30  O   UNL A   1      40.013  20.086  26.284  1.00  0.00    -0.246 OA
BRANCH  29  31
ATOM     31  C   UNL A   1      39.695  22.400  26.654  1.00  0.00     0.060 A 
ATOM     32  C   UNL A   1      39.029  23.528  26.153  1.00  0.00     0.016 A 
ATOM     33  C   UNL A   1      40.720  22.533  27.592  1.00  0.00     0.016 A 
ATOM     34  C   UNL A   1      39.421  24.803  26.551  1.00  0.00     0.010 A 
ATOM     35  C   UNL A   1      41.121  23.812  27.980  1.00  0.00     0.010 A 
ATOM     36  C   UNL A   1      40.498  24.949  27.433  1.00  0.00    -0.014 A 
BRANCH  36  37
ATOM     37  C   UNL A   1      41.105  26.281  27.650  1.00  0.00     0.031 A 
ATOM     38  C   UNL A   1      42.518  26.501  27.189  1.00  0.00     0.074 A 
ATOM     39  C   UNL A   1      40.424  27.264  28.261  1.00  0.00     0.049 A 
ATOM     40  N   UNL A   1      43.311  27.520  27.396  1.00  0.00    -0.248 NA
ATOM     41  C   UNL A   1      43.122  25.418  26.395  1.00  0.00     0.031 C 
ATOM     42  C   UNL A   1      39.034  27.183  28.701  1.00  0.00     0.029 A 
ATOM     43  N   UNL A   1      40.826  28.520  28.634  1.00  0.00    -0.354 N 
ATOM     44  C   UNL A   1      44.511  27.192  26.778  1.00  0.00     0.074 A 
ATOM     45  C   UNL A   1      44.351  25.873  26.207  1.00  0.00     0.031 C 
ATOM     46  C   UNL A   1      38.703  28.334  29.312  1.00  0.00     0.029 A 
ATOM     47  C   UNL A   1      39.872  29.212  29.340  1.00  0.00     0.049 A 
ATOM     48  H   UNL A   1      41.712  28.891  28.419  1.00  0.00     0.167 HD
ATOM     49  C   UNL A   1      45.643  27.928  26.693  1.00  0.00     0.037 A 
ATOM     50  C   UNL A   1      39.951  30.403  29.963  1.00  0.00     0.037 A 
ATOM     51  C   UNL A   1      45.791  29.242  27.261  1.00  0.00     0.049 A 
ATOM     52  C   UNL A   1      41.243  31.174  29.917  1.00  0.00     0.074 A 
ATOM     53  C   UNL A   1      46.893  30.079  27.225  1.00  0.00     0.029 A 
ATOM     54  N   UNL A   1      44.804  29.907  27.972  1.00  0.00    -0.354 N 
ATOM     55  N   UNL A   1      42.374  30.862  29.330  1.00  0.00    -0.248 NA
ATOM     56  C   UNL A   1      41.273  32.464  30.622  1.00  0.00     0.031 C 
ATOM     57  C   UNL A   1      46.587  31.231  27.955  1.00  0.00     0.029 A 
ATOM     58  C   UNL A   1      45.277  31.136  28.397  1.00  0.00     0.049 A 
ATOM     59  H   UNL A   1      43.901  29.557  28.149  1.00  0.00     0.167 HD
ATOM     60  C   UNL A   1      43.233  31.930  29.558  1.00  0.00     0.074 A 
ATOM     61  C   UNL A   1      42.493  32.899  30.340  1.00  0.00     0.031 C 
ATOM     62  C   UNL A   1      44.515  32.098  29.154  1.00  0.00     0.037 A 
BRANCH  49  63
ATOM     63  C   UNL A   1      46.818  27.314  25.989  1.00  0.00     0.057 A 
ATOM     64  C   UNL A   1      47.774  26.549  26.669  1.00  0.00     0.134 A 
ATOM     65  C   UNL A   1      46.981  27.474  24.607  1.00  0.00     0.134 A 
ATOM     66  F   UNL A   1      47.685  26.372  27.996  1.00  0.00    -0.206 F 
ATOM     67  C   UNL A   1      48.863  25.983  26.003  1.00  0.00     0.040 A 
ATOM     68  C   UNL A   1      48.051  26.890  23.926  1.00  0.00     0.040 A 
ATOM     69  F   UNL A   1      46.101  28.194  23.895  1.00  0.00    -0.206 F 
ATOM     70  C   UNL A   1      48.999  26.148  24.627  1.00  0.00     0.006 A 
ENDBRANCH  49  63
BRANCH  50  71
ATOM     71  C   UNL A   1      38.779  30.934  30.704  1.00  0.00     0.057 A 
ATOM     72  C   UNL A   1      38.565  30.614  32.049  1.00  0.00     0.134 A 
ATOM     73  C   UNL A   1      37.834  31.761  30.081  1.00  0.00     0.134 A 
ATOM     74  F   UNL A   1      39.422  29.809  32.694  1.00  0.00    -0.206 F 
ATOM     75  C   UNL A   1      37.446  31.077  32.743  1.00  0.00     0.040 A 
ATOM     76  C   UNL A   1      36.725  32.253  30.769  1.00  0.00     0.040 A 
ATOM     77  F   UNL A   1      37.982  32.109  28.794  1.00  0.00    -0.206 F 
ATOM     78  C   UNL A   1      36.525  31.904  32.104  1.00  0.00     0.006 A 
ENDBRANCH  50  71
BRANCH  62  79
ATOM     79  C   UNL A   1      45.185  33.399  29.489  1.00  0.00     0.057 A 
ATOM     80  C   UNL A   1      45.088  34.522  28.658  1.00  0.00     0.134 A 
ATOM     81  C   UNL A   1      45.884  33.542  30.694  1.00  0.00     0.134 A 
ATOM     82  F   UNL A   1      44.442  34.446  27.485  1.00  0.00    -0.206 F 
ATOM     83  C   UNL A   1      45.677  35.738  29.009  1.00  0.00     0.040 A 
ATOM     84  C   UNL A   1      46.454  34.759  31.068  1.00  0.00     0.040 A 
ATOM     85  F   UNL A   1      46.004  32.507  31.540  1.00  0.00    -0.206 F 
ATOM     86  C   UNL A   1      46.354  35.861  30.220  1.00  0.00     0.006 A 
ENDBRANCH  62  79
ENDBRANCH  36  37
ENDBRANCH  29  31
ENDBRANCH  28  29
ENDBRANCH  27  28
ENDBRANCH  26  27
ENDBRANCH   1  26
TORSDOF 17
ENDMDL
MODEL 3
REMARK VINA RESULT:     -11.9      5.323      9.573
REMARK SMILES CS(=O)(=O)c1ccc(/C=C(/C(=O)OCCOCCOC(=O)c2ccc(-c3c4nc(c(-c5c(F)cccc5F)c5ccc([nH]5)c(-c5c(F)cccc5F)c5nc(c(-c6c(F)cccc6F)c6ccc3[nH]6)C=C5)C=C4)cc2)c2ccc(F)cc2)cc1
REMARK SMILES IDX 16 1 15 2 14 3 13 4 11 5 12 6 10 7 9 8 8 9 5 10 6 11 84 12
REMARK SMILES IDX 7 13 83 14 2 15 1 16 3 17 4 18 76 19 77 20 82 21 78 22 81 23
REMARK SMILES IDX 79 24 80 25 17 26 18 27 19 28 20 29 21 30 22 31 23 32 75 33
REMARK SMILES IDX 24 34 74 35 25 36 26 37 27 38 68 39 28 40 73 41 67 42 69 43
REMARK SMILES IDX 29 44 72 45 66 46 65 47 30 49 56 50 39 51 55 52 40 53 43 54
REMARK SMILES IDX 54 55 70 56 41 57 42 58 53 60 71 61 44 62 31 63 32 64 37 65
REMARK SMILES IDX 33 66 34 67 36 68 38 69 35 70 57 71 58 72 63 73 59 74 60 75
REMARK SMILES IDX 62 76 64 77 61 78 45 79 46 80 51 81 47 82 48 83 50 84 52 85
REMARK SMILES IDX 49 86
REMARK H PARENT 69 48 43 59
REMARK Flexibility Score: inf
ROOT
ATOM      1  O   UNL A   1      32.913  34.722  29.974  1.00  0.00    -0.374 OA
ENDROOT
BRANCH   1   2
ATOM      2  C   UNL A   1      33.196  35.638  31.031  1.00  0.00     0.202 C 
BRANCH   2   3
ATOM      3  C   UNL A   1      33.569  35.047  32.393  1.00  0.00     0.261 C 
BRANCH   3   4
ATOM      4  O   UNL A   1      34.940  34.611  32.427  1.00  0.00    -0.460 OA
BRANCH   4   5
ATOM      5  C   UNL A   1      35.098  33.263  32.464  1.00  0.00     0.338 C 
ATOM      6  O   UNL A   1      34.193  32.442  32.397  1.00  0.00    -0.246 OA
BRANCH   5   7
ATOM      7  C   UNL A   1      36.541  32.858  32.484  1.00  0.00     0.067 C 
ATOM      8  C   UNL A   1      36.987  31.951  33.386  1.00  0.00     0.024 C 
BRANCH   8   9
ATOM      9  C   UNL A   1      38.285  31.231  33.375  1.00  0.00    -0.025 A 
ATOM     10  C   UNL A   1      40.645  29.817  33.939  1.00  0.00     0.067 A 
ATOM     11  C   UNL A   1      39.611  29.194  33.240  1.00  0.00     0.021 A 
ATOM     12  C   UNL A   1      40.566  31.174  34.246  1.00  0.00     0.021 A 
ATOM     13  C   UNL A   1      38.452  29.912  32.931  1.00  0.00     0.009 A 
ATOM     14  C   UNL A   1      39.389  31.876  33.956  1.00  0.00     0.009 A 
BRANCH  10  15
ATOM     15  S   UNL A   1      41.995  28.827  34.534  1.00  0.00     0.175 S 
ATOM     16  C   UNL A   1      41.421  27.155  34.533  1.00  0.00     0.163 C 
ATOM     17  O   UNL A   1      42.222  29.198  35.919  1.00  0.00    -0.224 OA
ATOM     18  O   UNL A   1      43.050  28.941  33.547  1.00  0.00    -0.224 OA
ENDBRANCH  10  15
ENDBRANCH   8   9
BRANCH   7  19
ATOM     19  C   UNL A   1      37.378  33.443  31.416  1.00  0.00    -0.011 A 
ATOM     20  C   UNL A   1      38.405  34.339  31.763  1.00  0.00     0.012 A 
ATOM     21  C   UNL A   1      37.174  33.119  30.069  1.00  0.00     0.012 A 
ATOM     22  C   UNL A   1      39.224  34.891  30.780  1.00  0.00     0.040 A 
ATOM     23  C   UNL A   1      38.002  33.666  29.088  1.00  0.00     0.040 A 
ATOM     24  C   UNL A   1      39.017  34.545  29.451  1.00  0.00     0.123 A 
ATOM     25  F   UNL A   1      39.813  35.064  28.507  1.00  0.00    -0.207 F 
ENDBRANCH   7  19
ENDBRANCH   5   7
ENDBRANCH   4   5
ENDBRANCH   3   4
ENDBRANCH   2   3
ENDBRANCH   1   2
BRANCH   1  26
ATOM     26  C   UNL A   1      33.992  34.324  29.132  1.00  0.00     0.202 C 
BRANCH  26  27
ATOM     27  C   UNL A   1      33.746  33.184  28.138  1.00  0.00     0.261 C 
BRANCH  27  28
ATOM     28  O   UNL A   1      34.902  32.354  27.949  1.00  0.00    -0.460 OA
BRANCH  28  29
ATOM     29  C   UNL A   1      34.651  31.026  27.986  1.00  0.00     0.338 C 
ATOM     30  O   UNL A   1      33.587  30.460  27.762  1.00  0.00    -0.246 OA
BRANCH  29  31
ATOM     31  C   UNL A   1      35.912  30.292  28.169  1.00  0.00     0.060 A 
ATOM     32  C   UNL A   1      36.174  29.741  29.431  1.00  0.00     0.016 A 
ATOM     33  C   UNL A   1      36.849  30.199  27.139  1.00  0.00     0.016 A 
ATOM     34  C   UNL A   1      37.401  29.134  29.685  1.00  0.00     0.010 A 
ATOM     35  C   UNL A   1      38.083  29.603  27.398  1.00  0.00     0.010 A 
ATOM     36  C   UNL A   1      38.376  29.103  28.681  1.00  0.00    -0.014 A 
BRANCH  36  37
ATOM     37  C   UNL A   1      39.768  28.721  29.008  1.00  0.00     0.031 A 
ATOM     38  C   UNL A   1      40.652  29.745  29.661  1.00  0.00     0.074 A 
ATOM     39  C   UNL A   1      40.240  27.499  28.711  1.00  0.00     0.049 A 
ATOM     40  N   UNL A   1      41.935  29.700  29.907  1.00  0.00    -0.248 NA
ATOM     41  C   UNL A   1      39.999  30.995  30.085  1.00  0.00     0.031 C 
ATOM     42  C   UNL A   1      39.462  26.410  28.127  1.00  0.00     0.029 A 
ATOM     43  N   UNL A   1      41.502  26.981  28.844  1.00  0.00    -0.354 N 
ATOM     44  C   UNL A   1      42.247  30.921  30.493  1.00  0.00     0.074 A 
ATOM     45  C   UNL A   1      41.024  31.693  30.547  1.00  0.00     0.031 C 
ATOM     46  C   UNL A   1      40.272  25.356  27.927  1.00  0.00     0.029 A 
ATOM     47  C   UNL A   1      41.631  25.715  28.329  1.00  0.00     0.049 A 
ATOM     48  H   UNL A   1      42.246  27.471  29.266  1.00  0.00     0.167 HD
ATOM     49  C   UNL A   1      43.445  31.355  30.947  1.00  0.00     0.037 A 
ATOM     50  C   UNL A   1      42.729  24.952  28.172  1.00  0.00     0.037 A 
ATOM     51  C   UNL A   1      44.654  30.578  30.893  1.00  0.00     0.049 A 
ATOM     52  C   UNL A   1      44.065  25.483  28.620  1.00  0.00     0.074 A 
ATOM     53  C   UNL A   1      45.920  30.920  31.333  1.00  0.00     0.029 A 
ATOM     54  N   UNL A   1      44.744  29.300  30.360  1.00  0.00    -0.354 N 
ATOM     55  N   UNL A   1      44.354  26.635  29.175  1.00  0.00    -0.248 NA
ATOM     56  C   UNL A   1      45.229  24.608  28.417  1.00  0.00     0.031 C 
ATOM     57  C   UNL A   1      46.787  29.867  31.024  1.00  0.00     0.029 A 
ATOM     58  C   UNL A   1      46.049  28.848  30.442  1.00  0.00     0.049 A 
ATOM     59  H   UNL A   1      43.992  28.793  29.979  1.00  0.00     0.167 HD
ATOM     60  C   UNL A   1      45.721  26.609  29.425  1.00  0.00     0.074 A 
ATOM     61  C   UNL A   1      46.205  25.325  28.959  1.00  0.00     0.031 C 
ATOM     62  C   UNL A   1      46.505  27.556  29.994  1.00  0.00     0.037 A 
BRANCH  49  63
ATOM     63  C   UNL A   1      43.509  32.745  31.510  1.00  0.00     0.057 A 
ATOM     64  C   UNL A   1      43.580  32.986  32.888  1.00  0.00     0.134 A 
ATOM     65  C   UNL A   1      43.523  33.857  30.658  1.00  0.00     0.134 A 
ATOM     66  F   UNL A   1      43.554  31.965  33.759  1.00  0.00    -0.206 F 
ATOM     67  C   UNL A   1      43.639  34.283  33.400  1.00  0.00     0.040 A 
ATOM     68  C   UNL A   1      43.609  35.158  31.157  1.00  0.00     0.040 A 
ATOM     69  F   UNL A   1      43.459  33.698  29.328  1.00  0.00    -0.206 F 
ATOM     70  C   UNL A   1      43.660  35.373  32.533  1.00  0.00     0.006 A 
ENDBRANCH  49  63
BRANCH  50  71
ATOM     71  C   UNL A   1      42.619  23.609  27.546  1.00  0.00     0.057 A 
ATOM     72  C   UNL A   1      42.694  23.449  26.158  1.00  0.00     0.134 A 
ATOM     73  C   UNL A   1      42.420  22.457  28.318  1.00  0.00     0.134 A 
ATOM     74  F   UNL A   1      42.862  24.517  25.365  1.00  0.00    -0.206 F 
ATOM     75  C   UNL A   1      42.554  22.197  25.558  1.00  0.00     0.040 A 
ATOM     76  C   UNL A   1      42.305  21.196  27.733  1.00  0.00     0.040 A 
ATOM     77  F   UNL A   1      42.342  22.542  29.655  1.00  0.00    -0.206 F 
ATOM     78  C   UNL A   1      42.364  21.065  26.347  1.00  0.00     0.006 A 
ENDBRANCH  50  71
BRANCH  62  79
ATOM     79  C   UNL A   1      47.953  27.223  30.206  1.00  0.00     0.057 A 
ATOM     80  C   UNL A   1      48.943  27.584  29.284  1.00  0.00     0.134 A 
ATOM     81  C   UNL A   1      48.366  26.587  31.384  1.00  0.00     0.134 A 
ATOM     82  F   UNL A   1      48.612  28.186  28.132  1.00  0.00    -0.206 F 
ATOM     83  C   UNL A   1      50.291  27.309  29.520  1.00  0.00     0.040 A 
ATOM     84  C   UNL A   1      49.712  26.331  31.644  1.00  0.00     0.040 A 
ATOM     85  F   UNL A   1      47.468  26.225  32.313  1.00  0.00    -0.206 F 
ATOM     86  C   UNL A   1      50.680  26.689  30.706  1.00  0.00     0.006 A 
ENDBRANCH  62  79
ENDBRANCH  36  37
ENDBRANCH  29  31
ENDBRANCH  28  29
ENDBRANCH  27  28
ENDBRANCH  26  27
ENDBRANCH   1  26
TORSDOF 17
ENDMDL
