MODEL 1
REMARK VINA RESULT:     -12.4      0.000      0.000
REMARK SMILES CC(=O)Nc1cc(NC(C)=O)cc(C(=O)Nc2ccc(Br)cc2C(=O)OCCOCCOC(=O)c2ccc(-c3c4nc(c(-c5c(F)cccc5F)c5ccc([nH]5)c(-c5c(F)cccc5F)c5nc(c(-c6c(F)cccc6F)c6ccc3[nH]6)C=C5)C=C4)cc2)c1
REMARK SMILES IDX 28 1 27 2 26 3 24 4 25 5 23 6 17 7 18 8 19 9 22 10 20 11
REMARK SMILES IDX 21 12 16 13 14 14 15 15 13 17 5 18 6 19 89 20 7 21 12 22
REMARK SMILES IDX 4 23 1 24 2 25 3 26 8 28 9 29 10 31 11 32 29 33 30 34 31 35
REMARK SMILES IDX 32 36 33 37 34 38 35 39 36 40 88 41 37 42 87 43 38 44 39 45
REMARK SMILES IDX 40 46 81 47 41 48 86 49 80 50 82 51 42 52 85 53 79 54 78 55
REMARK SMILES IDX 43 57 69 58 52 59 68 60 53 61 56 62 67 63 83 64 54 65 55 66
REMARK SMILES IDX 66 68 84 69 57 70 44 71 45 72 50 73 46 74 47 75 49 76 51 77
REMARK SMILES IDX 48 78 70 79 71 80 76 81 72 82 73 83 75 84 77 85 74 86 58 87
REMARK SMILES IDX 59 88 64 89 60 90 61 91 63 92 65 93 62 94
REMARK H PARENT 16 16 4 27 8 30 82 56 56 67
REMARK Flexibility Score: inf
ROOT
ATOM      1  C   UNL A   1      35.251  24.438  25.368  1.00  0.00     0.202 C 
ENDROOT
BRANCH   1   2
ATOM      2  C   UNL A   1      33.955  25.093  25.851  1.00  0.00     0.261 C 
BRANCH   2   3
ATOM      3  O   UNL A   1      33.742  26.430  25.360  1.00  0.00    -0.460 OA
BRANCH   3   4
ATOM      4  C   UNL A   1      32.775  27.111  26.024  1.00  0.00     0.340 C 
ATOM      5  O   UNL A   1      32.946  27.814  27.010  1.00  0.00    -0.246 OA
BRANCH   4   6
ATOM      6  C   UNL A   1      31.459  27.054  25.341  1.00  0.00     0.084 A 
ATOM      7  C   UNL A   1      30.444  26.095  25.521  1.00  0.00     0.056 A 
ATOM      8  C   UNL A   1      29.321  26.155  24.669  1.00  0.00     0.028 A 
ATOM      9  C   UNL A   1      29.150  27.195  23.750  1.00  0.00     0.018 A 
ATOM     10  C   UNL A   1      31.273  28.102  24.411  1.00  0.00     0.033 A 
ATOM     11  C   UNL A   1      30.121  28.177  23.640  1.00  0.00     0.018 A 
ATOM     12  Br  UNL A   1      29.876  29.621  22.449  1.00  0.00    -0.051 Br
BRANCH   7  13
ATOM     13  N   UNL A   1      30.350  25.080  26.502  1.00  0.00    -0.321 N 
ATOM     14  C   UNL A   1      30.479  23.709  26.476  1.00  0.00     0.255 C 
ATOM     15  O   UNL A   1      30.177  23.062  27.478  1.00  0.00    -0.269 OA
ATOM     16  H   UNL A   1      30.148  25.431  27.400  1.00  0.00     0.170 HD
BRANCH  14  17
ATOM     17  C   UNL A   1      31.025  22.983  25.308  1.00  0.00     0.044 A 
ATOM     18  C   UNL A   1      32.361  21.193  24.410  1.00  0.00     0.044 A 
ATOM     19  C   UNL A   1      32.489  21.930  23.217  1.00  0.00     0.052 A 
ATOM     20  C   UNL A   1      31.546  21.691  25.421  1.00  0.00     0.040 A 
ATOM     21  C   UNL A   1      31.838  23.155  23.039  1.00  0.00     0.044 A 
ATOM     22  C   UNL A   1      31.098  23.677  24.096  1.00  0.00     0.040 A 
BRANCH  18  23
ATOM     23  N   UNL A   1      33.234  20.098  24.567  1.00  0.00    -0.326 N 
ATOM     24  C   UNL A   1      32.388  18.394  22.946  1.00  0.00     0.114 C 
ATOM     25  C   UNL A   1      33.225  18.810  24.120  1.00  0.00     0.221 C 
ATOM     26  O   UNL A   1      33.950  17.984  24.681  1.00  0.00    -0.275 OA
ATOM     27  H   UNL A   1      34.021  20.308  25.120  1.00  0.00     0.169 HD
ENDBRANCH  18  23
BRANCH  21  28
ATOM     28  N   UNL A   1      31.940  23.953  21.879  1.00  0.00    -0.326 N 
ATOM     29  C   UNL A   1      32.905  24.901  21.595  1.00  0.00     0.221 C 
ATOM     30  H   UNL A   1      31.245  23.820  21.195  1.00  0.00     0.169 HD
ATOM     31  C   UNL A   1      32.697  25.576  20.261  1.00  0.00     0.114 C 
ATOM     32  O   UNL A   1      33.851  25.216  22.308  1.00  0.00    -0.275 OA
ENDBRANCH  21  28
ENDBRANCH  14  17
ENDBRANCH   7  13
ENDBRANCH   4   6
ENDBRANCH   3   4
ENDBRANCH   2   3
ENDBRANCH   1   2
BRANCH   1  33
ATOM     33  O   UNL A   1      35.214  23.072  24.976  1.00  0.00    -0.374 OA
BRANCH  33  34
ATOM     34  C   UNL A   1      35.669  22.084  25.893  1.00  0.00     0.202 C 
BRANCH  34  35
ATOM     35  C   UNL A   1      36.608  20.988  25.375  1.00  0.00     0.261 C 
BRANCH  35  36
ATOM     36  O   UNL A   1      37.886  21.477  24.924  1.00  0.00    -0.460 OA
BRANCH  36  37
ATOM     37  C   UNL A   1      38.916  21.192  25.755  1.00  0.00     0.338 C 
ATOM     38  O   UNL A   1      39.526  20.137  25.849  1.00  0.00    -0.246 OA
BRANCH  37  39
ATOM     39  C   UNL A   1      39.344  22.387  26.501  1.00  0.00     0.060 A 
ATOM     40  C   UNL A   1      38.797  23.623  26.129  1.00  0.00     0.016 A 
ATOM     41  C   UNL A   1      40.407  22.320  27.402  1.00  0.00     0.016 A 
ATOM     42  C   UNL A   1      39.357  24.804  26.612  1.00  0.00     0.010 A 
ATOM     43  C   UNL A   1      40.975  23.508  27.876  1.00  0.00     0.010 A 
ATOM     44  C   UNL A   1      40.483  24.753  27.443  1.00  0.00    -0.014 A 
BRANCH  44  45
ATOM     45  C   UNL A   1      41.254  25.993  27.701  1.00  0.00     0.031 A 
ATOM     46  C   UNL A   1      40.602  27.105  28.479  1.00  0.00     0.074 A 
ATOM     47  C   UNL A   1      42.525  26.115  27.286  1.00  0.00     0.049 A 
ATOM     48  N   UNL A   1      41.069  28.287  28.790  1.00  0.00    -0.248 NA
ATOM     49  C   UNL A   1      39.238  26.848  28.973  1.00  0.00     0.031 C 
ATOM     50  C   UNL A   1      43.281  25.094  26.565  1.00  0.00     0.029 A 
ATOM     51  N   UNL A   1      43.403  27.162  27.412  1.00  0.00    -0.354 N 
ATOM     52  C   UNL A   1      40.060  28.916  29.510  1.00  0.00     0.074 A 
ATOM     53  C   UNL A   1      38.945  27.995  29.570  1.00  0.00     0.031 C 
ATOM     54  C   UNL A   1      44.512  25.568  26.304  1.00  0.00     0.029 A 
ATOM     55  C   UNL A   1      44.617  26.934  26.815  1.00  0.00     0.049 A 
ATOM     56  H   UNL A   1      43.183  27.997  27.887  1.00  0.00     0.167 HD
ATOM     57  C   UNL A   1      40.064  30.145  30.077  1.00  0.00     0.037 A 
ATOM     58  C   UNL A   1      45.682  27.747  26.678  1.00  0.00     0.037 A 
ATOM     59  C   UNL A   1      41.171  31.063  30.019  1.00  0.00     0.049 A 
ATOM     60  C   UNL A   1      45.636  29.136  27.255  1.00  0.00     0.074 A 
ATOM     61  C   UNL A   1      41.270  32.332  30.561  1.00  0.00     0.029 A 
ATOM     62  N   UNL A   1      42.372  30.806  29.377  1.00  0.00    -0.354 N 
ATOM     63  N   UNL A   1      44.680  29.718  27.937  1.00  0.00    -0.248 NA
ATOM     64  C   UNL A   1      46.820  29.982  27.041  1.00  0.00     0.031 C 
ATOM     65  C   UNL A   1      42.520  32.858  30.217  1.00  0.00     0.029 A 
ATOM     66  C   UNL A   1      43.213  31.900  29.495  1.00  0.00     0.049 A 
ATOM     67  H   UNL A   1      42.594  29.970  28.907  1.00  0.00     0.167 HD
ATOM     68  C   UNL A   1      45.154  30.984  28.256  1.00  0.00     0.074 A 
ATOM     69  C   UNL A   1      46.488  31.084  27.700  1.00  0.00     0.031 C 
ATOM     70  C   UNL A   1      44.542  31.976  28.947  1.00  0.00     0.037 A 
BRANCH  57  71
ATOM     71  C   UNL A   1      38.821  30.576  30.795  1.00  0.00     0.057 A 
ATOM     72  C   UNL A   1      37.791  31.261  30.138  1.00  0.00     0.134 A 
ATOM     73  C   UNL A   1      38.638  30.279  32.151  1.00  0.00     0.134 A 
ATOM     74  F   UNL A   1      37.912  31.589  28.842  1.00  0.00    -0.206 F 
ATOM     75  C   UNL A   1      36.630  31.651  30.808  1.00  0.00     0.040 A 
ATOM     76  C   UNL A   1      37.473  30.644  32.828  1.00  0.00     0.040 A 
ATOM     77  F   UNL A   1      39.586  29.623  32.838  1.00  0.00    -0.206 F 
ATOM     78  C   UNL A   1      36.467  31.337  32.156  1.00  0.00     0.006 A 
ENDBRANCH  57  71
BRANCH  58  79
ATOM     79  C   UNL A   1      46.886  27.276  25.949  1.00  0.00     0.057 A 
ATOM     80  C   UNL A   1      47.033  27.497  24.575  1.00  0.00     0.134 A 
ATOM     81  C   UNL A   1      47.904  26.573  26.603  1.00  0.00     0.134 A 
ATOM     82  F   UNL A   1      46.079  28.144  23.890  1.00  0.00    -0.206 F 
ATOM     83  C   UNL A   1      48.142  27.021  23.873  1.00  0.00     0.040 A 
ATOM     84  C   UNL A   1      49.029  26.111  25.919  1.00  0.00     0.040 A 
ATOM     85  F   UNL A   1      47.820  26.326  27.919  1.00  0.00    -0.206 F 
ATOM     86  C   UNL A   1      49.146  26.330  24.547  1.00  0.00     0.006 A 
ENDBRANCH  58  79
BRANCH  70  87
ATOM     87  C   UNL A   1      45.321  33.237  29.175  1.00  0.00     0.057 A 
ATOM     88  C   UNL A   1      46.169  33.392  30.277  1.00  0.00     0.134 A 
ATOM     89  C   UNL A   1      45.251  34.292  28.256  1.00  0.00     0.134 A 
ATOM     90  F   UNL A   1      46.270  32.422  31.199  1.00  0.00    -0.206 F 
ATOM     91  C   UNL A   1      46.909  34.561  30.469  1.00  0.00     0.040 A 
ATOM     92  C   UNL A   1      46.001  35.457  28.425  1.00  0.00     0.040 A 
ATOM     93  F   UNL A   1      44.463  34.202  27.175  1.00  0.00    -0.206 F 
ATOM     94  C   UNL A   1      46.829  35.595  29.537  1.00  0.00     0.006 A 
ENDBRANCH  70  87
ENDBRANCH  44  45
ENDBRANCH  37  39
ENDBRANCH  36  37
ENDBRANCH  35  36
ENDBRANCH  34  35
ENDBRANCH  33  34
ENDBRANCH   1  33
TORSDOF 18
ENDMDL
MODEL 2
REMARK VINA RESULT:     -12.4      1.366      6.645
REMARK SMILES CC(=O)Nc1cc(NC(C)=O)cc(C(=O)Nc2ccc(Br)cc2C(=O)OCCOCCOC(=O)c2ccc(-c3c4nc(c(-c5c(F)cccc5F)c5ccc([nH]5)c(-c5c(F)cccc5F)c5nc(c(-c6c(F)cccc6F)c6ccc3[nH]6)C=C5)C=C4)cc2)c1
REMARK SMILES IDX 28 1 27 2 26 3 24 4 25 5 23 6 17 7 18 8 19 9 22 10 20 11
REMARK SMILES IDX 21 12 16 13 14 14 15 15 13 17 5 18 6 19 89 20 7 21 12 22
REMARK SMILES IDX 4 23 1 24 2 25 3 26 8 28 9 29 10 31 11 32 29 33 30 34 31 35
REMARK SMILES IDX 32 36 33 37 34 38 35 39 36 40 88 41 37 42 87 43 38 44 39 45
REMARK SMILES IDX 40 46 81 47 41 48 86 49 80 50 82 51 42 52 85 53 79 54 78 55
REMARK SMILES IDX 43 57 69 58 52 59 68 60 53 61 56 62 67 63 83 64 54 65 55 66
REMARK SMILES IDX 66 68 84 69 57 70 44 71 45 72 50 73 46 74 47 75 49 76 51 77
REMARK SMILES IDX 48 78 70 79 71 80 76 81 72 82 73 83 75 84 77 85 74 86 58 87
REMARK SMILES IDX 59 88 64 89 60 90 61 91 63 92 65 93 62 94
REMARK H PARENT 16 16 4 27 8 30 82 56 56 67
REMARK Flexibility Score: inf
ROOT
ATOM      1  C   UNL A   1      37.047  21.978  24.426  1.00  0.00     0.202 C 
ENDROOT
BRANCH   1   2
ATOM      2  C   UNL A   1      36.935  23.425  24.912  1.00  0.00     0.261 C 
BRANCH   2   3
ATOM      3  O   UNL A   1      35.791  24.139  24.408  1.00  0.00    -0.460 OA
BRANCH   3   4
ATOM      4  C   UNL A   1      34.783  24.265  25.307  1.00  0.00     0.340 C 
ATOM      5  O   UNL A   1      34.669  23.629  26.345  1.00  0.00    -0.246 OA
BRANCH   4   6
ATOM      6  C   UNL A   1      33.870  25.391  24.993  1.00  0.00     0.084 A 
ATOM      7  C   UNL A   1      33.344  25.738  23.733  1.00  0.00     0.056 A 
ATOM      8  C   UNL A   1      32.598  26.931  23.637  1.00  0.00     0.028 A 
ATOM      9  C   UNL A   1      32.281  27.695  24.765  1.00  0.00     0.018 A 
ATOM     10  C   UNL A   1      33.541  26.169  26.126  1.00  0.00     0.033 A 
ATOM     11  C   UNL A   1      32.740  27.297  26.011  1.00  0.00     0.018 A 
ATOM     12  Br  UNL A   1      32.269  28.282  27.552  1.00  0.00    -0.051 Br
BRANCH   7  13
ATOM     13  N   UNL A   1      33.403  25.015  22.520  1.00  0.00    -0.321 N 
ATOM     14  C   UNL A   1      33.265  23.684  22.192  1.00  0.00     0.255 C 
ATOM     15  O   UNL A   1      33.533  23.321  21.047  1.00  0.00    -0.269 OA
ATOM     16  H   UNL A   1      33.582  25.587  21.739  1.00  0.00     0.170 HD
BRANCH  14  17
ATOM     17  C   UNL A   1      32.747  22.678  23.145  1.00  0.00     0.044 A 
ATOM     18  C   UNL A   1      31.320  22.109  24.998  1.00  0.00     0.044 A 
ATOM     19  C   UNL A   1      32.156  21.008  25.263  1.00  0.00     0.052 A 
ATOM     20  C   UNL A   1      31.574  22.889  23.876  1.00  0.00     0.040 A 
ATOM     21  C   UNL A   1      33.244  20.698  24.440  1.00  0.00     0.044 A 
ATOM     22  C   UNL A   1      33.533  21.543  23.371  1.00  0.00     0.040 A 
BRANCH  18  23
ATOM     23  N   UNL A   1      30.403  22.458  26.011  1.00  0.00    -0.326 N 
ATOM     24  C   UNL A   1      30.162  24.936  25.801  1.00  0.00     0.114 C 
ATOM     25  C   UNL A   1      29.984  23.642  26.539  1.00  0.00     0.221 C 
ATOM     26  O   UNL A   1      29.418  23.634  27.635  1.00  0.00    -0.275 OA
ATOM     27  H   UNL A   1      29.973  21.676  26.428  1.00  0.00     0.169 HD
ENDBRANCH  18  23
BRANCH  21  28
ATOM     28  N   UNL A   1      34.132  19.624  24.658  1.00  0.00    -0.326 N 
ATOM     29  C   UNL A   1      33.984  18.315  24.238  1.00  0.00     0.221 C 
ATOM     30  H   UNL A   1      34.949  19.829  25.168  1.00  0.00     0.169 HD
ATOM     31  C   UNL A   1      35.128  17.425  24.661  1.00  0.00     0.114 C 
ATOM     32  O   UNL A   1      33.048  17.855  23.594  1.00  0.00    -0.275 OA
ENDBRANCH  21  28
ENDBRANCH  14  17
ENDBRANCH   7  13
ENDBRANCH   4   6
ENDBRANCH   3   4
ENDBRANCH   2   3
ENDBRANCH   1   2
BRANCH   1  33
ATOM     33  O   UNL A   1      37.219  20.950  25.391  1.00  0.00    -0.374 OA
BRANCH  33  34
ATOM     34  C   UNL A   1      37.750  19.699  24.972  1.00  0.00     0.202 C 
BRANCH  34  35
ATOM     35  C   UNL A   1      39.048  19.204  25.623  1.00  0.00     0.261 C 
BRANCH  35  36
ATOM     36  O   UNL A   1      40.123  20.163  25.586  1.00  0.00    -0.460 OA
BRANCH  36  37
ATOM     37  C   UNL A   1      40.862  20.214  26.720  1.00  0.00     0.338 C 
ATOM     38  O   UNL A   1      41.534  19.319  27.210  1.00  0.00    -0.246 OA
BRANCH  37  39
ATOM     39  C   UNL A   1      40.880  21.574  27.282  1.00  0.00     0.060 A 
ATOM     40  C   UNL A   1      40.218  22.586  26.573  1.00  0.00     0.016 A 
ATOM     41  C   UNL A   1      41.699  21.884  28.368  1.00  0.00     0.016 A 
ATOM     42  C   UNL A   1      40.425  23.922  26.910  1.00  0.00     0.010 A 
ATOM     43  C   UNL A   1      41.915  23.226  28.698  1.00  0.00     0.010 A 
ATOM     44  C   UNL A   1      41.318  24.249  27.939  1.00  0.00    -0.014 A 
BRANCH  44  45
ATOM     45  C   UNL A   1      41.768  25.654  28.090  1.00  0.00     0.031 A 
ATOM     46  C   UNL A   1      43.109  26.052  27.532  1.00  0.00     0.074 A 
ATOM     47  C   UNL A   1      40.984  26.571  28.680  1.00  0.00     0.049 A 
ATOM     48  N   UNL A   1      43.719  27.208  27.580  1.00  0.00    -0.248 NA
ATOM     49  C   UNL A   1      43.861  25.003  26.823  1.00  0.00     0.031 C 
ATOM     50  C   UNL A   1      39.649  26.322  29.219  1.00  0.00     0.029 A 
ATOM     51  N   UNL A   1      41.205  27.903  28.924  1.00  0.00    -0.354 N 
ATOM     52  C   UNL A   1      44.926  27.027  26.914  1.00  0.00     0.074 A 
ATOM     53  C   UNL A   1      44.973  25.644  26.491  1.00  0.00     0.031 C 
ATOM     54  C   UNL A   1      39.171  27.465  29.741  1.00  0.00     0.029 A 
ATOM     55  C   UNL A   1      40.178  28.516  29.597  1.00  0.00     0.049 A 
ATOM     56  H   UNL A   1      42.024  28.374  28.644  1.00  0.00     0.167 HD
ATOM     57  C   UNL A   1      45.902  27.932  26.669  1.00  0.00     0.037 A 
ATOM     58  C   UNL A   1      40.074  29.776  30.061  1.00  0.00     0.037 A 
ATOM     59  C   UNL A   1      45.859  29.308  27.089  1.00  0.00     0.049 A 
ATOM     60  C   UNL A   1      41.205  30.744  29.839  1.00  0.00     0.074 A 
ATOM     61  C   UNL A   1      46.800  30.301  26.890  1.00  0.00     0.029 A 
ATOM     62  N   UNL A   1      44.813  29.881  27.795  1.00  0.00    -0.354 N 
ATOM     63  N   UNL A   1      42.337  30.564  29.205  1.00  0.00    -0.248 NA
ATOM     64  C   UNL A   1      41.040  32.093  30.401  1.00  0.00     0.031 C 
ATOM     65  C   UNL A   1      46.340  31.470  27.506  1.00  0.00     0.029 A 
ATOM     66  C   UNL A   1      45.093  31.212  28.054  1.00  0.00     0.049 A 
ATOM     67  H   UNL A   1      43.993  29.412  28.071  1.00  0.00     0.167 HD
ATOM     68  C   UNL A   1      43.007  31.779  29.267  1.00  0.00     0.074 A 
ATOM     69  C   UNL A   1      42.151  32.693  29.994  1.00  0.00     0.031 C 
ATOM     70  C   UNL A   1      44.223  32.110  28.767  1.00  0.00     0.037 A 
BRANCH  57  71
ATOM     71  C   UNL A   1      47.114  27.454  25.928  1.00  0.00     0.057 A 
ATOM     72  C   UNL A   1      48.208  26.885  26.593  1.00  0.00     0.134 A 
ATOM     73  C   UNL A   1      47.177  27.536  24.531  1.00  0.00     0.134 A 
ATOM     74  F   UNL A   1      48.215  26.792  27.931  1.00  0.00    -0.206 F 
ATOM     75  C   UNL A   1      49.330  26.431  25.896  1.00  0.00     0.040 A 
ATOM     76  C   UNL A   1      48.283  27.067  23.822  1.00  0.00     0.040 A 
ATOM     77  F   UNL A   1      46.161  28.068  23.834  1.00  0.00    -0.206 F 
ATOM     78  C   UNL A   1      49.367  26.516  24.506  1.00  0.00     0.006 A 
ENDBRANCH  57  71
BRANCH  58  79
ATOM     79  C   UNL A   1      38.858  30.197  30.799  1.00  0.00     0.057 A 
ATOM     80  C   UNL A   1      38.701  29.912  32.160  1.00  0.00     0.134 A 
ATOM     81  C   UNL A   1      37.813  30.871  30.155  1.00  0.00     0.134 A 
ATOM     82  F   UNL A   1      39.658  29.247  32.824  1.00  0.00    -0.206 F 
ATOM     83  C   UNL A   1      37.542  30.268  32.851  1.00  0.00     0.040 A 
ATOM     84  C   UNL A   1      36.659  31.252  30.839  1.00  0.00     0.040 A 
ATOM     85  F   UNL A   1      37.902  31.170  28.850  1.00  0.00    -0.206 F 
ATOM     86  C   UNL A   1      36.519  30.944  32.191  1.00  0.00     0.006 A 
ENDBRANCH  58  79
BRANCH  70  87
ATOM     87  C   UNL A   1      44.681  33.526  28.954  1.00  0.00     0.057 A 
ATOM     88  C   UNL A   1      45.465  33.910  30.047  1.00  0.00     0.134 A 
ATOM     89  C   UNL A   1      44.366  34.506  28.004  1.00  0.00     0.134 A 
ATOM     90  F   UNL A   1      45.790  33.020  30.997  1.00  0.00    -0.206 F 
ATOM     91  C   UNL A   1      45.907  35.226  30.201  1.00  0.00     0.040 A 
ATOM     92  C   UNL A   1      44.820  35.820  28.134  1.00  0.00     0.040 A 
ATOM     93  F   UNL A   1      43.625  34.200  26.929  1.00  0.00    -0.206 F 
ATOM     94  C   UNL A   1      45.588  36.183  29.238  1.00  0.00     0.006 A 
ENDBRANCH  70  87
ENDBRANCH  44  45
ENDBRANCH  37  39
ENDBRANCH  36  37
ENDBRANCH  35  36
ENDBRANCH  34  35
ENDBRANCH  33  34
ENDBRANCH   1  33
TORSDOF 18
ENDMDL
MODEL 3
REMARK VINA RESULT:     -12.3      4.046      7.234
REMARK SMILES CC(=O)Nc1cc(NC(C)=O)cc(C(=O)Nc2ccc(Br)cc2C(=O)OCCOCCOC(=O)c2ccc(-c3c4nc(c(-c5c(F)cccc5F)c5ccc([nH]5)c(-c5c(F)cccc5F)c5nc(c(-c6c(F)cccc6F)c6ccc3[nH]6)C=C5)C=C4)cc2)c1
REMARK SMILES IDX 28 1 27 2 26 3 24 4 25 5 23 6 17 7 18 8 19 9 22 10 20 11
REMARK SMILES IDX 21 12 16 13 14 14 15 15 13 17 5 18 6 19 89 20 7 21 12 22
REMARK SMILES IDX 4 23 1 24 2 25 3 26 8 28 9 29 10 31 11 32 29 33 30 34 31 35
REMARK SMILES IDX 32 36 33 37 34 38 35 39 36 40 88 41 37 42 87 43 38 44 39 45
REMARK SMILES IDX 40 46 81 47 41 48 86 49 80 50 82 51 42 52 85 53 79 54 78 55
REMARK SMILES IDX 43 57 69 58 52 59 68 60 53 61 56 62 67 63 83 64 54 65 55 66
REMARK SMILES IDX 66 68 84 69 57 70 44 71 45 72 50 73 46 74 47 75 49 76 51 77
REMARK SMILES IDX 48 78 70 79 71 80 76 81 72 82 73 83 75 84 77 85 74 86 58 87
REMARK SMILES IDX 59 88 64 89 60 90 61 91 63 92 65 93 62 94
REMARK H PARENT 16 16 4 27 8 30 82 56 56 67
REMARK Flexibility Score: inf
ROOT
ATOM      1  C   UNL A   1      37.628  21.500  25.508  1.00  0.00     0.202 C 
ENDROOT
BRANCH   1   2
ATOM      2  C   UNL A   1      36.979  22.885  25.576  1.00  0.00     0.261 C 
BRANCH   2   3
ATOM      3  O   UNL A   1      35.706  22.918  26.247  1.00  0.00    -0.460 OA
BRANCH   3   4
ATOM      4  C   UNL A   1      34.738  23.568  25.556  1.00  0.00     0.340 C 
ATOM      5  O   UNL A   1      34.565  24.779  25.538  1.00  0.00    -0.246 OA
BRANCH   4   6
ATOM      6  C   UNL A   1      33.965  22.669  24.665  1.00  0.00     0.084 A 
ATOM      7  C   UNL A   1      33.477  22.959  23.375  1.00  0.00     0.056 A 
ATOM      8  C   UNL A   1      32.649  22.001  22.753  1.00  0.00     0.028 A 
ATOM      9  C   UNL A   1      32.405  20.751  23.333  1.00  0.00     0.018 A 
ATOM     10  C   UNL A   1      33.714  21.403  25.238  1.00  0.00     0.033 A 
ATOM     11  C   UNL A   1      32.957  20.451  24.567  1.00  0.00     0.018 A 
ATOM     12  Br  UNL A   1      32.689  18.747  25.334  1.00  0.00    -0.051 Br
BRANCH   7  13
ATOM     13  N   UNL A   1      33.752  24.078  22.556  1.00  0.00    -0.321 N 
ATOM     14  C   UNL A   1      33.198  25.334  22.435  1.00  0.00     0.255 C 
ATOM     15  O   UNL A   1      33.552  26.055  21.503  1.00  0.00    -0.269 OA
ATOM     16  H   UNL A   1      34.503  23.928  21.938  1.00  0.00     0.170 HD
BRANCH  14  17
ATOM     17  C   UNL A   1      32.236  25.879  23.419  1.00  0.00     0.044 A 
ATOM     18  C   UNL A   1      31.584  27.621  24.946  1.00  0.00     0.044 A 
ATOM     19  C   UNL A   1      30.781  26.683  25.623  1.00  0.00     0.052 A 
ATOM     20  C   UNL A   1      32.238  27.228  23.785  1.00  0.00     0.040 A 
ATOM     21  C   UNL A   1      30.649  25.367  25.168  1.00  0.00     0.044 A 
ATOM     22  C   UNL A   1      31.383  24.970  24.053  1.00  0.00     0.040 A 
BRANCH  18  23
ATOM     23  N   UNL A   1      31.823  28.839  25.614  1.00  0.00    -0.326 N 
ATOM     24  C   UNL A   1      33.877  28.408  26.971  1.00  0.00     0.114 C 
ATOM     25  C   UNL A   1      32.663  29.217  26.618  1.00  0.00     0.221 C 
ATOM     26  O   UNL A   1      32.429  30.267  27.222  1.00  0.00    -0.275 OA
ATOM     27  H   UNL A   1      31.261  29.577  25.284  1.00  0.00     0.169 HD
ENDBRANCH  18  23
BRANCH  21  28
ATOM     28  N   UNL A   1      29.879  24.373  25.809  1.00  0.00    -0.326 N 
ATOM     29  C   UNL A   1      30.272  23.545  26.845  1.00  0.00     0.221 C 
ATOM     30  H   UNL A   1      28.958  24.255  25.481  1.00  0.00     0.169 HD
ATOM     31  C   UNL A   1      29.189  22.587  27.279  1.00  0.00     0.114 C 
ATOM     32  O   UNL A   1      31.367  23.531  27.394  1.00  0.00    -0.275 OA
ENDBRANCH  21  28
ENDBRANCH  14  17
ENDBRANCH   7  13
ENDBRANCH   4   6
ENDBRANCH   3   4
ENDBRANCH   2   3
ENDBRANCH   1   2
BRANCH   1  33
ATOM     33  O   UNL A   1      39.028  21.396  25.726  1.00  0.00    -0.374 OA
BRANCH  33  34
ATOM     34  C   UNL A   1      39.688  22.434  26.442  1.00  0.00     0.202 C 
BRANCH  34  35
ATOM     35  C   UNL A   1      41.215  22.374  26.566  1.00  0.00     0.261 C 
BRANCH  35  36
ATOM     36  O   UNL A   1      41.780  23.435  27.360  1.00  0.00    -0.460 OA
BRANCH  36  37
ATOM     37  C   UNL A   1      41.968  24.594  26.686  1.00  0.00     0.338 C 
ATOM     38  O   UNL A   1      42.434  24.735  25.565  1.00  0.00    -0.246 OA
BRANCH  37  39
ATOM     39  C   UNL A   1      41.411  25.737  27.427  1.00  0.00     0.060 A 
ATOM     40  C   UNL A   1      42.126  26.942  27.410  1.00  0.00     0.016 A 
ATOM     41  C   UNL A   1      40.322  25.567  28.283  1.00  0.00     0.016 A 
ATOM     42  C   UNL A   1      41.792  27.962  28.298  1.00  0.00     0.010 A 
ATOM     43  C   UNL A   1      39.996  26.587  29.183  1.00  0.00     0.010 A 
ATOM     44  C   UNL A   1      40.761  27.767  29.226  1.00  0.00    -0.014 A 
BRANCH  44  45
ATOM     45  C   UNL A   1      40.612  28.715  30.357  1.00  0.00     0.031 A 
ATOM     46  C   UNL A   1      39.549  29.778  30.279  1.00  0.00     0.074 A 
ATOM     47  C   UNL A   1      41.381  28.608  31.453  1.00  0.00     0.049 A 
ATOM     48  N   UNL A   1      39.264  30.732  31.129  1.00  0.00    -0.248 NA
ATOM     49  C   UNL A   1      38.693  29.763  29.081  1.00  0.00     0.031 C 
ATOM     50  C   UNL A   1      42.412  27.596  31.668  1.00  0.00     0.029 A 
ATOM     51  N   UNL A   1      41.412  29.371  32.593  1.00  0.00    -0.354 N 
ATOM     52  C   UNL A   1      38.201  31.431  30.569  1.00  0.00     0.074 A 
ATOM     53  C   UNL A   1      37.907  30.809  29.296  1.00  0.00     0.031 C 
ATOM     54  C   UNL A   1      42.983  27.804  32.867  1.00  0.00     0.029 A 
ATOM     55  C   UNL A   1      42.377  28.982  33.488  1.00  0.00     0.049 A 
ATOM     56  H   UNL A   1      40.801  30.127  32.753  1.00  0.00     0.167 HD
ATOM     57  C   UNL A   1      37.526  32.491  31.073  1.00  0.00     0.037 A 
ATOM     58  C   UNL A   1      42.741  29.528  34.664  1.00  0.00     0.037 A 
ATOM     59  C   UNL A   1      37.816  33.112  32.338  1.00  0.00     0.049 A 
ATOM     60  C   UNL A   1      42.021  30.750  35.169  1.00  0.00     0.074 A 
ATOM     61  C   UNL A   1      37.189  34.192  32.933  1.00  0.00     0.029 A 
ATOM     62  N   UNL A   1      38.821  32.706  33.200  1.00  0.00    -0.354 N 
ATOM     63  N   UNL A   1      41.017  31.399  34.635  1.00  0.00    -0.248 NA
ATOM     64  C   UNL A   1      42.491  31.315  36.443  1.00  0.00     0.031 C 
ATOM     65  C   UNL A   1      37.838  34.462  34.143  1.00  0.00     0.029 A 
ATOM     66  C   UNL A   1      38.843  33.524  34.317  1.00  0.00     0.049 A 
ATOM     67  H   UNL A   1      39.429  31.949  33.043  1.00  0.00     0.167 HD
ATOM     68  C   UNL A   1      40.716  32.430  35.516  1.00  0.00     0.074 A 
ATOM     69  C   UNL A   1      41.640  32.315  36.625  1.00  0.00     0.031 C 
ATOM     70  C   UNL A   1      39.761  33.387  35.418  1.00  0.00     0.037 A 
BRANCH  57  71
ATOM     71  C   UNL A   1      36.415  33.059  30.241  1.00  0.00     0.057 A 
ATOM     72  C   UNL A   1      35.072  32.756  30.499  1.00  0.00     0.134 A 
ATOM     73  C   UNL A   1      36.690  33.940  29.188  1.00  0.00     0.134 A 
ATOM     74  F   UNL A   1      34.745  31.906  31.484  1.00  0.00    -0.206 F 
ATOM     75  C   UNL A   1      34.041  33.297  29.728  1.00  0.00     0.040 A 
ATOM     76  C   UNL A   1      35.668  34.504  28.423  1.00  0.00     0.040 A 
ATOM     77  F   UNL A   1      37.955  34.272  28.891  1.00  0.00    -0.206 F 
ATOM     78  C   UNL A   1      34.338  34.179  28.690  1.00  0.00     0.006 A 
ENDBRANCH  57  71
BRANCH  58  79
ATOM     79  C   UNL A   1      43.854  28.934  35.445  1.00  0.00     0.057 A 
ATOM     80  C   UNL A   1      45.185  29.278  35.185  1.00  0.00     0.134 A 
ATOM     81  C   UNL A   1      43.614  27.991  36.451  1.00  0.00     0.134 A 
ATOM     82  F   UNL A   1      45.477  30.158  34.216  1.00  0.00    -0.206 F 
ATOM     83  C   UNL A   1      46.240  28.693  35.887  1.00  0.00     0.040 A 
ATOM     84  C   UNL A   1      44.658  27.416  37.176  1.00  0.00     0.040 A 
ATOM     85  F   UNL A   1      42.359  27.618  36.746  1.00  0.00    -0.206 F 
ATOM     86  C   UNL A   1      45.977  27.762  36.889  1.00  0.00     0.006 A 
ENDBRANCH  58  79
BRANCH  70  87
ATOM     87  C   UNL A   1      39.640  34.358  36.555  1.00  0.00     0.057 A 
ATOM     88  C   UNL A   1      38.917  34.052  37.713  1.00  0.00     0.134 A 
ATOM     89  C   UNL A   1      40.293  35.596  36.503  1.00  0.00     0.134 A 
ATOM     90  F   UNL A   1      38.261  32.887  37.817  1.00  0.00    -0.206 F 
ATOM     91  C   UNL A   1      38.830  34.953  38.776  1.00  0.00     0.040 A 
ATOM     92  C   UNL A   1      40.232  36.497  37.568  1.00  0.00     0.040 A 
ATOM     93  F   UNL A   1      41.009  35.945  35.424  1.00  0.00    -0.206 F 
ATOM     94  C   UNL A   1      39.494  36.178  38.706  1.00  0.00     0.006 A 
ENDBRANCH  70  87
ENDBRANCH  44  45
ENDBRANCH  37  39
ENDBRANCH  36  37
ENDBRANCH  35  36
ENDBRANCH  34  35
ENDBRANCH  33  34
ENDBRANCH   1  33
TORSDOF 18
ENDMDL
