MODEL 1
REMARK VINA RESULT:     -10.6      0.000      0.000
REMARK SMILES C[C@@H]1[C@@H](C(=O)OCCOCCOC(=O)c2ccc(-c3c4nc(c(-c5c(F)cccc5F)c5ccc([nH]5)c(-c5c(F)cccc5F)c5nc(c(-c6c(F)cccc6F)c6ccc3[nH]6)C=C5)C=C4)cc2)CCN1C(=O)[C@@H]1CCCN1C(=O)C1CC1
REMARK SMILES IDX 8 1 7 2 6 3 4 4 5 5 3 6 1 7 2 8 71 9 69 10 70 11 72 12 73 13
REMARK SMILES IDX 74 14 75 15 78 16 76 17 77 18 79 19 80 20 81 21 82 22 83 23
REMARK SMILES IDX 9 24 10 25 11 26 12 27 13 28 14 29 15 30 16 31 68 32 17 33
REMARK SMILES IDX 67 34 18 35 19 36 20 37 61 38 21 39 66 40 60 41 62 42 22 43
REMARK SMILES IDX 65 44 59 45 58 46 23 48 49 49 32 50 48 51 33 52 36 53 47 54
REMARK SMILES IDX 63 55 34 56 35 57 46 59 64 60 37 61 24 62 25 63 30 64 26 65
REMARK SMILES IDX 27 66 29 67 31 68 28 69 50 70 51 71 56 72 52 73 53 74 55 75
REMARK SMILES IDX 57 76 54 77 38 78 39 79 44 80 40 81 41 82 43 83 45 84 42 85
REMARK H PARENT 62 47 36 58
REMARK Flexibility Score: inf
ROOT
ATOM      1  C   UNL A   1      33.169  29.796  25.898  1.00  0.00     0.202 C 
ENDROOT
BRANCH   1   2
ATOM      2  C   UNL A   1      33.344  28.626  24.926  1.00  0.00     0.261 C 
BRANCH   2   3
ATOM      3  O   UNL A   1      32.281  27.667  25.037  1.00  0.00    -0.463 OA
BRANCH   3   4
ATOM      4  C   UNL A   1      32.699  26.405  25.333  1.00  0.00     0.311 C 
ATOM      5  O   UNL A   1      33.761  26.135  25.872  1.00  0.00    -0.252 OA
BRANCH   4   6
ATOM      6  C   UNL A   1      31.591  25.398  25.058  1.00  0.00     0.123 C 
ATOM      7  C   UNL A   1      31.135  22.928  25.508  1.00  0.00     0.032 C 
ATOM      8  C   UNL A   1      32.177  23.980  25.141  1.00  0.00     0.096 C 
ATOM      9  N   UNL A   1      32.727  23.759  23.803  1.00  0.00    -0.337 N 
ATOM     10  C   UNL A   1      31.093  25.473  23.621  1.00  0.00     0.039 C 
ATOM     11  C   UNL A   1      32.194  24.747  22.867  1.00  0.00     0.121 C 
BRANCH   9  12
ATOM     12  C   UNL A   1      34.073  23.407  23.678  1.00  0.00     0.245 C 
ATOM     13  O   UNL A   1      34.597  23.251  22.575  1.00  0.00    -0.272 OA
BRANCH  12  14
ATOM     14  C   UNL A   1      34.805  23.117  25.011  1.00  0.00     0.174 C 
ATOM     15  C   UNL A   1      36.231  23.670  25.055  1.00  0.00     0.037 C 
ATOM     16  N   UNL A   1      34.995  21.670  25.159  1.00  0.00    -0.330 N 
ATOM     17  C   UNL A   1      37.057  22.566  24.410  1.00  0.00     0.024 C 
ATOM     18  C   UNL A   1      36.382  21.304  24.916  1.00  0.00     0.120 C 
BRANCH  16  19
ATOM     19  C   UNL A   1      34.089  20.671  25.458  1.00  0.00     0.226 C 
ATOM     20  O   UNL A   1      33.452  20.700  26.511  1.00  0.00    -0.275 OA
BRANCH  19  21
ATOM     21  C   UNL A   1      33.775  19.535  24.542  1.00  0.00     0.079 C 
ATOM     22  C   UNL A   1      32.826  18.379  24.646  1.00  0.00     0.014 C 
ATOM     23  C   UNL A   1      32.450  19.558  23.801  1.00  0.00     0.014 C 
ENDBRANCH  19  21
ENDBRANCH  16  19
ENDBRANCH  12  14
ENDBRANCH   9  12
ENDBRANCH   4   6
ENDBRANCH   3   4
ENDBRANCH   2   3
ENDBRANCH   1   2
BRANCH   1  24
ATOM     24  O   UNL A   1      31.849  30.081  26.356  1.00  0.00    -0.374 OA
BRANCH  24  25
ATOM     25  C   UNL A   1      31.327  31.391  26.150  1.00  0.00     0.202 C 
BRANCH  25  26
ATOM     26  C   UNL A   1      31.547  32.419  27.263  1.00  0.00     0.261 C 
BRANCH  26  27
ATOM     27  O   UNL A   1      32.634  33.313  26.962  1.00  0.00    -0.460 OA
BRANCH  27  28
ATOM     28  C   UNL A   1      33.248  33.832  28.049  1.00  0.00     0.338 C 
ATOM     29  O   UNL A   1      32.806  34.677  28.820  1.00  0.00    -0.246 OA
BRANCH  28  30
ATOM     30  C   UNL A   1      34.503  33.111  28.320  1.00  0.00     0.060 A 
ATOM     31  C   UNL A   1      34.405  31.757  28.666  1.00  0.00     0.016 A 
ATOM     32  C   UNL A   1      35.738  33.761  28.327  1.00  0.00     0.016 A 
ATOM     33  C   UNL A   1      35.536  31.060  29.078  1.00  0.00     0.010 A 
ATOM     34  C   UNL A   1      36.872  33.062  28.753  1.00  0.00     0.010 A 
ATOM     35  C   UNL A   1      36.767  31.723  29.169  1.00  0.00    -0.014 A 
BRANCH  35  36
ATOM     36  C   UNL A   1      37.898  31.056  29.855  1.00  0.00     0.031 A 
ATOM     37  C   UNL A   1      38.147  31.360  31.306  1.00  0.00     0.074 A 
ATOM     38  C   UNL A   1      38.665  30.162  29.208  1.00  0.00     0.049 A 
ATOM     39  N   UNL A   1      39.083  30.909  32.100  1.00  0.00    -0.248 NA
ATOM     40  C   UNL A   1      37.214  32.300  31.948  1.00  0.00     0.031 C 
ATOM     41  C   UNL A   1      38.494  29.753  27.816  1.00  0.00     0.029 A 
ATOM     42  N   UNL A   1      39.745  29.439  29.644  1.00  0.00    -0.354 N 
ATOM     43  C   UNL A   1      38.856  31.510  33.332  1.00  0.00     0.074 A 
ATOM     44  C   UNL A   1      37.711  32.381  33.174  1.00  0.00     0.031 C 
ATOM     45  C   UNL A   1      39.447  28.855  27.507  1.00  0.00     0.029 A 
ATOM     46  C   UNL A   1      40.306  28.648  28.671  1.00  0.00     0.049 A 
ATOM     47  H   UNL A   1      40.087  29.482  30.567  1.00  0.00     0.167 HD
ATOM     48  C   UNL A   1      39.533  31.343  34.492  1.00  0.00     0.037 A 
ATOM     49  C   UNL A   1      41.399  27.863  28.714  1.00  0.00     0.037 A 
ATOM     50  C   UNL A   1      40.669  30.475  34.649  1.00  0.00     0.049 A 
ATOM     51  C   UNL A   1      42.176  27.747  29.998  1.00  0.00     0.074 A 
ATOM     52  C   UNL A   1      41.414  30.226  35.788  1.00  0.00     0.029 A 
ATOM     53  N   UNL A   1      41.227  29.717  33.632  1.00  0.00    -0.354 N 
ATOM     54  N   UNL A   1      41.940  28.304  31.162  1.00  0.00    -0.248 NA
ATOM     55  C   UNL A   1      43.370  26.890  29.975  1.00  0.00     0.031 C 
ATOM     56  C   UNL A   1      42.450  29.349  35.450  1.00  0.00     0.029 A 
ATOM     57  C   UNL A   1      42.322  29.018  34.110  1.00  0.00     0.049 A 
ATOM     58  H   UNL A   1      40.895  29.681  32.706  1.00  0.00     0.167 HD
ATOM     59  C   UNL A   1      42.937  27.845  32.013  1.00  0.00     0.074 A 
ATOM     60  C   UNL A   1      43.775  26.957  31.235  1.00  0.00     0.031 C 
ATOM     61  C   UNL A   1      43.141  28.133  33.323  1.00  0.00     0.037 A 
BRANCH  48  62
ATOM     62  C   UNL A   1      39.072  32.136  35.679  1.00  0.00     0.057 A 
ATOM     63  C   UNL A   1      39.451  33.471  35.869  1.00  0.00     0.134 A 
ATOM     64  C   UNL A   1      38.217  31.565  36.629  1.00  0.00     0.134 A 
ATOM     65  F   UNL A   1      40.281  34.072  35.003  1.00  0.00    -0.206 F 
ATOM     66  C   UNL A   1      39.010  34.205  36.972  1.00  0.00     0.040 A 
ATOM     67  C   UNL A   1      37.751  32.294  37.724  1.00  0.00     0.040 A 
ATOM     68  F   UNL A   1      37.815  30.290  36.505  1.00  0.00    -0.206 F 
ATOM     69  C   UNL A   1      38.152  33.617  37.901  1.00  0.00     0.006 A 
ENDBRANCH  48  62
BRANCH  49  70
ATOM     70  C   UNL A   1      41.834  27.131  27.499  1.00  0.00     0.057 A 
ATOM     71  C   UNL A   1      42.627  27.747  26.526  1.00  0.00     0.134 A 
ATOM     72  C   UNL A   1      41.450  25.803  27.275  1.00  0.00     0.134 A 
ATOM     73  F   UNL A   1      43.007  29.026  26.674  1.00  0.00    -0.206 F 
ATOM     74  C   UNL A   1      43.010  27.076  25.363  1.00  0.00     0.040 A 
ATOM     75  C   UNL A   1      41.844  25.113  26.129  1.00  0.00     0.040 A 
ATOM     76  F   UNL A   1      40.690  25.157  28.172  1.00  0.00    -0.206 F 
ATOM     77  C   UNL A   1      42.621  25.752  25.165  1.00  0.00     0.006 A 
ENDBRANCH  49  70
BRANCH  61  78
ATOM     78  C   UNL A   1      44.292  27.454  34.005  1.00  0.00     0.057 A 
ATOM     79  C   UNL A   1      45.555  28.055  34.097  1.00  0.00     0.134 A 
ATOM     80  C   UNL A   1      44.124  26.203  34.610  1.00  0.00     0.134 A 
ATOM     81  F   UNL A   1      45.783  29.248  33.527  1.00  0.00    -0.206 F 
ATOM     82  C   UNL A   1      46.614  27.426  34.752  1.00  0.00     0.040 A 
ATOM     83  C   UNL A   1      45.170  25.574  35.288  1.00  0.00     0.040 A 
ATOM     84  F   UNL A   1      42.939  25.577  34.565  1.00  0.00    -0.206 F 
ATOM     85  C   UNL A   1      46.421  26.184  35.356  1.00  0.00     0.006 A 
ENDBRANCH  61  78
ENDBRANCH  35  36
ENDBRANCH  28  30
ENDBRANCH  27  28
ENDBRANCH  26  27
ENDBRANCH  25  26
ENDBRANCH  24  25
ENDBRANCH   1  24
TORSDOF 18
ENDMDL
MODEL 2
REMARK VINA RESULT:     -10.6      3.933      9.193
REMARK SMILES C[C@@H]1[C@@H](C(=O)OCCOCCOC(=O)c2ccc(-c3c4nc(c(-c5c(F)cccc5F)c5ccc([nH]5)c(-c5c(F)cccc5F)c5nc(c(-c6c(F)cccc6F)c6ccc3[nH]6)C=C5)C=C4)cc2)CCN1C(=O)[C@@H]1CCCN1C(=O)C1CC1
REMARK SMILES IDX 8 1 7 2 6 3 4 4 5 5 3 6 1 7 2 8 71 9 69 10 70 11 72 12 73 13
REMARK SMILES IDX 74 14 75 15 78 16 76 17 77 18 79 19 80 20 81 21 82 22 83 23
REMARK SMILES IDX 9 24 10 25 11 26 12 27 13 28 14 29 15 30 16 31 68 32 17 33
REMARK SMILES IDX 67 34 18 35 19 36 20 37 61 38 21 39 66 40 60 41 62 42 22 43
REMARK SMILES IDX 65 44 59 45 58 46 23 48 49 49 32 50 48 51 33 52 36 53 47 54
REMARK SMILES IDX 63 55 34 56 35 57 46 59 64 60 37 61 24 62 25 63 30 64 26 65
REMARK SMILES IDX 27 66 29 67 31 68 28 69 50 70 51 71 56 72 52 73 53 74 55 75
REMARK SMILES IDX 57 76 54 77 38 78 39 79 44 80 40 81 41 82 43 83 45 84 42 85
REMARK H PARENT 62 47 36 58
REMARK Flexibility Score: inf
ROOT
ATOM      1  C   UNL A   1      37.859  23.173  25.461  1.00  0.00     0.202 C 
ENDROOT
BRANCH   1   2
ATOM      2  C   UNL A   1      36.434  23.693  25.673  1.00  0.00     0.261 C 
BRANCH   2   3
ATOM      3  O   UNL A   1      35.714  23.815  24.436  1.00  0.00    -0.463 OA
BRANCH   3   4
ATOM      4  C   UNL A   1      34.777  22.846  24.240  1.00  0.00     0.311 C 
ATOM      5  O   UNL A   1      34.595  21.896  24.987  1.00  0.00    -0.252 OA
BRANCH   4   6
ATOM      6  C   UNL A   1      33.879  23.202  23.064  1.00  0.00     0.123 C 
ATOM      7  C   UNL A   1      33.032  25.314  21.910  1.00  0.00     0.032 C 
ATOM      8  C   UNL A   1      33.384  24.646  23.236  1.00  0.00     0.096 C 
ATOM      9  N   UNL A   1      32.215  24.506  24.104  1.00  0.00    -0.337 N 
ATOM     10  C   UNL A   1      32.584  22.400  23.070  1.00  0.00     0.039 C 
ATOM     11  C   UNL A   1      31.776  23.112  24.141  1.00  0.00     0.121 C 
BRANCH   9  12
ATOM     12  C   UNL A   1      32.168  25.233  25.295  1.00  0.00     0.245 C 
ATOM     13  O   UNL A   1      33.070  25.160  26.129  1.00  0.00    -0.272 OA
BRANCH  12  14
ATOM     14  C   UNL A   1      30.861  26.029  25.530  1.00  0.00     0.174 C 
ATOM     15  C   UNL A   1      30.007  26.182  24.269  1.00  0.00     0.037 C 
ATOM     16  N   UNL A   1      31.189  27.412  25.891  1.00  0.00    -0.330 N 
ATOM     17  C   UNL A   1      30.589  27.418  23.598  1.00  0.00     0.024 C 
ATOM     18  C   UNL A   1      30.927  28.312  24.777  1.00  0.00     0.120 C 
BRANCH  16  19
ATOM     19  C   UNL A   1      31.700  27.938  27.061  1.00  0.00     0.226 C 
ATOM     20  O   UNL A   1      31.021  27.953  28.088  1.00  0.00    -0.275 OA
BRANCH  19  21
ATOM     21  C   UNL A   1      33.089  28.470  27.196  1.00  0.00     0.079 C 
ATOM     22  C   UNL A   1      34.187  28.704  26.203  1.00  0.00     0.014 C 
ATOM     23  C   UNL A   1      33.373  29.869  26.680  1.00  0.00     0.014 C 
ENDBRANCH  19  21
ENDBRANCH  16  19
ENDBRANCH  12  14
ENDBRANCH   9  12
ENDBRANCH   4   6
ENDBRANCH   3   4
ENDBRANCH   2   3
ENDBRANCH   1   2
BRANCH   1  24
ATOM     24  O   UNL A   1      38.161  21.864  25.941  1.00  0.00    -0.374 OA
BRANCH  24  25
ATOM     25  C   UNL A   1      38.087  20.773  25.027  1.00  0.00     0.202 C 
BRANCH  25  26
ATOM     26  C   UNL A   1      39.024  19.587  25.270  1.00  0.00     0.261 C 
BRANCH  26  27
ATOM     27  O   UNL A   1      39.850  19.783  26.431  1.00  0.00    -0.460 OA
BRANCH  27  28
ATOM     28  C   UNL A   1      41.178  19.703  26.193  1.00  0.00     0.338 C 
ATOM     29  O   UNL A   1      41.774  18.812  25.598  1.00  0.00    -0.246 OA
BRANCH  28  30
ATOM     30  C   UNL A   1      41.846  20.951  26.596  1.00  0.00     0.060 A 
ATOM     31  C   UNL A   1      41.951  21.212  27.969  1.00  0.00     0.016 A 
ATOM     32  C   UNL A   1      42.277  21.891  25.658  1.00  0.00     0.016 A 
ATOM     33  C   UNL A   1      42.434  22.439  28.411  1.00  0.00     0.010 A 
ATOM     34  C   UNL A   1      42.752  23.129  26.103  1.00  0.00     0.010 A 
ATOM     35  C   UNL A   1      42.793  23.421  27.479  1.00  0.00    -0.014 A 
BRANCH  35  36
ATOM     36  C   UNL A   1      43.050  24.803  27.948  1.00  0.00     0.031 A 
ATOM     37  C   UNL A   1      44.471  25.239  28.176  1.00  0.00     0.074 A 
ATOM     38  C   UNL A   1      42.037  25.667  28.129  1.00  0.00     0.049 A 
ATOM     39  N   UNL A   1      44.928  26.389  28.599  1.00  0.00    -0.248 NA
ATOM     40  C   UNL A   1      45.516  24.244  27.887  1.00  0.00     0.031 C 
ATOM     41  C   UNL A   1      40.624  25.374  27.899  1.00  0.00     0.029 A 
ATOM     42  N   UNL A   1      42.048  26.972  28.551  1.00  0.00    -0.354 N 
ATOM     43  C   UNL A   1      46.311  26.256  28.631  1.00  0.00     0.074 A 
ATOM     44  C   UNL A   1      46.617  24.905  28.213  1.00  0.00     0.031 C 
ATOM     45  C   UNL A   1      39.901  26.468  28.194  1.00  0.00     0.029 A 
ATOM     46  C   UNL A   1      40.797  27.526  28.656  1.00  0.00     0.049 A 
ATOM     47  H   UNL A   1      42.876  27.465  28.759  1.00  0.00     0.167 HD
ATOM     48  C   UNL A   1      47.241  27.180  28.968  1.00  0.00     0.037 A 
ATOM     49  C   UNL A   1      40.421  28.743  29.093  1.00  0.00     0.037 A 
ATOM     50  C   UNL A   1      46.936  28.524  29.381  1.00  0.00     0.049 A 
ATOM     51  C   UNL A   1      41.470  29.730  29.528  1.00  0.00     0.074 A 
ATOM     52  C   UNL A   1      47.809  29.540  29.728  1.00  0.00     0.029 A 
ATOM     53  N   UNL A   1      45.654  29.037  29.507  1.00  0.00    -0.354 N 
ATOM     54  N   UNL A   1      42.776  29.602  29.535  1.00  0.00    -0.248 NA
ATOM     55  C   UNL A   1      40.994  31.033  30.014  1.00  0.00     0.031 C 
ATOM     56  C   UNL A   1      47.053  30.655  30.106  1.00  0.00     0.029 A 
ATOM     57  C   UNL A   1      45.711  30.347  29.951  1.00  0.00     0.049 A 
ATOM     58  H   UNL A   1      44.826  28.542  29.311  1.00  0.00     0.167 HD
ATOM     59  C   UNL A   1      43.276  30.812  29.997  1.00  0.00     0.074 A 
ATOM     60  C   UNL A   1      42.134  31.666  30.252  1.00  0.00     0.031 C 
ATOM     61  C   UNL A   1      44.565  31.185  30.193  1.00  0.00     0.037 A 
BRANCH  48  62
ATOM     62  C   UNL A   1      48.680  26.758  28.924  1.00  0.00     0.057 A 
ATOM     63  C   UNL A   1      49.459  26.906  27.769  1.00  0.00     0.134 A 
ATOM     64  C   UNL A   1      49.300  26.221  30.058  1.00  0.00     0.134 A 
ATOM     65  F   UNL A   1      48.920  27.399  26.644  1.00  0.00    -0.206 F 
ATOM     66  C   UNL A   1      50.800  26.518  27.739  1.00  0.00     0.040 A 
ATOM     67  C   UNL A   1      50.645  25.851  30.048  1.00  0.00     0.040 A 
ATOM     68  F   UNL A   1      48.610  26.054  31.197  1.00  0.00    -0.206 F 
ATOM     69  C   UNL A   1      51.398  25.993  28.884  1.00  0.00     0.006 A 
ENDBRANCH  48  62
BRANCH  49  70
ATOM     70  C   UNL A   1      38.981  29.096  29.154  1.00  0.00     0.057 A 
ATOM     71  C   UNL A   1      38.236  28.906  30.323  1.00  0.00     0.134 A 
ATOM     72  C   UNL A   1      38.311  29.613  28.038  1.00  0.00     0.134 A 
ATOM     73  F   UNL A   1      38.817  28.393  31.418  1.00  0.00    -0.206 F 
ATOM     74  C   UNL A   1      36.873  29.202  30.377  1.00  0.00     0.040 A 
ATOM     75  C   UNL A   1      36.955  29.935  28.084  1.00  0.00     0.040 A 
ATOM     76  F   UNL A   1      38.971  29.818  26.888  1.00  0.00    -0.206 F 
ATOM     77  C   UNL A   1      36.230  29.723  29.255  1.00  0.00     0.006 A 
ENDBRANCH  49  70
BRANCH  61  78
ATOM     78  C   UNL A   1      44.811  32.584  30.673  1.00  0.00     0.057 A 
ATOM     79  C   UNL A   1      44.938  33.659  29.783  1.00  0.00     0.134 A 
ATOM     80  C   UNL A   1      44.881  32.866  32.043  1.00  0.00     0.134 A 
ATOM     81  F   UNL A   1      44.891  33.453  28.458  1.00  0.00    -0.206 F 
ATOM     82  C   UNL A   1      45.145  34.961  30.239  1.00  0.00     0.040 A 
ATOM     83  C   UNL A   1      45.064  34.168  32.511  1.00  0.00     0.040 A 
ATOM     84  F   UNL A   1      44.760  31.883  32.948  1.00  0.00    -0.206 F 
ATOM     85  C   UNL A   1      45.202  35.219  31.608  1.00  0.00     0.006 A 
ENDBRANCH  61  78
ENDBRANCH  35  36
ENDBRANCH  28  30
ENDBRANCH  27  28
ENDBRANCH  26  27
ENDBRANCH  25  26
ENDBRANCH  24  25
ENDBRANCH   1  24
TORSDOF 18
ENDMDL
MODEL 3
REMARK VINA RESULT:     -10.5      2.367      8.035
REMARK SMILES C[C@@H]1[C@@H](C(=O)OCCOCCOC(=O)c2ccc(-c3c4nc(c(-c5c(F)cccc5F)c5ccc([nH]5)c(-c5c(F)cccc5F)c5nc(c(-c6c(F)cccc6F)c6ccc3[nH]6)C=C5)C=C4)cc2)CCN1C(=O)[C@@H]1CCCN1C(=O)C1CC1
REMARK SMILES IDX 8 1 7 2 6 3 4 4 5 5 3 6 1 7 2 8 71 9 69 10 70 11 72 12 73 13
REMARK SMILES IDX 74 14 75 15 78 16 76 17 77 18 79 19 80 20 81 21 82 22 83 23
REMARK SMILES IDX 9 24 10 25 11 26 12 27 13 28 14 29 15 30 16 31 68 32 17 33
REMARK SMILES IDX 67 34 18 35 19 36 20 37 61 38 21 39 66 40 60 41 62 42 22 43
REMARK SMILES IDX 65 44 59 45 58 46 23 48 49 49 32 50 48 51 33 52 36 53 47 54
REMARK SMILES IDX 63 55 34 56 35 57 46 59 64 60 37 61 24 62 25 63 30 64 26 65
REMARK SMILES IDX 27 66 29 67 31 68 28 69 50 70 51 71 56 72 52 73 53 74 55 75
REMARK SMILES IDX 57 76 54 77 38 78 39 79 44 80 40 81 41 82 43 83 45 84 42 85
REMARK H PARENT 62 47 36 58
REMARK Flexibility Score: inf
ROOT
ATOM      1  C   UNL A   1      39.799  21.138  26.416  1.00  0.00     0.202 C 
ENDROOT
BRANCH   1   2
ATOM      2  C   UNL A   1      38.626  21.052  25.435  1.00  0.00     0.261 C 
BRANCH   2   3
ATOM      3  O   UNL A   1      37.644  22.074  25.674  1.00  0.00    -0.463 OA
BRANCH   3   4
ATOM      4  C   UNL A   1      36.703  22.180  24.696  1.00  0.00     0.311 C 
ATOM      5  O   UNL A   1      36.900  22.671  23.594  1.00  0.00    -0.252 OA
BRANCH   4   6
ATOM      6  C   UNL A   1      35.428  21.452  25.100  1.00  0.00     0.123 C 
ATOM      7  C   UNL A   1      33.102  21.046  24.133  1.00  0.00     0.032 C 
ATOM      8  C   UNL A   1      34.250  22.036  24.306  1.00  0.00     0.096 C 
ATOM      9  N   UNL A   1      33.850  23.202  25.094  1.00  0.00    -0.337 N 
ATOM     10  C   UNL A   1      35.038  21.742  26.543  1.00  0.00     0.039 C 
ATOM     11  C   UNL A   1      34.431  23.130  26.434  1.00  0.00     0.121 C 
BRANCH   9  12
ATOM     12  C   UNL A   1      33.803  24.452  24.474  1.00  0.00     0.245 C 
ATOM     13  O   UNL A   1      34.740  25.246  24.556  1.00  0.00    -0.272 OA
BRANCH  12  14
ATOM     14  C   UNL A   1      32.457  24.798  23.790  1.00  0.00     0.174 C 
ATOM     15  C   UNL A   1      32.462  24.551  22.280  1.00  0.00     0.037 C 
ATOM     16  N   UNL A   1      32.209  26.239  23.901  1.00  0.00    -0.330 N 
ATOM     17  C   UNL A   1      33.032  25.844  21.715  1.00  0.00     0.024 C 
ATOM     18  C   UNL A   1      32.435  26.901  22.625  1.00  0.00     0.120 C 
BRANCH  16  19
ATOM     19  C   UNL A   1      31.835  27.005  24.988  1.00  0.00     0.226 C 
ATOM     20  O   UNL A   1      30.772  27.627  24.978  1.00  0.00    -0.275 OA
BRANCH  19  21
ATOM     21  C   UNL A   1      32.631  27.104  26.247  1.00  0.00     0.079 C 
ATOM     22  C   UNL A   1      33.539  28.163  26.794  1.00  0.00     0.014 C 
ATOM     23  C   UNL A   1      32.143  28.050  27.329  1.00  0.00     0.014 C 
ENDBRANCH  19  21
ENDBRANCH  16  19
ENDBRANCH  12  14
ENDBRANCH   9  12
ENDBRANCH   4   6
ENDBRANCH   3   4
ENDBRANCH   2   3
ENDBRANCH   1   2
BRANCH   1  24
ATOM     24  O   UNL A   1      40.926  21.921  26.028  1.00  0.00    -0.374 OA
BRANCH  24  25
ATOM     25  C   UNL A   1      42.164  21.256  25.789  1.00  0.00     0.202 C 
BRANCH  25  26
ATOM     26  C   UNL A   1      43.408  22.128  25.605  1.00  0.00     0.261 C 
BRANCH  26  27
ATOM     27  O   UNL A   1      43.157  23.246  24.735  1.00  0.00    -0.460 OA
BRANCH  27  28
ATOM     28  C   UNL A   1      43.893  24.346  25.011  1.00  0.00     0.338 C 
ATOM     29  O   UNL A   1      44.973  24.661  24.523  1.00  0.00    -0.246 OA
BRANCH  28  30
ATOM     30  C   UNL A   1      43.136  25.261  25.882  1.00  0.00     0.060 A 
ATOM     31  C   UNL A   1      43.678  26.533  26.107  1.00  0.00     0.016 A 
ATOM     32  C   UNL A   1      41.971  24.857  26.538  1.00  0.00     0.016 A 
ATOM     33  C   UNL A   1      43.091  27.386  27.035  1.00  0.00     0.010 A 
ATOM     34  C   UNL A   1      41.389  25.711  27.480  1.00  0.00     0.010 A 
ATOM     35  C   UNL A   1      41.971  26.961  27.760  1.00  0.00    -0.014 A 
BRANCH  35  36
ATOM     36  C   UNL A   1      41.517  27.759  28.923  1.00  0.00     0.031 A 
ATOM     37  C   UNL A   1      42.262  27.635  30.223  1.00  0.00     0.074 A 
ATOM     38  C   UNL A   1      40.484  28.612  28.812  1.00  0.00     0.049 A 
ATOM     39  N   UNL A   1      42.034  28.221  31.370  1.00  0.00    -0.248 NA
ATOM     40  C   UNL A   1      43.421  26.727  30.230  1.00  0.00     0.031 C 
ATOM     41  C   UNL A   1      39.713  28.851  27.594  1.00  0.00     0.029 A 
ATOM     42  N   UNL A   1      39.908  29.435  29.745  1.00  0.00    -0.354 N 
ATOM     43  C   UNL A   1      43.015  27.753  32.235  1.00  0.00     0.074 A 
ATOM     44  C   UNL A   1      43.823  26.811  31.490  1.00  0.00     0.031 C 
ATOM     45  C   UNL A   1      38.754  29.755  27.858  1.00  0.00     0.029 A 
ATOM     46  C   UNL A   1      38.829  30.137  29.266  1.00  0.00     0.049 A 
ATOM     47  H   UNL A   1      40.235  29.514  30.671  1.00  0.00     0.167 HD
ATOM     48  C   UNL A   1      43.229  28.085  33.530  1.00  0.00     0.037 A 
ATOM     49  C   UNL A   1      37.990  30.977  29.902  1.00  0.00     0.037 A 
ATOM     50  C   UNL A   1      42.427  29.022  34.269  1.00  0.00     0.049 A 
ATOM     51  C   UNL A   1      38.208  31.278  31.360  1.00  0.00     0.074 A 
ATOM     52  C   UNL A   1      42.573  29.438  35.581  1.00  0.00     0.029 A 
ATOM     53  N   UNL A   1      41.323  29.688  33.759  1.00  0.00    -0.354 N 
ATOM     54  N   UNL A   1      39.151  30.846  32.163  1.00  0.00    -0.248 NA
ATOM     55  C   UNL A   1      37.246  32.187  32.000  1.00  0.00     0.031 C 
ATOM     56  C   UNL A   1      41.531  30.323  35.877  1.00  0.00     0.029 A 
ATOM     57  C   UNL A   1      40.763  30.492  34.737  1.00  0.00     0.049 A 
ATOM     58  H   UNL A   1      40.987  29.601  32.838  1.00  0.00     0.167 HD
ATOM     59  C   UNL A   1      38.913  31.449  33.391  1.00  0.00     0.074 A 
ATOM     60  C   UNL A   1      37.742  32.285  33.225  1.00  0.00     0.031 C 
ATOM     61  C   UNL A   1      39.601  31.323  34.553  1.00  0.00     0.037 A 
BRANCH  48  62
ATOM     62  C   UNL A   1      44.367  27.409  34.235  1.00  0.00     0.057 A 
ATOM     63  C   UNL A   1      44.202  26.192  34.908  1.00  0.00     0.134 A 
ATOM     64  C   UNL A   1      45.650  27.970  34.217  1.00  0.00     0.134 A 
ATOM     65  F   UNL A   1      42.995  25.610  34.975  1.00  0.00    -0.206 F 
ATOM     66  C   UNL A   1      45.270  25.565  35.554  1.00  0.00     0.040 A 
ATOM     67  C   UNL A   1      46.730  27.343  34.840  1.00  0.00     0.040 A 
ATOM     68  F   UNL A   1      45.876  29.135  33.590  1.00  0.00    -0.206 F 
ATOM     69  C   UNL A   1      46.540  26.139  35.516  1.00  0.00     0.006 A 
ENDBRANCH  48  62
BRANCH  49  70
ATOM     70  C   UNL A   1      36.856  31.588  29.166  1.00  0.00     0.057 A 
ATOM     71  C   UNL A   1      36.890  32.927  28.762  1.00  0.00     0.134 A 
ATOM     72  C   UNL A   1      35.702  30.853  28.868  1.00  0.00     0.134 A 
ATOM     73  F   UNL A   1      37.959  33.689  29.040  1.00  0.00    -0.206 F 
ATOM     74  C   UNL A   1      35.812  33.519  28.102  1.00  0.00     0.040 A 
ATOM     75  C   UNL A   1      34.626  31.424  28.189  1.00  0.00     0.040 A 
ATOM     76  F   UNL A   1      35.609  29.564  29.229  1.00  0.00    -0.206 F 
ATOM     77  C   UNL A   1      34.676  32.764  27.810  1.00  0.00     0.006 A 
ENDBRANCH  49  70
BRANCH  61  78
ATOM     78  C   UNL A   1      39.129  32.133  35.723  1.00  0.00     0.057 A 
ATOM     79  C   UNL A   1      39.541  33.458  35.920  1.00  0.00     0.134 A 
ATOM     80  C   UNL A   1      38.219  31.594  36.642  1.00  0.00     0.134 A 
ATOM     81  F   UNL A   1      40.420  34.027  35.082  1.00  0.00    -0.206 F 
ATOM     82  C   UNL A   1      39.079  34.211  37.001  1.00  0.00     0.040 A 
ATOM     83  C   UNL A   1      37.732  32.346  37.712  1.00  0.00     0.040 A 
ATOM     84  F   UNL A   1      37.778  30.335  36.506  1.00  0.00    -0.206 F 
ATOM     85  C   UNL A   1      38.166  33.657  37.897  1.00  0.00     0.006 A 
ENDBRANCH  61  78
ENDBRANCH  35  36
ENDBRANCH  28  30
ENDBRANCH  27  28
ENDBRANCH  26  27
ENDBRANCH  25  26
ENDBRANCH  24  25
ENDBRANCH   1  24
TORSDOF 18
ENDMDL
