MODEL 1
REMARK VINA RESULT:     -11.0      0.000      0.000
REMARK SMILES Cc1cnn([C@H]2CC[C@@]([NH3+])(C(=O)OCCOCCOC(=O)c3ccc(-c4c5nc(c(-c6c(F)cccc6F)c6ccc([nH]6)c(-c6c(F)cccc6F)c6nc(c(-c7c(F)cccc7F)c7ccc4[nH]7)C=C6)C=C5)cc3)C2)c1
REMARK SMILES IDX 17 1 16 2 15 3 14 4 13 5 11 6 12 7 9 8 6 9 7 10 76 11 8 12
REMARK SMILES IDX 5 13 1 14 2 15 3 16 77 17 4 18 10 19 18 23 19 24 20 25 21 26
REMARK SMILES IDX 22 27 23 28 75 29 24 30 74 31 25 32 26 33 27 34 68 35 28 36
REMARK SMILES IDX 73 37 67 38 69 39 29 40 72 41 66 42 65 43 30 45 56 46 39 47
REMARK SMILES IDX 55 48 40 49 43 50 54 51 70 52 41 53 42 54 53 56 71 57 44 58
REMARK SMILES IDX 31 59 32 60 37 61 33 62 34 63 36 64 38 65 35 66 57 67 58 68
REMARK SMILES IDX 63 69 59 70 60 71 62 72 64 73 61 74 45 75 46 76 51 77 47 78
REMARK SMILES IDX 48 79 50 80 52 81 49 82
REMARK H PARENT 10 20 10 21 10 22 69 44 43 55
REMARK Flexibility Score: inf
ROOT
ATOM      1  C   UNL A   1      42.253  19.711  26.679  1.00  0.00     0.202 C 
ENDROOT
BRANCH   1   2
ATOM      2  O   UNL A   1      41.381  20.700  26.143  1.00  0.00    -0.374 OA
BRANCH   2   3
ATOM      3  C   UNL A   1      40.005  20.463  26.451  1.00  0.00     0.202 C 
BRANCH   3   4
ATOM      4  C   UNL A   1      39.083  21.642  26.126  1.00  0.00     0.261 C 
BRANCH   4   5
ATOM      5  O   UNL A   1      38.349  21.438  24.897  1.00  0.00    -0.459 OA
BRANCH   5   6
ATOM      6  C   UNL A   1      36.988  21.443  25.012  1.00  0.00     0.368 C 
ATOM      7  O   UNL A   1      36.301  20.428  25.076  1.00  0.00    -0.245 OA
BRANCH   6   8
ATOM      8  C   UNL A   1      36.369  22.877  24.933  1.00  0.00     0.194 C 
ATOM      9  C   UNL A   1      33.910  22.753  24.589  1.00  0.00     0.114 C 
ATOM     10  C   UNL A   1      34.172  23.429  25.948  1.00  0.00     0.034 C 
ATOM     11  C   UNL A   1      35.254  22.941  23.861  1.00  0.00     0.108 C 
ATOM     12  C   UNL A   1      35.685  23.400  26.207  1.00  0.00     0.083 C 
BRANCH   9  13
ATOM     13  N   UNL A   1      33.352  21.412  24.692  1.00  0.00    -0.269 N 
ATOM     14  C   UNL A   1      32.609  18.011  23.620  1.00  0.00     0.048 C 
ATOM     15  C   UNL A   1      32.782  19.322  24.289  1.00  0.00    -0.013 A 
ATOM     16  C   UNL A   1      32.907  19.582  25.668  1.00  0.00     0.138 A 
ATOM     17  C   UNL A   1      32.936  20.563  23.704  1.00  0.00     0.112 A 
ATOM     18  N   UNL A   1      33.233  20.853  25.919  1.00  0.00    -0.181 NA
ENDBRANCH   9  13
BRANCH   8  19
ATOM     19  N   UNL A   1      37.485  23.782  24.575  1.00  0.00    -0.343 N 
ATOM     20  H   UNL A   1      37.974  24.072  25.422  1.00  0.00     0.345 HD
ATOM     21  H   UNL A   1      37.117  24.605  24.097  1.00  0.00     0.345 HD
ATOM     22  H   UNL A   1      38.135  23.293  23.958  1.00  0.00     0.345 HD
ENDBRANCH   8  19
ENDBRANCH   6   8
ENDBRANCH   5   6
ENDBRANCH   4   5
ENDBRANCH   3   4
ENDBRANCH   2   3
ENDBRANCH   1   2
BRANCH   1  23
ATOM     23  C   UNL A   1      43.047  18.964  25.622  1.00  0.00     0.261 C 
BRANCH  23  24
ATOM     24  O   UNL A   1      44.312  19.593  25.505  1.00  0.00    -0.460 OA
BRANCH  24  25
ATOM     25  C   UNL A   1      44.622  20.001  24.251  1.00  0.00     0.338 C 
ATOM     26  O   UNL A   1      44.611  19.376  23.223  1.00  0.00    -0.246 OA
BRANCH  25  27
ATOM     27  C   UNL A   1      45.119  21.364  24.448  1.00  0.00     0.060 A 
ATOM     28  C   UNL A   1      45.700  21.537  25.691  1.00  0.00     0.016 A 
ATOM     29  C   UNL A   1      44.548  22.415  23.699  1.00  0.00     0.016 A 
ATOM     30  C   UNL A   1      45.387  22.697  26.342  1.00  0.00     0.010 A 
ATOM     31  C   UNL A   1      44.243  23.580  24.355  1.00  0.00     0.010 A 
ATOM     32  C   UNL A   1      44.575  23.650  25.701  1.00  0.00    -0.014 A 
BRANCH  32  33
ATOM     33  C   UNL A   1      44.247  24.820  26.475  1.00  0.00     0.031 A 
ATOM     34  C   UNL A   1      45.332  25.810  26.385  1.00  0.00     0.074 A 
ATOM     35  C   UNL A   1      43.130  24.971  27.202  1.00  0.00     0.049 A 
ATOM     36  N   UNL A   1      46.267  25.992  27.253  1.00  0.00    -0.248 NA
ATOM     37  C   UNL A   1      45.569  26.448  25.083  1.00  0.00     0.031 C 
ATOM     38  C   UNL A   1      41.888  24.203  27.191  1.00  0.00     0.029 A 
ATOM     39  N   UNL A   1      42.880  25.953  28.106  1.00  0.00    -0.354 N 
ATOM     40  C   UNL A   1      47.110  26.933  26.686  1.00  0.00     0.074 A 
ATOM     41  C   UNL A   1      46.762  27.006  25.292  1.00  0.00     0.031 C 
ATOM     42  C   UNL A   1      40.939  24.893  27.872  1.00  0.00     0.029 A 
ATOM     43  C   UNL A   1      41.549  26.066  28.479  1.00  0.00     0.049 A 
ATOM     44  H   UNL A   1      43.585  26.538  28.467  1.00  0.00     0.167 HD
ATOM     45  C   UNL A   1      47.842  27.763  27.473  1.00  0.00     0.037 A 
ATOM     46  C   UNL A   1      41.031  27.123  29.152  1.00  0.00     0.037 A 
ATOM     47  C   UNL A   1      47.910  27.270  28.827  1.00  0.00     0.049 A 
ATOM     48  C   UNL A   1      42.166  27.821  29.826  1.00  0.00     0.074 A 
ATOM     49  C   UNL A   1      48.413  26.126  29.416  1.00  0.00     0.029 A 
ATOM     50  N   UNL A   1      47.040  27.815  29.742  1.00  0.00    -0.354 N 
ATOM     51  N   UNL A   1      42.826  27.316  30.831  1.00  0.00    -0.248 NA
ATOM     52  C   UNL A   1      42.877  28.843  29.068  1.00  0.00     0.031 C 
ATOM     53  C   UNL A   1      47.477  25.793  30.440  1.00  0.00     0.029 A 
ATOM     54  C   UNL A   1      46.497  26.785  30.465  1.00  0.00     0.049 A 
ATOM     55  H   UNL A   1      46.843  28.773  29.856  1.00  0.00     0.167 HD
ATOM     56  C   UNL A   1      44.156  27.618  30.571  1.00  0.00     0.074 A 
ATOM     57  C   UNL A   1      44.120  28.620  29.508  1.00  0.00     0.031 C 
ATOM     58  C   UNL A   1      45.165  26.818  31.026  1.00  0.00     0.037 A 
BRANCH  45  59
ATOM     59  C   UNL A   1      48.126  29.194  27.116  1.00  0.00     0.057 A 
ATOM     60  C   UNL A   1      49.446  29.662  27.202  1.00  0.00     0.134 A 
ATOM     61  C   UNL A   1      47.139  30.193  26.980  1.00  0.00     0.134 A 
ATOM     62  F   UNL A   1      50.471  28.809  27.348  1.00  0.00    -0.206 F 
ATOM     63  C   UNL A   1      49.752  31.026  27.231  1.00  0.00     0.040 A 
ATOM     64  C   UNL A   1      47.439  31.554  26.950  1.00  0.00     0.040 A 
ATOM     65  F   UNL A   1      45.829  29.923  26.976  1.00  0.00    -0.206 F 
ATOM     66  C   UNL A   1      48.746  31.977  27.112  1.00  0.00     0.006 A 
ENDBRANCH  45  59
BRANCH  46  67
ATOM     67  C   UNL A   1      39.716  27.779  28.960  1.00  0.00     0.057 A 
ATOM     68  C   UNL A   1      38.791  27.860  30.011  1.00  0.00     0.134 A 
ATOM     69  C   UNL A   1      39.455  28.594  27.845  1.00  0.00     0.134 A 
ATOM     70  F   UNL A   1      38.973  27.152  31.135  1.00  0.00    -0.206 F 
ATOM     71  C   UNL A   1      37.688  28.725  29.969  1.00  0.00     0.040 A 
ATOM     72  C   UNL A   1      38.357  29.457  27.788  1.00  0.00     0.040 A 
ATOM     73  F   UNL A   1      40.309  28.652  26.813  1.00  0.00    -0.206 F 
ATOM     74  C   UNL A   1      37.476  29.537  28.860  1.00  0.00     0.006 A 
ENDBRANCH  46  67
BRANCH  58  75
ATOM     75  C   UNL A   1      44.821  25.743  32.019  1.00  0.00     0.057 A 
ATOM     76  C   UNL A   1      44.502  24.419  31.676  1.00  0.00     0.134 A 
ATOM     77  C   UNL A   1      44.953  26.028  33.382  1.00  0.00     0.134 A 
ATOM     78  F   UNL A   1      44.457  24.026  30.396  1.00  0.00    -0.206 F 
ATOM     79  C   UNL A   1      44.278  23.440  32.649  1.00  0.00     0.040 A 
ATOM     80  C   UNL A   1      44.769  25.051  34.363  1.00  0.00     0.040 A 
ATOM     81  F   UNL A   1      45.311  27.258  33.784  1.00  0.00    -0.206 F 
ATOM     82  C   UNL A   1      44.417  23.754  33.999  1.00  0.00     0.006 A 
ENDBRANCH  58  75
ENDBRANCH  32  33
ENDBRANCH  25  27
ENDBRANCH  24  25
ENDBRANCH  23  24
ENDBRANCH   1  23
TORSDOF 16
ENDMDL
MODEL 2
REMARK VINA RESULT:     -11.0      6.488     11.109
REMARK SMILES Cc1cnn([C@H]2CC[C@@]([NH3+])(C(=O)OCCOCCOC(=O)c3ccc(-c4c5nc(c(-c6c(F)cccc6F)c6ccc([nH]6)c(-c6c(F)cccc6F)c6nc(c(-c7c(F)cccc7F)c7ccc4[nH]7)C=C6)C=C5)cc3)C2)c1
REMARK SMILES IDX 17 1 16 2 15 3 14 4 13 5 11 6 12 7 9 8 6 9 7 10 76 11 8 12
REMARK SMILES IDX 5 13 1 14 2 15 3 16 77 17 4 18 10 19 18 23 19 24 20 25 21 26
REMARK SMILES IDX 22 27 23 28 75 29 24 30 74 31 25 32 26 33 27 34 68 35 28 36
REMARK SMILES IDX 73 37 67 38 69 39 29 40 72 41 66 42 65 43 30 45 56 46 39 47
REMARK SMILES IDX 55 48 40 49 43 50 54 51 70 52 41 53 42 54 53 56 71 57 44 58
REMARK SMILES IDX 31 59 32 60 37 61 33 62 34 63 36 64 38 65 35 66 57 67 58 68
REMARK SMILES IDX 63 69 59 70 60 71 62 72 64 73 61 74 45 75 46 76 51 77 47 78
REMARK SMILES IDX 48 79 50 80 52 81 49 82
REMARK H PARENT 10 20 10 21 10 22 69 44 43 55
REMARK Flexibility Score: inf
ROOT
ATOM      1  C   UNL A   1      34.064  34.610  28.597  1.00  0.00     0.202 C 
ENDROOT
BRANCH   1   2
ATOM      2  O   UNL A   1      33.282  33.575  28.011  1.00  0.00    -0.374 OA
BRANCH   2   3
ATOM      3  C   UNL A   1      33.953  32.314  27.976  1.00  0.00     0.202 C 
BRANCH   3   4
ATOM      4  C   UNL A   1      33.060  31.145  27.550  1.00  0.00     0.261 C 
BRANCH   4   5
ATOM      5  O   UNL A   1      33.508  30.537  26.317  1.00  0.00    -0.459 OA
BRANCH   5   6
ATOM      6  C   UNL A   1      32.594  29.744  25.682  1.00  0.00     0.368 C 
ATOM      7  O   UNL A   1      31.416  30.047  25.522  1.00  0.00    -0.245 OA
BRANCH   6   8
ATOM      8  C   UNL A   1      33.168  28.347  25.278  1.00  0.00     0.194 C 
ATOM      9  C   UNL A   1      31.730  27.272  23.557  1.00  0.00     0.114 C 
ATOM     10  C   UNL A   1      33.118  27.520  22.937  1.00  0.00     0.034 C 
ATOM     11  C   UNL A   1      32.029  27.320  25.067  1.00  0.00     0.108 C 
ATOM     12  C   UNL A   1      33.965  28.286  23.964  1.00  0.00     0.083 C 
BRANCH   9  13
ATOM     13  N   UNL A   1      30.681  28.130  23.025  1.00  0.00    -0.269 N 
ATOM     14  C   UNL A   1      27.483  29.873  22.997  1.00  0.00     0.048 C 
ATOM     15  C   UNL A   1      28.826  29.291  22.766  1.00  0.00    -0.013 A 
ATOM     16  C   UNL A   1      29.909  29.860  22.068  1.00  0.00     0.138 A 
ATOM     17  C   UNL A   1      29.333  28.102  23.251  1.00  0.00     0.112 A 
ATOM     18  N   UNL A   1      31.032  29.149  22.205  1.00  0.00    -0.181 NA
ENDBRANCH   9  13
BRANCH   8  19
ATOM     19  N   UNL A   1      34.044  27.928  26.396  1.00  0.00    -0.343 N 
ATOM     20  H   UNL A   1      34.338  26.961  26.256  1.00  0.00     0.345 HD
ATOM     21  H   UNL A   1      33.532  28.003  27.276  1.00  0.00     0.345 HD
ATOM     22  H   UNL A   1      34.866  28.531  26.429  1.00  0.00     0.345 HD
ENDBRANCH   8  19
ENDBRANCH   6   8
ENDBRANCH   5   6
ENDBRANCH   4   5
ENDBRANCH   3   4
ENDBRANCH   2   3
ENDBRANCH   1   2
BRANCH   1  23
ATOM     23  C   UNL A   1      33.283  35.492  29.556  1.00  0.00     0.261 C 
BRANCH  23  24
ATOM     24  O   UNL A   1      33.054  34.747  30.740  1.00  0.00    -0.460 OA
BRANCH  24  25
ATOM     25  C   UNL A   1      33.232  35.446  31.887  1.00  0.00     0.338 C 
ATOM     26  O   UNL A   1      32.776  36.514  32.205  1.00  0.00    -0.246 OA
BRANCH  25  27
ATOM     27  C   UNL A   1      34.234  34.664  32.613  1.00  0.00     0.060 A 
ATOM     28  C   UNL A   1      35.462  35.298  32.657  1.00  0.00     0.016 A 
ATOM     29  C   UNL A   1      34.071  33.267  32.713  1.00  0.00     0.016 A 
ATOM     30  C   UNL A   1      36.553  34.503  32.437  1.00  0.00     0.010 A 
ATOM     31  C   UNL A   1      35.169  32.475  32.499  1.00  0.00     0.010 A 
ATOM     32  C   UNL A   1      36.374  33.120  32.256  1.00  0.00    -0.014 A 
BRANCH  32  33
ATOM     33  C   UNL A   1      37.566  32.363  31.976  1.00  0.00     0.031 A 
ATOM     34  C   UNL A   1      38.404  32.267  33.182  1.00  0.00     0.074 A 
ATOM     35  C   UNL A   1      37.885  31.847  30.779  1.00  0.00     0.049 A 
ATOM     36  N   UNL A   1      39.423  33.006  33.458  1.00  0.00    -0.248 NA
ATOM     37  C   UNL A   1      37.888  31.484  34.312  1.00  0.00     0.031 C 
ATOM     38  C   UNL A   1      37.063  31.653  29.588  1.00  0.00     0.029 A 
ATOM     39  N   UNL A   1      39.082  31.318  30.419  1.00  0.00    -0.354 N 
ATOM     40  C   UNL A   1      39.808  32.631  34.734  1.00  0.00     0.074 A 
ATOM     41  C   UNL A   1      38.717  31.871  35.283  1.00  0.00     0.031 C 
ATOM     42  C   UNL A   1      37.720  30.835  28.729  1.00  0.00     0.029 A 
ATOM     43  C   UNL A   1      39.054  30.575  29.247  1.00  0.00     0.049 A 
ATOM     44  H   UNL A   1      39.904  31.448  30.946  1.00  0.00     0.167 HD
ATOM     45  C   UNL A   1      41.102  32.754  35.126  1.00  0.00     0.037 A 
ATOM     46  C   UNL A   1      40.050  29.748  28.843  1.00  0.00     0.037 A 
ATOM     47  C   UNL A   1      41.831  33.634  34.244  1.00  0.00     0.049 A 
ATOM     48  C   UNL A   1      41.293  30.167  29.555  1.00  0.00     0.074 A 
ATOM     49  C   UNL A   1      41.718  34.967  33.897  1.00  0.00     0.029 A 
ATOM     50  N   UNL A   1      42.597  33.051  33.263  1.00  0.00    -0.354 N 
ATOM     51  N   UNL A   1      41.921  31.284  29.312  1.00  0.00    -0.248 NA
ATOM     52  C   UNL A   1      41.548  29.586  30.868  1.00  0.00     0.031 C 
ATOM     53  C   UNL A   1      42.016  35.014  32.503  1.00  0.00     0.029 A 
ATOM     54  C   UNL A   1      42.359  33.726  32.093  1.00  0.00     0.049 A 
ATOM     55  H   UNL A   1      43.207  32.287  33.379  1.00  0.00     0.167 HD
ATOM     56  C   UNL A   1      42.284  31.768  30.562  1.00  0.00     0.074 A 
ATOM     57  C   UNL A   1      42.090  30.646  31.477  1.00  0.00     0.031 C 
ATOM     58  C   UNL A   1      42.422  33.107  30.788  1.00  0.00     0.037 A 
BRANCH  45  59
ATOM     59  C   UNL A   1      41.783  31.769  36.032  1.00  0.00     0.057 A 
ATOM     60  C   UNL A   1      42.485  32.251  37.147  1.00  0.00     0.134 A 
ATOM     61  C   UNL A   1      42.026  30.419  35.703  1.00  0.00     0.134 A 
ATOM     62  F   UNL A   1      42.348  33.524  37.550  1.00  0.00    -0.206 F 
ATOM     63  C   UNL A   1      43.419  31.469  37.834  1.00  0.00     0.040 A 
ATOM     64  C   UNL A   1      42.913  29.614  36.416  1.00  0.00     0.040 A 
ATOM     65  F   UNL A   1      41.508  29.832  34.618  1.00  0.00    -0.206 F 
ATOM     66  C   UNL A   1      43.640  30.148  37.465  1.00  0.00     0.006 A 
ENDBRANCH  45  59
BRANCH  46  67
ATOM     67  C   UNL A   1      39.935  28.424  28.189  1.00  0.00     0.057 A 
ATOM     68  C   UNL A   1      40.570  28.167  26.964  1.00  0.00     0.134 A 
ATOM     69  C   UNL A   1      39.453  27.300  28.881  1.00  0.00     0.134 A 
ATOM     70  F   UNL A   1      41.099  29.169  26.248  1.00  0.00    -0.206 F 
ATOM     71  C   UNL A   1      40.744  26.865  26.474  1.00  0.00     0.040 A 
ATOM     72  C   UNL A   1      39.615  25.997  28.401  1.00  0.00     0.040 A 
ATOM     73  F   UNL A   1      38.892  27.418  30.093  1.00  0.00    -0.206 F 
ATOM     74  C   UNL A   1      40.277  25.774  27.200  1.00  0.00     0.006 A 
ENDBRANCH  46  67
BRANCH  58  75
ATOM     75  C   UNL A   1      42.413  34.029  29.600  1.00  0.00     0.057 A 
ATOM     76  C   UNL A   1      41.287  34.742  29.157  1.00  0.00     0.134 A 
ATOM     77  C   UNL A   1      43.628  34.311  28.967  1.00  0.00     0.134 A 
ATOM     78  F   UNL A   1      40.103  34.617  29.771  1.00  0.00    -0.206 F 
ATOM     79  C   UNL A   1      41.362  35.654  28.100  1.00  0.00     0.040 A 
ATOM     80  C   UNL A   1      43.724  35.247  27.935  1.00  0.00     0.040 A 
ATOM     81  F   UNL A   1      44.758  33.711  29.374  1.00  0.00    -0.206 F 
ATOM     82  C   UNL A   1      42.586  35.913  27.489  1.00  0.00     0.006 A 
ENDBRANCH  58  75
ENDBRANCH  32  33
ENDBRANCH  25  27
ENDBRANCH  24  25
ENDBRANCH  23  24
ENDBRANCH   1  23
TORSDOF 16
ENDMDL
MODEL 3
REMARK VINA RESULT:     -10.9      1.389      2.195
REMARK SMILES Cc1cnn([C@H]2CC[C@@]([NH3+])(C(=O)OCCOCCOC(=O)c3ccc(-c4c5nc(c(-c6c(F)cccc6F)c6ccc([nH]6)c(-c6c(F)cccc6F)c6nc(c(-c7c(F)cccc7F)c7ccc4[nH]7)C=C6)C=C5)cc3)C2)c1
REMARK SMILES IDX 17 1 16 2 15 3 14 4 13 5 11 6 12 7 9 8 6 9 7 10 76 11 8 12
REMARK SMILES IDX 5 13 1 14 2 15 3 16 77 17 4 18 10 19 18 23 19 24 20 25 21 26
REMARK SMILES IDX 22 27 23 28 75 29 24 30 74 31 25 32 26 33 27 34 68 35 28 36
REMARK SMILES IDX 73 37 67 38 69 39 29 40 72 41 66 42 65 43 30 45 56 46 39 47
REMARK SMILES IDX 55 48 40 49 43 50 54 51 70 52 41 53 42 54 53 56 71 57 44 58
REMARK SMILES IDX 31 59 32 60 37 61 33 62 34 63 36 64 38 65 35 66 57 67 58 68
REMARK SMILES IDX 63 69 59 70 60 71 62 72 64 73 61 74 45 75 46 76 51 77 47 78
REMARK SMILES IDX 48 79 50 80 52 81 49 82
REMARK H PARENT 10 20 10 21 10 22 69 44 43 55
REMARK Flexibility Score: inf
ROOT
ATOM      1  C   UNL A   1      41.816  20.615  26.655  1.00  0.00     0.202 C 
ENDROOT
BRANCH   1   2
ATOM      2  O   UNL A   1      41.012  21.518  25.904  1.00  0.00    -0.374 OA
BRANCH   2   3
ATOM      3  C   UNL A   1      39.612  21.362  26.148  1.00  0.00     0.202 C 
BRANCH   3   4
ATOM      4  C   UNL A   1      38.798  22.643  25.947  1.00  0.00     0.261 C 
BRANCH   4   5
ATOM      5  O   UNL A   1      37.567  22.400  25.227  1.00  0.00    -0.459 OA
BRANCH   5   6
ATOM      6  C   UNL A   1      36.500  23.165  25.604  1.00  0.00     0.368 C 
ATOM      7  O   UNL A   1      36.585  24.341  25.946  1.00  0.00    -0.245 OA
BRANCH   6   8
ATOM      8  C   UNL A   1      35.161  22.361  25.674  1.00  0.00     0.194 C 
ATOM      9  C   UNL A   1      33.212  23.874  25.362  1.00  0.00     0.114 C 
ATOM     10  C   UNL A   1      33.232  22.868  24.195  1.00  0.00     0.034 C 
ATOM     11  C   UNL A   1      34.071  23.164  26.425  1.00  0.00     0.108 C 
ATOM     12  C   UNL A   1      34.499  22.011  24.331  1.00  0.00     0.083 C 
BRANCH   9  13
ATOM     13  N   UNL A   1      33.559  25.235  24.978  1.00  0.00    -0.269 N 
ATOM     14  C   UNL A   1      33.723  28.155  22.807  1.00  0.00     0.048 C 
ATOM     15  C   UNL A   1      33.782  27.130  23.875  1.00  0.00    -0.013 A 
ATOM     16  C   UNL A   1      33.754  27.328  25.270  1.00  0.00     0.138 A 
ATOM     17  C   UNL A   1      33.799  25.756  23.737  1.00  0.00     0.112 A 
ATOM     18  N   UNL A   1      33.639  26.180  25.944  1.00  0.00    -0.181 NA
ENDBRANCH   9  13
BRANCH   8  19
ATOM     19  N   UNL A   1      35.476  21.109  26.400  1.00  0.00    -0.343 N 
ATOM     20  H   UNL A   1      36.267  20.646  25.953  1.00  0.00     0.345 HD
ATOM     21  H   UNL A   1      34.665  20.491  26.381  1.00  0.00     0.345 HD
ATOM     22  H   UNL A   1      35.713  21.328  27.368  1.00  0.00     0.345 HD
ENDBRANCH   8  19
ENDBRANCH   6   8
ENDBRANCH   5   6
ENDBRANCH   4   5
ENDBRANCH   3   4
ENDBRANCH   2   3
ENDBRANCH   1   2
BRANCH   1  23
ATOM     23  C   UNL A   1      42.510  19.568  25.801  1.00  0.00     0.261 C 
BRANCH  23  24
ATOM     24  O   UNL A   1      43.894  19.876  25.780  1.00  0.00    -0.460 OA
BRANCH  24  25
ATOM     25  C   UNL A   1      44.390  20.143  24.547  1.00  0.00     0.338 C 
ATOM     26  O   UNL A   1      44.545  19.401  23.612  1.00  0.00    -0.246 OA
BRANCH  25  27
ATOM     27  C   UNL A   1      44.837  21.533  24.651  1.00  0.00     0.060 A 
ATOM     28  C   UNL A   1      45.520  21.778  25.829  1.00  0.00     0.016 A 
ATOM     29  C   UNL A   1      44.151  22.528  23.924  1.00  0.00     0.016 A 
ATOM     30  C   UNL A   1      45.212  22.947  26.467  1.00  0.00     0.010 A 
ATOM     31  C   UNL A   1      43.852  23.702  24.566  1.00  0.00     0.010 A 
ATOM     32  C   UNL A   1      44.300  23.838  25.873  1.00  0.00    -0.014 A 
BRANCH  32  33
ATOM     33  C   UNL A   1      43.989  25.020  26.633  1.00  0.00     0.031 A 
ATOM     34  C   UNL A   1      45.067  26.012  26.497  1.00  0.00     0.074 A 
ATOM     35  C   UNL A   1      42.890  25.181  27.387  1.00  0.00     0.049 A 
ATOM     36  N   UNL A   1      46.024  26.213  27.337  1.00  0.00    -0.248 NA
ATOM     37  C   UNL A   1      45.268  26.628  25.179  1.00  0.00     0.031 C 
ATOM     38  C   UNL A   1      41.651  24.409  27.422  1.00  0.00     0.029 A 
ATOM     39  N   UNL A   1      42.660  26.178  28.279  1.00  0.00    -0.354 N 
ATOM     40  C   UNL A   1      46.848  27.147  26.732  1.00  0.00     0.074 A 
ATOM     41  C   UNL A   1      46.464  27.193  25.347  1.00  0.00     0.031 C 
ATOM     42  C   UNL A   1      40.718  25.108  28.114  1.00  0.00     0.029 A 
ATOM     43  C   UNL A   1      41.338  26.293  28.685  1.00  0.00     0.049 A 
ATOM     44  H   UNL A   1      43.372  26.772  28.611  1.00  0.00     0.167 HD
ATOM     45  C   UNL A   1      47.597  27.992  27.485  1.00  0.00     0.037 A 
ATOM     46  C   UNL A   1      40.834  27.361  29.352  1.00  0.00     0.037 A 
ATOM     47  C   UNL A   1      47.702  27.524  28.846  1.00  0.00     0.049 A 
ATOM     48  C   UNL A   1      41.984  28.075  29.984  1.00  0.00     0.074 A 
ATOM     49  C   UNL A   1      48.224  26.392  29.442  1.00  0.00     0.029 A 
ATOM     50  N   UNL A   1      46.854  28.083  29.773  1.00  0.00    -0.354 N 
ATOM     51  N   UNL A   1      42.672  27.589  30.979  1.00  0.00    -0.248 NA
ATOM     52  C   UNL A   1      42.672  29.085  29.190  1.00  0.00     0.031 C 
ATOM     53  C   UNL A   1      47.317  26.075  30.495  1.00  0.00     0.029 A 
ATOM     54  C   UNL A   1      46.334  27.064  30.528  1.00  0.00     0.049 A 
ATOM     55  H   UNL A   1      46.656  29.042  29.875  1.00  0.00     0.167 HD
ATOM     56  C   UNL A   1      43.994  27.891  30.680  1.00  0.00     0.074 A 
ATOM     57  C   UNL A   1      43.926  28.874  29.601  1.00  0.00     0.031 C 
ATOM     58  C   UNL A   1      45.017  27.103  31.122  1.00  0.00     0.037 A 
BRANCH  45  59
ATOM     59  C   UNL A   1      47.867  29.418  27.095  1.00  0.00     0.057 A 
ATOM     60  C   UNL A   1      49.180  29.904  27.183  1.00  0.00     0.134 A 
ATOM     61  C   UNL A   1      46.868  30.400  26.925  1.00  0.00     0.134 A 
ATOM     62  F   UNL A   1      50.214  29.068  27.360  1.00  0.00    -0.206 F 
ATOM     63  C   UNL A   1      49.468  31.273  27.180  1.00  0.00     0.040 A 
ATOM     64  C   UNL A   1      47.151  31.764  26.864  1.00  0.00     0.040 A 
ATOM     65  F   UNL A   1      45.562  30.113  26.915  1.00  0.00    -0.206 F 
ATOM     66  C   UNL A   1      48.452  32.208  27.028  1.00  0.00     0.006 A 
ENDBRANCH  45  59
BRANCH  46  67
ATOM     67  C   UNL A   1      39.513  28.009  29.183  1.00  0.00     0.057 A 
ATOM     68  C   UNL A   1      38.616  28.110  30.257  1.00  0.00     0.134 A 
ATOM     69  C   UNL A   1      39.219  28.800  28.058  1.00  0.00     0.134 A 
ATOM     70  F   UNL A   1      38.832  27.427  31.390  1.00  0.00    -0.206 F 
ATOM     71  C   UNL A   1      37.510  28.972  30.226  1.00  0.00     0.040 A 
ATOM     72  C   UNL A   1      38.116  29.658  28.013  1.00  0.00     0.040 A 
ATOM     73  F   UNL A   1      40.043  28.838  27.001  1.00  0.00    -0.206 F 
ATOM     74  C   UNL A   1      37.265  29.758  29.107  1.00  0.00     0.006 A 
ENDBRANCH  46  67
BRANCH  58  75
ATOM     75  C   UNL A   1      44.702  26.045  32.143  1.00  0.00     0.057 A 
ATOM     76  C   UNL A   1      44.375  24.715  31.832  1.00  0.00     0.134 A 
ATOM     77  C   UNL A   1      44.874  26.352  33.497  1.00  0.00     0.134 A 
ATOM     78  F   UNL A   1      44.292  24.301  30.561  1.00  0.00    -0.206 F 
ATOM     79  C   UNL A   1      44.180  23.752  32.828  1.00  0.00     0.040 A 
ATOM     80  C   UNL A   1      44.719  25.392  34.499  1.00  0.00     0.040 A 
ATOM     81  F   UNL A   1      45.244  27.589  33.867  1.00  0.00    -0.206 F 
ATOM     82  C   UNL A   1      44.358  24.090  34.167  1.00  0.00     0.006 A 
ENDBRANCH  58  75
ENDBRANCH  32  33
ENDBRANCH  25  27
ENDBRANCH  24  25
ENDBRANCH  23  24
ENDBRANCH   1  23
TORSDOF 16
ENDMDL
