MODEL 1
REMARK VINA RESULT:     -12.7      0.000      0.000
REMARK SMILES Cc1c(C(=O)OCCOCCOC(=O)c2ccc(-c3c4nc(c(-c5c(F)cccc5F)c5ccc([nH]5)c(-c5c(F)cccc5F)c5nc(c(-c6c(F)cccc6F)c6ccc3[nH]6)C=C5)C=C4)cc2)oc2c1/C(=N/NC(=O)C(c1ccccc1)c1ccccc1)CCC2
REMARK SMILES IDX 8 1 7 2 6 3 4 4 5 5 3 6 1 7 2 8 71 9 69 10 70 11 72 12 92 13
REMARK SMILES IDX 73 14 90 15 91 16 74 17 75 18 76 20 77 21 78 22 79 23 83 24
REMARK SMILES IDX 80 25 82 26 81 27 84 28 85 29 89 30 86 31 88 32 87 33 9 34
REMARK SMILES IDX 10 35 11 36 12 37 13 38 14 39 15 40 16 41 68 42 17 43 67 44
REMARK SMILES IDX 18 45 19 46 20 47 61 48 21 49 66 50 60 51 62 52 22 53 65 54
REMARK SMILES IDX 59 55 58 56 23 58 49 59 32 60 48 61 33 62 36 63 47 64 63 65
REMARK SMILES IDX 34 66 35 67 46 69 64 70 37 71 24 72 25 73 30 74 26 75 27 76
REMARK SMILES IDX 29 77 31 78 28 79 50 80 51 81 56 82 52 83 53 84 55 85 57 86
REMARK SMILES IDX 54 87 38 88 39 89 44 90 40 91 41 92 43 93 45 94 42 95
REMARK H PARENT 74 19 62 57 36 68
REMARK Flexibility Score: inf
ROOT
ATOM      1  C   UNL A   1      34.745  33.960  28.061  1.00  0.00     0.202 C 
ENDROOT
BRANCH   1   2
ATOM      2  C   UNL A   1      33.785  32.892  28.585  1.00  0.00     0.261 C 
BRANCH   2   3
ATOM      3  O   UNL A   1      33.276  32.107  27.515  1.00  0.00    -0.457 OA
BRANCH   3   4
ATOM      4  C   UNL A   1      33.845  30.878  27.348  1.00  0.00     0.374 C 
ATOM      5  O   UNL A   1      34.736  30.404  28.025  1.00  0.00    -0.242 OA
BRANCH   4   6
ATOM      6  C   UNL A   1      33.082  30.197  26.331  1.00  0.00     0.215 A 
ATOM      7  C   UNL A   1      34.438  28.089  25.684  1.00  0.00     0.049 C 
ATOM      8  C   UNL A   1      33.298  29.035  25.591  1.00  0.00     0.012 A 
ATOM      9  C   UNL A   1      32.227  29.003  24.656  1.00  0.00     0.043 A 
ATOM     10  O   UNL A   1      31.859  30.726  26.046  1.00  0.00    -0.453 OA
ATOM     11  C   UNL A   1      31.363  30.014  25.036  1.00  0.00     0.114 A 
ATOM     12  C   UNL A   1      32.000  28.291  23.400  1.00  0.00     0.072 C 
ATOM     13  C   UNL A   1      30.143  30.540  24.392  1.00  0.00     0.076 C 
ATOM     14  N   UNL A   1      32.718  27.220  23.209  1.00  0.00    -0.177 NA
ATOM     15  C   UNL A   1      31.059  29.132  22.561  1.00  0.00     0.059 C 
ATOM     16  C   UNL A   1      29.787  29.614  23.250  1.00  0.00     0.014 C 
BRANCH  14  17
ATOM     17  N   UNL A   1      32.927  26.314  22.191  1.00  0.00    -0.246 N 
ATOM     18  C   UNL A   1      33.091  24.947  22.013  1.00  0.00     0.252 C 
ATOM     19  H   UNL A   1      32.973  26.779  21.324  1.00  0.00     0.193 HD
ATOM     20  O   UNL A   1      33.291  24.532  20.862  1.00  0.00    -0.272 OA
BRANCH  18  21
ATOM     21  C   UNL A   1      33.018  23.956  23.182  1.00  0.00     0.140 C 
BRANCH  21  22
ATOM     22  C   UNL A   1      34.515  23.776  23.700  1.00  0.00    -0.031 A 
ATOM     23  C   UNL A   1      35.465  22.950  23.078  1.00  0.00     0.005 A 
ATOM     24  C   UNL A   1      34.952  24.394  24.911  1.00  0.00     0.005 A 
ATOM     25  C   UNL A   1      36.692  22.654  23.716  1.00  0.00     0.000 A 
ATOM     26  C   UNL A   1      36.135  24.058  25.570  1.00  0.00     0.000 A 
ATOM     27  C   UNL A   1      37.007  23.169  24.976  1.00  0.00     0.000 A 
ENDBRANCH  21  22
BRANCH  21  28
ATOM     28  C   UNL A   1      31.775  24.412  24.071  1.00  0.00    -0.031 A 
ATOM     29  C   UNL A   1      30.541  24.744  23.435  1.00  0.00     0.005 A 
ATOM     30  C   UNL A   1      31.820  24.654  25.454  1.00  0.00     0.005 A 
ATOM     31  C   UNL A   1      29.571  25.553  24.033  1.00  0.00     0.000 A 
ATOM     32  C   UNL A   1      30.807  25.423  26.079  1.00  0.00     0.000 A 
ATOM     33  C   UNL A   1      29.725  25.930  25.353  1.00  0.00     0.000 A 
ENDBRANCH  21  28
ENDBRANCH  18  21
ENDBRANCH  14  17
ENDBRANCH   4   6
ENDBRANCH   3   4
ENDBRANCH   2   3
ENDBRANCH   1   2
BRANCH   1  34
ATOM     34  O   UNL A   1      34.480  35.326  28.389  1.00  0.00    -0.374 OA
BRANCH  34  35
ATOM     35  C   UNL A   1      33.238  35.697  28.986  1.00  0.00     0.202 C 
BRANCH  35  36
ATOM     36  C   UNL A   1      33.241  36.486  30.285  1.00  0.00     0.261 C 
BRANCH  36  37
ATOM     37  O   UNL A   1      34.003  35.808  31.267  1.00  0.00    -0.460 OA
BRANCH  37  38
ATOM     38  C   UNL A   1      33.259  35.133  32.168  1.00  0.00     0.338 C 
ATOM     39  O   UNL A   1      32.051  35.181  32.317  1.00  0.00    -0.246 OA
BRANCH  38  40
ATOM     40  C   UNL A   1      34.175  34.412  33.064  1.00  0.00     0.060 A 
ATOM     41  C   UNL A   1      35.261  35.182  33.474  1.00  0.00     0.016 A 
ATOM     42  C   UNL A   1      34.231  33.015  32.955  1.00  0.00     0.016 A 
ATOM     43  C   UNL A   1      36.502  34.615  33.353  1.00  0.00     0.010 A 
ATOM     44  C   UNL A   1      35.469  32.456  32.810  1.00  0.00     0.010 A 
ATOM     45  C   UNL A   1      36.574  33.299  32.890  1.00  0.00    -0.014 A 
BRANCH  45  46
ATOM     46  C   UNL A   1      37.869  32.761  32.564  1.00  0.00     0.031 A 
ATOM     47  C   UNL A   1      38.762  32.774  33.739  1.00  0.00     0.074 A 
ATOM     48  C   UNL A   1      38.121  32.234  31.352  1.00  0.00     0.049 A 
ATOM     49  N   UNL A   1      39.808  33.507  33.914  1.00  0.00    -0.248 NA
ATOM     50  C   UNL A   1      38.298  32.087  34.957  1.00  0.00     0.031 C 
ATOM     51  C   UNL A   1      37.202  32.013  30.231  1.00  0.00     0.029 A 
ATOM     52  N   UNL A   1      39.278  31.671  30.912  1.00  0.00    -0.354 N 
ATOM     53  C   UNL A   1      40.257  33.202  35.193  1.00  0.00     0.074 A 
ATOM     54  C   UNL A   1      39.174  32.533  35.855  1.00  0.00     0.031 C 
ATOM     55  C   UNL A   1      37.769  31.156  29.350  1.00  0.00     0.029 A 
ATOM     56  C   UNL A   1      39.121  30.865  29.785  1.00  0.00     0.049 A 
ATOM     57  H   UNL A   1      40.147  31.818  31.350  1.00  0.00     0.167 HD
ATOM     58  C   UNL A   1      41.578  33.272  35.501  1.00  0.00     0.037 A 
ATOM     59  C   UNL A   1      40.039  29.958  29.362  1.00  0.00     0.037 A 
ATOM     60  C   UNL A   1      42.291  34.044  34.516  1.00  0.00     0.049 A 
ATOM     61  C   UNL A   1      41.341  30.346  29.982  1.00  0.00     0.074 A 
ATOM     62  C   UNL A   1      42.235  35.361  34.105  1.00  0.00     0.029 A 
ATOM     63  N   UNL A   1      42.923  33.352  33.510  1.00  0.00    -0.354 N 
ATOM     64  N   UNL A   1      41.977  31.445  29.666  1.00  0.00    -0.248 NA
ATOM     65  C   UNL A   1      41.637  29.815  31.308  1.00  0.00     0.031 C 
ATOM     66  C   UNL A   1      42.404  35.311  32.692  1.00  0.00     0.029 A 
ATOM     67  C   UNL A   1      42.645  33.986  32.327  1.00  0.00     0.049 A 
ATOM     68  H   UNL A   1      43.478  32.545  33.619  1.00  0.00     0.167 HD
ATOM     69  C   UNL A   1      42.406  31.968  30.880  1.00  0.00     0.074 A 
ATOM     70  C   UNL A   1      42.212  30.894  31.852  1.00  0.00     0.031 C 
ATOM     71  C   UNL A   1      42.583  33.312  31.050  1.00  0.00     0.037 A 
BRANCH  58  72
ATOM     72  C   UNL A   1      42.275  32.321  36.439  1.00  0.00     0.057 A 
ATOM     73  C   UNL A   1      42.995  32.857  37.521  1.00  0.00     0.134 A 
ATOM     74  C   UNL A   1      42.519  30.958  36.174  1.00  0.00     0.134 A 
ATOM     75  F   UNL A   1      42.846  34.141  37.880  1.00  0.00    -0.206 F 
ATOM     76  C   UNL A   1      43.958  32.119  38.216  1.00  0.00     0.040 A 
ATOM     77  C   UNL A   1      43.440  30.198  36.896  1.00  0.00     0.040 A 
ATOM     78  F   UNL A   1      41.966  30.304  35.147  1.00  0.00    -0.206 F 
ATOM     79  C   UNL A   1      44.192  30.787  37.896  1.00  0.00     0.006 A 
ENDBRANCH  58  72
BRANCH  59  80
ATOM     80  C   UNL A   1      39.791  28.622  28.767  1.00  0.00     0.057 A 
ATOM     81  C   UNL A   1      40.236  28.293  27.478  1.00  0.00     0.134 A 
ATOM     82  C   UNL A   1      39.331  27.546  29.547  1.00  0.00     0.134 A 
ATOM     83  F   UNL A   1      40.741  29.237  26.671  1.00  0.00    -0.206 F 
ATOM     84  C   UNL A   1      40.228  26.973  26.998  1.00  0.00     0.040 A 
ATOM     85  C   UNL A   1      39.312  26.227  29.080  1.00  0.00     0.040 A 
ATOM     86  F   UNL A   1      38.961  27.722  30.824  1.00  0.00    -0.206 F 
ATOM     87  C   UNL A   1      39.771  25.934  27.805  1.00  0.00     0.006 A 
ENDBRANCH  59  80
BRANCH  71  88
ATOM     88  C   UNL A   1      42.477  34.201  29.841  1.00  0.00     0.057 A 
ATOM     89  C   UNL A   1      41.283  34.810  29.421  1.00  0.00     0.134 A 
ATOM     90  C   UNL A   1      43.653  34.620  29.214  1.00  0.00     0.134 A 
ATOM     91  F   UNL A   1      40.122  34.551  30.033  1.00  0.00    -0.206 F 
ATOM     92  C   UNL A   1      41.261  35.770  28.404  1.00  0.00     0.040 A 
ATOM     93  C   UNL A   1      43.650  35.602  28.221  1.00  0.00     0.040 A 
ATOM     94  F   UNL A   1      44.838  34.130  29.610  1.00  0.00    -0.206 F 
ATOM     95  C   UNL A   1      42.451  36.175  27.808  1.00  0.00     0.006 A 
ENDBRANCH  71  88
ENDBRANCH  45  46
ENDBRANCH  38  40
ENDBRANCH  37  38
ENDBRANCH  36  37
ENDBRANCH  35  36
ENDBRANCH  34  35
ENDBRANCH   1  34
TORSDOF 18
ENDMDL
MODEL 2
REMARK VINA RESULT:     -12.5      2.085      2.925
REMARK SMILES Cc1c(C(=O)OCCOCCOC(=O)c2ccc(-c3c4nc(c(-c5c(F)cccc5F)c5ccc([nH]5)c(-c5c(F)cccc5F)c5nc(c(-c6c(F)cccc6F)c6ccc3[nH]6)C=C5)C=C4)cc2)oc2c1/C(=N/NC(=O)C(c1ccccc1)c1ccccc1)CCC2
REMARK SMILES IDX 8 1 7 2 6 3 4 4 5 5 3 6 1 7 2 8 71 9 69 10 70 11 72 12 92 13
REMARK SMILES IDX 73 14 90 15 91 16 74 17 75 18 76 20 77 21 78 22 79 23 83 24
REMARK SMILES IDX 80 25 82 26 81 27 84 28 85 29 89 30 86 31 88 32 87 33 9 34
REMARK SMILES IDX 10 35 11 36 12 37 13 38 14 39 15 40 16 41 68 42 17 43 67 44
REMARK SMILES IDX 18 45 19 46 20 47 61 48 21 49 66 50 60 51 62 52 22 53 65 54
REMARK SMILES IDX 59 55 58 56 23 58 49 59 32 60 48 61 33 62 36 63 47 64 63 65
REMARK SMILES IDX 34 66 35 67 46 69 64 70 37 71 24 72 25 73 30 74 26 75 27 76
REMARK SMILES IDX 29 77 31 78 28 79 50 80 51 81 56 82 52 83 53 84 55 85 57 86
REMARK SMILES IDX 54 87 38 88 39 89 44 90 40 91 41 92 43 93 45 94 42 95
REMARK H PARENT 74 19 62 57 36 68
REMARK Flexibility Score: inf
ROOT
ATOM      1  C   UNL A   1      34.061  30.937  27.629  1.00  0.00     0.202 C 
ENDROOT
BRANCH   1   2
ATOM      2  C   UNL A   1      32.831  30.099  27.275  1.00  0.00     0.261 C 
BRANCH   2   3
ATOM      3  O   UNL A   1      33.196  28.745  27.047  1.00  0.00    -0.457 OA
BRANCH   3   4
ATOM      4  C   UNL A   1      32.193  27.826  27.151  1.00  0.00     0.374 C 
ATOM      5  O   UNL A   1      31.402  27.732  28.068  1.00  0.00    -0.242 OA
BRANCH   4   6
ATOM      6  C   UNL A   1      32.152  27.106  25.902  1.00  0.00     0.215 A 
ATOM      7  C   UNL A   1      31.372  24.703  26.465  1.00  0.00     0.049 C 
ATOM      8  C   UNL A   1      31.832  25.791  25.567  1.00  0.00     0.012 A 
ATOM      9  C   UNL A   1      32.135  25.692  24.181  1.00  0.00     0.043 A 
ATOM     10  O   UNL A   1      32.411  27.837  24.781  1.00  0.00    -0.453 OA
ATOM     11  C   UNL A   1      32.412  26.980  23.762  1.00  0.00     0.114 A 
ATOM     12  C   UNL A   1      32.359  24.571  23.271  1.00  0.00     0.072 C 
ATOM     13  C   UNL A   1      32.897  27.495  22.466  1.00  0.00     0.076 C 
ATOM     14  N   UNL A   1      31.882  23.419  23.650  1.00  0.00    -0.177 NA
ATOM     15  C   UNL A   1      33.269  25.057  22.161  1.00  0.00     0.059 C 
ATOM     16  C   UNL A   1      32.861  26.356  21.472  1.00  0.00     0.014 C 
BRANCH  14  17
ATOM     17  N   UNL A   1      31.923  22.114  23.205  1.00  0.00    -0.246 N 
ATOM     18  C   UNL A   1      32.435  20.883  23.593  1.00  0.00     0.252 C 
ATOM     19  H   UNL A   1      31.442  22.029  22.350  1.00  0.00     0.193 HD
ATOM     20  O   UNL A   1      32.250  19.915  22.842  1.00  0.00    -0.272 OA
BRANCH  18  21
ATOM     21  C   UNL A   1      33.195  20.694  24.913  1.00  0.00     0.140 C 
BRANCH  21  22
ATOM     22  C   UNL A   1      33.458  19.127  25.049  1.00  0.00    -0.031 A 
ATOM     23  C   UNL A   1      34.473  18.441  24.364  1.00  0.00     0.005 A 
ATOM     24  C   UNL A   1      32.593  18.304  25.831  1.00  0.00     0.005 A 
ATOM     25  C   UNL A   1      34.504  17.027  24.347  1.00  0.00     0.000 A 
ATOM     26  C   UNL A   1      32.585  16.909  25.770  1.00  0.00     0.000 A 
ATOM     27  C   UNL A   1      33.539  16.264  25.010  1.00  0.00     0.000 A 
ENDBRANCH  21  22
BRANCH  21  28
ATOM     28  C   UNL A   1      34.312  21.831  24.946  1.00  0.00    -0.031 A 
ATOM     29  C   UNL A   1      34.355  22.742  26.044  1.00  0.00     0.005 A 
ATOM     30  C   UNL A   1      35.204  22.114  23.898  1.00  0.00     0.005 A 
ATOM     31  C   UNL A   1      34.964  23.997  25.966  1.00  0.00     0.000 A 
ATOM     32  C   UNL A   1      35.873  23.362  23.845  1.00  0.00     0.000 A 
ATOM     33  C   UNL A   1      35.694  24.326  24.841  1.00  0.00     0.000 A 
ENDBRANCH  21  28
ENDBRANCH  18  21
ENDBRANCH  14  17
ENDBRANCH   4   6
ENDBRANCH   3   4
ENDBRANCH   2   3
ENDBRANCH   1   2
BRANCH   1  34
ATOM     34  O   UNL A   1      33.891  32.040  28.522  1.00  0.00    -0.374 OA
BRANCH  34  35
ATOM     35  C   UNL A   1      34.493  33.302  28.233  1.00  0.00     0.202 C 
BRANCH  35  36
ATOM     36  C   UNL A   1      33.998  34.546  28.953  1.00  0.00     0.261 C 
BRANCH  36  37
ATOM     37  O   UNL A   1      33.309  34.184  30.136  1.00  0.00    -0.460 OA
BRANCH  37  38
ATOM     38  C   UNL A   1      33.495  35.041  31.162  1.00  0.00     0.338 C 
ATOM     39  O   UNL A   1      33.128  36.200  31.237  1.00  0.00    -0.246 OA
BRANCH  38  40
ATOM     40  C   UNL A   1      34.359  34.381  32.153  1.00  0.00     0.060 A 
ATOM     41  C   UNL A   1      35.446  35.163  32.541  1.00  0.00     0.016 A 
ATOM     42  C   UNL A   1      34.387  32.980  32.164  1.00  0.00     0.016 A 
ATOM     43  C   UNL A   1      36.677  34.563  32.518  1.00  0.00     0.010 A 
ATOM     44  C   UNL A   1      35.617  32.387  32.116  1.00  0.00     0.010 A 
ATOM     45  C   UNL A   1      36.738  33.211  32.171  1.00  0.00    -0.014 A 
BRANCH  45  46
ATOM     46  C   UNL A   1      38.031  32.623  31.944  1.00  0.00     0.031 A 
ATOM     47  C   UNL A   1      38.847  32.639  33.174  1.00  0.00     0.074 A 
ATOM     48  C   UNL A   1      38.344  32.055  30.765  1.00  0.00     0.049 A 
ATOM     49  N   UNL A   1      39.903  33.343  33.399  1.00  0.00    -0.248 NA
ATOM     50  C   UNL A   1      38.282  32.001  34.377  1.00  0.00     0.031 C 
ATOM     51  C   UNL A   1      37.492  31.833  29.592  1.00  0.00     0.029 A 
ATOM     52  N   UNL A   1      39.506  31.442  30.417  1.00  0.00    -0.354 N 
ATOM     53  C   UNL A   1      40.258  33.058  34.712  1.00  0.00     0.074 A 
ATOM     54  C   UNL A   1      39.112  32.444  35.318  1.00  0.00     0.031 C 
ATOM     55  C   UNL A   1      38.085  30.933  28.773  1.00  0.00     0.029 A 
ATOM     56  C   UNL A   1      39.395  30.611  29.303  1.00  0.00     0.049 A 
ATOM     57  H   UNL A   1      40.350  31.573  30.907  1.00  0.00     0.167 HD
ATOM     58  C   UNL A   1      41.558  33.093  35.105  1.00  0.00     0.037 A 
ATOM     59  C   UNL A   1      40.307  29.663  28.964  1.00  0.00     0.037 A 
ATOM     60  C   UNL A   1      42.360  33.815  34.149  1.00  0.00     0.049 A 
ATOM     61  C   UNL A   1      41.579  30.026  29.658  1.00  0.00     0.074 A 
ATOM     62  C   UNL A   1      42.376  35.121  33.702  1.00  0.00     0.029 A 
ATOM     63  N   UNL A   1      43.031  33.075  33.205  1.00  0.00    -0.354 N 
ATOM     64  N   UNL A   1      42.271  31.094  29.357  1.00  0.00    -0.248 NA
ATOM     65  C   UNL A   1      41.770  29.523  31.013  1.00  0.00     0.031 C 
ATOM     66  C   UNL A   1      42.634  35.027  32.305  1.00  0.00     0.029 A 
ATOM     67  C   UNL A   1      42.852  33.684  31.990  1.00  0.00     0.049 A 
ATOM     68  H   UNL A   1      43.549  32.254  33.371  1.00  0.00     0.167 HD
ATOM     69  C   UNL A   1      42.639  31.636  30.582  1.00  0.00     0.074 A 
ATOM     70  C   UNL A   1      42.345  30.596  31.567  1.00  0.00     0.031 C 
ATOM     71  C   UNL A   1      42.850  32.978  30.729  1.00  0.00     0.037 A 
BRANCH  58  72
ATOM     72  C   UNL A   1      42.159  32.147  36.111  1.00  0.00     0.057 A 
ATOM     73  C   UNL A   1      42.837  32.689  37.216  1.00  0.00     0.134 A 
ATOM     74  C   UNL A   1      42.363  30.768  35.900  1.00  0.00     0.134 A 
ATOM     75  F   UNL A   1      42.719  33.989  37.528  1.00  0.00    -0.206 F 
ATOM     76  C   UNL A   1      43.726  31.936  37.990  1.00  0.00     0.040 A 
ATOM     77  C   UNL A   1      43.208  29.996  36.699  1.00  0.00     0.040 A 
ATOM     78  F   UNL A   1      41.845  30.103  34.862  1.00  0.00    -0.206 F 
ATOM     79  C   UNL A   1      43.925  30.587  37.724  1.00  0.00     0.006 A 
ENDBRANCH  58  72
BRANCH  59  80
ATOM     80  C   UNL A   1      40.053  28.320  28.388  1.00  0.00     0.057 A 
ATOM     81  C   UNL A   1      40.542  27.952  27.126  1.00  0.00     0.134 A 
ATOM     82  C   UNL A   1      39.536  27.272  29.171  1.00  0.00     0.134 A 
ATOM     83  F   UNL A   1      41.101  28.866  26.320  1.00  0.00    -0.206 F 
ATOM     84  C   UNL A   1      40.522  26.622  26.675  1.00  0.00     0.040 A 
ATOM     85  C   UNL A   1      39.506  25.944  28.733  1.00  0.00     0.040 A 
ATOM     86  F   UNL A   1      39.119  27.485  30.428  1.00  0.00    -0.206 F 
ATOM     87  C   UNL A   1      40.010  25.612  27.484  1.00  0.00     0.006 A 
ENDBRANCH  59  80
BRANCH  71  88
ATOM     88  C   UNL A   1      42.853  33.837  29.494  1.00  0.00     0.057 A 
ATOM     89  C   UNL A   1      41.749  34.591  29.064  1.00  0.00     0.134 A 
ATOM     90  C   UNL A   1      44.068  34.070  28.845  1.00  0.00     0.134 A 
ATOM     91  F   UNL A   1      40.571  34.514  29.692  1.00  0.00    -0.206 F 
ATOM     92  C   UNL A   1      41.848  35.514  28.017  1.00  0.00     0.040 A 
ATOM     93  C   UNL A   1      44.188  35.012  27.822  1.00  0.00     0.040 A 
ATOM     94  F   UNL A   1      45.179  33.433  29.247  1.00  0.00    -0.206 F 
ATOM     95  C   UNL A   1      43.074  35.733  27.399  1.00  0.00     0.006 A 
ENDBRANCH  71  88
ENDBRANCH  45  46
ENDBRANCH  38  40
ENDBRANCH  37  38
ENDBRANCH  36  37
ENDBRANCH  35  36
ENDBRANCH  34  35
ENDBRANCH   1  34
TORSDOF 18
ENDMDL
MODEL 3
REMARK VINA RESULT:     -12.5      5.453     10.569
REMARK SMILES Cc1c(C(=O)OCCOCCOC(=O)c2ccc(-c3c4nc(c(-c5c(F)cccc5F)c5ccc([nH]5)c(-c5c(F)cccc5F)c5nc(c(-c6c(F)cccc6F)c6ccc3[nH]6)C=C5)C=C4)cc2)oc2c1/C(=N/NC(=O)C(c1ccccc1)c1ccccc1)CCC2
REMARK SMILES IDX 8 1 7 2 6 3 4 4 5 5 3 6 1 7 2 8 71 9 69 10 70 11 72 12 92 13
REMARK SMILES IDX 73 14 90 15 91 16 74 17 75 18 76 20 77 21 78 22 79 23 83 24
REMARK SMILES IDX 80 25 82 26 81 27 84 28 85 29 89 30 86 31 88 32 87 33 9 34
REMARK SMILES IDX 10 35 11 36 12 37 13 38 14 39 15 40 16 41 68 42 17 43 67 44
REMARK SMILES IDX 18 45 19 46 20 47 61 48 21 49 66 50 60 51 62 52 22 53 65 54
REMARK SMILES IDX 59 55 58 56 23 58 49 59 32 60 48 61 33 62 36 63 47 64 63 65
REMARK SMILES IDX 34 66 35 67 46 69 64 70 37 71 24 72 25 73 30 74 26 75 27 76
REMARK SMILES IDX 29 77 31 78 28 79 50 80 51 81 56 82 52 83 53 84 55 85 57 86
REMARK SMILES IDX 54 87 38 88 39 89 44 90 40 91 41 92 43 93 45 94 42 95
REMARK H PARENT 74 19 62 57 36 68
REMARK Flexibility Score: inf
ROOT
ATOM      1  C   UNL A   1      40.878  20.959  27.460  1.00  0.00     0.202 C 
ENDROOT
BRANCH   1   2
ATOM      2  C   UNL A   1      40.382  21.288  26.051  1.00  0.00     0.261 C 
BRANCH   2   3
ATOM      3  O   UNL A   1      38.962  21.257  26.000  1.00  0.00    -0.457 OA
BRANCH   3   4
ATOM      4  C   UNL A   1      38.335  22.469  25.970  1.00  0.00     0.374 C 
ATOM      5  O   UNL A   1      38.877  23.555  26.005  1.00  0.00    -0.242 OA
BRANCH   4   6
ATOM      6  C   UNL A   1      36.937  22.212  25.726  1.00  0.00     0.215 A 
ATOM      7  C   UNL A   1      35.684  24.416  26.246  1.00  0.00     0.049 C 
ATOM      8  C   UNL A   1      35.787  22.991  25.845  1.00  0.00     0.012 A 
ATOM      9  C   UNL A   1      34.717  22.090  25.587  1.00  0.00     0.043 A 
ATOM     10  O   UNL A   1      36.635  20.987  25.210  1.00  0.00    -0.453 OA
ATOM     11  C   UNL A   1      35.307  20.920  25.144  1.00  0.00     0.114 A 
ATOM     12  C   UNL A   1      33.281  22.121  25.855  1.00  0.00     0.072 C 
ATOM     13  C   UNL A   1      34.726  19.599  24.832  1.00  0.00     0.076 C 
ATOM     14  N   UNL A   1      32.760  23.297  26.062  1.00  0.00    -0.177 NA
ATOM     15  C   UNL A   1      32.808  20.686  25.980  1.00  0.00     0.059 C 
ATOM     16  C   UNL A   1      33.220  19.738  24.858  1.00  0.00     0.014 C 
BRANCH  14  17
ATOM     17  N   UNL A   1      31.533  23.806  26.434  1.00  0.00    -0.246 N 
ATOM     18  C   UNL A   1      30.651  24.811  26.061  1.00  0.00     0.252 C 
ATOM     19  H   UNL A   1      31.172  23.302  27.199  1.00  0.00     0.193 HD
ATOM     20  O   UNL A   1      29.611  24.944  26.720  1.00  0.00    -0.272 OA
BRANCH  18  21
ATOM     21  C   UNL A   1      30.923  25.734  24.865  1.00  0.00     0.140 C 
BRANCH  21  22
ATOM     22  C   UNL A   1      31.583  27.053  25.468  1.00  0.00    -0.031 A 
ATOM     23  C   UNL A   1      31.189  28.355  25.119  1.00  0.00     0.005 A 
ATOM     24  C   UNL A   1      32.700  26.976  26.353  1.00  0.00     0.005 A 
ATOM     25  C   UNL A   1      31.966  29.472  25.508  1.00  0.00     0.000 A 
ATOM     26  C   UNL A   1      33.500  28.070  26.690  1.00  0.00     0.000 A 
ATOM     27  C   UNL A   1      33.140  29.327  26.252  1.00  0.00     0.000 A 
ENDBRANCH  21  22
BRANCH  21  28
ATOM     28  C   UNL A   1      31.558  24.810  23.730  1.00  0.00    -0.031 A 
ATOM     29  C   UNL A   1      30.871  23.630  23.318  1.00  0.00     0.005 A 
ATOM     30  C   UNL A   1      32.836  24.985  23.173  1.00  0.00     0.005 A 
ATOM     31  C   UNL A   1      31.511  22.556  22.694  1.00  0.00     0.000 A 
ATOM     32  C   UNL A   1      33.468  23.919  22.486  1.00  0.00     0.000 A 
ATOM     33  C   UNL A   1      32.832  22.686  22.312  1.00  0.00     0.000 A 
ENDBRANCH  21  28
ENDBRANCH  18  21
ENDBRANCH  14  17
ENDBRANCH   4   6
ENDBRANCH   3   4
ENDBRANCH   2   3
ENDBRANCH   1   2
BRANCH   1  34
ATOM     34  O   UNL A   1      41.944  20.016  27.596  1.00  0.00    -0.374 OA
BRANCH  34  35
ATOM     35  C   UNL A   1      42.080  18.941  26.667  1.00  0.00     0.202 C 
BRANCH  35  36
ATOM     36  C   UNL A   1      43.256  18.934  25.704  1.00  0.00     0.261 C 
BRANCH  36  37
ATOM     37  O   UNL A   1      43.622  20.260  25.369  1.00  0.00    -0.460 OA
BRANCH  37  38
ATOM     38  C   UNL A   1      44.390  20.353  24.262  1.00  0.00     0.338 C 
ATOM     39  O   UNL A   1      44.597  19.489  23.429  1.00  0.00    -0.246 OA
BRANCH  38  40
ATOM     40  C   UNL A   1      45.070  21.656  24.291  1.00  0.00     0.060 A 
ATOM     41  C   UNL A   1      46.032  21.751  25.295  1.00  0.00     0.016 A 
ATOM     42  C   UNL A   1      44.374  22.768  23.797  1.00  0.00     0.016 A 
ATOM     43  C   UNL A   1      45.983  22.862  26.095  1.00  0.00     0.010 A 
ATOM     44  C   UNL A   1      44.306  23.865  24.610  1.00  0.00     0.010 A 
ATOM     45  C   UNL A   1      45.020  23.832  25.805  1.00  0.00    -0.014 A 
BRANCH  45  46
ATOM     46  C   UNL A   1      44.820  24.899  26.750  1.00  0.00     0.031 A 
ATOM     47  C   UNL A   1      45.980  25.811  26.776  1.00  0.00     0.074 A 
ATOM     48  C   UNL A   1      43.655  25.040  27.408  1.00  0.00     0.049 A 
ATOM     49  N   UNL A   1      46.828  25.965  27.736  1.00  0.00    -0.248 NA
ATOM     50  C   UNL A   1      46.394  26.427  25.503  1.00  0.00     0.031 C 
ATOM     51  C   UNL A   1      42.410  24.281  27.254  1.00  0.00     0.029 A 
ATOM     52  N   UNL A   1      43.315  26.005  28.302  1.00  0.00    -0.354 N 
ATOM     53  C   UNL A   1      47.762  26.874  27.254  1.00  0.00     0.074 A 
ATOM     54  C   UNL A   1      47.586  26.923  25.831  1.00  0.00     0.031 C 
ATOM     55  C   UNL A   1      41.397  24.962  27.841  1.00  0.00     0.029 A 
ATOM     56  C   UNL A   1      41.941  26.131  28.503  1.00  0.00     0.049 A 
ATOM     57  H   UNL A   1      43.979  26.566  28.766  1.00  0.00     0.167 HD
ATOM     58  C   UNL A   1      48.407  27.722  28.098  1.00  0.00     0.037 A 
ATOM     59  C   UNL A   1      41.349  27.207  29.082  1.00  0.00     0.037 A 
ATOM     60  C   UNL A   1      48.291  27.269  29.461  1.00  0.00     0.049 A 
ATOM     61  C   UNL A   1      42.412  27.912  29.860  1.00  0.00     0.074 A 
ATOM     62  C   UNL A   1      48.716  26.143  30.137  1.00  0.00     0.029 A 
ATOM     63  N   UNL A   1      47.295  27.828  30.227  1.00  0.00    -0.354 N 
ATOM     64  N   UNL A   1      42.978  27.394  30.919  1.00  0.00    -0.248 NA
ATOM     65  C   UNL A   1      43.210  28.909  29.154  1.00  0.00     0.031 C 
ATOM     66  C   UNL A   1      47.647  25.822  31.022  1.00  0.00     0.029 A 
ATOM     67  C   UNL A   1      46.671  26.813  30.906  1.00  0.00     0.049 A 
ATOM     68  H   UNL A   1      47.070  28.785  30.279  1.00  0.00     0.167 HD
ATOM     69  C   UNL A   1      44.332  27.667  30.769  1.00  0.00     0.074 A 
ATOM     70  C   UNL A   1      44.409  28.648  29.687  1.00  0.00     0.031 C 
ATOM     71  C   UNL A   1      45.284  26.851  31.310  1.00  0.00     0.037 A 
BRANCH  58  72
ATOM     72  C   UNL A   1      48.777  29.139  27.747  1.00  0.00     0.057 A 
ATOM     73  C   UNL A   1      50.094  29.566  27.988  1.00  0.00     0.134 A 
ATOM     74  C   UNL A   1      47.854  30.170  27.471  1.00  0.00     0.134 A 
ATOM     75  F   UNL A   1      51.067  28.682  28.255  1.00  0.00    -0.206 F 
ATOM     76  C   UNL A   1      50.441  30.919  28.050  1.00  0.00     0.040 A 
ATOM     77  C   UNL A   1      48.203  31.521  27.478  1.00  0.00     0.040 A 
ATOM     78  F   UNL A   1      46.550  29.949  27.278  1.00  0.00    -0.206 F 
ATOM     79  C   UNL A   1      49.491  31.903  27.807  1.00  0.00     0.006 A 
ENDBRANCH  58  72
BRANCH  59  80
ATOM     80  C   UNL A   1      40.055  27.837  28.725  1.00  0.00     0.057 A 
ATOM     81  C   UNL A   1      38.984  27.890  29.629  1.00  0.00     0.134 A 
ATOM     82  C   UNL A   1      39.919  28.629  27.570  1.00  0.00     0.134 A 
ATOM     83  F   UNL A   1      39.034  27.211  30.784  1.00  0.00    -0.206 F 
ATOM     84  C   UNL A   1      37.850  28.687  29.400  1.00  0.00     0.040 A 
ATOM     85  C   UNL A   1      38.794  29.424  27.327  1.00  0.00     0.040 A 
ATOM     86  F   UNL A   1      40.912  28.729  26.675  1.00  0.00    -0.206 F 
ATOM     87  C   UNL A   1      37.757  29.464  28.249  1.00  0.00     0.006 A 
ENDBRANCH  59  80
BRANCH  71  88
ATOM     88  C   UNL A   1      44.836  25.746  32.227  1.00  0.00     0.057 A 
ATOM     89  C   UNL A   1      44.508  24.452  31.791  1.00  0.00     0.134 A 
ATOM     90  C   UNL A   1      44.943  25.938  33.607  1.00  0.00     0.134 A 
ATOM     91  F   UNL A   1      44.485  24.146  30.489  1.00  0.00    -0.206 F 
ATOM     92  C   UNL A   1      44.272  23.407  32.690  1.00  0.00     0.040 A 
ATOM     93  C   UNL A   1      44.743  24.896  34.514  1.00  0.00     0.040 A 
ATOM     94  F   UNL A   1      45.317  27.133  34.093  1.00  0.00    -0.206 F 
ATOM     95  C   UNL A   1      44.399  23.627  34.058  1.00  0.00     0.006 A 
ENDBRANCH  71  88
ENDBRANCH  45  46
ENDBRANCH  38  40
ENDBRANCH  37  38
ENDBRANCH  36  37
ENDBRANCH  35  36
ENDBRANCH  34  35
ENDBRANCH   1  34
TORSDOF 18
ENDMDL
