MODEL 1
REMARK VINA RESULT:     -11.6      0.000      0.000
REMARK SMILES O=C(OCCOCCOC(=O)c1ccc(C[N@H+]2CC[N@H+]3CCCC[C@@H]3C2)c(F)c1)c1ccc(-c2c3nc(c(-c4c(F)cccc4F)c4ccc([nH]4)c(-c4c(F)cccc4F)c4nc(c(-c5c(F)cccc5F)c5ccc2[nH]5)C=C4)C=C3)cc1
REMARK SMILES IDX 6 1 5 2 4 3 3 4 2 5 1 6 30 7 31 8 83 9 32 10 82 11 33 12
REMARK SMILES IDX 34 13 35 14 76 15 36 16 81 17 75 18 77 19 37 20 80 21 74 22
REMARK SMILES IDX 73 23 38 25 64 26 47 27 63 28 48 29 51 30 62 31 78 32 49 33
REMARK SMILES IDX 50 34 61 36 79 37 52 38 39 39 40 40 45 41 41 42 42 43 44 44
REMARK SMILES IDX 46 45 43 46 65 47 66 48 71 49 67 50 68 51 70 52 72 53 69 54
REMARK SMILES IDX 53 55 54 56 59 57 55 58 56 59 58 60 60 61 57 62 7 63 8 64
REMARK SMILES IDX 9 65 10 66 11 67 12 68 13 69 29 70 14 71 27 72 15 73 28 74
REMARK SMILES IDX 16 75 17 76 18 77 26 78 19 80 25 81 20 82 24 83 21 84 23 86
REMARK SMILES IDX 22 87
REMARK H PARENT 77 24 51 35 17 79 20 85
REMARK Flexibility Score: inf
ROOT
ATOM      1  O   UNL A   1      41.921  20.502  26.831  1.00  0.00    -0.374 OA
ENDROOT
BRANCH   1   2
ATOM      2  C   UNL A   1      42.827  20.254  25.756  1.00  0.00     0.202 C 
BRANCH   2   3
ATOM      3  C   UNL A   1      43.815  21.388  25.479  1.00  0.00     0.261 C 
BRANCH   3   4
ATOM      4  O   UNL A   1      43.105  22.581  25.103  1.00  0.00    -0.460 OA
BRANCH   4   5
ATOM      5  C   UNL A   1      43.495  23.865  25.266  1.00  0.00     0.338 C 
ATOM      6  O   UNL A   1      44.307  24.344  24.478  1.00  0.00    -0.246 OA
BRANCH   5   7
ATOM      7  C   UNL A   1      42.995  24.737  26.370  1.00  0.00     0.060 A 
ATOM      8  C   UNL A   1      42.218  24.288  27.439  1.00  0.00     0.016 A 
ATOM      9  C   UNL A   1      43.433  26.072  26.385  1.00  0.00     0.016 A 
ATOM     10  C   UNL A   1      41.820  25.147  28.455  1.00  0.00     0.010 A 
ATOM     11  C   UNL A   1      43.086  26.929  27.434  1.00  0.00     0.010 A 
ATOM     12  C   UNL A   1      42.265  26.467  28.468  1.00  0.00    -0.014 A 
BRANCH  12  13
ATOM     13  C   UNL A   1      41.823  27.347  29.567  1.00  0.00     0.031 A 
ATOM     14  C   UNL A   1      42.632  27.399  30.825  1.00  0.00     0.074 A 
ATOM     15  C   UNL A   1      40.773  28.164  29.374  1.00  0.00     0.049 A 
ATOM     16  N   UNL A   1      42.414  28.079  31.917  1.00  0.00    -0.248 NA
ATOM     17  C   UNL A   1      43.862  26.588  30.851  1.00  0.00     0.031 C 
ATOM     18  C   UNL A   1      39.993  28.253  28.136  1.00  0.00     0.029 A 
ATOM     19  N   UNL A   1      40.199  29.099  30.195  1.00  0.00    -0.354 N 
ATOM     20  C   UNL A   1      43.467  27.769  32.767  1.00  0.00     0.074 A 
ATOM     21  C   UNL A   1      44.322  26.835  32.069  1.00  0.00     0.031 C 
ATOM     22  C   UNL A   1      39.066  29.214  28.268  1.00  0.00     0.029 A 
ATOM     23  C   UNL A   1      39.142  29.762  29.619  1.00  0.00     0.049 A 
ATOM     24  H   UNL A   1      40.515  29.279  31.110  1.00  0.00     0.167 HD
ATOM     25  C   UNL A   1      43.688  28.226  34.019  1.00  0.00     0.037 A 
ATOM     26  C   UNL A   1      38.315  30.687  30.139  1.00  0.00     0.037 A 
ATOM     27  C   UNL A   1      42.819  29.154  34.690  1.00  0.00     0.049 A 
ATOM     28  C   UNL A   1      38.532  31.109  31.566  1.00  0.00     0.074 A 
ATOM     29  C   UNL A   1      42.899  29.633  35.984  1.00  0.00     0.029 A 
ATOM     30  N   UNL A   1      41.708  29.748  34.105  1.00  0.00    -0.354 N 
ATOM     31  N   UNL A   1      39.486  30.753  32.394  1.00  0.00    -0.248 NA
ATOM     32  C   UNL A   1      37.552  32.038  32.143  1.00  0.00     0.031 C 
ATOM     33  C   UNL A   1      41.815  30.491  36.194  1.00  0.00     0.029 A 
ATOM     34  C   UNL A   1      41.084  30.580  35.018  1.00  0.00     0.049 A 
ATOM     35  H   UNL A   1      41.409  29.600  33.179  1.00  0.00     0.167 HD
ATOM     36  C   UNL A   1      39.227  31.416  33.584  1.00  0.00     0.074 A 
ATOM     37  C   UNL A   1      38.037  32.214  33.364  1.00  0.00     0.031 C 
ATOM     38  C   UNL A   1      39.903  31.364  34.757  1.00  0.00     0.037 A 
BRANCH  25  39
ATOM     39  C   UNL A   1      44.880  27.687  34.749  1.00  0.00     0.057 A 
ATOM     40  C   UNL A   1      46.107  28.359  34.697  1.00  0.00     0.134 A 
ATOM     41  C   UNL A   1      44.819  26.505  35.495  1.00  0.00     0.134 A 
ATOM     42  F   UNL A   1      46.230  29.501  34.004  1.00  0.00    -0.206 F 
ATOM     43  C   UNL A   1      47.235  27.870  35.358  1.00  0.00     0.040 A 
ATOM     44  C   UNL A   1      45.936  26.014  36.176  1.00  0.00     0.040 A 
ATOM     45  F   UNL A   1      43.666  25.828  35.605  1.00  0.00    -0.206 F 
ATOM     46  C   UNL A   1      47.150  26.696  36.103  1.00  0.00     0.006 A 
ENDBRANCH  25  39
BRANCH  26  47
ATOM     47  C   UNL A   1      37.200  31.237  29.326  1.00  0.00     0.057 A 
ATOM     48  C   UNL A   1      36.050  30.480  29.058  1.00  0.00     0.134 A 
ATOM     49  C   UNL A   1      37.256  32.528  28.789  1.00  0.00     0.134 A 
ATOM     50  F   UNL A   1      35.930  29.236  29.543  1.00  0.00    -0.206 F 
ATOM     51  C   UNL A   1      35.012  30.977  28.267  1.00  0.00     0.040 A 
ATOM     52  C   UNL A   1      36.212  33.047  28.019  1.00  0.00     0.040 A 
ATOM     53  F   UNL A   1      38.318  33.313  29.026  1.00  0.00    -0.206 F 
ATOM     54  C   UNL A   1      35.090  32.267  27.749  1.00  0.00     0.006 A 
ENDBRANCH  26  47
BRANCH  38  55
ATOM     55  C   UNL A   1      39.380  32.196  35.886  1.00  0.00     0.057 A 
ATOM     56  C   UNL A   1      38.380  31.701  36.731  1.00  0.00     0.134 A 
ATOM     57  C   UNL A   1      39.801  33.517  36.074  1.00  0.00     0.134 A 
ATOM     58  F   UNL A   1      37.930  30.446  36.591  1.00  0.00    -0.206 F 
ATOM     59  C   UNL A   1      37.802  32.501  37.716  1.00  0.00     0.040 A 
ATOM     60  C   UNL A   1      39.246  34.320  37.071  1.00  0.00     0.040 A 
ATOM     61  F   UNL A   1      40.763  34.042  35.300  1.00  0.00    -0.206 F 
ATOM     62  C   UNL A   1      38.236  33.814  37.888  1.00  0.00     0.006 A 
ENDBRANCH  38  55
ENDBRANCH  12  13
ENDBRANCH   5   7
ENDBRANCH   4   5
ENDBRANCH   3   4
ENDBRANCH   2   3
ENDBRANCH   1   2
BRANCH   1  63
ATOM     63  C   UNL A   1      40.532  20.505  26.478  1.00  0.00     0.202 C 
BRANCH  63  64
ATOM     64  C   UNL A   1      39.921  21.870  26.822  1.00  0.00     0.261 C 
BRANCH  64  65
ATOM     65  O   UNL A   1      38.864  22.163  25.888  1.00  0.00    -0.460 OA
BRANCH  65  66
ATOM     66  C   UNL A   1      38.248  23.363  26.065  1.00  0.00     0.338 C 
ATOM     67  O   UNL A   1      38.720  24.395  26.505  1.00  0.00    -0.246 OA
BRANCH  66  68
ATOM     68  C   UNL A   1      36.953  23.264  25.370  1.00  0.00     0.063 A 
ATOM     69  C   UNL A   1      36.885  22.927  24.017  1.00  0.00     0.016 A 
ATOM     70  C   UNL A   1      35.816  23.688  26.055  1.00  0.00     0.055 A 
ATOM     71  C   UNL A   1      35.688  23.122  23.323  1.00  0.00     0.013 A 
ATOM     72  C   UNL A   1      34.655  23.943  25.338  1.00  0.00     0.132 A 
ATOM     73  C   UNL A   1      34.594  23.740  23.955  1.00  0.00     0.042 A 
ATOM     74  F   UNL A   1      33.614  24.489  25.982  1.00  0.00    -0.206 F 
BRANCH  73  75
ATOM     75  C   UNL A   1      33.417  24.247  23.153  1.00  0.00     0.302 C 
BRANCH  75  76
ATOM     76  N   UNL A   1      33.596  25.470  22.351  1.00  0.00    -0.322 N 
ATOM     77  C   UNL A   1      32.702  25.630  21.196  1.00  0.00     0.324 C 
ATOM     78  C   UNL A   1      33.715  26.738  23.082  1.00  0.00     0.328 C 
ATOM     79  H   UNL A   1      34.525  25.265  21.983  1.00  0.00     0.348 HD
ATOM     80  C   UNL A   1      31.364  26.364  21.466  1.00  0.00     0.324 C 
ATOM     81  C   UNL A   1      32.366  27.425  23.415  1.00  0.00     0.239 C 
ATOM     82  N   UNL A   1      31.479  27.612  22.247  1.00  0.00    -0.323 N 
ATOM     83  C   UNL A   1      32.578  28.771  24.118  1.00  0.00     0.071 C 
ATOM     84  C   UNL A   1      30.147  28.050  22.703  1.00  0.00     0.262 C 
ATOM     85  H   UNL A   1      31.883  28.328  21.642  1.00  0.00     0.348 HD
ATOM     86  C   UNL A   1      31.238  29.291  24.636  1.00  0.00     0.012 C 
ATOM     87  C   UNL A   1      30.206  29.349  23.511  1.00  0.00     0.062 C 
ENDBRANCH  75  76
ENDBRANCH  73  75
ENDBRANCH  66  68
ENDBRANCH  65  66
ENDBRANCH  64  65
ENDBRANCH  63  64
ENDBRANCH   1  63
TORSDOF 16
ENDMDL
MODEL 2
REMARK VINA RESULT:     -11.4      4.924      9.891
REMARK SMILES O=C(OCCOCCOC(=O)c1ccc(C[N@H+]2CC[N@H+]3CCCC[C@@H]3C2)c(F)c1)c1ccc(-c2c3nc(c(-c4c(F)cccc4F)c4ccc([nH]4)c(-c4c(F)cccc4F)c4nc(c(-c5c(F)cccc5F)c5ccc2[nH]5)C=C4)C=C3)cc1
REMARK SMILES IDX 6 1 5 2 4 3 3 4 2 5 1 6 30 7 31 8 83 9 32 10 82 11 33 12
REMARK SMILES IDX 34 13 35 14 76 15 36 16 81 17 75 18 77 19 37 20 80 21 74 22
REMARK SMILES IDX 73 23 38 25 64 26 47 27 63 28 48 29 51 30 62 31 78 32 49 33
REMARK SMILES IDX 50 34 61 36 79 37 52 38 39 39 40 40 45 41 41 42 42 43 44 44
REMARK SMILES IDX 46 45 43 46 65 47 66 48 71 49 67 50 68 51 70 52 72 53 69 54
REMARK SMILES IDX 53 55 54 56 59 57 55 58 56 59 58 60 60 61 57 62 7 63 8 64
REMARK SMILES IDX 9 65 10 66 11 67 12 68 13 69 29 70 14 71 27 72 15 73 28 74
REMARK SMILES IDX 16 75 17 76 18 77 26 78 19 80 25 81 20 82 24 83 21 84 23 86
REMARK SMILES IDX 22 87
REMARK H PARENT 77 24 51 35 17 79 20 85
REMARK Flexibility Score: inf
ROOT
ATOM      1  O   UNL A   1      33.351  34.906  30.649  1.00  0.00    -0.374 OA
ENDROOT
BRANCH   1   2
ATOM      2  C   UNL A   1      34.488  34.145  31.057  1.00  0.00     0.202 C 
BRANCH   2   3
ATOM      3  C   UNL A   1      34.322  33.413  32.389  1.00  0.00     0.261 C 
BRANCH   3   4
ATOM      4  O   UNL A   1      35.043  32.169  32.363  1.00  0.00    -0.460 OA
BRANCH   4   5
ATOM      5  C   UNL A   1      36.270  31.911  32.869  1.00  0.00     0.338 C 
ATOM      6  O   UNL A   1      36.482  32.136  34.059  1.00  0.00    -0.246 OA
BRANCH   5   7
ATOM      7  C   UNL A   1      37.396  31.372  32.049  1.00  0.00     0.060 A 
ATOM      8  C   UNL A   1      37.546  31.588  30.679  1.00  0.00     0.016 A 
ATOM      9  C   UNL A   1      38.424  30.699  32.731  1.00  0.00     0.016 A 
ATOM     10  C   UNL A   1      38.641  31.090  29.984  1.00  0.00     0.010 A 
ATOM     11  C   UNL A   1      39.558  30.246  32.050  1.00  0.00     0.010 A 
ATOM     12  C   UNL A   1      39.661  30.431  30.667  1.00  0.00    -0.014 A 
BRANCH  12  13
ATOM     13  C   UNL A   1      40.809  29.921  29.894  1.00  0.00     0.031 A 
ATOM     14  C   UNL A   1      42.024  30.782  29.744  1.00  0.00     0.074 A 
ATOM     15  C   UNL A   1      40.785  28.656  29.438  1.00  0.00     0.049 A 
ATOM     16  N   UNL A   1      43.127  30.543  29.089  1.00  0.00    -0.248 NA
ATOM     17  C   UNL A   1      41.999  32.082  30.437  1.00  0.00     0.031 C 
ATOM     18  C   UNL A   1      39.681  27.713  29.633  1.00  0.00     0.029 A 
ATOM     19  N   UNL A   1      41.722  27.931  28.749  1.00  0.00    -0.354 N 
ATOM     20  C   UNL A   1      43.923  31.665  29.278  1.00  0.00     0.074 A 
ATOM     21  C   UNL A   1      43.176  32.589  30.101  1.00  0.00     0.031 C 
ATOM     22  C   UNL A   1      40.020  26.524  29.109  1.00  0.00     0.029 A 
ATOM     23  C   UNL A   1      41.332  26.641  28.483  1.00  0.00     0.049 A 
ATOM     24  H   UNL A   1      42.592  28.300  28.473  1.00  0.00     0.167 HD
ATOM     25  C   UNL A   1      45.166  31.894  28.797  1.00  0.00     0.037 A 
ATOM     26  C   UNL A   1      41.959  25.675  27.786  1.00  0.00     0.037 A 
ATOM     27  C   UNL A   1      45.884  30.957  27.977  1.00  0.00     0.049 A 
ATOM     28  C   UNL A   1      43.301  25.991  27.186  1.00  0.00     0.074 A 
ATOM     29  C   UNL A   1      47.117  31.107  27.371  1.00  0.00     0.029 A 
ATOM     30  N   UNL A   1      45.427  29.686  27.658  1.00  0.00    -0.354 N 
ATOM     31  N   UNL A   1      44.018  27.084  27.302  1.00  0.00    -0.248 NA
ATOM     32  C   UNL A   1      43.914  24.958  26.342  1.00  0.00     0.031 C 
ATOM     33  C   UNL A   1      47.390  29.937  26.654  1.00  0.00     0.029 A 
ATOM     34  C   UNL A   1      46.347  29.044  26.849  1.00  0.00     0.049 A 
ATOM     35  H   UNL A   1      44.574  29.299  27.961  1.00  0.00     0.167 HD
ATOM     36  C   UNL A   1      45.165  26.872  26.553  1.00  0.00     0.074 A 
ATOM     37  C   UNL A   1      45.060  25.533  26.004  1.00  0.00     0.031 C 
ATOM     38  C   UNL A   1      46.208  27.707  26.329  1.00  0.00     0.037 A 
BRANCH  25  39
ATOM     39  C   UNL A   1      45.788  33.222  29.102  1.00  0.00     0.057 A 
ATOM     40  C   UNL A   1      46.605  33.379  30.229  1.00  0.00     0.134 A 
ATOM     41  C   UNL A   1      45.577  34.343  28.292  1.00  0.00     0.134 A 
ATOM     42  F   UNL A   1      46.851  32.342  31.042  1.00  0.00    -0.206 F 
ATOM     43  C   UNL A   1      47.186  34.609  30.542  1.00  0.00     0.040 A 
ATOM     44  C   UNL A   1      46.168  35.575  28.585  1.00  0.00     0.040 A 
ATOM     45  F   UNL A   1      44.826  34.251  27.185  1.00  0.00    -0.206 F 
ATOM     46  C   UNL A   1      46.971  35.710  29.716  1.00  0.00     0.006 A 
ENDBRANCH  25  39
BRANCH  26  47
ATOM     47  C   UNL A   1      41.312  24.352  27.591  1.00  0.00     0.057 A 
ATOM     48  C   UNL A   1      41.749  23.217  28.289  1.00  0.00     0.134 A 
ATOM     49  C   UNL A   1      40.250  24.183  26.696  1.00  0.00     0.134 A 
ATOM     50  F   UNL A   1      42.762  23.307  29.164  1.00  0.00    -0.206 F 
ATOM     51  C   UNL A   1      41.169  21.962  28.089  1.00  0.00     0.040 A 
ATOM     52  C   UNL A   1      39.644  22.939  26.505  1.00  0.00     0.040 A 
ATOM     53  F   UNL A   1      39.770  25.232  26.012  1.00  0.00    -0.206 F 
ATOM     54  C   UNL A   1      40.109  21.823  27.196  1.00  0.00     0.006 A 
ENDBRANCH  26  47
BRANCH  38  55
ATOM     55  C   UNL A   1      47.319  27.198  25.464  1.00  0.00     0.057 A 
ATOM     56  C   UNL A   1      48.377  26.469  26.020  1.00  0.00     0.134 A 
ATOM     57  C   UNL A   1      47.384  27.511  24.102  1.00  0.00     0.134 A 
ATOM     58  F   UNL A   1      48.373  26.149  27.322  1.00  0.00    -0.206 F 
ATOM     59  C   UNL A   1      49.474  26.084  25.251  1.00  0.00     0.040 A 
ATOM     60  C   UNL A   1      48.467  27.111  23.317  1.00  0.00     0.040 A 
ATOM     61  F   UNL A   1      46.395  28.199  23.513  1.00  0.00    -0.206 F 
ATOM     62  C   UNL A   1      49.520  26.405  23.896  1.00  0.00     0.006 A 
ENDBRANCH  38  55
ENDBRANCH  12  13
ENDBRANCH   5   7
ENDBRANCH   4   5
ENDBRANCH   3   4
ENDBRANCH   2   3
ENDBRANCH   1   2
BRANCH   1  63
ATOM     63  C   UNL A   1      33.070  34.892  29.244  1.00  0.00     0.202 C 
BRANCH  63  64
ATOM     64  C   UNL A   1      34.384  35.008  28.460  1.00  0.00     0.261 C 
BRANCH  64  65
ATOM     65  O   UNL A   1      34.480  33.908  27.535  1.00  0.00    -0.460 OA
BRANCH  65  66
ATOM     66  C   UNL A   1      35.509  33.046  27.762  1.00  0.00     0.338 C 
ATOM     67  O   UNL A   1      36.639  33.304  28.134  1.00  0.00    -0.246 OA
BRANCH  66  68
ATOM     68  C   UNL A   1      34.924  31.695  27.731  1.00  0.00     0.063 A 
ATOM     69  C   UNL A   1      35.733  30.562  27.626  1.00  0.00     0.016 A 
ATOM     70  C   UNL A   1      33.538  31.591  27.633  1.00  0.00     0.055 A 
ATOM     71  C   UNL A   1      35.149  29.332  27.311  1.00  0.00     0.013 A 
ATOM     72  C   UNL A   1      32.980  30.377  27.252  1.00  0.00     0.132 A 
ATOM     73  C   UNL A   1      33.778  29.254  27.010  1.00  0.00     0.042 A 
ATOM     74  F   UNL A   1      31.661  30.327  27.017  1.00  0.00    -0.206 F 
BRANCH  73  75
ATOM     75  C   UNL A   1      33.193  28.018  26.364  1.00  0.00     0.302 C 
BRANCH  75  76
ATOM     76  N   UNL A   1      33.150  27.955  24.893  1.00  0.00    -0.322 N 
ATOM     77  C   UNL A   1      32.772  26.663  24.305  1.00  0.00     0.324 C 
ATOM     78  C   UNL A   1      32.465  29.051  24.195  1.00  0.00     0.328 C 
ATOM     79  H   UNL A   1      34.147  28.083  24.715  1.00  0.00     0.348 HD
ATOM     80  C   UNL A   1      31.258  26.444  24.058  1.00  0.00     0.324 C 
ATOM     81  C   UNL A   1      30.937  28.857  24.022  1.00  0.00     0.239 C 
ATOM     82  N   UNL A   1      30.558  27.569  23.405  1.00  0.00    -0.323 N 
ATOM     83  C   UNL A   1      30.310  30.009  23.229  1.00  0.00     0.071 C 
ATOM     84  C   UNL A   1      29.099  27.384  23.501  1.00  0.00     0.262 C 
ATOM     85  H   UNL A   1      30.835  27.584  22.422  1.00  0.00     0.348 HD
ATOM     86  C   UNL A   1      28.787  29.899  23.292  1.00  0.00     0.012 C 
ATOM     87  C   UNL A   1      28.323  28.520  22.829  1.00  0.00     0.062 C 
ENDBRANCH  75  76
ENDBRANCH  73  75
ENDBRANCH  66  68
ENDBRANCH  65  66
ENDBRANCH  64  65
ENDBRANCH  63  64
ENDBRANCH   1  63
TORSDOF 16
ENDMDL
MODEL 3
REMARK VINA RESULT:     -11.3      3.833      8.994
REMARK SMILES O=C(OCCOCCOC(=O)c1ccc(C[N@H+]2CC[N@H+]3CCCC[C@@H]3C2)c(F)c1)c1ccc(-c2c3nc(c(-c4c(F)cccc4F)c4ccc([nH]4)c(-c4c(F)cccc4F)c4nc(c(-c5c(F)cccc5F)c5ccc2[nH]5)C=C4)C=C3)cc1
REMARK SMILES IDX 6 1 5 2 4 3 3 4 2 5 1 6 30 7 31 8 83 9 32 10 82 11 33 12
REMARK SMILES IDX 34 13 35 14 76 15 36 16 81 17 75 18 77 19 37 20 80 21 74 22
REMARK SMILES IDX 73 23 38 25 64 26 47 27 63 28 48 29 51 30 62 31 78 32 49 33
REMARK SMILES IDX 50 34 61 36 79 37 52 38 39 39 40 40 45 41 41 42 42 43 44 44
REMARK SMILES IDX 46 45 43 46 65 47 66 48 71 49 67 50 68 51 70 52 72 53 69 54
REMARK SMILES IDX 53 55 54 56 59 57 55 58 56 59 58 60 60 61 57 62 7 63 8 64
REMARK SMILES IDX 9 65 10 66 11 67 12 68 13 69 29 70 14 71 27 72 15 73 28 74
REMARK SMILES IDX 16 75 17 76 18 77 26 78 19 80 25 81 20 82 24 83 21 84 23 86
REMARK SMILES IDX 22 87
REMARK H PARENT 77 24 51 35 17 79 20 85
REMARK Flexibility Score: inf
ROOT
ATOM      1  O   UNL A   1      32.707  35.085  28.747  1.00  0.00    -0.374 OA
ENDROOT
BRANCH   1   2
ATOM      2  C   UNL A   1      33.295  36.384  28.823  1.00  0.00     0.202 C 
BRANCH   2   3
ATOM      3  C   UNL A   1      33.233  37.033  30.206  1.00  0.00     0.261 C 
BRANCH   3   4
ATOM      4  O   UNL A   1      32.164  36.456  30.976  1.00  0.00    -0.460 OA
BRANCH   4   5
ATOM      5  C   UNL A   1      32.258  35.740  32.119  1.00  0.00     0.338 C 
ATOM      6  O   UNL A   1      31.290  35.700  32.876  1.00  0.00    -0.246 OA
BRANCH   5   7
ATOM      7  C   UNL A   1      33.490  34.997  32.520  1.00  0.00     0.060 A 
ATOM      8  C   UNL A   1      33.510  33.659  32.915  1.00  0.00     0.016 A 
ATOM      9  C   UNL A   1      34.718  35.666  32.380  1.00  0.00     0.016 A 
ATOM     10  C   UNL A   1      34.699  33.018  33.237  1.00  0.00     0.010 A 
ATOM     11  C   UNL A   1      35.924  35.011  32.645  1.00  0.00     0.010 A 
ATOM     12  C   UNL A   1      35.914  33.683  33.088  1.00  0.00    -0.014 A 
BRANCH  12  13
ATOM     13  C   UNL A   1      37.155  32.966  33.436  1.00  0.00     0.031 A 
ATOM     14  C   UNL A   1      37.791  33.219  34.767  1.00  0.00     0.074 A 
ATOM     15  C   UNL A   1      37.625  32.021  32.602  1.00  0.00     0.049 A 
ATOM     16  N   UNL A   1      38.891  32.719  35.263  1.00  0.00    -0.248 NA
ATOM     17  C   UNL A   1      37.087  34.147  35.668  1.00  0.00     0.031 C 
ATOM     18  C   UNL A   1      37.004  31.638  31.331  1.00  0.00     0.029 A 
ATOM     19  N   UNL A   1      38.708  31.188  32.706  1.00  0.00    -0.354 N 
ATOM     20  C   UNL A   1      39.019  33.281  36.525  1.00  0.00     0.074 A 
ATOM     21  C   UNL A   1      37.892  34.165  36.720  1.00  0.00     0.031 C 
ATOM     22  C   UNL A   1      37.696  30.622  30.792  1.00  0.00     0.029 A 
ATOM     23  C   UNL A   1      38.843  30.328  31.643  1.00  0.00     0.049 A 
ATOM     24  H   UNL A   1      39.328  31.204  33.470  1.00  0.00     0.167 HD
ATOM     25  C   UNL A   1      40.000  33.073  37.433  1.00  0.00     0.037 A 
ATOM     26  C   UNL A   1      39.806  29.425  31.380  1.00  0.00     0.037 A 
ATOM     27  C   UNL A   1      41.111  32.190  37.211  1.00  0.00     0.049 A 
ATOM     28  C   UNL A   1      40.932  29.282  32.366  1.00  0.00     0.074 A 
ATOM     29  C   UNL A   1      42.204  31.953  38.024  1.00  0.00     0.029 A 
ATOM     30  N   UNL A   1      41.263  31.389  36.086  1.00  0.00    -0.354 N 
ATOM     31  N   UNL A   1      41.091  29.874  33.526  1.00  0.00    -0.248 NA
ATOM     32  C   UNL A   1      42.024  28.369  32.003  1.00  0.00     0.031 C 
ATOM     33  C   UNL A   1      43.035  31.035  37.374  1.00  0.00     0.029 A 
ATOM     34  C   UNL A   1      42.439  30.668  36.176  1.00  0.00     0.049 A 
ATOM     35  H   UNL A   1      40.627  31.343  35.336  1.00  0.00     0.167 HD
ATOM     36  C   UNL A   1      42.292  29.404  34.035  1.00  0.00     0.074 A 
ATOM     37  C   UNL A   1      42.812  28.459  33.066  1.00  0.00     0.031 C 
ATOM     38  C   UNL A   1      42.918  29.730  35.192  1.00  0.00     0.037 A 
BRANCH  25  39
ATOM     39  C   UNL A   1      39.933  33.853  38.709  1.00  0.00     0.057 A 
ATOM     40  C   UNL A   1      40.635  35.058  38.842  1.00  0.00     0.134 A 
ATOM     41  C   UNL A   1      39.184  33.415  39.808  1.00  0.00     0.134 A 
ATOM     42  F   UNL A   1      41.367  35.535  37.824  1.00  0.00    -0.206 F 
ATOM     43  C   UNL A   1      40.599  35.796  40.026  1.00  0.00     0.040 A 
ATOM     44  C   UNL A   1      39.126  34.154  40.991  1.00  0.00     0.040 A 
ATOM     45  F   UNL A   1      38.469  32.282  39.735  1.00  0.00    -0.206 F 
ATOM     46  C   UNL A   1      39.840  35.346  41.104  1.00  0.00     0.006 A 
ENDBRANCH  25  39
BRANCH  26  47
ATOM     47  C   UNL A   1      39.763  28.627  30.127  1.00  0.00     0.057 A 
ATOM     48  C   UNL A   1      40.369  29.087  28.949  1.00  0.00     0.134 A 
ATOM     49  C   UNL A   1      39.109  27.392  30.071  1.00  0.00     0.134 A 
ATOM     50  F   UNL A   1      41.014  30.263  28.933  1.00  0.00    -0.206 F 
ATOM     51  C   UNL A   1      40.305  28.360  27.758  1.00  0.00     0.040 A 
ATOM     52  C   UNL A   1      39.061  26.642  28.893  1.00  0.00     0.040 A 
ATOM     53  F   UNL A   1      38.528  26.884  31.168  1.00  0.00    -0.206 F 
ATOM     54  C   UNL A   1      39.653  27.131  27.730  1.00  0.00     0.006 A 
ENDBRANCH  26  47
BRANCH  38  55
ATOM     55  C   UNL A   1      44.223  29.056  35.478  1.00  0.00     0.057 A 
ATOM     56  C   UNL A   1      44.265  27.878  36.234  1.00  0.00     0.134 A 
ATOM     57  C   UNL A   1      45.439  29.624  35.084  1.00  0.00     0.134 A 
ATOM     58  F   UNL A   1      43.131  27.294  36.648  1.00  0.00    -0.206 F 
ATOM     59  C   UNL A   1      45.477  27.297  36.604  1.00  0.00     0.040 A 
ATOM     60  C   UNL A   1      46.658  29.040  35.430  1.00  0.00     0.040 A 
ATOM     61  F   UNL A   1      45.459  30.747  34.351  1.00  0.00    -0.206 F 
ATOM     62  C   UNL A   1      46.678  27.879  36.201  1.00  0.00     0.006 A 
ENDBRANCH  38  55
ENDBRANCH  12  13
ENDBRANCH   5   7
ENDBRANCH   4   5
ENDBRANCH   3   4
ENDBRANCH   2   3
ENDBRANCH   1   2
BRANCH   1  63
ATOM     63  C   UNL A   1      33.504  34.083  28.104  1.00  0.00     0.202 C 
BRANCH  63  64
ATOM     64  C   UNL A   1      34.370  33.370  29.152  1.00  0.00     0.261 C 
BRANCH  64  65
ATOM     65  O   UNL A   1      34.223  31.946  28.996  1.00  0.00    -0.460 OA
BRANCH  65  66
ATOM     66  C   UNL A   1      34.946  31.394  27.984  1.00  0.00     0.338 C 
ATOM     67  O   UNL A   1      36.147  31.464  27.791  1.00  0.00    -0.246 OA
BRANCH  66  68
ATOM     68  C   UNL A   1      34.041  30.458  27.296  1.00  0.00     0.063 A 
ATOM     69  C   UNL A   1      32.665  30.688  27.250  1.00  0.00     0.016 A 
ATOM     70  C   UNL A   1      34.575  29.252  26.848  1.00  0.00     0.055 A 
ATOM     71  C   UNL A   1      31.812  29.656  26.852  1.00  0.00     0.013 A 
ATOM     72  C   UNL A   1      33.712  28.214  26.521  1.00  0.00     0.132 A 
ATOM     73  C   UNL A   1      32.324  28.372  26.592  1.00  0.00     0.042 A 
ATOM     74  F   UNL A   1      34.237  27.014  26.234  1.00  0.00    -0.206 F 
BRANCH  73  75
ATOM     75  C   UNL A   1      31.405  27.178  26.475  1.00  0.00     0.302 C 
BRANCH  75  76
ATOM     76  N   UNL A   1      30.723  26.947  25.190  1.00  0.00    -0.322 N 
ATOM     77  C   UNL A   1      31.292  27.623  24.016  1.00  0.00     0.324 C 
ATOM     78  C   UNL A   1      30.373  25.560  24.857  1.00  0.00     0.328 C 
ATOM     79  H   UNL A   1      29.844  27.418  25.408  1.00  0.00     0.348 HD
ATOM     80  C   UNL A   1      32.378  26.838  23.238  1.00  0.00     0.324 C 
ATOM     81  C   UNL A   1      31.494  24.760  24.147  1.00  0.00     0.239 C 
ATOM     82  N   UNL A   1      32.048  25.428  22.950  1.00  0.00    -0.323 N 
ATOM     83  C   UNL A   1      31.028  23.347  23.775  1.00  0.00     0.071 C 
ATOM     84  C   UNL A   1      33.250  24.707  22.493  1.00  0.00     0.262 C 
ATOM     85  H   UNL A   1      31.342  25.412  22.212  1.00  0.00     0.348 HD
ATOM     86  C   UNL A   1      32.226  22.525  23.302  1.00  0.00     0.012 C 
ATOM     87  C   UNL A   1      32.961  23.239  22.170  1.00  0.00     0.062 C 
ENDBRANCH  75  76
ENDBRANCH  73  75
ENDBRANCH  66  68
ENDBRANCH  65  66
ENDBRANCH  64  65
ENDBRANCH  63  64
ENDBRANCH   1  63
TORSDOF 16
ENDMDL
