MODEL 1
REMARK VINA RESULT:     -10.2      0.000      0.000
REMARK SMILES O=C(/C=C/Nc1cc(Cl)ccc1Cl)OCCOCCOC(=O)c1ccc(-c2c3nc(c(-c4c(F)cccc4F)c4ccc([nH]4)c(-c4c(F)cccc4F)c4nc(c(-c5c(F)cccc5F)c5ccc2[nH]5)C=C4)C=C3)cc1
REMARK SMILES IDX 17 1 16 2 15 3 14 4 2 5 1 6 3 7 4 8 5 9 6 11 7 12 12 13 8 14
REMARK SMILES IDX 11 15 13 16 9 17 10 18 18 19 19 20 20 21 21 22 22 23 23 24
REMARK SMILES IDX 24 25 76 26 25 27 75 28 26 29 27 30 28 31 69 32 29 33 74 34
REMARK SMILES IDX 68 35 70 36 30 37 73 38 67 39 66 40 31 42 57 43 40 44 56 45
REMARK SMILES IDX 41 46 44 47 55 48 71 49 42 50 43 51 54 53 72 54 45 55 32 56
REMARK SMILES IDX 33 57 38 58 34 59 35 60 37 61 39 62 36 63 58 64 59 65 64 66
REMARK SMILES IDX 60 67 61 68 63 69 65 70 62 71 46 72 47 73 52 74 48 75 49 76
REMARK SMILES IDX 51 77 53 78 50 79
REMARK H PARENT 5 10 70 41 44 52
REMARK Flexibility Score: inf
ROOT
ATOM      1  O   UNL A   1      45.104  19.365  25.385  1.00  0.00    -0.374 OA
ENDROOT
BRANCH   1   2
ATOM      2  C   UNL A   1      43.998  18.579  25.823  1.00  0.00     0.202 C 
BRANCH   2   3
ATOM      3  C   UNL A   1      42.636  19.249  25.676  1.00  0.00     0.261 C 
BRANCH   3   4
ATOM      4  O   UNL A   1      42.007  19.619  26.918  1.00  0.00    -0.460 OA
BRANCH   4   5
ATOM      5  C   UNL A   1      41.202  20.676  27.168  1.00  0.00     0.332 C 
ATOM      6  O   UNL A   1      41.181  21.181  28.288  1.00  0.00    -0.247 OA
BRANCH   5   7
ATOM      7  C   UNL A   1      40.232  21.159  26.173  1.00  0.00     0.111 C 
ATOM      8  C   UNL A   1      39.266  22.059  26.364  1.00  0.00     0.090 C 
BRANCH   8   9
ATOM      9  N   UNL A   1      38.417  22.589  25.426  1.00  0.00    -0.360 N 
ATOM     10  H   UNL A   1      38.791  23.165  24.721  1.00  0.00     0.166 HD
BRANCH   9  11
ATOM     11  C   UNL A   1      37.031  22.340  25.433  1.00  0.00     0.058 A 
ATOM     12  C   UNL A   1      36.138  23.386  25.731  1.00  0.00     0.048 A 
ATOM     13  C   UNL A   1      36.502  21.093  25.063  1.00  0.00     0.064 A 
ATOM     14  C   UNL A   1      34.762  23.163  25.732  1.00  0.00     0.043 A 
ATOM     15  C   UNL A   1      35.122  20.872  25.074  1.00  0.00     0.024 A 
ATOM     16  Cl  UNL A   1      37.539  19.780  24.628  1.00  0.00    -0.082 Cl
ATOM     17  Cl  UNL A   1      33.687  24.446  26.134  1.00  0.00    -0.084 Cl
ATOM     18  C   UNL A   1      34.250  21.907  25.418  1.00  0.00     0.022 A 
ENDBRANCH   9  11
ENDBRANCH   8   9
ENDBRANCH   5   7
ENDBRANCH   4   5
ENDBRANCH   3   4
ENDBRANCH   2   3
ENDBRANCH   1   2
BRANCH   1  19
ATOM     19  C   UNL A   1      44.731  20.621  24.807  1.00  0.00     0.202 C 
BRANCH  19  20
ATOM     20  C   UNL A   1      45.189  21.828  25.635  1.00  0.00     0.261 C 
BRANCH  20  21
ATOM     21  O   UNL A   1      44.062  22.547  26.161  1.00  0.00    -0.460 OA
BRANCH  21  22
ATOM     22  C   UNL A   1      43.785  23.719  25.539  1.00  0.00     0.338 C 
ATOM     23  O   UNL A   1      43.798  23.943  24.341  1.00  0.00    -0.246 OA
BRANCH  22  24
ATOM     24  C   UNL A   1      43.238  24.665  26.538  1.00  0.00     0.060 A 
ATOM     25  C   UNL A   1      43.840  25.926  26.641  1.00  0.00     0.016 A 
ATOM     26  C   UNL A   1      42.128  24.346  27.325  1.00  0.00     0.016 A 
ATOM     27  C   UNL A   1      43.335  26.872  27.531  1.00  0.00     0.010 A 
ATOM     28  C   UNL A   1      41.632  25.289  28.227  1.00  0.00     0.010 A 
ATOM     29  C   UNL A   1      42.242  26.551  28.345  1.00  0.00    -0.014 A 
BRANCH  29  30
ATOM     30  C   UNL A   1      41.811  27.480  29.413  1.00  0.00     0.031 A 
ATOM     31  C   UNL A   1      42.526  27.439  30.733  1.00  0.00     0.074 A 
ATOM     32  C   UNL A   1      40.797  28.340  29.212  1.00  0.00     0.049 A 
ATOM     33  N   UNL A   1      42.274  28.101  31.833  1.00  0.00    -0.248 NA
ATOM     34  C   UNL A   1      43.676  26.525  30.829  1.00  0.00     0.031 C 
ATOM     35  C   UNL A   1      40.049  28.489  27.964  1.00  0.00     0.029 A 
ATOM     36  N   UNL A   1      40.211  29.239  30.066  1.00  0.00    -0.354 N 
ATOM     37  C   UNL A   1      43.228  27.679  32.751  1.00  0.00     0.074 A 
ATOM     38  C   UNL A   1      44.047  26.687  32.090  1.00  0.00     0.031 C 
ATOM     39  C   UNL A   1      39.087  29.413  28.141  1.00  0.00     0.029 A 
ATOM     40  C   UNL A   1      39.132  29.893  29.522  1.00  0.00     0.049 A 
ATOM     41  H   UNL A   1      40.533  29.401  30.983  1.00  0.00     0.167 HD
ATOM     42  C   UNL A   1      43.405  28.088  34.028  1.00  0.00     0.037 A 
ATOM     43  C   UNL A   1      38.264  30.755  30.085  1.00  0.00     0.037 A 
ATOM     44  C   UNL A   1      42.588  29.076  34.680  1.00  0.00     0.049 A 
ATOM     45  C   UNL A   1      38.443  31.140  31.532  1.00  0.00     0.074 A 
ATOM     46  C   UNL A   1      42.708  29.582  35.963  1.00  0.00     0.029 A 
ATOM     47  N   UNL A   1      41.493  29.701  34.104  1.00  0.00    -0.354 N 
ATOM     48  N   UNL A   1      39.372  30.767  32.379  1.00  0.00    -0.248 NA
ATOM     49  C   UNL A   1      37.451  32.063  32.101  1.00  0.00     0.031 C 
ATOM     50  C   UNL A   1      41.654  30.473  36.180  1.00  0.00     0.029 A 
ATOM     51  C   UNL A   1      40.909  30.562  35.016  1.00  0.00     0.049 A 
ATOM     52  H   UNL A   1      41.178  29.553  33.183  1.00  0.00     0.167 HD
ATOM     53  C   UNL A   1      39.091  31.428  33.569  1.00  0.00     0.074 A 
ATOM     54  C   UNL A   1      37.917  32.240  33.329  1.00  0.00     0.031 C 
ATOM     55  C   UNL A   1      39.744  31.368  34.756  1.00  0.00     0.037 A 
BRANCH  42  56
ATOM     56  C   UNL A   1      44.511  27.452  34.815  1.00  0.00     0.057 A 
ATOM     57  C   UNL A   1      45.799  28.001  34.859  1.00  0.00     0.134 A 
ATOM     58  C   UNL A   1      44.268  26.308  35.587  1.00  0.00     0.134 A 
ATOM     59  F   UNL A   1      46.100  29.086  34.130  1.00  0.00    -0.206 F 
ATOM     60  C   UNL A   1      46.809  27.427  35.632  1.00  0.00     0.040 A 
ATOM     61  C   UNL A   1      45.264  25.740  36.382  1.00  0.00     0.040 A 
ATOM     62  F   UNL A   1      43.055  25.734  35.590  1.00  0.00    -0.206 F 
ATOM     63  C   UNL A   1      46.539  26.298  36.405  1.00  0.00     0.006 A 
ENDBRANCH  42  56
BRANCH  43  64
ATOM     64  C   UNL A   1      37.123  31.297  29.302  1.00  0.00     0.057 A 
ATOM     65  C   UNL A   1      35.990  30.520  29.033  1.00  0.00     0.134 A 
ATOM     66  C   UNL A   1      37.160  32.589  28.762  1.00  0.00     0.134 A 
ATOM     67  F   UNL A   1      35.907  29.265  29.499  1.00  0.00    -0.206 F 
ATOM     68  C   UNL A   1      34.949  30.994  28.233  1.00  0.00     0.040 A 
ATOM     69  C   UNL A   1      36.113  33.087  27.985  1.00  0.00     0.040 A 
ATOM     70  F   UNL A   1      38.215  33.386  28.982  1.00  0.00    -0.206 F 
ATOM     71  C   UNL A   1      35.008  32.284  27.709  1.00  0.00     0.006 A 
ENDBRANCH  43  64
BRANCH  55  72
ATOM     72  C   UNL A   1      39.222  32.225  35.873  1.00  0.00     0.057 A 
ATOM     73  C   UNL A   1      39.650  33.546  36.053  1.00  0.00     0.134 A 
ATOM     74  C   UNL A   1      38.249  31.735  36.753  1.00  0.00     0.134 A 
ATOM     75  F   UNL A   1      40.588  34.073  35.251  1.00  0.00    -0.206 F 
ATOM     76  C   UNL A   1      39.145  34.342  37.084  1.00  0.00     0.040 A 
ATOM     77  C   UNL A   1      37.717  32.529  37.770  1.00  0.00     0.040 A 
ATOM     78  F   UNL A   1      37.788  30.480  36.630  1.00  0.00    -0.206 F 
ATOM     79  C   UNL A   1      38.171  33.835  37.941  1.00  0.00     0.006 A 
ENDBRANCH  55  72
ENDBRANCH  29  30
ENDBRANCH  22  24
ENDBRANCH  21  22
ENDBRANCH  20  21
ENDBRANCH  19  20
ENDBRANCH   1  19
TORSDOF 16
ENDMDL
MODEL 2
REMARK VINA RESULT:     -10.1      1.572      2.609
REMARK SMILES O=C(/C=C/Nc1cc(Cl)ccc1Cl)OCCOCCOC(=O)c1ccc(-c2c3nc(c(-c4c(F)cccc4F)c4ccc([nH]4)c(-c4c(F)cccc4F)c4nc(c(-c5c(F)cccc5F)c5ccc2[nH]5)C=C4)C=C3)cc1
REMARK SMILES IDX 17 1 16 2 15 3 14 4 2 5 1 6 3 7 4 8 5 9 6 11 7 12 12 13 8 14
REMARK SMILES IDX 11 15 13 16 9 17 10 18 18 19 19 20 20 21 21 22 22 23 23 24
REMARK SMILES IDX 24 25 76 26 25 27 75 28 26 29 27 30 28 31 69 32 29 33 74 34
REMARK SMILES IDX 68 35 70 36 30 37 73 38 67 39 66 40 31 42 57 43 40 44 56 45
REMARK SMILES IDX 41 46 44 47 55 48 71 49 42 50 43 51 54 53 72 54 45 55 32 56
REMARK SMILES IDX 33 57 38 58 34 59 35 60 37 61 39 62 36 63 58 64 59 65 64 66
REMARK SMILES IDX 60 67 61 68 63 69 65 70 62 71 46 72 47 73 52 74 48 75 49 76
REMARK SMILES IDX 51 77 53 78 50 79
REMARK H PARENT 5 10 70 41 44 52
REMARK Flexibility Score: inf
ROOT
ATOM      1  O   UNL A   1      41.302  20.238  25.727  1.00  0.00    -0.374 OA
ENDROOT
BRANCH   1   2
ATOM      2  C   UNL A   1      40.349  20.785  26.635  1.00  0.00     0.202 C 
BRANCH   2   3
ATOM      3  C   UNL A   1      39.507  21.925  26.071  1.00  0.00     0.261 C 
BRANCH   3   4
ATOM      4  O   UNL A   1      38.229  21.526  25.540  1.00  0.00    -0.460 OA
BRANCH   4   5
ATOM      5  C   UNL A   1      37.033  22.141  25.683  1.00  0.00     0.332 C 
ATOM      6  O   UNL A   1      36.983  23.300  26.089  1.00  0.00    -0.247 OA
BRANCH   5   7
ATOM      7  C   UNL A   1      35.766  21.416  25.505  1.00  0.00     0.111 C 
ATOM      8  C   UNL A   1      34.800  21.252  26.411  1.00  0.00     0.090 C 
BRANCH   8   9
ATOM      9  N   UNL A   1      33.575  20.662  26.231  1.00  0.00    -0.360 N 
ATOM     10  H   UNL A   1      32.902  20.740  26.946  1.00  0.00     0.166 HD
BRANCH   9  11
ATOM     11  C   UNL A   1      33.242  19.950  25.062  1.00  0.00     0.058 A 
ATOM     12  C   UNL A   1      33.579  18.588  24.958  1.00  0.00     0.048 A 
ATOM     13  C   UNL A   1      32.500  20.538  24.025  1.00  0.00     0.064 A 
ATOM     14  C   UNL A   1      33.248  17.862  23.815  1.00  0.00     0.043 A 
ATOM     15  C   UNL A   1      32.178  19.809  22.877  1.00  0.00     0.024 A 
ATOM     16  Cl  UNL A   1      32.002  22.191  24.112  1.00  0.00    -0.082 Cl
ATOM     17  Cl  UNL A   1      33.700  16.206  23.691  1.00  0.00    -0.084 Cl
ATOM     18  C   UNL A   1      32.561  18.471  22.767  1.00  0.00     0.022 A 
ENDBRANCH   9  11
ENDBRANCH   8   9
ENDBRANCH   5   7
ENDBRANCH   4   5
ENDBRANCH   3   4
ENDBRANCH   2   3
ENDBRANCH   1   2
BRANCH   1  19
ATOM     19  C   UNL A   1      42.645  20.235  26.226  1.00  0.00     0.202 C 
BRANCH  19  20
ATOM     20  C   UNL A   1      43.571  21.200  25.476  1.00  0.00     0.261 C 
BRANCH  20  21
ATOM     21  O   UNL A   1      43.876  22.350  26.281  1.00  0.00    -0.460 OA
BRANCH  21  22
ATOM     22  C   UNL A   1      43.722  23.545  25.659  1.00  0.00     0.338 C 
ATOM     23  O   UNL A   1      43.813  23.776  24.466  1.00  0.00    -0.246 OA
BRANCH  22  24
ATOM     24  C   UNL A   1      43.199  24.523  26.640  1.00  0.00     0.060 A 
ATOM     25  C   UNL A   1      43.759  25.808  26.642  1.00  0.00     0.016 A 
ATOM     26  C   UNL A   1      42.151  24.208  27.508  1.00  0.00     0.016 A 
ATOM     27  C   UNL A   1      43.271  26.782  27.511  1.00  0.00     0.010 A 
ATOM     28  C   UNL A   1      41.674  25.181  28.390  1.00  0.00     0.010 A 
ATOM     29  C   UNL A   1      42.241  26.467  28.405  1.00  0.00    -0.014 A 
BRANCH  29  30
ATOM     30  C   UNL A   1      41.840  27.436  29.449  1.00  0.00     0.031 A 
ATOM     31  C   UNL A   1      42.570  27.424  30.762  1.00  0.00     0.074 A 
ATOM     32  C   UNL A   1      40.838  28.307  29.233  1.00  0.00     0.049 A 
ATOM     33  N   UNL A   1      42.343  28.124  31.842  1.00  0.00    -0.248 NA
ATOM     34  C   UNL A   1      43.705  26.493  30.872  1.00  0.00     0.031 C 
ATOM     35  C   UNL A   1      40.078  28.431  27.990  1.00  0.00     0.029 A 
ATOM     36  N   UNL A   1      40.278  29.243  30.065  1.00  0.00    -0.354 N 
ATOM     37  C   UNL A   1      43.300  27.714  32.763  1.00  0.00     0.074 A 
ATOM     38  C   UNL A   1      44.094  26.688  32.123  1.00  0.00     0.031 C 
ATOM     39  C   UNL A   1      39.135  29.377  28.149  1.00  0.00     0.029 A 
ATOM     40  C   UNL A   1      39.204  29.898  29.514  1.00  0.00     0.049 A 
ATOM     41  H   UNL A   1      40.614  29.428  30.973  1.00  0.00     0.167 HD
ATOM     42  C   UNL A   1      43.500  28.159  34.024  1.00  0.00     0.037 A 
ATOM     43  C   UNL A   1      38.358  30.793  30.059  1.00  0.00     0.037 A 
ATOM     44  C   UNL A   1      42.709  29.181  34.654  1.00  0.00     0.049 A 
ATOM     45  C   UNL A   1      38.561  31.219  31.492  1.00  0.00     0.074 A 
ATOM     46  C   UNL A   1      42.853  29.724  35.919  1.00  0.00     0.029 A 
ATOM     47  N   UNL A   1      41.617  29.807  34.072  1.00  0.00    -0.354 N 
ATOM     48  N   UNL A   1      39.494  30.856  32.339  1.00  0.00    -0.248 NA
ATOM     49  C   UNL A   1      37.592  32.176  32.043  1.00  0.00     0.031 C 
ATOM     50  C   UNL A   1      41.817  30.640  36.121  1.00  0.00     0.029 A 
ATOM     51  C   UNL A   1      41.059  30.707  34.963  1.00  0.00     0.049 A 
ATOM     52  H   UNL A   1      41.288  29.636  33.160  1.00  0.00     0.167 HD
ATOM     53  C   UNL A   1      39.239  31.559  33.511  1.00  0.00     0.074 A 
ATOM     54  C   UNL A   1      38.077  32.384  33.260  1.00  0.00     0.031 C 
ATOM     55  C   UNL A   1      39.905  31.524  34.691  1.00  0.00     0.037 A 
BRANCH  42  56
ATOM     56  C   UNL A   1      44.604  27.529  34.818  1.00  0.00     0.057 A 
ATOM     57  C   UNL A   1      45.903  28.053  34.825  1.00  0.00     0.134 A 
ATOM     58  C   UNL A   1      44.351  26.416  35.631  1.00  0.00     0.134 A 
ATOM     59  F   UNL A   1      46.215  29.107  34.056  1.00  0.00    -0.206 F 
ATOM     60  C   UNL A   1      46.913  27.486  35.604  1.00  0.00     0.040 A 
ATOM     61  C   UNL A   1      45.346  25.856  36.432  1.00  0.00     0.040 A 
ATOM     62  F   UNL A   1      43.127  25.867  35.670  1.00  0.00    -0.206 F 
ATOM     63  C   UNL A   1      46.632  26.390  36.419  1.00  0.00     0.006 A 
ENDBRANCH  42  56
BRANCH  43  64
ATOM     64  C   UNL A   1      37.217  31.330  29.273  1.00  0.00     0.057 A 
ATOM     65  C   UNL A   1      37.249  32.620  28.731  1.00  0.00     0.134 A 
ATOM     66  C   UNL A   1      36.047  30.584  29.088  1.00  0.00     0.134 A 
ATOM     67  F   UNL A   1      38.332  33.395  28.897  1.00  0.00    -0.206 F 
ATOM     68  C   UNL A   1      36.151  33.160  28.059  1.00  0.00     0.040 A 
ATOM     69  C   UNL A   1      34.952  31.100  28.393  1.00  0.00     0.040 A 
ATOM     70  F   UNL A   1      35.950  29.341  29.582  1.00  0.00    -0.206 F 
ATOM     71  C   UNL A   1      34.999  32.396  27.885  1.00  0.00     0.006 A 
ENDBRANCH  43  64
BRANCH  55  72
ATOM     72  C   UNL A   1      39.412  32.425  35.787  1.00  0.00     0.057 A 
ATOM     73  C   UNL A   1      39.934  33.710  35.979  1.00  0.00     0.134 A 
ATOM     74  C   UNL A   1      38.373  32.015  36.633  1.00  0.00     0.134 A 
ATOM     75  F   UNL A   1      40.938  34.158  35.210  1.00  0.00    -0.206 F 
ATOM     76  C   UNL A   1      39.456  34.547  36.990  1.00  0.00     0.040 A 
ATOM     77  C   UNL A   1      37.868  32.853  37.628  1.00  0.00     0.040 A 
ATOM     78  F   UNL A   1      37.821  30.799  36.497  1.00  0.00    -0.206 F 
ATOM     79  C   UNL A   1      38.415  34.121  37.813  1.00  0.00     0.006 A 
ENDBRANCH  55  72
ENDBRANCH  29  30
ENDBRANCH  22  24
ENDBRANCH  21  22
ENDBRANCH  20  21
ENDBRANCH  19  20
ENDBRANCH   1  19
TORSDOF 16
ENDMDL
MODEL 3
REMARK VINA RESULT:     -10.1      1.006      2.278
REMARK SMILES O=C(/C=C/Nc1cc(Cl)ccc1Cl)OCCOCCOC(=O)c1ccc(-c2c3nc(c(-c4c(F)cccc4F)c4ccc([nH]4)c(-c4c(F)cccc4F)c4nc(c(-c5c(F)cccc5F)c5ccc2[nH]5)C=C4)C=C3)cc1
REMARK SMILES IDX 17 1 16 2 15 3 14 4 2 5 1 6 3 7 4 8 5 9 6 11 7 12 12 13 8 14
REMARK SMILES IDX 11 15 13 16 9 17 10 18 18 19 19 20 20 21 21 22 22 23 23 24
REMARK SMILES IDX 24 25 76 26 25 27 75 28 26 29 27 30 28 31 69 32 29 33 74 34
REMARK SMILES IDX 68 35 70 36 30 37 73 38 67 39 66 40 31 42 57 43 40 44 56 45
REMARK SMILES IDX 41 46 44 47 55 48 71 49 42 50 43 51 54 53 72 54 45 55 32 56
REMARK SMILES IDX 33 57 38 58 34 59 35 60 37 61 39 62 36 63 58 64 59 65 64 66
REMARK SMILES IDX 60 67 61 68 63 69 65 70 62 71 46 72 47 73 52 74 48 75 49 76
REMARK SMILES IDX 51 77 53 78 50 79
REMARK H PARENT 5 10 70 41 44 52
REMARK Flexibility Score: inf
ROOT
ATOM      1  O   UNL A   1      42.981  20.171  25.131  1.00  0.00    -0.374 OA
ENDROOT
BRANCH   1   2
ATOM      2  C   UNL A   1      42.519  19.305  26.165  1.00  0.00     0.202 C 
BRANCH   2   3
ATOM      3  C   UNL A   1      41.519  19.934  27.129  1.00  0.00     0.261 C 
BRANCH   3   4
ATOM      4  O   UNL A   1      40.518  20.763  26.505  1.00  0.00    -0.460 OA
BRANCH   4   5
ATOM      5  C   UNL A   1      39.433  20.376  25.796  1.00  0.00     0.332 C 
ATOM      6  O   UNL A   1      39.352  19.224  25.376  1.00  0.00    -0.247 OA
BRANCH   5   7
ATOM      7  C   UNL A   1      38.399  21.337  25.384  1.00  0.00     0.111 C 
ATOM      8  C   UNL A   1      37.117  21.074  25.121  1.00  0.00     0.090 C 
BRANCH   8   9
ATOM      9  N   UNL A   1      36.121  21.971  24.829  1.00  0.00    -0.360 N 
ATOM     10  H   UNL A   1      36.369  22.890  24.579  1.00  0.00     0.166 HD
BRANCH   9  11
ATOM     11  C   UNL A   1      34.756  21.627  24.872  1.00  0.00     0.058 A 
ATOM     12  C   UNL A   1      34.372  20.283  24.711  1.00  0.00     0.048 A 
ATOM     13  C   UNL A   1      33.763  22.577  25.162  1.00  0.00     0.064 A 
ATOM     14  C   UNL A   1      33.027  19.919  24.761  1.00  0.00     0.043 A 
ATOM     15  C   UNL A   1      32.415  22.210  25.203  1.00  0.00     0.024 A 
ATOM     16  Cl  UNL A   1      34.169  24.235  25.430  1.00  0.00    -0.082 Cl
ATOM     17  Cl  UNL A   1      32.575  18.276  24.526  1.00  0.00    -0.084 Cl
ATOM     18  C   UNL A   1      32.045  20.880  24.994  1.00  0.00     0.022 A 
ENDBRANCH   9  11
ENDBRANCH   8   9
ENDBRANCH   5   7
ENDBRANCH   4   5
ENDBRANCH   3   4
ENDBRANCH   2   3
ENDBRANCH   1   2
BRANCH   1  19
ATOM     19  C   UNL A   1      44.406  20.310  25.082  1.00  0.00     0.202 C 
BRANCH  19  20
ATOM     20  C   UNL A   1      44.898  21.679  25.567  1.00  0.00     0.261 C 
BRANCH  20  21
ATOM     21  O   UNL A   1      43.797  22.581  25.760  1.00  0.00    -0.460 OA
BRANCH  21  22
ATOM     22  C   UNL A   1      44.025  23.859  25.369  1.00  0.00     0.338 C 
ATOM     23  O   UNL A   1      44.469  24.239  24.299  1.00  0.00    -0.246 OA
BRANCH  22  24
ATOM     24  C   UNL A   1      43.438  24.772  26.375  1.00  0.00     0.060 A 
ATOM     25  C   UNL A   1      43.961  26.069  26.465  1.00  0.00     0.016 A 
ATOM     26  C   UNL A   1      42.365  24.387  27.183  1.00  0.00     0.016 A 
ATOM     27  C   UNL A   1      43.414  26.984  27.362  1.00  0.00     0.010 A 
ATOM     28  C   UNL A   1      41.827  25.301  28.093  1.00  0.00     0.010 A 
ATOM     29  C   UNL A   1      42.358  26.598  28.196  1.00  0.00    -0.014 A 
BRANCH  29  30
ATOM     30  C   UNL A   1      41.891  27.502  29.270  1.00  0.00     0.031 A 
ATOM     31  C   UNL A   1      42.584  27.458  30.601  1.00  0.00     0.074 A 
ATOM     32  C   UNL A   1      40.860  28.342  29.064  1.00  0.00     0.049 A 
ATOM     33  N   UNL A   1      42.301  28.099  31.705  1.00  0.00    -0.248 NA
ATOM     34  C   UNL A   1      43.753  26.569  30.702  1.00  0.00     0.031 C 
ATOM     35  C   UNL A   1      40.129  28.493  27.806  1.00  0.00     0.029 A 
ATOM     36  N   UNL A   1      40.241  29.216  29.921  1.00  0.00    -0.354 N 
ATOM     37  C   UNL A   1      43.248  27.685  32.633  1.00  0.00     0.074 A 
ATOM     38  C   UNL A   1      44.100  26.721  31.971  1.00  0.00     0.031 C 
ATOM     39  C   UNL A   1      39.145  29.393  27.981  1.00  0.00     0.029 A 
ATOM     40  C   UNL A   1      39.156  29.854  29.369  1.00  0.00     0.049 A 
ATOM     41  H   UNL A   1      40.544  29.372  30.845  1.00  0.00     0.167 HD
ATOM     42  C   UNL A   1      43.396  28.079  33.919  1.00  0.00     0.037 A 
ATOM     43  C   UNL A   1      38.261  30.688  29.930  1.00  0.00     0.037 A 
ATOM     44  C   UNL A   1      42.547  29.040  34.571  1.00  0.00     0.049 A 
ATOM     45  C   UNL A   1      38.407  31.056  31.384  1.00  0.00     0.074 A 
ATOM     46  C   UNL A   1      42.635  29.530  35.862  1.00  0.00     0.029 A 
ATOM     47  N   UNL A   1      41.448  29.648  33.986  1.00  0.00    -0.354 N 
ATOM     48  N   UNL A   1      39.331  30.692  32.242  1.00  0.00    -0.248 NA
ATOM     49  C   UNL A   1      37.386  31.948  31.951  1.00  0.00     0.031 C 
ATOM     50  C   UNL A   1      41.558  30.394  36.075  1.00  0.00     0.029 A 
ATOM     51  C   UNL A   1      40.829  30.483  34.900  1.00  0.00     0.049 A 
ATOM     52  H   UNL A   1      41.150  29.507  33.058  1.00  0.00     0.167 HD
ATOM     53  C   UNL A   1      39.017  31.329  33.436  1.00  0.00     0.074 A 
ATOM     54  C   UNL A   1      37.829  32.119  33.188  1.00  0.00     0.031 C 
ATOM     55  C   UNL A   1      39.651  31.267  34.632  1.00  0.00     0.037 A 
BRANCH  42  56
ATOM     56  C   UNL A   1      44.503  27.457  34.715  1.00  0.00     0.057 A 
ATOM     57  C   UNL A   1      44.322  26.269  35.433  1.00  0.00     0.134 A 
ATOM     58  C   UNL A   1      45.784  28.025  34.715  1.00  0.00     0.134 A 
ATOM     59  F   UNL A   1      43.116  25.684  35.486  1.00  0.00    -0.206 F 
ATOM     60  C   UNL A   1      45.372  25.674  36.133  1.00  0.00     0.040 A 
ATOM     61  C   UNL A   1      46.847  27.425  35.391  1.00  0.00     0.040 A 
ATOM     62  F   UNL A   1      46.025  29.162  34.045  1.00  0.00    -0.206 F 
ATOM     63  C   UNL A   1      46.643  26.248  36.104  1.00  0.00     0.006 A 
ENDBRANCH  42  56
BRANCH  43  64
ATOM     64  C   UNL A   1      37.120  31.216  29.136  1.00  0.00     0.057 A 
ATOM     65  C   UNL A   1      37.096  32.542  28.688  1.00  0.00     0.134 A 
ATOM     66  C   UNL A   1      36.004  30.420  28.849  1.00  0.00     0.134 A 
ATOM     67  F   UNL A   1      38.123  33.362  28.954  1.00  0.00    -0.206 F 
ATOM     68  C   UNL A   1      35.994  33.066  28.009  1.00  0.00     0.040 A 
ATOM     69  C   UNL A   1      34.908  30.922  28.146  1.00  0.00     0.040 A 
ATOM     70  F   UNL A   1      35.963  29.141  29.249  1.00  0.00    -0.206 F 
ATOM     71  C   UNL A   1      34.897  32.253  27.734  1.00  0.00     0.006 A 
ENDBRANCH  43  64
BRANCH  55  72
ATOM     72  C   UNL A   1      39.093  32.096  35.753  1.00  0.00     0.057 A 
ATOM     73  C   UNL A   1      38.203  31.563  36.694  1.00  0.00     0.134 A 
ATOM     74  C   UNL A   1      39.484  33.431  35.916  1.00  0.00     0.134 A 
ATOM     75  F   UNL A   1      37.780  30.294  36.587  1.00  0.00    -0.206 F 
ATOM     76  C   UNL A   1      37.703  32.337  37.743  1.00  0.00     0.040 A 
ATOM     77  C   UNL A   1      39.013  34.206  36.977  1.00  0.00     0.040 A 
ATOM     78  F   UNL A   1      40.343  34.000  35.055  1.00  0.00    -0.206 F 
ATOM     79  C   UNL A   1      38.114  33.660  37.890  1.00  0.00     0.006 A 
ENDBRANCH  55  72
ENDBRANCH  29  30
ENDBRANCH  22  24
ENDBRANCH  21  22
ENDBRANCH  20  21
ENDBRANCH  19  20
ENDBRANCH   1  19
TORSDOF 16
ENDMDL
