MODEL 1
REMARK VINA RESULT:     -12.2      0.000      0.000
REMARK SMILES Cc1ccc(S(=O)(=O)n2cc(C(=O)C(=O)N[C@H](Cc3c[nH]c4ccccc34)C(=O)NCC(=O)OCCOCCOC(=O)c3ccc(-c4c5nc(c(-c6c(F)cccc6F)c6ccc([nH]6)c(-c6c(F)cccc6F)c6nc(c(-c7c(F)cccc7F)c7ccc4[nH]7)C=C6)C=C5)cc3)c3ccccc32)cc1
REMARK SMILES IDX 35 1 34 2 32 3 33 4 31 5 30 6 28 7 29 8 17 10 16 11 14 12
REMARK SMILES IDX 15 13 12 15 13 16 11 17 9 18 10 19 102 20 97 21 101 22 98 23
REMARK SMILES IDX 100 24 99 25 6 26 7 27 8 28 5 29 1 30 2 31 3 32 104 33 4 34
REMARK SMILES IDX 103 35 18 36 19 37 20 38 27 39 21 40 22 41 26 42 23 44 25 45
REMARK SMILES IDX 24 46 36 47 37 48 38 49 39 50 40 51 41 52 42 53 43 54 44 55
REMARK SMILES IDX 96 56 45 57 95 58 46 59 47 60 48 61 89 62 49 63 94 64 88 65
REMARK SMILES IDX 90 66 50 67 93 68 87 69 86 70 51 72 77 73 60 74 76 75 61 76
REMARK SMILES IDX 64 77 75 78 91 79 62 80 63 81 74 83 92 84 65 85 52 86 53 87
REMARK SMILES IDX 58 88 54 89 55 90 57 91 59 92 56 93 78 94 79 95 84 96 80 97
REMARK SMILES IDX 81 98 83 99 85 100 82 101 66 102 67 103 72 104 68 105 69 106
REMARK SMILES IDX 71 107 73 108 70 109
REMARK H PARENT 30 9 16 14 21 43 90 71 64 82
REMARK Flexibility Score: inf
ROOT
ATOM      1  C   UNL A   1      31.387  29.795  25.862  1.00  0.00     0.261 C 
ENDROOT
BRANCH   1   2
ATOM      2  O   UNL A   1      32.060  28.538  25.768  1.00  0.00    -0.462 OA
BRANCH   2   3
ATOM      3  C   UNL A   1      31.766  27.606  26.717  1.00  0.00     0.325 C 
ATOM      4  O   UNL A   1      31.028  27.734  27.660  1.00  0.00    -0.250 OA
BRANCH   3   5
ATOM      5  C   UNL A   1      32.609  26.362  26.499  1.00  0.00     0.238 C 
BRANCH   5   6
ATOM      6  N   UNL A   1      31.802  25.179  26.326  1.00  0.00    -0.343 N 
ATOM      7  C   UNL A   1      31.027  24.742  25.311  1.00  0.00     0.243 C 
ATOM      8  O   UNL A   1      30.365  23.735  25.595  1.00  0.00    -0.273 OA
ATOM      9  H   UNL A   1      31.821  24.571  27.100  1.00  0.00     0.164 HD
BRANCH   7  10
ATOM     10  C   UNL A   1      30.890  25.417  23.913  1.00  0.00     0.176 C 
BRANCH  10  11
ATOM     11  N   UNL A   1      32.151  25.651  23.097  1.00  0.00    -0.337 N 
ATOM     12  C   UNL A   1      33.225  24.981  22.517  1.00  0.00     0.293 C 
ATOM     13  O   UNL A   1      34.026  25.640  21.856  1.00  0.00    -0.265 OA
ATOM     14  H   UNL A   1      32.238  26.614  22.913  1.00  0.00     0.164 HD
BRANCH  12  15
ATOM     15  C   UNL A   1      33.464  23.480  22.637  1.00  0.00     0.252 C 
ATOM     16  O   UNL A   1      32.555  22.790  22.175  1.00  0.00    -0.283 OA
BRANCH  15  17
ATOM     17  C   UNL A   1      34.588  22.808  23.354  1.00  0.00     0.054 A 
ATOM     18  N   UNL A   1      36.406  22.888  24.709  1.00  0.00    -0.240 N 
ATOM     19  C   UNL A   1      35.989  22.982  23.342  1.00  0.00     0.117 A 
ATOM     20  C   UNL A   1      35.206  22.886  25.362  1.00  0.00     0.065 A 
ATOM     21  C   UNL A   1      34.416  22.077  24.559  1.00  0.00     0.012 A 
ATOM     22  C   UNL A   1      34.728  23.418  26.510  1.00  0.00     0.028 A 
ATOM     23  C   UNL A   1      33.503  21.224  25.183  1.00  0.00     0.011 A 
ATOM     24  C   UNL A   1      33.848  22.548  27.129  1.00  0.00     0.002 A 
ATOM     25  C   UNL A   1      33.357  21.373  26.551  1.00  0.00     0.001 A 
BRANCH  18  26
ATOM     26  S   UNL A   1      37.543  21.599  25.305  1.00  0.00     0.268 S 
ATOM     27  O   UNL A   1      37.780  20.771  24.139  1.00  0.00    -0.201 OA
ATOM     28  O   UNL A   1      36.931  21.048  26.504  1.00  0.00    -0.201 OA
BRANCH  26  29
ATOM     29  C   UNL A   1      39.153  22.234  25.848  1.00  0.00     0.088 A 
ATOM     30  C   UNL A   1      42.275  22.575  28.846  1.00  0.00     0.044 C 
ATOM     31  C   UNL A   1      41.386  22.611  27.626  1.00  0.00    -0.051 A 
ATOM     32  C   UNL A   1      40.359  23.531  27.580  1.00  0.00     0.005 A 
ATOM     33  C   UNL A   1      41.365  21.590  26.668  1.00  0.00     0.005 A 
ATOM     34  C   UNL A   1      39.211  23.216  26.817  1.00  0.00     0.022 A 
ATOM     35  C   UNL A   1      40.287  21.436  25.755  1.00  0.00     0.022 A 
ENDBRANCH  26  29
ENDBRANCH  18  26
ENDBRANCH  15  17
ENDBRANCH  12  15
ENDBRANCH  10  11
BRANCH  10  36
ATOM     36  C   UNL A   1      29.681  26.388  23.737  1.00  0.00     0.072 C 
BRANCH  36  37
ATOM     37  C   UNL A   1      29.933  27.759  23.100  1.00  0.00    -0.020 A 
ATOM     38  C   UNL A   1      31.065  28.094  22.373  1.00  0.00     0.087 A 
ATOM     39  C   UNL A   1      29.087  28.933  23.039  1.00  0.00     0.003 A 
ATOM     40  N   UNL A   1      31.005  29.411  22.017  1.00  0.00    -0.361 N 
ATOM     41  C   UNL A   1      29.798  29.943  22.381  1.00  0.00     0.046 A 
ATOM     42  C   UNL A   1      27.790  29.257  23.496  1.00  0.00     0.010 A 
ATOM     43  H   UNL A   1      31.726  29.905  21.564  1.00  0.00     0.166 HD
ATOM     44  C   UNL A   1      29.305  31.238  22.173  1.00  0.00     0.026 A 
ATOM     45  C   UNL A   1      27.278  30.552  23.297  1.00  0.00     0.001 A 
ATOM     46  C   UNL A   1      28.028  31.529  22.647  1.00  0.00     0.002 A 
ENDBRANCH  36  37
ENDBRANCH  10  36
ENDBRANCH   7  10
ENDBRANCH   5   6
ENDBRANCH   3   5
ENDBRANCH   2   3
ENDBRANCH   1   2
BRANCH   1  47
ATOM     47  C   UNL A   1      32.409  30.829  26.272  1.00  0.00     0.202 C 
BRANCH  47  48
ATOM     48  O   UNL A   1      32.979  30.385  27.496  1.00  0.00    -0.374 OA
BRANCH  48  49
ATOM     49  C   UNL A   1      34.388  30.513  27.627  1.00  0.00     0.202 C 
BRANCH  49  50
ATOM     50  C   UNL A   1      34.844  31.966  27.816  1.00  0.00     0.261 C 
BRANCH  50  51
ATOM     51  O   UNL A   1      34.006  32.617  28.792  1.00  0.00    -0.460 OA
BRANCH  51  52
ATOM     52  C   UNL A   1      34.326  33.913  29.053  1.00  0.00     0.338 C 
ATOM     53  O   UNL A   1      33.902  34.886  28.448  1.00  0.00    -0.246 OA
BRANCH  52  54
ATOM     54  C   UNL A   1      35.521  33.975  29.940  1.00  0.00     0.060 A 
ATOM     55  C   UNL A   1      36.772  34.278  29.371  1.00  0.00     0.016 A 
ATOM     56  C   UNL A   1      35.454  33.298  31.151  1.00  0.00     0.016 A 
ATOM     57  C   UNL A   1      37.937  33.721  29.901  1.00  0.00     0.010 A 
ATOM     58  C   UNL A   1      36.571  32.596  31.542  1.00  0.00     0.010 A 
ATOM     59  C   UNL A   1      37.819  32.788  30.919  1.00  0.00    -0.014 A 
BRANCH  59  60
ATOM     60  C   UNL A   1      38.895  31.903  31.400  1.00  0.00     0.031 A 
ATOM     61  C   UNL A   1      39.134  30.681  30.536  1.00  0.00     0.074 A 
ATOM     62  C   UNL A   1      39.784  32.561  32.193  1.00  0.00     0.049 A 
ATOM     63  N   UNL A   1      39.977  29.716  30.713  1.00  0.00    -0.248 NA
ATOM     64  C   UNL A   1      38.316  30.452  29.332  1.00  0.00     0.031 C 
ATOM     65  C   UNL A   1      41.232  32.605  32.186  1.00  0.00     0.029 A 
ATOM     66  N   UNL A   1      39.507  33.242  33.382  1.00  0.00    -0.354 N 
ATOM     67  C   UNL A   1      40.069  29.018  29.504  1.00  0.00     0.074 A 
ATOM     68  C   UNL A   1      39.002  29.518  28.688  1.00  0.00     0.031 C 
ATOM     69  C   UNL A   1      41.746  32.901  33.381  1.00  0.00     0.029 A 
ATOM     70  C   UNL A   1      40.623  33.052  34.245  1.00  0.00     0.049 A 
ATOM     71  H   UNL A   1      38.692  33.755  33.583  1.00  0.00     0.167 HD
ATOM     72  C   UNL A   1      41.120  28.194  29.203  1.00  0.00     0.037 A 
ATOM     73  C   UNL A   1      40.518  32.441  35.449  1.00  0.00     0.037 A 
ATOM     74  C   UNL A   1      42.027  28.026  30.382  1.00  0.00     0.049 A 
ATOM     75  C   UNL A   1      41.212  31.094  35.432  1.00  0.00     0.074 A 
ATOM     76  C   UNL A   1      43.360  28.270  30.641  1.00  0.00     0.029 A 
ATOM     77  N   UNL A   1      41.499  27.857  31.691  1.00  0.00    -0.354 N 
ATOM     78  N   UNL A   1      41.247  30.235  34.435  1.00  0.00    -0.248 NA
ATOM     79  C   UNL A   1      42.043  30.700  36.566  1.00  0.00     0.031 C 
ATOM     80  C   UNL A   1      43.614  28.423  32.016  1.00  0.00     0.029 A 
ATOM     81  C   UNL A   1      42.430  28.193  32.665  1.00  0.00     0.049 A 
ATOM     82  H   UNL A   1      40.587  27.541  31.882  1.00  0.00     0.167 HD
ATOM     83  C   UNL A   1      42.021  29.155  34.827  1.00  0.00     0.074 A 
ATOM     84  C   UNL A   1      42.524  29.523  36.142  1.00  0.00     0.031 C 
ATOM     85  C   UNL A   1      42.281  28.025  34.092  1.00  0.00     0.037 A 
BRANCH  72  86
ATOM     86  C   UNL A   1      41.390  27.954  27.677  1.00  0.00     0.057 A 
ATOM     87  C   UNL A   1      40.843  26.887  26.980  1.00  0.00     0.134 A 
ATOM     88  C   UNL A   1      42.201  28.713  26.823  1.00  0.00     0.134 A 
ATOM     89  F   UNL A   1      39.573  26.640  27.251  1.00  0.00    -0.206 F 
ATOM     90  C   UNL A   1      41.327  26.340  25.765  1.00  0.00     0.040 A 
ATOM     91  C   UNL A   1      42.645  28.276  25.547  1.00  0.00     0.040 A 
ATOM     92  F   UNL A   1      42.537  29.966  27.162  1.00  0.00    -0.206 F 
ATOM     93  C   UNL A   1      42.279  27.034  25.049  1.00  0.00     0.006 A 
ENDBRANCH  72  86
BRANCH  73  94
ATOM     94  C   UNL A   1      39.223  32.835  36.076  1.00  0.00     0.057 A 
ATOM     95  C   UNL A   1      38.300  31.773  36.232  1.00  0.00     0.134 A 
ATOM     96  C   UNL A   1      39.225  33.831  37.053  1.00  0.00     0.134 A 
ATOM     97  F   UNL A   1      38.240  30.794  35.311  1.00  0.00    -0.206 F 
ATOM     98  C   UNL A   1      37.641  31.557  37.443  1.00  0.00     0.040 A 
ATOM     99  C   UNL A   1      38.545  33.633  38.261  1.00  0.00     0.040 A 
ATOM    100  F   UNL A   1      40.055  34.878  36.954  1.00  0.00    -0.206 F 
ATOM    101  C   UNL A   1      37.817  32.461  38.487  1.00  0.00     0.006 A 
ENDBRANCH  73  94
BRANCH  85 102
ATOM    102  C   UNL A   1      42.826  26.717  34.655  1.00  0.00     0.057 A 
ATOM    103  C   UNL A   1      44.189  26.483  34.868  1.00  0.00     0.134 A 
ATOM    104  C   UNL A   1      41.972  25.691  35.144  1.00  0.00     0.134 A 
ATOM    105  F   UNL A   1      45.114  27.408  34.581  1.00  0.00    -0.206 F 
ATOM    106  C   UNL A   1      44.667  25.296  35.440  1.00  0.00     0.040 A 
ATOM    107  C   UNL A   1      42.435  24.516  35.731  1.00  0.00     0.040 A 
ATOM    108  F   UNL A   1      40.635  25.780  35.124  1.00  0.00    -0.206 F 
ATOM    109  C   UNL A   1      43.792  24.309  35.873  1.00  0.00     0.006 A 
ENDBRANCH  85 102
ENDBRANCH  59  60
ENDBRANCH  52  54
ENDBRANCH  51  52
ENDBRANCH  50  51
ENDBRANCH  49  50
ENDBRANCH  48  49
ENDBRANCH  47  48
ENDBRANCH   1  47
TORSDOF 23
ENDMDL
MODEL 2
REMARK VINA RESULT:     -11.4      4.014      7.921
REMARK SMILES Cc1ccc(S(=O)(=O)n2cc(C(=O)C(=O)N[C@H](Cc3c[nH]c4ccccc34)C(=O)NCC(=O)OCCOCCOC(=O)c3ccc(-c4c5nc(c(-c6c(F)cccc6F)c6ccc([nH]6)c(-c6c(F)cccc6F)c6nc(c(-c7c(F)cccc7F)c7ccc4[nH]7)C=C6)C=C5)cc3)c3ccccc32)cc1
REMARK SMILES IDX 35 1 34 2 32 3 33 4 31 5 30 6 28 7 29 8 17 10 16 11 14 12
REMARK SMILES IDX 15 13 12 15 13 16 11 17 9 18 10 19 102 20 97 21 101 22 98 23
REMARK SMILES IDX 100 24 99 25 6 26 7 27 8 28 5 29 1 30 2 31 3 32 104 33 4 34
REMARK SMILES IDX 103 35 18 36 19 37 20 38 27 39 21 40 22 41 26 42 23 44 25 45
REMARK SMILES IDX 24 46 36 47 37 48 38 49 39 50 40 51 41 52 42 53 43 54 44 55
REMARK SMILES IDX 96 56 45 57 95 58 46 59 47 60 48 61 89 62 49 63 94 64 88 65
REMARK SMILES IDX 90 66 50 67 93 68 87 69 86 70 51 72 77 73 60 74 76 75 61 76
REMARK SMILES IDX 64 77 75 78 91 79 62 80 63 81 74 83 92 84 65 85 52 86 53 87
REMARK SMILES IDX 58 88 54 89 55 90 57 91 59 92 56 93 78 94 79 95 84 96 80 97
REMARK SMILES IDX 81 98 83 99 85 100 82 101 66 102 67 103 72 104 68 105 69 106
REMARK SMILES IDX 71 107 73 108 70 109
REMARK H PARENT 30 9 16 14 21 43 90 71 64 82
REMARK Flexibility Score: inf
ROOT
ATOM      1  C   UNL A   1      32.767  28.480  26.390  1.00  0.00     0.261 C 
ENDROOT
BRANCH   1   2
ATOM      2  O   UNL A   1      33.571  27.838  25.400  1.00  0.00    -0.462 OA
BRANCH   2   3
ATOM      3  C   UNL A   1      33.061  26.715  24.821  1.00  0.00     0.325 C 
ATOM      4  O   UNL A   1      32.035  26.618  24.200  1.00  0.00    -0.250 OA
BRANCH   3   5
ATOM      5  C   UNL A   1      33.927  25.517  25.168  1.00  0.00     0.238 C 
BRANCH   5   6
ATOM      6  N   UNL A   1      34.423  24.843  23.992  1.00  0.00    -0.343 N 
ATOM      7  C   UNL A   1      34.919  23.604  23.790  1.00  0.00     0.243 C 
ATOM      8  O   UNL A   1      35.383  23.438  22.656  1.00  0.00    -0.273 OA
ATOM      9  H   UNL A   1      34.394  25.395  23.178  1.00  0.00     0.164 HD
BRANCH   7  10
ATOM     10  C   UNL A   1      34.979  22.463  24.850  1.00  0.00     0.176 C 
BRANCH  10  11
ATOM     11  N   UNL A   1      36.271  21.675  24.992  1.00  0.00    -0.337 N 
ATOM     12  C   UNL A   1      37.586  21.790  25.437  1.00  0.00     0.293 C 
ATOM     13  O   UNL A   1      38.297  20.787  25.396  1.00  0.00    -0.265 OA
ATOM     14  H   UNL A   1      36.129  20.763  24.650  1.00  0.00     0.164 HD
BRANCH  12  15
ATOM     15  C   UNL A   1      38.196  23.076  25.984  1.00  0.00     0.252 C 
ATOM     16  O   UNL A   1      37.575  24.094  25.679  1.00  0.00    -0.283 OA
BRANCH  15  17
ATOM     17  C   UNL A   1      39.494  23.211  26.710  1.00  0.00     0.054 A 
ATOM     18  N   UNL A   1      41.728  23.606  26.722  1.00  0.00    -0.240 N 
ATOM     19  C   UNL A   1      40.746  22.572  26.586  1.00  0.00     0.117 A 
ATOM     20  C   UNL A   1      40.948  24.729  26.694  1.00  0.00     0.065 A 
ATOM     21  C   UNL A   1      39.849  24.364  27.458  1.00  0.00     0.012 A 
ATOM     22  C   UNL A   1      41.059  25.970  26.167  1.00  0.00     0.028 A 
ATOM     23  C   UNL A   1      39.279  25.331  28.289  1.00  0.00     0.011 A 
ATOM     24  C   UNL A   1      40.515  26.917  27.018  1.00  0.00     0.002 A 
ATOM     25  C   UNL A   1      39.769  26.618  28.162  1.00  0.00     0.001 A 
BRANCH  18  26
ATOM     26  S   UNL A   1      42.957  23.627  28.063  1.00  0.00     0.268 S 
ATOM     27  O   UNL A   1      43.204  22.225  28.337  1.00  0.00    -0.201 OA
ATOM     28  O   UNL A   1      42.417  24.508  29.088  1.00  0.00    -0.201 OA
BRANCH  26  29
ATOM     29  C   UNL A   1      44.544  24.369  27.592  1.00  0.00     0.088 A 
ATOM     30  C   UNL A   1      47.602  25.205  24.626  1.00  0.00     0.044 C 
ATOM     31  C   UNL A   1      46.709  25.094  25.838  1.00  0.00    -0.051 A 
ATOM     32  C   UNL A   1      46.782  23.956  26.615  1.00  0.00     0.005 A 
ATOM     33  C   UNL A   1      45.620  25.944  26.063  1.00  0.00     0.005 A 
ATOM     34  C   UNL A   1      45.629  23.557  27.329  1.00  0.00     0.022 A 
ATOM     35  C   UNL A   1      44.578  25.611  26.969  1.00  0.00     0.022 A 
ENDBRANCH  26  29
ENDBRANCH  18  26
ENDBRANCH  15  17
ENDBRANCH  12  15
ENDBRANCH  10  11
BRANCH  10  36
ATOM     36  C   UNL A   1      33.624  21.764  25.183  1.00  0.00     0.072 C 
BRANCH  36  37
ATOM     37  C   UNL A   1      33.128  20.653  24.251  1.00  0.00    -0.020 A 
ATOM     38  C   UNL A   1      32.129  20.809  23.302  1.00  0.00     0.087 A 
ATOM     39  C   UNL A   1      33.591  19.290  24.089  1.00  0.00     0.003 A 
ATOM     40  N   UNL A   1      31.880  19.608  22.701  1.00  0.00    -0.361 N 
ATOM     41  C   UNL A   1      32.775  18.669  23.136  1.00  0.00     0.046 A 
ATOM     42  C   UNL A   1      34.609  18.503  24.669  1.00  0.00     0.010 A 
ATOM     43  H   UNL A   1      31.160  19.443  22.049  1.00  0.00     0.166 HD
ATOM     44  C   UNL A   1      32.904  17.328  22.751  1.00  0.00     0.026 A 
ATOM     45  C   UNL A   1      34.755  17.155  24.297  1.00  0.00     0.001 A 
ATOM     46  C   UNL A   1      33.911  16.576  23.353  1.00  0.00     0.002 A 
ENDBRANCH  36  37
ENDBRANCH  10  36
ENDBRANCH   7  10
ENDBRANCH   5   6
ENDBRANCH   3   5
ENDBRANCH   2   3
ENDBRANCH   1   2
BRANCH   1  47
ATOM     47  C   UNL A   1      33.201  29.925  26.463  1.00  0.00     0.202 C 
BRANCH  47  48
ATOM     48  O   UNL A   1      33.952  30.072  27.661  1.00  0.00    -0.374 OA
BRANCH  48  49
ATOM     49  C   UNL A   1      35.356  29.881  27.561  1.00  0.00     0.202 C 
BRANCH  49  50
ATOM     50  C   UNL A   1      36.164  31.065  28.107  1.00  0.00     0.261 C 
BRANCH  50  51
ATOM     51  O   UNL A   1      37.253  30.579  28.918  1.00  0.00    -0.460 OA
BRANCH  51  52
ATOM     52  C   UNL A   1      37.320  31.109  30.169  1.00  0.00     0.338 C 
ATOM     53  O   UNL A   1      36.630  32.025  30.592  1.00  0.00    -0.246 OA
BRANCH  52  54
ATOM     54  C   UNL A   1      38.573  30.668  30.843  1.00  0.00     0.060 A 
ATOM     55  C   UNL A   1      39.557  31.629  31.140  1.00  0.00     0.016 A 
ATOM     56  C   UNL A   1      38.922  29.328  30.731  1.00  0.00     0.016 A 
ATOM     57  C   UNL A   1      40.909  31.281  31.112  1.00  0.00     0.010 A 
ATOM     58  C   UNL A   1      40.248  29.039  30.507  1.00  0.00     0.010 A 
ATOM     59  C   UNL A   1      41.254  30.010  30.683  1.00  0.00    -0.014 A 
BRANCH  59  60
ATOM     60  C   UNL A   1      42.614  29.564  30.325  1.00  0.00     0.031 A 
ATOM     61  C   UNL A   1      43.282  28.693  31.370  1.00  0.00     0.074 A 
ATOM     62  C   UNL A   1      42.819  29.573  28.980  1.00  0.00     0.049 A 
ATOM     63  N   UNL A   1      44.469  28.182  31.360  1.00  0.00    -0.248 NA
ATOM     64  C   UNL A   1      42.578  28.366  32.623  1.00  0.00     0.031 C 
ATOM     65  C   UNL A   1      43.372  28.579  28.084  1.00  0.00     0.029 A 
ATOM     66  N   UNL A   1      42.711  30.670  28.121  1.00  0.00    -0.354 N 
ATOM     67  C   UNL A   1      44.506  27.196  32.351  1.00  0.00     0.074 A 
ATOM     68  C   UNL A   1      43.302  27.367  33.110  1.00  0.00     0.031 C 
ATOM     69  C   UNL A   1      43.894  29.113  26.978  1.00  0.00     0.029 A 
ATOM     70  C   UNL A   1      43.711  30.519  27.119  1.00  0.00     0.049 A 
ATOM     71  H   UNL A   1      42.064  31.408  28.195  1.00  0.00     0.167 HD
ATOM     72  C   UNL A   1      45.449  26.203  32.374  1.00  0.00     0.037 A 
ATOM     73  C   UNL A   1      44.701  31.425  26.935  1.00  0.00     0.037 A 
ATOM     74  C   UNL A   1      46.491  26.427  31.323  1.00  0.00     0.049 A 
ATOM     75  C   UNL A   1      46.041  30.850  27.347  1.00  0.00     0.074 A 
ATOM     76  C   UNL A   1      46.961  25.717  30.237  1.00  0.00     0.029 A 
ATOM     77  N   UNL A   1      47.007  27.727  31.071  1.00  0.00    -0.354 N 
ATOM     78  N   UNL A   1      46.279  30.046  28.362  1.00  0.00    -0.248 NA
ATOM     79  C   UNL A   1      47.210  31.077  26.502  1.00  0.00     0.031 C 
ATOM     80  C   UNL A   1      47.573  26.551  29.283  1.00  0.00     0.029 A 
ATOM     81  C   UNL A   1      47.567  27.819  29.804  1.00  0.00     0.049 A 
ATOM     82  H   UNL A   1      46.971  28.470  31.715  1.00  0.00     0.167 HD
ATOM     83  C   UNL A   1      47.627  29.730  28.351  1.00  0.00     0.074 A 
ATOM     84  C   UNL A   1      48.143  30.364  27.147  1.00  0.00     0.031 C 
ATOM     85  C   UNL A   1      48.291  28.945  29.261  1.00  0.00     0.037 A 
BRANCH  72  86
ATOM     86  C   UNL A   1      45.052  24.895  33.143  1.00  0.00     0.057 A 
ATOM     87  C   UNL A   1      44.227  23.926  32.592  1.00  0.00     0.134 A 
ATOM     88  C   UNL A   1      45.418  24.524  34.443  1.00  0.00     0.134 A 
ATOM     89  F   UNL A   1      44.477  23.640  31.325  1.00  0.00    -0.206 F 
ATOM     90  C   UNL A   1      43.482  22.953  33.304  1.00  0.00     0.040 A 
ATOM     91  C   UNL A   1      44.787  23.491  35.186  1.00  0.00     0.040 A 
ATOM     92  F   UNL A   1      46.476  25.103  35.029  1.00  0.00    -0.206 F 
ATOM     93  C   UNL A   1      43.743  22.756  34.644  1.00  0.00     0.006 A 
ENDBRANCH  72  86
BRANCH  73  94
ATOM     94  C   UNL A   1      44.147  32.793  27.153  1.00  0.00     0.057 A 
ATOM     95  C   UNL A   1      44.532  33.393  28.377  1.00  0.00     0.134 A 
ATOM     96  C   UNL A   1      43.978  33.633  26.052  1.00  0.00     0.134 A 
ATOM     97  F   UNL A   1      44.691  32.636  29.476  1.00  0.00    -0.206 F 
ATOM     98  C   UNL A   1      45.019  34.701  28.421  1.00  0.00     0.040 A 
ATOM     99  C   UNL A   1      44.440  34.954  26.098  1.00  0.00     0.040 A 
ATOM    100  F   UNL A   1      43.590  33.135  24.870  1.00  0.00    -0.206 F 
ATOM    101  C   UNL A   1      45.032  35.464  27.258  1.00  0.00     0.006 A 
ENDBRANCH  73  94
BRANCH  85 102
ATOM    102  C   UNL A   1      49.804  28.894  29.440  1.00  0.00     0.057 A 
ATOM    103  C   UNL A   1      50.454  29.320  30.603  1.00  0.00     0.134 A 
ATOM    104  C   UNL A   1      50.656  28.270  28.487  1.00  0.00     0.134 A 
ATOM    105  F   UNL A   1      49.775  29.811  31.648  1.00  0.00    -0.206 F 
ATOM    106  C   UNL A   1      51.842  29.212  30.770  1.00  0.00     0.040 A 
ATOM    107  C   UNL A   1      52.033  28.141  28.651  1.00  0.00     0.040 A 
ATOM    108  F   UNL A   1      50.204  27.709  27.358  1.00  0.00    -0.206 F 
ATOM    109  C   UNL A   1      52.635  28.622  29.796  1.00  0.00     0.006 A 
ENDBRANCH  85 102
ENDBRANCH  59  60
ENDBRANCH  52  54
ENDBRANCH  51  52
ENDBRANCH  50  51
ENDBRANCH  49  50
ENDBRANCH  48  49
ENDBRANCH  47  48
ENDBRANCH   1  47
TORSDOF 23
ENDMDL
MODEL 3
REMARK VINA RESULT:     -11.3      4.101      9.257
REMARK SMILES Cc1ccc(S(=O)(=O)n2cc(C(=O)C(=O)N[C@H](Cc3c[nH]c4ccccc34)C(=O)NCC(=O)OCCOCCOC(=O)c3ccc(-c4c5nc(c(-c6c(F)cccc6F)c6ccc([nH]6)c(-c6c(F)cccc6F)c6nc(c(-c7c(F)cccc7F)c7ccc4[nH]7)C=C6)C=C5)cc3)c3ccccc32)cc1
REMARK SMILES IDX 35 1 34 2 32 3 33 4 31 5 30 6 28 7 29 8 17 10 16 11 14 12
REMARK SMILES IDX 15 13 12 15 13 16 11 17 9 18 10 19 102 20 97 21 101 22 98 23
REMARK SMILES IDX 100 24 99 25 6 26 7 27 8 28 5 29 1 30 2 31 3 32 104 33 4 34
REMARK SMILES IDX 103 35 18 36 19 37 20 38 27 39 21 40 22 41 26 42 23 44 25 45
REMARK SMILES IDX 24 46 36 47 37 48 38 49 39 50 40 51 41 52 42 53 43 54 44 55
REMARK SMILES IDX 96 56 45 57 95 58 46 59 47 60 48 61 89 62 49 63 94 64 88 65
REMARK SMILES IDX 90 66 50 67 93 68 87 69 86 70 51 72 77 73 60 74 76 75 61 76
REMARK SMILES IDX 64 77 75 78 91 79 62 80 63 81 74 83 92 84 65 85 52 86 53 87
REMARK SMILES IDX 58 88 54 89 55 90 57 91 59 92 56 93 78 94 79 95 84 96 80 97
REMARK SMILES IDX 81 98 83 99 85 100 82 101 66 102 67 103 72 104 68 105 69 106
REMARK SMILES IDX 71 107 73 108 70 109
REMARK H PARENT 30 9 16 14 21 43 90 71 64 82
REMARK Flexibility Score: inf
ROOT
ATOM      1  C   UNL A   1      36.962  23.649  25.919  1.00  0.00     0.261 C 
ENDROOT
BRANCH   1   2
ATOM      2  O   UNL A   1      37.501  23.492  24.606  1.00  0.00    -0.462 OA
BRANCH   2   3
ATOM      3  C   UNL A   1      36.612  23.399  23.578  1.00  0.00     0.325 C 
ATOM      4  O   UNL A   1      36.666  22.656  22.633  1.00  0.00    -0.250 OA
BRANCH   3   5
ATOM      5  C   UNL A   1      35.551  24.478  23.715  1.00  0.00     0.238 C 
BRANCH   5   6
ATOM      6  N   UNL A   1      34.702  24.558  22.551  1.00  0.00    -0.343 N 
ATOM      7  C   UNL A   1      33.554  25.224  22.301  1.00  0.00     0.243 C 
ATOM      8  O   UNL A   1      33.037  24.924  21.218  1.00  0.00    -0.273 OA
ATOM      9  H   UNL A   1      35.022  24.023  21.789  1.00  0.00     0.164 HD
BRANCH   7  10
ATOM     10  C   UNL A   1      32.866  26.243  23.259  1.00  0.00     0.176 C 
BRANCH  10  11
ATOM     11  N   UNL A   1      31.412  26.012  23.637  1.00  0.00    -0.337 N 
ATOM     12  C   UNL A   1      30.446  25.014  23.732  1.00  0.00     0.293 C 
ATOM     13  O   UNL A   1      29.341  25.322  24.175  1.00  0.00    -0.265 OA
ATOM     14  H   UNL A   1      31.013  26.870  23.911  1.00  0.00     0.164 HD
BRANCH  12  15
ATOM     15  C   UNL A   1      30.676  23.559  23.337  1.00  0.00     0.252 C 
ATOM     16  O   UNL A   1      29.899  23.146  22.476  1.00  0.00    -0.283 OA
BRANCH  15  17
ATOM     17  C   UNL A   1      31.629  22.601  23.971  1.00  0.00     0.054 A 
ATOM     18  N   UNL A   1      33.728  22.018  24.606  1.00  0.00    -0.240 N 
ATOM     19  C   UNL A   1      32.797  21.951  23.519  1.00  0.00     0.117 A 
ATOM     20  C   UNL A   1      33.085  22.865  25.464  1.00  0.00     0.065 A 
ATOM     21  C   UNL A   1      31.764  22.454  25.376  1.00  0.00     0.012 A 
ATOM     22  C   UNL A   1      33.458  23.862  26.298  1.00  0.00     0.028 A 
ATOM     23  C   UNL A   1      30.994  22.467  26.542  1.00  0.00     0.011 A 
ATOM     24  C   UNL A   1      32.705  23.841  27.460  1.00  0.00     0.002 A 
ATOM     25  C   UNL A   1      31.578  23.038  27.659  1.00  0.00     0.001 A 
BRANCH  18  26
ATOM     26  S   UNL A   1      34.388  20.536  25.430  1.00  0.00     0.268 S 
ATOM     27  O   UNL A   1      33.997  20.700  26.816  1.00  0.00    -0.201 OA
ATOM     28  O   UNL A   1      35.790  20.457  25.050  1.00  0.00    -0.201 OA
BRANCH  26  29
ATOM     29  C   UNL A   1      33.654  18.983  24.845  1.00  0.00     0.088 A 
ATOM     30  C   UNL A   1      32.942  14.724  25.296  1.00  0.00     0.044 C 
ATOM     31  C   UNL A   1      32.998  16.180  24.901  1.00  0.00    -0.051 A 
ATOM     32  C   UNL A   1      34.092  16.635  24.193  1.00  0.00     0.005 A 
ATOM     33  C   UNL A   1      32.150  17.151  25.446  1.00  0.00     0.005 A 
ATOM     34  C   UNL A   1      34.466  17.991  24.334  1.00  0.00     0.022 A 
ATOM     35  C   UNL A   1      32.447  18.538  25.372  1.00  0.00     0.022 A 
ENDBRANCH  26  29
ENDBRANCH  18  26
ENDBRANCH  15  17
ENDBRANCH  12  15
ENDBRANCH  10  11
BRANCH  10  36
ATOM     36  C   UNL A   1      33.416  27.704  23.215  1.00  0.00     0.072 C 
BRANCH  36  37
ATOM     37  C   UNL A   1      32.841  28.729  24.198  1.00  0.00    -0.020 A 
ATOM     38  C   UNL A   1      31.610  29.351  24.057  1.00  0.00     0.087 A 
ATOM     39  C   UNL A   1      33.365  29.214  25.458  1.00  0.00     0.003 A 
ATOM     40  N   UNL A   1      31.442  30.262  25.061  1.00  0.00    -0.361 N 
ATOM     41  C   UNL A   1      32.480  30.181  25.949  1.00  0.00     0.046 A 
ATOM     42  C   UNL A   1      34.517  28.950  26.231  1.00  0.00     0.010 A 
ATOM     43  H   UNL A   1      30.684  30.885  25.135  1.00  0.00     0.166 HD
ATOM     44  C   UNL A   1      32.685  30.898  27.136  1.00  0.00     0.026 A 
ATOM     45  C   UNL A   1      34.741  29.659  27.424  1.00  0.00     0.001 A 
ATOM     46  C   UNL A   1      33.838  30.622  27.868  1.00  0.00     0.002 A 
ENDBRANCH  36  37
ENDBRANCH  10  36
ENDBRANCH   7  10
ENDBRANCH   5   6
ENDBRANCH   3   5
ENDBRANCH   2   3
ENDBRANCH   1   2
BRANCH   1  47
ATOM     47  C   UNL A   1      38.057  24.206  26.798  1.00  0.00     0.202 C 
BRANCH  47  48
ATOM     48  O   UNL A   1      39.274  23.611  26.370  1.00  0.00    -0.374 OA
BRANCH  48  49
ATOM     49  C   UNL A   1      39.883  22.689  27.262  1.00  0.00     0.202 C 
BRANCH  49  50
ATOM     50  C   UNL A   1      40.208  21.341  26.604  1.00  0.00     0.261 C 
BRANCH  50  51
ATOM     51  O   UNL A   1      41.273  21.511  25.647  1.00  0.00    -0.460 OA
BRANCH  51  52
ATOM     52  C   UNL A   1      42.422  20.845  25.940  1.00  0.00     0.338 C 
ATOM     53  O   UNL A   1      42.531  19.633  26.065  1.00  0.00    -0.246 OA
BRANCH  52  54
ATOM     54  C   UNL A   1      43.455  21.799  26.430  1.00  0.00     0.060 A 
ATOM     55  C   UNL A   1      43.532  22.064  27.811  1.00  0.00     0.016 A 
ATOM     56  C   UNL A   1      43.965  22.713  25.518  1.00  0.00     0.016 A 
ATOM     57  C   UNL A   1      43.920  23.327  28.262  1.00  0.00     0.010 A 
ATOM     58  C   UNL A   1      44.150  24.004  25.956  1.00  0.00     0.010 A 
ATOM     59  C   UNL A   1      44.119  24.330  27.326  1.00  0.00    -0.014 A 
BRANCH  59  60
ATOM     60  C   UNL A   1      44.254  25.768  27.625  1.00  0.00     0.031 A 
ATOM     61  C   UNL A   1      42.937  26.501  27.782  1.00  0.00     0.074 A 
ATOM     62  C   UNL A   1      45.455  26.062  28.193  1.00  0.00     0.049 A 
ATOM     63  N   UNL A   1      42.731  27.756  28.012  1.00  0.00    -0.248 NA
ATOM     64  C   UNL A   1      41.662  25.777  27.626  1.00  0.00     0.031 C 
ATOM     65  C   UNL A   1      45.802  26.841  29.364  1.00  0.00     0.029 A 
ATOM     66  N   UNL A   1      46.722  25.828  27.650  1.00  0.00    -0.354 N 
ATOM     67  C   UNL A   1      41.397  27.893  28.411  1.00  0.00     0.074 A 
ATOM     68  C   UNL A   1      40.782  26.627  28.139  1.00  0.00     0.031 C 
ATOM     69  C   UNL A   1      47.037  27.340  29.307  1.00  0.00     0.029 A 
ATOM     70  C   UNL A   1      47.558  26.907  28.052  1.00  0.00     0.049 A 
ATOM     71  H   UNL A   1      46.985  25.060  27.094  1.00  0.00     0.167 HD
ATOM     72  C   UNL A   1      40.935  28.988  29.089  1.00  0.00     0.037 A 
ATOM     73  C   UNL A   1      48.156  27.736  27.164  1.00  0.00     0.037 A 
ATOM     74  C   UNL A   1      41.989  30.048  29.181  1.00  0.00     0.049 A 
ATOM     75  C   UNL A   1      47.549  29.123  27.229  1.00  0.00     0.074 A 
ATOM     76  C   UNL A   1      42.634  30.709  30.207  1.00  0.00     0.029 A 
ATOM     77  N   UNL A   1      42.821  30.349  28.069  1.00  0.00    -0.354 N 
ATOM     78  N   UNL A   1      46.282  29.424  27.421  1.00  0.00    -0.248 NA
ATOM     79  C   UNL A   1      48.423  30.292  27.199  1.00  0.00     0.031 C 
ATOM     80  C   UNL A   1      43.874  31.233  29.803  1.00  0.00     0.029 A 
ATOM     81  C   UNL A   1      43.997  30.972  28.463  1.00  0.00     0.049 A 
ATOM     82  H   UNL A   1      42.592  30.140  27.135  1.00  0.00     0.167 HD
ATOM     83  C   UNL A   1      46.169  30.804  27.451  1.00  0.00     0.074 A 
ATOM     84  C   UNL A   1      47.538  31.286  27.353  1.00  0.00     0.031 C 
ATOM     85  C   UNL A   1      45.011  31.527  27.596  1.00  0.00     0.037 A 
BRANCH  72  86
ATOM     86  C   UNL A   1      39.643  28.770  29.951  1.00  0.00     0.057 A 
ATOM     87  C   UNL A   1      38.367  29.001  29.456  1.00  0.00     0.134 A 
ATOM     88  C   UNL A   1      39.568  28.358  31.288  1.00  0.00     0.134 A 
ATOM     89  F   UNL A   1      38.162  28.562  28.226  1.00  0.00    -0.206 F 
ATOM     90  C   UNL A   1      37.200  29.243  30.224  1.00  0.00     0.040 A 
ATOM     91  C   UNL A   1      38.403  28.474  32.093  1.00  0.00     0.040 A 
ATOM     92  F   UNL A   1      40.613  27.740  31.855  1.00  0.00    -0.206 F 
ATOM     93  C   UNL A   1      37.230  29.008  31.582  1.00  0.00     0.006 A 
ENDBRANCH  72  86
BRANCH  73  94
ATOM     94  C   UNL A   1      48.584  26.941  25.977  1.00  0.00     0.057 A 
ATOM     95  C   UNL A   1      47.821  27.177  24.807  1.00  0.00     0.134 A 
ATOM     96  C   UNL A   1      49.940  26.656  25.812  1.00  0.00     0.134 A 
ATOM     97  F   UNL A   1      46.506  27.438  24.904  1.00  0.00    -0.206 F 
ATOM     98  C   UNL A   1      48.437  27.422  23.578  1.00  0.00     0.040 A 
ATOM     99  C   UNL A   1      50.559  26.873  24.575  1.00  0.00     0.040 A 
ATOM    100  F   UNL A   1      50.714  26.397  26.874  1.00  0.00    -0.206 F 
ATOM    101  C   UNL A   1      49.822  27.332  23.478  1.00  0.00     0.006 A 
ENDBRANCH  73  94
BRANCH  85 102
ATOM    102  C   UNL A   1      44.855  33.010  27.278  1.00  0.00     0.057 A 
ATOM    103  C   UNL A   1      45.394  34.026  28.075  1.00  0.00     0.134 A 
ATOM    104  C   UNL A   1      44.275  33.465  26.062  1.00  0.00     0.134 A 
ATOM    105  F   UNL A   1      46.086  33.753  29.189  1.00  0.00    -0.206 F 
ATOM    106  C   UNL A   1      45.289  35.382  27.736  1.00  0.00     0.040 A 
ATOM    107  C   UNL A   1      44.182  34.808  25.706  1.00  0.00     0.040 A 
ATOM    108  F   UNL A   1      43.798  32.636  25.123  1.00  0.00    -0.206 F 
ATOM    109  C   UNL A   1      44.683  35.777  26.551  1.00  0.00     0.006 A 
ENDBRANCH  85 102
ENDBRANCH  59  60
ENDBRANCH  52  54
ENDBRANCH  51  52
ENDBRANCH  50  51
ENDBRANCH  49  50
ENDBRANCH  48  49
ENDBRANCH  47  48
ENDBRANCH   1  47
TORSDOF 23
ENDMDL
