MODEL 1
REMARK VINA RESULT:     -12.0      0.000      0.000
REMARK SMILES Cc1ccnc(C(=O)c2[nH]c3ccc(C(C)(C)C)cc3c2CC(=O)OCCOCCOC(=O)c2ccc(-c3c4nc(c(-c5c(F)cccc5F)c5ccc([nH]5)c(-c5c(F)cccc5F)c5nc(c(-c6c(F)cccc6F)c6ccc3[nH]6)C=C5)C=C4)cc2)c1
REMARK SMILES IDX 27 1 26 2 25 3 23 4 24 5 22 6 21 7 9 8 10 9 11 10 20 12
REMARK SMILES IDX 12 13 19 14 13 15 14 16 7 17 8 18 6 19 1 20 2 21 3 22 88 23
REMARK SMILES IDX 4 24 5 25 15 26 16 27 17 28 18 29 28 30 29 31 30 32 31 33
REMARK SMILES IDX 32 34 33 35 34 36 35 37 87 38 36 39 86 40 37 41 38 42 39 43
REMARK SMILES IDX 80 44 40 45 85 46 79 47 81 48 41 49 84 50 78 51 77 52 42 54
REMARK SMILES IDX 68 55 51 56 67 57 52 58 55 59 66 60 82 61 53 62 54 63 65 65
REMARK SMILES IDX 83 66 56 67 43 68 44 69 49 70 45 71 46 72 48 73 50 74 47 75
REMARK SMILES IDX 69 76 70 77 75 78 71 79 72 80 74 81 76 82 73 83 57 84 58 85
REMARK SMILES IDX 63 86 59 87 60 88 62 89 64 90 61 91
REMARK H PARENT 10 11 81 53 55 64
REMARK Flexibility Score: inf
ROOT
ATOM      1  C   UNL A   1      33.225  30.504  26.982  1.00  0.00     0.202 C 
ENDROOT
BRANCH   1   2
ATOM      2  C   UNL A   1      33.608  29.106  27.481  1.00  0.00     0.261 C 
BRANCH   2   3
ATOM      3  O   UNL A   1      32.475  28.223  27.628  1.00  0.00    -0.463 OA
BRANCH   3   4
ATOM      4  C   UNL A   1      32.453  27.167  26.770  1.00  0.00     0.310 C 
ATOM      5  O   UNL A   1      31.557  26.323  26.748  1.00  0.00    -0.252 OA
BRANCH   4   6
ATOM      6  C   UNL A   1      33.657  27.027  25.867  1.00  0.00     0.161 C 
BRANCH   6   7
ATOM      7  C   UNL A   1      33.500  26.373  24.519  1.00  0.00     0.000 A 
ATOM      8  C   UNL A   1      32.829  26.872  23.397  1.00  0.00     0.093 A 
ATOM      9  N   UNL A   1      32.958  25.919  22.405  1.00  0.00    -0.352 N 
ATOM     10  C   UNL A   1      33.397  24.729  22.940  1.00  0.00     0.046 A 
ATOM     11  H   UNL A   1      32.762  26.069  21.453  1.00  0.00     0.167 HD
ATOM     12  C   UNL A   1      33.767  24.993  24.252  1.00  0.00     0.004 A 
ATOM     13  C   UNL A   1      33.476  23.446  22.387  1.00  0.00     0.027 A 
ATOM     14  C   UNL A   1      34.204  23.923  25.057  1.00  0.00     0.015 A 
ATOM     15  C   UNL A   1      33.849  22.390  23.238  1.00  0.00     0.006 A 
ATOM     16  C   UNL A   1      34.184  22.595  24.584  1.00  0.00    -0.042 A 
BRANCH   8  17
ATOM     17  C   UNL A   1      32.131  28.149  23.295  1.00  0.00     0.227 C 
ATOM     18  O   UNL A   1      32.744  29.207  23.155  1.00  0.00    -0.285 OA
BRANCH  17  19
ATOM     19  C   UNL A   1      30.644  28.245  23.422  1.00  0.00     0.113 A 
ATOM     20  C   UNL A   1      27.780  30.601  22.657  1.00  0.00     0.044 C 
ATOM     21  C   UNL A   1      28.569  29.389  23.054  1.00  0.00    -0.047 A 
ATOM     22  C   UNL A   1      27.916  28.171  23.263  1.00  0.00     0.023 A 
ATOM     23  C   UNL A   1      29.966  29.425  23.124  1.00  0.00     0.036 A 
ATOM     24  C   UNL A   1      28.670  27.054  23.574  1.00  0.00     0.112 A 
ATOM     25  N   UNL A   1      30.013  27.068  23.677  1.00  0.00    -0.253 NA
ENDBRANCH  17  19
ENDBRANCH   8  17
BRANCH  16  26
ATOM     26  C   UNL A   1      34.452  21.453  25.581  1.00  0.00    -0.013 C 
ATOM     27  C   UNL A   1      35.831  20.820  25.303  1.00  0.00     0.016 C 
ATOM     28  C   UNL A   1      34.440  22.029  27.020  1.00  0.00     0.016 C 
ATOM     29  C   UNL A   1      33.403  20.322  25.542  1.00  0.00     0.016 C 
ENDBRANCH  16  26
ENDBRANCH   6   7
ENDBRANCH   4   6
ENDBRANCH   3   4
ENDBRANCH   2   3
ENDBRANCH   1   2
BRANCH   1  30
ATOM     30  O   UNL A   1      31.841  30.797  26.799  1.00  0.00    -0.374 OA
BRANCH  30  31
ATOM     31  C   UNL A   1      31.471  32.174  26.793  1.00  0.00     0.202 C 
BRANCH  31  32
ATOM     32  C   UNL A   1      32.580  33.198  27.074  1.00  0.00     0.261 C 
BRANCH  32  33
ATOM     33  O   UNL A   1      32.276  34.081  28.165  1.00  0.00    -0.460 OA
BRANCH  33  34
ATOM     34  C   UNL A   1      33.310  34.859  28.562  1.00  0.00     0.338 C 
ATOM     35  O   UNL A   1      33.323  36.074  28.711  1.00  0.00    -0.246 OA
BRANCH  34  36
ATOM     36  C   UNL A   1      34.437  34.007  28.967  1.00  0.00     0.060 A 
ATOM     37  C   UNL A   1      34.151  32.884  29.755  1.00  0.00     0.016 A 
ATOM     38  C   UNL A   1      35.751  34.320  28.615  1.00  0.00     0.016 A 
ATOM     39  C   UNL A   1      35.188  32.075  30.210  1.00  0.00     0.010 A 
ATOM     40  C   UNL A   1      36.790  33.515  29.087  1.00  0.00     0.010 A 
ATOM     41  C   UNL A   1      36.514  32.402  29.900  1.00  0.00    -0.014 A 
BRANCH  41  42
ATOM     42  C   UNL A   1      37.620  31.628  30.504  1.00  0.00     0.031 A 
ATOM     43  C   UNL A   1      37.998  31.889  31.934  1.00  0.00     0.074 A 
ATOM     44  C   UNL A   1      38.265  30.697  29.779  1.00  0.00     0.049 A 
ATOM     45  N   UNL A   1      38.963  31.365  32.644  1.00  0.00    -0.248 NA
ATOM     46  C   UNL A   1      37.180  32.874  32.660  1.00  0.00     0.031 C 
ATOM     47  C   UNL A   1      37.951  30.340  28.396  1.00  0.00     0.029 A 
ATOM     48  N   UNL A   1      39.325  29.890  30.104  1.00  0.00    -0.354 N 
ATOM     49  C   UNL A   1      38.874  31.961  33.896  1.00  0.00     0.074 A 
ATOM     50  C   UNL A   1      37.778  32.902  33.843  1.00  0.00     0.031 C 
ATOM     51  C   UNL A   1      38.807  29.389  27.986  1.00  0.00     0.029 A 
ATOM     52  C   UNL A   1      39.751  29.101  29.063  1.00  0.00     0.049 A 
ATOM     53  H   UNL A   1      39.739  29.877  30.997  1.00  0.00     0.167 HD
ATOM     54  C   UNL A   1      39.641  31.736  34.988  1.00  0.00     0.037 A 
ATOM     55  C   UNL A   1      40.803  28.263  28.987  1.00  0.00     0.037 A 
ATOM     56  C   UNL A   1      40.730  30.794  35.026  1.00  0.00     0.049 A 
ATOM     57  C   UNL A   1      41.688  28.095  30.194  1.00  0.00     0.074 A 
ATOM     58  C   UNL A   1      41.547  30.462  36.091  1.00  0.00     0.029 A 
ATOM     59  N   UNL A   1      41.160  30.044  33.941  1.00  0.00    -0.354 N 
ATOM     60  N   UNL A   1      41.573  28.631  31.386  1.00  0.00    -0.248 NA
ATOM     61  C   UNL A   1      42.852  27.211  30.043  1.00  0.00     0.031 C 
ATOM     62  C   UNL A   1      42.510  29.557  35.636  1.00  0.00     0.029 A 
ATOM     63  C   UNL A   1      42.258  29.281  34.301  1.00  0.00     0.049 A 
ATOM     64  H   UNL A   1      40.745  30.052  33.048  1.00  0.00     0.167 HD
ATOM     65  C   UNL A   1      42.634  28.133  32.131  1.00  0.00     0.074 A 
ATOM     66  C   UNL A   1      43.369  27.235  31.264  1.00  0.00     0.031 C 
ATOM     67  C   UNL A   1      42.974  28.395  33.418  1.00  0.00     0.037 A 
BRANCH  54  68
ATOM     68  C   UNL A   1      39.354  32.541  36.222  1.00  0.00     0.057 A 
ATOM     69  C   UNL A   1      39.967  33.777  36.463  1.00  0.00     0.134 A 
ATOM     70  C   UNL A   1      38.412  32.095  37.157  1.00  0.00     0.134 A 
ATOM     71  F   UNL A   1      40.888  34.257  35.614  1.00  0.00    -0.206 F 
ATOM     72  C   UNL A   1      39.664  34.533  37.598  1.00  0.00     0.040 A 
ATOM     73  C   UNL A   1      38.083  32.852  38.282  1.00  0.00     0.040 A 
ATOM     74  F   UNL A   1      37.786  30.920  36.988  1.00  0.00    -0.206 F 
ATOM     75  C   UNL A   1      38.713  34.074  38.508  1.00  0.00     0.006 A 
ENDBRANCH  54  68
BRANCH  55  76
ATOM     76  C   UNL A   1      41.097  27.540  27.723  1.00  0.00     0.057 A 
ATOM     77  C   UNL A   1      40.610  26.248  27.495  1.00  0.00     0.134 A 
ATOM     78  C   UNL A   1      41.898  28.110  26.725  1.00  0.00     0.134 A 
ATOM     79  F   UNL A   1      39.858  25.638  28.423  1.00  0.00    -0.206 F 
ATOM     80  C   UNL A   1      40.924  25.541  26.333  1.00  0.00     0.040 A 
ATOM     81  C   UNL A   1      42.197  27.426  25.545  1.00  0.00     0.040 A 
ATOM     82  F   UNL A   1      42.397  29.345  26.879  1.00  0.00    -0.206 F 
ATOM     83  C   UNL A   1      41.717  26.133  25.351  1.00  0.00     0.006 A 
ENDBRANCH  55  76
BRANCH  67  84
ATOM     84  C   UNL A   1      44.180  27.689  33.965  1.00  0.00     0.057 A 
ATOM     85  C   UNL A   1      44.090  26.415  34.541  1.00  0.00     0.134 A 
ATOM     86  C   UNL A   1      45.451  28.272  33.877  1.00  0.00     0.134 A 
ATOM     87  F   UNL A   1      42.900  25.809  34.668  1.00  0.00    -0.206 F 
ATOM     88  C   UNL A   1      45.218  25.756  35.029  1.00  0.00     0.040 A 
ATOM     89  C   UNL A   1      46.590  27.610  34.335  1.00  0.00     0.040 A 
ATOM     90  F   UNL A   1      45.608  29.485  33.327  1.00  0.00    -0.206 F 
ATOM     91  C   UNL A   1      46.474  26.349  34.919  1.00  0.00     0.006 A 
ENDBRANCH  67  84
ENDBRANCH  41  42
ENDBRANCH  34  36
ENDBRANCH  33  34
ENDBRANCH  32  33
ENDBRANCH  31  32
ENDBRANCH  30  31
ENDBRANCH   1  30
TORSDOF 18
ENDMDL
MODEL 2
REMARK VINA RESULT:     -11.9      0.687      6.036
REMARK SMILES Cc1ccnc(C(=O)c2[nH]c3ccc(C(C)(C)C)cc3c2CC(=O)OCCOCCOC(=O)c2ccc(-c3c4nc(c(-c5c(F)cccc5F)c5ccc([nH]5)c(-c5c(F)cccc5F)c5nc(c(-c6c(F)cccc6F)c6ccc3[nH]6)C=C5)C=C4)cc2)c1
REMARK SMILES IDX 27 1 26 2 25 3 23 4 24 5 22 6 21 7 9 8 10 9 11 10 20 12
REMARK SMILES IDX 12 13 19 14 13 15 14 16 7 17 8 18 6 19 1 20 2 21 3 22 88 23
REMARK SMILES IDX 4 24 5 25 15 26 16 27 17 28 18 29 28 30 29 31 30 32 31 33
REMARK SMILES IDX 32 34 33 35 34 36 35 37 87 38 36 39 86 40 37 41 38 42 39 43
REMARK SMILES IDX 80 44 40 45 85 46 79 47 81 48 41 49 84 50 78 51 77 52 42 54
REMARK SMILES IDX 68 55 51 56 67 57 52 58 55 59 66 60 82 61 53 62 54 63 65 65
REMARK SMILES IDX 83 66 56 67 43 68 44 69 49 70 45 71 46 72 48 73 50 74 47 75
REMARK SMILES IDX 69 76 70 77 75 78 71 79 72 80 74 81 76 82 73 83 57 84 58 85
REMARK SMILES IDX 63 86 59 87 60 88 62 89 64 90 61 91
REMARK H PARENT 10 11 81 53 55 64
REMARK Flexibility Score: inf
ROOT
ATOM      1  C   UNL A   1      33.267  30.603  27.011  1.00  0.00     0.202 C 
ENDROOT
BRANCH   1   2
ATOM      2  C   UNL A   1      33.633  29.150  27.334  1.00  0.00     0.261 C 
BRANCH   2   3
ATOM      3  O   UNL A   1      32.486  28.324  27.627  1.00  0.00    -0.463 OA
BRANCH   3   4
ATOM      4  C   UNL A   1      32.378  27.199  26.868  1.00  0.00     0.310 C 
ATOM      5  O   UNL A   1      31.398  26.455  26.885  1.00  0.00    -0.252 OA
BRANCH   4   6
ATOM      6  C   UNL A   1      33.588  26.850  26.032  1.00  0.00     0.161 C 
BRANCH   6   7
ATOM      7  C   UNL A   1      33.395  26.295  24.644  1.00  0.00     0.000 A 
ATOM      8  C   UNL A   1      32.717  26.884  23.572  1.00  0.00     0.093 A 
ATOM      9  N   UNL A   1      32.808  26.000  22.515  1.00  0.00    -0.352 N 
ATOM     10  C   UNL A   1      33.231  24.767  22.958  1.00  0.00     0.046 A 
ATOM     11  H   UNL A   1      32.601  26.219  21.578  1.00  0.00     0.167 HD
ATOM     12  C   UNL A   1      33.626  24.932  24.278  1.00  0.00     0.004 A 
ATOM     13  C   UNL A   1      33.272  23.524  22.317  1.00  0.00     0.027 A 
ATOM     14  C   UNL A   1      34.053  23.800  25.000  1.00  0.00     0.015 A 
ATOM     15  C   UNL A   1      33.635  22.404  23.086  1.00  0.00     0.006 A 
ATOM     16  C   UNL A   1      33.997  22.508  24.437  1.00  0.00    -0.042 A 
BRANCH   8  17
ATOM     17  C   UNL A   1      32.045  28.180  23.570  1.00  0.00     0.227 C 
ATOM     18  O   UNL A   1      32.679  29.232  23.641  1.00  0.00    -0.285 OA
BRANCH  17  19
ATOM     19  C   UNL A   1      30.554  28.293  23.550  1.00  0.00     0.113 A 
ATOM     20  C   UNL A   1      27.801  30.577  22.309  1.00  0.00     0.044 C 
ATOM     21  C   UNL A   1      28.535  29.404  22.888  1.00  0.00    -0.047 A 
ATOM     22  C   UNL A   1      27.851  28.214  23.148  1.00  0.00     0.023 A 
ATOM     23  C   UNL A   1      29.921  29.442  23.083  1.00  0.00     0.036 A 
ATOM     24  C   UNL A   1      28.560  27.128  23.630  1.00  0.00     0.112 A 
ATOM     25  N   UNL A   1      29.889  27.147  23.854  1.00  0.00    -0.253 NA
ENDBRANCH  17  19
ENDBRANCH   8  17
BRANCH  16  26
ATOM     26  C   UNL A   1      34.255  21.295  25.348  1.00  0.00    -0.013 C 
ATOM     27  C   UNL A   1      33.168  20.224  25.124  1.00  0.00     0.016 C 
ATOM     28  C   UNL A   1      35.639  20.691  25.000  1.00  0.00     0.016 C 
ATOM     29  C   UNL A   1      34.279  21.628  26.854  1.00  0.00     0.016 C 
ENDBRANCH  16  26
ENDBRANCH   6   7
ENDBRANCH   4   6
ENDBRANCH   3   4
ENDBRANCH   2   3
ENDBRANCH   1   2
BRANCH   1  30
ATOM     30  O   UNL A   1      31.913  30.897  26.672  1.00  0.00    -0.374 OA
BRANCH  30  31
ATOM     31  C   UNL A   1      31.506  32.259  26.770  1.00  0.00     0.202 C 
BRANCH  31  32
ATOM     32  C   UNL A   1      32.587  33.288  27.132  1.00  0.00     0.261 C 
BRANCH  32  33
ATOM     33  O   UNL A   1      32.256  34.080  28.283  1.00  0.00    -0.460 OA
BRANCH  33  34
ATOM     34  C   UNL A   1      33.218  34.954  28.660  1.00  0.00     0.338 C 
ATOM     35  O   UNL A   1      33.140  36.173  28.731  1.00  0.00    -0.246 OA
BRANCH  34  36
ATOM     36  C   UNL A   1      34.388  34.212  29.151  1.00  0.00     0.060 A 
ATOM     37  C   UNL A   1      34.171  33.232  30.130  1.00  0.00     0.016 A 
ATOM     38  C   UNL A   1      35.675  34.493  28.692  1.00  0.00     0.016 A 
ATOM     39  C   UNL A   1      35.251  32.539  30.667  1.00  0.00     0.010 A 
ATOM     40  C   UNL A   1      36.758  33.807  29.245  1.00  0.00     0.010 A 
ATOM     41  C   UNL A   1      36.552  32.842  30.246  1.00  0.00    -0.014 A 
BRANCH  41  42
ATOM     42  C   UNL A   1      37.706  32.210  30.922  1.00  0.00     0.031 A 
ATOM     43  C   UNL A   1      38.443  31.103  30.225  1.00  0.00     0.074 A 
ATOM     44  C   UNL A   1      38.089  32.634  32.138  1.00  0.00     0.049 A 
ATOM     45  N   UNL A   1      39.445  30.378  30.651  1.00  0.00    -0.248 NA
ATOM     46  C   UNL A   1      37.990  30.766  28.865  1.00  0.00     0.031 C 
ATOM     47  C   UNL A   1      37.465  33.726  32.884  1.00  0.00     0.029 A 
ATOM     48  N   UNL A   1      39.090  32.190  32.964  1.00  0.00    -0.354 N 
ATOM     49  C   UNL A   1      39.736  29.496  29.619  1.00  0.00     0.074 A 
ATOM     50  C   UNL A   1      38.793  29.758  28.555  1.00  0.00     0.031 C 
ATOM     51  C   UNL A   1      38.093  33.862  34.065  1.00  0.00     0.029 A 
ATOM     52  C   UNL A   1      39.134  32.843  34.172  1.00  0.00     0.049 A 
ATOM     53  H   UNL A   1      39.716  31.473  32.715  1.00  0.00     0.167 HD
ATOM     54  C   UNL A   1      40.709  28.555  29.569  1.00  0.00     0.037 A 
ATOM     55  C   UNL A   1      39.911  32.619  35.249  1.00  0.00     0.037 A 
ATOM     56  C   UNL A   1      41.642  28.306  30.636  1.00  0.00     0.049 A 
ATOM     57  C   UNL A   1      40.929  31.511  35.194  1.00  0.00     0.074 A 
ATOM     58  C   UNL A   1      42.688  27.403  30.674  1.00  0.00     0.029 A 
ATOM     59  N   UNL A   1      41.630  28.958  31.861  1.00  0.00    -0.354 N 
ATOM     60  N   UNL A   1      41.226  30.708  34.199  1.00  0.00    -0.248 NA
ATOM     61  C   UNL A   1      41.715  31.273  36.412  1.00  0.00     0.031 C 
ATOM     62  C   UNL A   1      43.270  27.464  31.944  1.00  0.00     0.029 A 
ATOM     63  C   UNL A   1      42.624  28.446  32.678  1.00  0.00     0.049 A 
ATOM     64  H   UNL A   1      41.007  29.678  32.112  1.00  0.00     0.167 HD
ATOM     65  C   UNL A   1      42.245  29.887  34.664  1.00  0.00     0.074 A 
ATOM     66  C   UNL A   1      42.531  30.304  36.021  1.00  0.00     0.031 C 
ATOM     67  C   UNL A   1      42.888  28.876  34.028  1.00  0.00     0.037 A 
BRANCH  54  68
ATOM     68  C   UNL A   1      40.794  27.703  28.336  1.00  0.00     0.057 A 
ATOM     69  C   UNL A   1      40.090  26.498  28.215  1.00  0.00     0.134 A 
ATOM     70  C   UNL A   1      41.552  28.121  27.235  1.00  0.00     0.134 A 
ATOM     71  F   UNL A   1      39.356  26.032  29.236  1.00  0.00    -0.206 F 
ATOM     72  C   UNL A   1      40.151  25.731  27.048  1.00  0.00     0.040 A 
ATOM     73  C   UNL A   1      41.600  27.377  26.055  1.00  0.00     0.040 A 
ATOM     74  F   UNL A   1      42.249  29.267  27.282  1.00  0.00    -0.206 F 
ATOM     75  C   UNL A   1      40.902  26.175  25.961  1.00  0.00     0.006 A 
ENDBRANCH  54  68
BRANCH  55  76
ATOM     76  C   UNL A   1      39.745  33.437  36.478  1.00  0.00     0.057 A 
ATOM     77  C   UNL A   1      38.855  33.057  37.489  1.00  0.00     0.134 A 
ATOM     78  C   UNL A   1      40.447  34.636  36.657  1.00  0.00     0.134 A 
ATOM     79  F   UNL A   1      38.135  31.933  37.366  1.00  0.00    -0.206 F 
ATOM     80  C   UNL A   1      38.654  33.846  38.623  1.00  0.00     0.040 A 
ATOM     81  C   UNL A   1      40.277  35.421  37.800  1.00  0.00     0.040 A 
ATOM     82  F   UNL A   1      41.314  35.060  35.726  1.00  0.00    -0.206 F 
ATOM     83  C   UNL A   1      39.371  35.031  38.782  1.00  0.00     0.006 A 
ENDBRANCH  55  76
BRANCH  67  84
ATOM     84  C   UNL A   1      43.971  28.167  34.787  1.00  0.00     0.057 A 
ATOM     85  C   UNL A   1      45.296  28.623  34.778  1.00  0.00     0.134 A 
ATOM     86  C   UNL A   1      43.678  27.043  35.568  1.00  0.00     0.134 A 
ATOM     87  F   UNL A   1      45.644  29.686  34.038  1.00  0.00    -0.206 F 
ATOM     88  C   UNL A   1      46.294  27.971  35.502  1.00  0.00     0.040 A 
ATOM     89  C   UNL A   1      44.662  26.401  36.321  1.00  0.00     0.040 A 
ATOM     90  F   UNL A   1      42.427  26.563  35.629  1.00  0.00    -0.206 F 
ATOM     91  C   UNL A   1      45.977  26.862  36.284  1.00  0.00     0.006 A 
ENDBRANCH  67  84
ENDBRANCH  41  42
ENDBRANCH  34  36
ENDBRANCH  33  34
ENDBRANCH  32  33
ENDBRANCH  31  32
ENDBRANCH  30  31
ENDBRANCH   1  30
TORSDOF 18
ENDMDL
MODEL 3
REMARK VINA RESULT:     -11.8      3.347      8.463
REMARK SMILES Cc1ccnc(C(=O)c2[nH]c3ccc(C(C)(C)C)cc3c2CC(=O)OCCOCCOC(=O)c2ccc(-c3c4nc(c(-c5c(F)cccc5F)c5ccc([nH]5)c(-c5c(F)cccc5F)c5nc(c(-c6c(F)cccc6F)c6ccc3[nH]6)C=C5)C=C4)cc2)c1
REMARK SMILES IDX 27 1 26 2 25 3 23 4 24 5 22 6 21 7 9 8 10 9 11 10 20 12
REMARK SMILES IDX 12 13 19 14 13 15 14 16 7 17 8 18 6 19 1 20 2 21 3 22 88 23
REMARK SMILES IDX 4 24 5 25 15 26 16 27 17 28 18 29 28 30 29 31 30 32 31 33
REMARK SMILES IDX 32 34 33 35 34 36 35 37 87 38 36 39 86 40 37 41 38 42 39 43
REMARK SMILES IDX 80 44 40 45 85 46 79 47 81 48 41 49 84 50 78 51 77 52 42 54
REMARK SMILES IDX 68 55 51 56 67 57 52 58 55 59 66 60 82 61 53 62 54 63 65 65
REMARK SMILES IDX 83 66 56 67 43 68 44 69 49 70 45 71 46 72 48 73 50 74 47 75
REMARK SMILES IDX 69 76 70 77 75 78 71 79 72 80 74 81 76 82 73 83 57 84 58 85
REMARK SMILES IDX 63 86 59 87 60 88 62 89 64 90 61 91
REMARK H PARENT 10 11 81 53 55 64
REMARK Flexibility Score: inf
ROOT
ATOM      1  C   UNL A   1      40.440  21.056  26.786  1.00  0.00     0.202 C 
ENDROOT
BRANCH   1   2
ATOM      2  C   UNL A   1      39.785  22.439  26.690  1.00  0.00     0.261 C 
BRANCH   2   3
ATOM      3  O   UNL A   1      38.515  22.422  26.003  1.00  0.00    -0.463 OA
BRANCH   3   4
ATOM      4  C   UNL A   1      37.850  23.609  25.994  1.00  0.00     0.310 C 
ATOM      5  O   UNL A   1      38.122  24.550  26.739  1.00  0.00    -0.252 OA
BRANCH   4   6
ATOM      6  C   UNL A   1      36.672  23.697  25.051  1.00  0.00     0.161 C 
BRANCH   6   7
ATOM      7  C   UNL A   1      35.280  23.462  25.580  1.00  0.00     0.000 A 
ATOM      8  C   UNL A   1      34.602  22.244  25.697  1.00  0.00     0.093 A 
ATOM      9  N   UNL A   1      33.362  22.533  26.231  1.00  0.00    -0.352 N 
ATOM     10  C   UNL A   1      33.115  23.886  26.162  1.00  0.00     0.046 A 
ATOM     11  H   UNL A   1      32.742  21.868  26.608  1.00  0.00     0.167 HD
ATOM     12  C   UNL A   1      34.306  24.490  25.782  1.00  0.00     0.004 A 
ATOM     13  C   UNL A   1      31.943  24.619  26.375  1.00  0.00     0.027 A 
ATOM     14  C   UNL A   1      34.319  25.883  25.577  1.00  0.00     0.015 A 
ATOM     15  C   UNL A   1      31.973  25.997  26.094  1.00  0.00     0.006 A 
ATOM     16  C   UNL A   1      33.138  26.647  25.660  1.00  0.00    -0.042 A 
BRANCH   8  17
ATOM     17  C   UNL A   1      35.106  20.925  25.327  1.00  0.00     0.227 C 
ATOM     18  O   UNL A   1      36.254  20.576  25.600  1.00  0.00    -0.285 OA
BRANCH  17  19
ATOM     19  C   UNL A   1      34.280  19.960  24.539  1.00  0.00     0.113 A 
ATOM     20  C   UNL A   1      33.978  16.252  23.831  1.00  0.00     0.044 C 
ATOM     21  C   UNL A   1      33.704  17.726  23.883  1.00  0.00    -0.047 A 
ATOM     22  C   UNL A   1      32.470  18.221  23.455  1.00  0.00     0.023 A 
ATOM     23  C   UNL A   1      34.626  18.614  24.449  1.00  0.00     0.036 A 
ATOM     24  C   UNL A   1      32.219  19.578  23.565  1.00  0.00     0.112 A 
ATOM     25  N   UNL A   1      33.101  20.457  24.078  1.00  0.00    -0.253 NA
ENDBRANCH  17  19
ENDBRANCH   8  17
BRANCH  16  26
ATOM     26  C   UNL A   1      33.175  28.116  25.201  1.00  0.00    -0.013 C 
ATOM     27  C   UNL A   1      31.741  28.681  25.117  1.00  0.00     0.016 C 
ATOM     28  C   UNL A   1      33.986  28.944  26.229  1.00  0.00     0.016 C 
ATOM     29  C   UNL A   1      33.842  28.331  23.827  1.00  0.00     0.016 C 
ENDBRANCH  16  26
ENDBRANCH   6   7
ENDBRANCH   4   6
ENDBRANCH   3   4
ENDBRANCH   2   3
ENDBRANCH   1   2
BRANCH   1  30
ATOM     30  O   UNL A   1      41.387  20.689  25.785  1.00  0.00    -0.374 OA
BRANCH  30  31
ATOM     31  C   UNL A   1      42.764  20.870  26.104  1.00  0.00     0.202 C 
BRANCH  31  32
ATOM     32  C   UNL A   1      43.522  21.965  25.340  1.00  0.00     0.261 C 
BRANCH  32  33
ATOM     33  O   UNL A   1      42.867  23.243  25.379  1.00  0.00    -0.460 OA
BRANCH  33  34
ATOM     34  C   UNL A   1      43.707  24.305  25.385  1.00  0.00     0.338 C 
ATOM     35  O   UNL A   1      44.516  24.628  24.526  1.00  0.00    -0.246 OA
BRANCH  34  36
ATOM     36  C   UNL A   1      43.404  25.161  26.541  1.00  0.00     0.060 A 
ATOM     37  C   UNL A   1      42.450  24.700  27.458  1.00  0.00     0.016 A 
ATOM     38  C   UNL A   1      44.014  26.405  26.705  1.00  0.00     0.016 A 
ATOM     39  C   UNL A   1      42.088  25.497  28.540  1.00  0.00     0.010 A 
ATOM     40  C   UNL A   1      43.637  27.209  27.783  1.00  0.00     0.010 A 
ATOM     41  C   UNL A   1      42.661  26.765  28.693  1.00  0.00    -0.014 A 
BRANCH  41  42
ATOM     42  C   UNL A   1      42.169  27.668  29.757  1.00  0.00     0.031 A 
ATOM     43  C   UNL A   1      42.858  27.666  31.092  1.00  0.00     0.074 A 
ATOM     44  C   UNL A   1      41.126  28.482  29.521  1.00  0.00     0.049 A 
ATOM     45  N   UNL A   1      42.563  28.334  32.176  1.00  0.00    -0.248 NA
ATOM     46  C   UNL A   1      44.035  26.792  31.222  1.00  0.00     0.031 C 
ATOM     47  C   UNL A   1      40.412  28.589  28.249  1.00  0.00     0.029 A 
ATOM     48  N   UNL A   1      40.480  29.368  30.345  1.00  0.00    -0.354 N 
ATOM     49  C   UNL A   1      43.511  27.957  33.119  1.00  0.00     0.074 A 
ATOM     50  C   UNL A   1      44.376  26.985  32.488  1.00  0.00     0.031 C 
ATOM     51  C   UNL A   1      39.419  29.484  28.380  1.00  0.00     0.029 A 
ATOM     52  C   UNL A   1      39.404  29.983  29.753  1.00  0.00     0.049 A 
ATOM     53  H   UNL A   1      40.763  29.546  31.271  1.00  0.00     0.167 HD
ATOM     54  C   UNL A   1      43.645  28.390  34.394  1.00  0.00     0.037 A 
ATOM     55  C   UNL A   1      38.496  30.829  30.275  1.00  0.00     0.037 A 
ATOM     56  C   UNL A   1      42.776  29.360  35.009  1.00  0.00     0.049 A 
ATOM     57  C   UNL A   1      38.623  31.230  31.721  1.00  0.00     0.074 A 
ATOM     58  C   UNL A   1      42.844  29.895  36.282  1.00  0.00     0.029 A 
ATOM     59  N   UNL A   1      41.671  29.929  34.393  1.00  0.00    -0.354 N 
ATOM     60  N   UNL A   1      39.546  30.901  32.594  1.00  0.00    -0.248 NA
ATOM     61  C   UNL A   1      37.578  32.113  32.258  1.00  0.00     0.031 C 
ATOM     62  C   UNL A   1      41.745  30.741  36.458  1.00  0.00     0.029 A 
ATOM     63  C   UNL A   1      41.024  30.778  35.275  1.00  0.00     0.049 A 
ATOM     64  H   UNL A   1      41.389  29.756  33.465  1.00  0.00     0.167 HD
ATOM     65  C   UNL A   1      39.205  31.553  33.772  1.00  0.00     0.074 A 
ATOM     66  C   UNL A   1      38.004  32.314  33.497  1.00  0.00     0.031 C 
ATOM     67  C   UNL A   1      39.828  31.524  34.977  1.00  0.00     0.037 A 
BRANCH  54  68
ATOM     68  C   UNL A   1      44.747  27.797  35.223  1.00  0.00     0.057 A 
ATOM     69  C   UNL A   1      46.016  28.384  35.303  1.00  0.00     0.134 A 
ATOM     70  C   UNL A   1      44.517  26.650  35.993  1.00  0.00     0.134 A 
ATOM     71  F   UNL A   1      46.307  29.477  34.582  1.00  0.00    -0.206 F 
ATOM     72  C   UNL A   1      47.022  27.842  36.106  1.00  0.00     0.040 A 
ATOM     73  C   UNL A   1      45.506  26.113  36.818  1.00  0.00     0.040 A 
ATOM     74  F   UNL A   1      43.324  26.037  35.965  1.00  0.00    -0.206 F 
ATOM     75  C   UNL A   1      46.766  26.707  36.872  1.00  0.00     0.006 A 
ENDBRANCH  54  68
BRANCH  55  76
ATOM     76  C   UNL A   1      37.376  31.337  29.442  1.00  0.00     0.057 A 
ATOM     77  C   UNL A   1      37.421  32.609  28.861  1.00  0.00     0.134 A 
ATOM     78  C   UNL A   1      36.219  30.575  29.231  1.00  0.00     0.134 A 
ATOM     79  F   UNL A   1      38.491  33.397  29.045  1.00  0.00    -0.206 F 
ATOM     80  C   UNL A   1      36.352  33.115  28.120  1.00  0.00     0.040 A 
ATOM     81  C   UNL A   1      35.154  31.056  28.468  1.00  0.00     0.040 A 
ATOM     82  F   UNL A   1      36.110  29.347  29.760  1.00  0.00    -0.206 F 
ATOM     83  C   UNL A   1      35.214  32.334  27.918  1.00  0.00     0.006 A 
ENDBRANCH  55  76
BRANCH  67  84
ATOM     84  C   UNL A   1      39.230  32.353  36.077  1.00  0.00     0.057 A 
ATOM     85  C   UNL A   1      38.264  31.833  36.949  1.00  0.00     0.134 A 
ATOM     86  C   UNL A   1      39.657  33.669  36.293  1.00  0.00     0.134 A 
ATOM     87  F   UNL A   1      37.804  30.583  36.786  1.00  0.00    -0.206 F 
ATOM     88  C   UNL A   1      37.728  32.602  37.982  1.00  0.00     0.040 A 
ATOM     89  C   UNL A   1      39.150  34.437  37.342  1.00  0.00     0.040 A 
ATOM     90  F   UNL A   1      40.587  34.223  35.501  1.00  0.00    -0.206 F 
ATOM     91  C   UNL A   1      38.177  33.905  38.186  1.00  0.00     0.006 A 
ENDBRANCH  67  84
ENDBRANCH  41  42
ENDBRANCH  34  36
ENDBRANCH  33  34
ENDBRANCH  32  33
ENDBRANCH  31  32
ENDBRANCH  30  31
ENDBRANCH   1  30
TORSDOF 18
ENDMDL
