MODEL 1
REMARK VINA RESULT:     -11.5      0.000      0.000
REMARK SMILES Cc1cc(=O)n2nc(C)c(C(=O)OCCOCCOC(=O)c3ccc(-c4c5nc(c(-c6c(F)cccc6F)c6ccc([nH]6)c(-c6c(F)cccc6F)c6nc(c(-c7c(F)cccc7F)c7ccc4[nH]7)C=C6)C=C5)cc3)c2[nH]1
REMARK SMILES IDX 17 1 16 2 15 3 14 4 13 5 11 6 12 7 10 8 1 9 2 10 3 11 77 12
REMARK SMILES IDX 4 13 76 14 5 16 6 17 7 18 8 19 9 20 18 21 19 22 20 23 21 24
REMARK SMILES IDX 22 25 23 26 75 27 24 28 74 29 25 30 26 31 27 32 68 33 28 34
REMARK SMILES IDX 73 35 67 36 69 37 29 38 72 39 66 40 65 41 30 43 56 44 39 45
REMARK SMILES IDX 55 46 40 47 43 48 54 49 70 50 41 51 42 52 53 54 71 55 44 56
REMARK SMILES IDX 31 57 32 58 37 59 33 60 34 61 36 62 38 63 35 64 57 65 58 66
REMARK SMILES IDX 63 67 59 68 60 69 62 70 64 71 61 72 45 73 46 74 51 75 47 76
REMARK SMILES IDX 48 77 50 78 52 79 49 80
REMARK H PARENT 77 15 69 42 43 53
REMARK Flexibility Score: inf
ROOT
ATOM      1  C   UNL A   1      39.987  21.404  26.576  1.00  0.00     0.202 C 
ENDROOT
BRANCH   1   2
ATOM      2  O   UNL A   1      38.862  21.599  25.725  1.00  0.00    -0.374 OA
BRANCH   2   3
ATOM      3  C   UNL A   1      38.083  22.793  25.801  1.00  0.00     0.202 C 
BRANCH   3   4
ATOM      4  C   UNL A   1      36.574  22.704  25.562  1.00  0.00     0.261 C 
BRANCH   4   5
ATOM      5  O   UNL A   1      36.115  21.346  25.468  1.00  0.00    -0.459 OA
BRANCH   5   6
ATOM      6  C   UNL A   1      34.850  21.146  25.938  1.00  0.00     0.343 C 
ATOM      7  O   UNL A   1      34.432  21.570  27.006  1.00  0.00    -0.246 OA
BRANCH   6   8
ATOM      8  C   UNL A   1      33.978  20.534  24.959  1.00  0.00     0.125 A 
ATOM      9  C   UNL A   1      35.265  15.720  25.192  1.00  0.00     0.064 C 
ATOM     10  C   UNL A   1      34.537  16.868  24.549  1.00  0.00     0.019 A 
ATOM     11  C   UNL A   1      33.734  16.664  23.485  1.00  0.00     0.095 A 
ATOM     12  N   UNL A   1      34.708  18.131  25.088  1.00  0.00    -0.343 N 
ATOM     13  C   UNL A   1      32.942  17.793  22.916  1.00  0.00     0.274 A 
ATOM     14  C   UNL A   1      34.018  19.200  24.620  1.00  0.00     0.152 A 
ATOM     15  H   UNL A   1      35.345  18.256  25.829  1.00  0.00     0.168 HD
ATOM     16  O   UNL A   1      32.185  17.676  21.962  1.00  0.00    -0.267 OA
ATOM     17  N   UNL A   1      33.118  19.011  23.596  1.00  0.00    -0.179 N 
ATOM     18  N   UNL A   1      32.380  20.129  23.360  1.00  0.00    -0.168 NA
ATOM     19  C   UNL A   1      32.875  21.038  24.217  1.00  0.00     0.077 A 
ATOM     20  C   UNL A   1      32.245  22.381  24.303  1.00  0.00     0.070 C 
ENDBRANCH   6   8
ENDBRANCH   5   6
ENDBRANCH   4   5
ENDBRANCH   3   4
ENDBRANCH   2   3
ENDBRANCH   1   2
BRANCH   1  21
ATOM     21  C   UNL A   1      41.091  20.452  26.144  1.00  0.00     0.261 C 
BRANCH  21  22
ATOM     22  O   UNL A   1      42.355  20.884  26.609  1.00  0.00    -0.460 OA
BRANCH  22  23
ATOM     23  C   UNL A   1      43.272  21.027  25.626  1.00  0.00     0.338 C 
ATOM     24  O   UNL A   1      43.710  20.171  24.885  1.00  0.00    -0.246 OA
BRANCH  23  25
ATOM     25  C   UNL A   1      43.771  22.404  25.671  1.00  0.00     0.060 A 
ATOM     26  C   UNL A   1      44.668  22.692  26.703  1.00  0.00     0.016 A 
ATOM     27  C   UNL A   1      43.040  23.395  25.004  1.00  0.00     0.016 A 
ATOM     28  C   UNL A   1      44.591  23.933  27.284  1.00  0.00     0.010 A 
ATOM     29  C   UNL A   1      42.941  24.617  25.604  1.00  0.00     0.010 A 
ATOM     30  C   UNL A   1      43.631  24.820  26.797  1.00  0.00    -0.014 A 
BRANCH  30  31
ATOM     31  C   UNL A   1      43.364  26.030  27.531  1.00  0.00     0.031 A 
ATOM     32  C   UNL A   1      44.382  27.064  27.262  1.00  0.00     0.074 A 
ATOM     33  C   UNL A   1      42.223  26.187  28.228  1.00  0.00     0.049 A 
ATOM     34  N   UNL A   1      45.308  27.483  28.058  1.00  0.00    -0.248 NA
ATOM     35  C   UNL A   1      44.543  27.504  25.863  1.00  0.00     0.031 C 
ATOM     36  C   UNL A   1      41.059  25.297  28.292  1.00  0.00     0.029 A 
ATOM     37  N   UNL A   1      41.825  27.260  28.960  1.00  0.00    -0.354 N 
ATOM     38  C   UNL A   1      46.014  28.416  27.310  1.00  0.00     0.074 A 
ATOM     39  C   UNL A   1      45.691  28.174  25.933  1.00  0.00     0.031 C 
ATOM     40  C   UNL A   1      40.011  25.967  28.830  1.00  0.00     0.029 A 
ATOM     41  C   UNL A   1      40.464  27.277  29.259  1.00  0.00     0.049 A 
ATOM     42  H   UNL A   1      42.446  27.965  29.254  1.00  0.00     0.167 HD
ATOM     43  C   UNL A   1      46.542  29.527  27.888  1.00  0.00     0.037 A 
ATOM     44  C   UNL A   1      39.793  28.361  29.729  1.00  0.00     0.037 A 
ATOM     45  C   UNL A   1      46.640  29.379  29.317  1.00  0.00     0.049 A 
ATOM     46  C   UNL A   1      40.819  29.295  30.277  1.00  0.00     0.074 A 
ATOM     47  C   UNL A   1      47.311  28.505  30.148  1.00  0.00     0.029 A 
ATOM     48  N   UNL A   1      45.646  29.942  30.081  1.00  0.00    -0.354 N 
ATOM     49  N   UNL A   1      41.543  29.034  31.331  1.00  0.00    -0.248 NA
ATOM     50  C   UNL A   1      41.382  30.275  29.358  1.00  0.00     0.031 C 
ATOM     51  C   UNL A   1      46.407  28.240  31.218  1.00  0.00     0.029 A 
ATOM     52  C   UNL A   1      45.266  29.019  31.025  1.00  0.00     0.049 A 
ATOM     53  H   UNL A   1      45.272  30.845  29.972  1.00  0.00     0.167 HD
ATOM     54  C   UNL A   1      42.817  29.483  31.007  1.00  0.00     0.074 A 
ATOM     55  C   UNL A   1      42.643  30.284  29.796  1.00  0.00     0.031 C 
ATOM     56  C   UNL A   1      43.929  28.922  31.568  1.00  0.00     0.037 A 
BRANCH  43  57
ATOM     57  C   UNL A   1      46.605  30.855  27.187  1.00  0.00     0.057 A 
ATOM     58  C   UNL A   1      47.833  31.522  27.085  1.00  0.00     0.134 A 
ATOM     59  C   UNL A   1      45.474  31.616  26.810  1.00  0.00     0.134 A 
ATOM     60  F   UNL A   1      48.972  30.921  27.458  1.00  0.00    -0.206 F 
ATOM     61  C   UNL A   1      47.925  32.853  26.660  1.00  0.00     0.040 A 
ATOM     62  C   UNL A   1      45.561  32.920  26.323  1.00  0.00     0.040 A 
ATOM     63  F   UNL A   1      44.220  31.182  26.986  1.00  0.00    -0.206 F 
ATOM     64  C   UNL A   1      46.789  33.553  26.270  1.00  0.00     0.006 A 
ENDBRANCH  43  57
BRANCH  44  65
ATOM     65  C   UNL A   1      38.427  28.825  29.381  1.00  0.00     0.057 A 
ATOM     66  C   UNL A   1      37.449  28.997  30.373  1.00  0.00     0.134 A 
ATOM     67  C   UNL A   1      38.135  29.392  28.127  1.00  0.00     0.134 A 
ATOM     68  F   UNL A   1      37.649  28.529  31.613  1.00  0.00    -0.206 F 
ATOM     69  C   UNL A   1      36.269  29.720  30.143  1.00  0.00     0.040 A 
ATOM     70  C   UNL A   1      36.960  30.111  27.884  1.00  0.00     0.040 A 
ATOM     71  F   UNL A   1      39.022  29.350  27.123  1.00  0.00    -0.206 F 
ATOM     72  C   UNL A   1      36.028  30.293  28.898  1.00  0.00     0.006 A 
ENDBRANCH  44  65
BRANCH  56  73
ATOM     73  C   UNL A   1      43.730  27.943  32.697  1.00  0.00     0.057 A 
ATOM     74  C   UNL A   1      43.737  26.547  32.542  1.00  0.00     0.134 A 
ATOM     75  C   UNL A   1      43.708  28.427  34.010  1.00  0.00     0.134 A 
ATOM     76  F   UNL A   1      43.850  25.987  31.333  1.00  0.00    -0.206 F 
ATOM     77  C   UNL A   1      43.694  25.678  33.639  1.00  0.00     0.040 A 
ATOM     78  C   UNL A   1      43.700  27.572  35.114  1.00  0.00     0.040 A 
ATOM     79  F   UNL A   1      43.755  29.749  34.241  1.00  0.00    -0.206 F 
ATOM     80  C   UNL A   1      43.686  26.192  34.931  1.00  0.00     0.006 A 
ENDBRANCH  56  73
ENDBRANCH  30  31
ENDBRANCH  23  25
ENDBRANCH  22  23
ENDBRANCH  21  22
ENDBRANCH   1  21
TORSDOF 14
ENDMDL
MODEL 2
REMARK VINA RESULT:     -11.4      1.691      2.581
REMARK SMILES Cc1cc(=O)n2nc(C)c(C(=O)OCCOCCOC(=O)c3ccc(-c4c5nc(c(-c6c(F)cccc6F)c6ccc([nH]6)c(-c6c(F)cccc6F)c6nc(c(-c7c(F)cccc7F)c7ccc4[nH]7)C=C6)C=C5)cc3)c2[nH]1
REMARK SMILES IDX 17 1 16 2 15 3 14 4 13 5 11 6 12 7 10 8 1 9 2 10 3 11 77 12
REMARK SMILES IDX 4 13 76 14 5 16 6 17 7 18 8 19 9 20 18 21 19 22 20 23 21 24
REMARK SMILES IDX 22 25 23 26 75 27 24 28 74 29 25 30 26 31 27 32 68 33 28 34
REMARK SMILES IDX 73 35 67 36 69 37 29 38 72 39 66 40 65 41 30 43 56 44 39 45
REMARK SMILES IDX 55 46 40 47 43 48 54 49 70 50 41 51 42 52 53 54 71 55 44 56
REMARK SMILES IDX 31 57 32 58 37 59 33 60 34 61 36 62 38 63 35 64 57 65 58 66
REMARK SMILES IDX 63 67 59 68 60 69 62 70 64 71 61 72 45 73 46 74 51 75 47 76
REMARK SMILES IDX 48 77 50 78 52 79 49 80
REMARK H PARENT 77 15 69 42 43 53
REMARK Flexibility Score: inf
ROOT
ATOM      1  C   UNL A   1      42.302  19.096  26.367  1.00  0.00     0.202 C 
ENDROOT
BRANCH   1   2
ATOM      2  O   UNL A   1      41.150  19.781  25.884  1.00  0.00    -0.374 OA
BRANCH   2   3
ATOM      3  C   UNL A   1      40.897  21.139  26.244  1.00  0.00     0.202 C 
BRANCH   3   4
ATOM      4  C   UNL A   1      39.454  21.575  26.505  1.00  0.00     0.261 C 
BRANCH   4   5
ATOM      5  O   UNL A   1      38.705  21.740  25.291  1.00  0.00    -0.459 OA
BRANCH   5   6
ATOM      6  C   UNL A   1      37.756  20.783  25.081  1.00  0.00     0.343 C 
ATOM      7  O   UNL A   1      37.983  19.582  25.024  1.00  0.00    -0.246 OA
BRANCH   6   8
ATOM      8  C   UNL A   1      36.409  21.311  25.116  1.00  0.00     0.125 A 
ATOM      9  C   UNL A   1      33.604  17.211  24.652  1.00  0.00     0.064 C 
ATOM     10  C   UNL A   1      33.774  18.706  24.682  1.00  0.00     0.019 A 
ATOM     11  C   UNL A   1      32.705  19.521  24.582  1.00  0.00     0.095 A 
ATOM     12  N   UNL A   1      35.053  19.213  24.828  1.00  0.00    -0.343 N 
ATOM     13  C   UNL A   1      32.874  20.998  24.710  1.00  0.00     0.274 A 
ATOM     14  C   UNL A   1      35.278  20.544  24.953  1.00  0.00     0.152 A 
ATOM     15  H   UNL A   1      35.818  18.592  24.841  1.00  0.00     0.168 HD
ATOM     16  O   UNL A   1      31.947  21.794  24.642  1.00  0.00    -0.267 OA
ATOM     17  N   UNL A   1      34.200  21.400  24.949  1.00  0.00    -0.179 N 
ATOM     18  N   UNL A   1      34.566  22.672  25.261  1.00  0.00    -0.168 NA
ATOM     19  C   UNL A   1      35.901  22.607  25.403  1.00  0.00     0.077 A 
ATOM     20  C   UNL A   1      36.650  23.815  25.835  1.00  0.00     0.070 C 
ENDBRANCH   6   8
ENDBRANCH   5   6
ENDBRANCH   4   5
ENDBRANCH   3   4
ENDBRANCH   2   3
ENDBRANCH   1   2
BRANCH   1  21
ATOM     21  C   UNL A   1      43.476  18.861  25.430  1.00  0.00     0.261 C 
BRANCH  21  22
ATOM     22  O   UNL A   1      44.393  19.937  25.473  1.00  0.00    -0.460 OA
BRANCH  22  23
ATOM     23  C   UNL A   1      44.614  20.507  24.266  1.00  0.00     0.338 C 
ATOM     24  O   UNL A   1      44.591  19.973  23.176  1.00  0.00    -0.246 OA
BRANCH  23  25
ATOM     25  C   UNL A   1      45.023  21.895  24.491  1.00  0.00     0.060 A 
ATOM     26  C   UNL A   1      46.023  22.087  25.447  1.00  0.00     0.016 A 
ATOM     27  C   UNL A   1      44.150  22.915  24.092  1.00  0.00     0.016 A 
ATOM     28  C   UNL A   1      45.940  23.206  26.238  1.00  0.00     0.010 A 
ATOM     29  C   UNL A   1      44.048  24.010  24.900  1.00  0.00     0.010 A 
ATOM     30  C   UNL A   1      44.869  24.074  26.024  1.00  0.00    -0.014 A 
BRANCH  30  31
ATOM     31  C   UNL A   1      44.619  25.122  26.981  1.00  0.00     0.031 A 
ATOM     32  C   UNL A   1      45.731  26.090  27.029  1.00  0.00     0.074 A 
ATOM     33  C   UNL A   1      43.429  25.232  27.600  1.00  0.00     0.049 A 
ATOM     34  N   UNL A   1      46.601  26.244  27.970  1.00  0.00    -0.248 NA
ATOM     35  C   UNL A   1      46.062  26.799  25.778  1.00  0.00     0.031 C 
ATOM     36  C   UNL A   1      42.203  24.459  27.373  1.00  0.00     0.029 A 
ATOM     37  N   UNL A   1      43.039  26.157  28.515  1.00  0.00    -0.354 N 
ATOM     38  C   UNL A   1      47.444  27.246  27.505  1.00  0.00     0.074 A 
ATOM     39  C   UNL A   1      47.242  27.331  26.086  1.00  0.00     0.031 C 
ATOM     40  C   UNL A   1      41.158  25.094  27.958  1.00  0.00     0.029 A 
ATOM     41  C   UNL A   1      41.660  26.236  28.699  1.00  0.00     0.049 A 
ATOM     42  H   UNL A   1      43.677  26.724  29.006  1.00  0.00     0.167 HD
ATOM     43  C   UNL A   1      47.991  28.155  28.352  1.00  0.00     0.037 A 
ATOM     44  C   UNL A   1      41.026  27.254  29.338  1.00  0.00     0.037 A 
ATOM     45  C   UNL A   1      47.935  27.701  29.717  1.00  0.00     0.049 A 
ATOM     46  C   UNL A   1      42.057  27.952  30.159  1.00  0.00     0.074 A 
ATOM     47  C   UNL A   1      48.456  26.613  30.389  1.00  0.00     0.029 A 
ATOM     48  N   UNL A   1      46.914  28.178  30.503  1.00  0.00    -0.354 N 
ATOM     49  N   UNL A   1      42.652  27.409  31.186  1.00  0.00    -0.248 NA
ATOM     50  C   UNL A   1      42.778  29.048  29.525  1.00  0.00     0.031 C 
ATOM     51  C   UNL A   1      47.433  26.212  31.297  1.00  0.00     0.029 A 
ATOM     52  C   UNL A   1      46.376  27.116  31.188  1.00  0.00     0.049 A 
ATOM     53  H   UNL A   1      46.619  29.115  30.564  1.00  0.00     0.167 HD
ATOM     54  C   UNL A   1      43.981  27.797  31.073  1.00  0.00     0.074 A 
ATOM     55  C   UNL A   1      43.987  28.849  30.057  1.00  0.00     0.031 C 
ATOM     56  C   UNL A   1      44.988  27.030  31.585  1.00  0.00     0.037 A 
BRANCH  43  57
ATOM     57  C   UNL A   1      48.219  29.591  27.966  1.00  0.00     0.057 A 
ATOM     58  C   UNL A   1      47.122  30.396  27.632  1.00  0.00     0.134 A 
ATOM     59  C   UNL A   1      49.485  30.153  27.684  1.00  0.00     0.134 A 
ATOM     60  F   UNL A   1      45.868  29.954  27.808  1.00  0.00    -0.206 F 
ATOM     61  C   UNL A   1      47.275  31.657  27.044  1.00  0.00     0.040 A 
ATOM     62  C   UNL A   1      49.651  31.434  27.159  1.00  0.00     0.040 A 
ATOM     63  F   UNL A   1      50.625  29.461  27.804  1.00  0.00    -0.206 F 
ATOM     64  C   UNL A   1      48.541  32.183  26.812  1.00  0.00     0.006 A 
ENDBRANCH  43  57
BRANCH  44  65
ATOM     65  C   UNL A   1      39.738  27.904  28.990  1.00  0.00     0.057 A 
ATOM     66  C   UNL A   1      38.708  28.017  29.937  1.00  0.00     0.134 A 
ATOM     67  C   UNL A   1      39.596  28.690  27.832  1.00  0.00     0.134 A 
ATOM     68  F   UNL A   1      38.769  27.340  31.092  1.00  0.00    -0.206 F 
ATOM     69  C   UNL A   1      37.620  28.884  29.759  1.00  0.00     0.040 A 
ATOM     70  C   UNL A   1      38.512  29.556  27.641  1.00  0.00     0.040 A 
ATOM     71  F   UNL A   1      40.548  28.717  26.890  1.00  0.00    -0.206 F 
ATOM     72  C   UNL A   1      37.527  29.669  28.613  1.00  0.00     0.006 A 
ENDBRANCH  44  65
BRANCH  56  73
ATOM     73  C   UNL A   1      44.608  25.857  32.453  1.00  0.00     0.057 A 
ATOM     74  C   UNL A   1      44.419  24.550  31.975  1.00  0.00     0.134 A 
ATOM     75  C   UNL A   1      44.607  26.022  33.842  1.00  0.00     0.134 A 
ATOM     76  F   UNL A   1      44.495  24.275  30.668  1.00  0.00    -0.206 F 
ATOM     77  C   UNL A   1      44.210  23.467  32.837  1.00  0.00     0.040 A 
ATOM     78  C   UNL A   1      44.434  24.945  34.715  1.00  0.00     0.040 A 
ATOM     79  F   UNL A   1      44.834  27.232  34.377  1.00  0.00    -0.206 F 
ATOM     80  C   UNL A   1      44.227  23.663  34.214  1.00  0.00     0.006 A 
ENDBRANCH  56  73
ENDBRANCH  30  31
ENDBRANCH  23  25
ENDBRANCH  22  23
ENDBRANCH  21  22
ENDBRANCH   1  21
TORSDOF 14
ENDMDL
MODEL 3
REMARK VINA RESULT:     -11.3      5.797     10.364
REMARK SMILES Cc1cc(=O)n2nc(C)c(C(=O)OCCOCCOC(=O)c3ccc(-c4c5nc(c(-c6c(F)cccc6F)c6ccc([nH]6)c(-c6c(F)cccc6F)c6nc(c(-c7c(F)cccc7F)c7ccc4[nH]7)C=C6)C=C5)cc3)c2[nH]1
REMARK SMILES IDX 17 1 16 2 15 3 14 4 13 5 11 6 12 7 10 8 1 9 2 10 3 11 77 12
REMARK SMILES IDX 4 13 76 14 5 16 6 17 7 18 8 19 9 20 18 21 19 22 20 23 21 24
REMARK SMILES IDX 22 25 23 26 75 27 24 28 74 29 25 30 26 31 27 32 68 33 28 34
REMARK SMILES IDX 73 35 67 36 69 37 29 38 72 39 66 40 65 41 30 43 56 44 39 45
REMARK SMILES IDX 55 46 40 47 43 48 54 49 70 50 41 51 42 52 53 54 71 55 44 56
REMARK SMILES IDX 31 57 32 58 37 59 33 60 34 61 36 62 38 63 35 64 57 65 58 66
REMARK SMILES IDX 63 67 59 68 60 69 62 70 64 71 61 72 45 73 46 74 51 75 47 76
REMARK SMILES IDX 48 77 50 78 52 79 49 80
REMARK H PARENT 77 15 69 42 43 53
REMARK Flexibility Score: inf
ROOT
ATOM      1  C   UNL A   1      33.199  35.063  28.872  1.00  0.00     0.202 C 
ENDROOT
BRANCH   1   2
ATOM      2  O   UNL A   1      34.088  33.975  29.102  1.00  0.00    -0.374 OA
BRANCH   2   3
ATOM      3  C   UNL A   1      34.433  33.073  28.051  1.00  0.00     0.202 C 
BRANCH   3   4
ATOM      4  C   UNL A   1      33.961  31.619  28.144  1.00  0.00     0.261 C 
BRANCH   4   5
ATOM      5  O   UNL A   1      33.689  31.050  26.853  1.00  0.00    -0.459 OA
BRANCH   5   6
ATOM      6  C   UNL A   1      32.363  30.874  26.586  1.00  0.00     0.343 C 
ATOM      7  O   UNL A   1      31.493  31.703  26.813  1.00  0.00    -0.246 OA
BRANCH   6   8
ATOM      8  C   UNL A   1      32.099  29.671  25.826  1.00  0.00     0.125 A 
ATOM      9  C   UNL A   1      28.684  31.182  22.518  1.00  0.00     0.064 C 
ATOM     10  C   UNL A   1      29.477  30.106  23.206  1.00  0.00     0.019 A 
ATOM     11  C   UNL A   1      29.354  28.815  22.836  1.00  0.00     0.095 A 
ATOM     12  N   UNL A   1      30.343  30.482  24.219  1.00  0.00    -0.343 N 
ATOM     13  C   UNL A   1      30.216  27.770  23.459  1.00  0.00     0.274 A 
ATOM     14  C   UNL A   1      31.157  29.584  24.826  1.00  0.00     0.152 A 
ATOM     15  H   UNL A   1      30.369  31.425  24.504  1.00  0.00     0.168 HD
ATOM     16  O   UNL A   1      30.165  26.584  23.161  1.00  0.00    -0.267 OA
ATOM     17  N   UNL A   1      31.124  28.273  24.407  1.00  0.00    -0.179 N 
ATOM     18  N   UNL A   1      32.114  27.537  24.980  1.00  0.00    -0.168 NA
ATOM     19  C   UNL A   1      32.730  28.397  25.808  1.00  0.00     0.077 A 
ATOM     20  C   UNL A   1      33.937  27.957  26.554  1.00  0.00     0.070 C 
ENDBRANCH   6   8
ENDBRANCH   5   6
ENDBRANCH   4   5
ENDBRANCH   3   4
ENDBRANCH   2   3
ENDBRANCH   1   2
BRANCH   1  21
ATOM     21  C   UNL A   1      32.842  35.990  30.024  1.00  0.00     0.261 C 
BRANCH  21  22
ATOM     22  O   UNL A   1      33.732  35.827  31.111  1.00  0.00    -0.460 OA
BRANCH  22  23
ATOM     23  C   UNL A   1      33.216  35.097  32.126  1.00  0.00     0.338 C 
ATOM     24  O   UNL A   1      32.063  35.056  32.502  1.00  0.00    -0.246 OA
BRANCH  23  25
ATOM     25  C   UNL A   1      34.326  34.431  32.811  1.00  0.00     0.060 A 
ATOM     26  C   UNL A   1      35.437  35.231  33.088  1.00  0.00     0.016 A 
ATOM     27  C   UNL A   1      34.393  33.033  32.758  1.00  0.00     0.016 A 
ATOM     28  C   UNL A   1      36.678  34.652  32.992  1.00  0.00     0.010 A 
ATOM     29  C   UNL A   1      35.627  32.465  32.629  1.00  0.00     0.010 A 
ATOM     30  C   UNL A   1      36.739  33.305  32.633  1.00  0.00    -0.014 A 
BRANCH  30  31
ATOM     31  C   UNL A   1      38.016  32.731  32.294  1.00  0.00     0.031 A 
ATOM     32  C   UNL A   1      38.931  32.719  33.451  1.00  0.00     0.074 A 
ATOM     33  C   UNL A   1      38.225  32.151  31.097  1.00  0.00     0.049 A 
ATOM     34  N   UNL A   1      39.974  33.457  33.639  1.00  0.00    -0.248 NA
ATOM     35  C   UNL A   1      38.495  31.974  34.647  1.00  0.00     0.031 C 
ATOM     36  C   UNL A   1      37.259  31.891  30.024  1.00  0.00     0.029 A 
ATOM     37  N   UNL A   1      39.360  31.566  30.632  1.00  0.00    -0.354 N 
ATOM     38  C   UNL A   1      40.446  33.081  34.890  1.00  0.00     0.074 A 
ATOM     39  C   UNL A   1      39.366  32.408  35.555  1.00  0.00     0.031 C 
ATOM     40  C   UNL A   1      37.792  31.008  29.145  1.00  0.00     0.029 A 
ATOM     41  C   UNL A   1      39.167  30.743  29.523  1.00  0.00     0.049 A 
ATOM     42  H   UNL A   1      40.242  31.711  31.043  1.00  0.00     0.167 HD
ATOM     43  C   UNL A   1      41.777  33.049  35.159  1.00  0.00     0.037 A 
ATOM     44  C   UNL A   1      40.082  29.850  29.060  1.00  0.00     0.037 A 
ATOM     45  C   UNL A   1      42.525  33.815  34.198  1.00  0.00     0.049 A 
ATOM     46  C   UNL A   1      41.399  30.252  29.632  1.00  0.00     0.074 A 
ATOM     47  C   UNL A   1      42.532  35.144  33.824  1.00  0.00     0.029 A 
ATOM     48  N   UNL A   1      43.124  33.129  33.168  1.00  0.00    -0.354 N 
ATOM     49  N   UNL A   1      42.018  31.356  29.314  1.00  0.00    -0.248 NA
ATOM     50  C   UNL A   1      41.767  29.677  30.919  1.00  0.00     0.031 C 
ATOM     51  C   UNL A   1      42.703  35.132  32.409  1.00  0.00     0.029 A 
ATOM     52  C   UNL A   1      42.866  33.807  32.002  1.00  0.00     0.049 A 
ATOM     53  H   UNL A   1      43.645  32.298  33.251  1.00  0.00     0.167 HD
ATOM     54  C   UNL A   1      42.526  31.837  30.514  1.00  0.00     0.074 A 
ATOM     55  C   UNL A   1      42.382  30.732  31.460  1.00  0.00     0.031 C 
ATOM     56  C   UNL A   1      42.736  33.173  30.710  1.00  0.00     0.037 A 
BRANCH  43  57
ATOM     57  C   UNL A   1      42.397  32.019  36.062  1.00  0.00     0.057 A 
ATOM     58  C   UNL A   1      43.110  32.436  37.194  1.00  0.00     0.134 A 
ATOM     59  C   UNL A   1      42.523  30.647  35.744  1.00  0.00     0.134 A 
ATOM     60  F   UNL A   1      43.108  33.723  37.569  1.00  0.00    -0.206 F 
ATOM     61  C   UNL A   1      43.904  31.557  37.940  1.00  0.00     0.040 A 
ATOM     62  C   UNL A   1      43.258  29.749  36.518  1.00  0.00     0.040 A 
ATOM     63  F   UNL A   1      42.030  30.118  34.617  1.00  0.00    -0.206 F 
ATOM     64  C   UNL A   1      43.974  30.208  37.608  1.00  0.00     0.006 A 
ENDBRANCH  43  57
BRANCH  44  65
ATOM     65  C   UNL A   1      39.850  28.487  28.521  1.00  0.00     0.057 A 
ATOM     66  C   UNL A   1      40.380  28.104  27.279  1.00  0.00     0.134 A 
ATOM     67  C   UNL A   1      39.369  27.443  29.332  1.00  0.00     0.134 A 
ATOM     68  F   UNL A   1      40.901  29.019  26.450  1.00  0.00    -0.206 F 
ATOM     69  C   UNL A   1      40.458  26.761  26.881  1.00  0.00     0.040 A 
ATOM     70  C   UNL A   1      39.437  26.100  28.944  1.00  0.00     0.040 A 
ATOM     71  F   UNL A   1      38.904  27.680  30.565  1.00  0.00    -0.206 F 
ATOM     72  C   UNL A   1      39.998  25.752  27.722  1.00  0.00     0.006 A 
ENDBRANCH  44  65
BRANCH  56  73
ATOM     73  C   UNL A   1      42.594  34.088  29.520  1.00  0.00     0.057 A 
ATOM     74  C   UNL A   1      41.421  34.793  29.203  1.00  0.00     0.134 A 
ATOM     75  C   UNL A   1      43.735  34.404  28.775  1.00  0.00     0.134 A 
ATOM     76  F   UNL A   1      40.303  34.630  29.918  1.00  0.00    -0.206 F 
ATOM     77  C   UNL A   1      41.381  35.743  28.175  1.00  0.00     0.040 A 
ATOM     78  C   UNL A   1      43.718  35.373  27.770  1.00  0.00     0.040 A 
ATOM     79  F   UNL A   1      44.907  33.812  29.055  1.00  0.00    -0.206 F 
ATOM     80  C   UNL A   1      42.536  36.043  27.462  1.00  0.00     0.006 A 
ENDBRANCH  56  73
ENDBRANCH  30  31
ENDBRANCH  23  25
ENDBRANCH  22  23
ENDBRANCH  21  22
ENDBRANCH   1  21
TORSDOF 14
ENDMDL
