MODEL 1
REMARK VINA RESULT:     -10.8      0.000      0.000
REMARK SMILES CCC[NH+]1CCC(NC(=O)NC2(CC(=O)OCCOCCOC(=O)c3ccc(-c4c5nc(c(-c6c(F)cccc6F)c6ccc([nH]6)c(-c6c(F)cccc6F)c6nc(c(-c7c(F)cccc7F)c7ccc4[nH]7)C=C6)C=C5)cc3)CCC2)CC1
REMARK SMILES IDX 17 1 16 2 14 3 15 4 13 5 12 6 79 7 81 8 80 9 11 10 8 11 9 12
REMARK SMILES IDX 10 14 7 16 4 17 5 18 83 19 6 21 82 22 3 23 2 24 1 25 18 26
REMARK SMILES IDX 19 27 20 28 21 29 22 30 23 31 24 32 25 33 26 34 78 35 27 36
REMARK SMILES IDX 77 37 28 38 29 39 30 40 71 41 31 42 76 43 70 44 72 45 32 46
REMARK SMILES IDX 75 47 69 48 68 49 33 51 59 52 42 53 58 54 43 55 46 56 57 57
REMARK SMILES IDX 73 58 44 59 45 60 56 62 74 63 47 64 34 65 35 66 40 67 36 68
REMARK SMILES IDX 37 69 39 70 41 71 38 72 60 73 61 74 66 75 62 76 63 77 65 78
REMARK SMILES IDX 67 79 64 80 48 81 49 82 54 83 50 84 51 85 53 86 55 87 52 88
REMARK H PARENT 8 13 11 15 4 20 72 50 46 61
REMARK Flexibility Score: inf
ROOT
ATOM      1  C   UNL A   1      38.897  22.024  26.071  1.00  0.00     0.261 C 
ENDROOT
BRANCH   1   2
ATOM      2  O   UNL A   1      38.552  20.907  25.230  1.00  0.00    -0.463 OA
BRANCH   2   3
ATOM      3  C   UNL A   1      37.251  20.790  24.865  1.00  0.00     0.308 C 
ATOM      4  O   UNL A   1      36.577  19.774  24.994  1.00  0.00    -0.252 OA
BRANCH   3   5
ATOM      5  C   UNL A   1      36.685  22.044  24.233  1.00  0.00     0.151 C 
BRANCH   5   6
ATOM      6  C   UNL A   1      35.219  22.439  24.541  1.00  0.00     0.052 C 
ATOM      7  C   UNL A   1      34.777  23.689  23.731  1.00  0.00     0.029 C 
ATOM      8  C   UNL A   1      35.143  23.277  25.833  1.00  0.00     0.029 C 
ATOM      9  C   UNL A   1      34.984  24.554  24.985  1.00  0.00     0.005 C 
BRANCH   6  10
ATOM     10  N   UNL A   1      34.335  21.271  24.295  1.00  0.00    -0.332 N 
ATOM     11  N   UNL A   1      31.978  21.712  24.200  1.00  0.00    -0.335 N 
ATOM     12  C   UNL A   1      33.052  20.933  24.106  1.00  0.00     0.315 C 
ATOM     13  H   UNL A   1      31.139  21.230  24.022  1.00  0.00     0.165 HD
ATOM     14  O   UNL A   1      32.852  19.751  23.801  1.00  0.00    -0.249 OA
ATOM     15  H   UNL A   1      34.887  20.457  24.256  1.00  0.00     0.165 HD
BRANCH  11  16
ATOM     16  C   UNL A   1      31.774  23.104  24.503  1.00  0.00     0.095 C 
ATOM     17  N   UNL A   1      30.528  25.630  25.218  1.00  0.00    -0.335 N 
ATOM     18  C   UNL A   1      30.878  25.298  23.826  1.00  0.00     0.264 C 
ATOM     19  C   UNL A   1      31.250  24.820  26.219  1.00  0.00     0.264 C 
ATOM     20  H   UNL A   1      29.534  25.417  25.289  1.00  0.00     0.348 HD
ATOM     21  C   UNL A   1      30.829  23.797  23.534  1.00  0.00     0.086 C 
ATOM     22  C   UNL A   1      31.247  23.324  25.915  1.00  0.00     0.086 C 
BRANCH  17  23
ATOM     23  C   UNL A   1      30.771  27.059  25.519  1.00  0.00     0.261 C 
BRANCH  23  24
ATOM     24  C   UNL A   1      32.029  27.377  26.335  1.00  0.00     0.058 C 
ATOM     25  C   UNL A   1      31.745  28.179  27.593  1.00  0.00     0.010 C 
ENDBRANCH  23  24
ENDBRANCH  17  23
ENDBRANCH  11  16
ENDBRANCH   6  10
ENDBRANCH   5   6
ENDBRANCH   3   5
ENDBRANCH   2   3
ENDBRANCH   1   2
BRANCH   1  26
ATOM     26  C   UNL A   1      40.314  21.866  26.625  1.00  0.00     0.202 C 
BRANCH  26  27
ATOM     27  O   UNL A   1      41.288  21.525  25.636  1.00  0.00    -0.374 OA
BRANCH  27  28
ATOM     28  C   UNL A   1      42.613  21.290  26.125  1.00  0.00     0.202 C 
BRANCH  28  29
ATOM     29  C   UNL A   1      43.702  22.044  25.359  1.00  0.00     0.261 C 
BRANCH  29  30
ATOM     30  O   UNL A   1      43.160  23.235  24.755  1.00  0.00    -0.460 OA
BRANCH  30  31
ATOM     31  C   UNL A   1      43.866  24.359  24.990  1.00  0.00     0.338 C 
ATOM     32  O   UNL A   1      44.944  24.681  24.502  1.00  0.00    -0.246 OA
BRANCH  31  33
ATOM     33  C   UNL A   1      43.087  25.285  25.825  1.00  0.00     0.060 A 
ATOM     34  C   UNL A   1      43.673  26.517  26.135  1.00  0.00     0.016 A 
ATOM     35  C   UNL A   1      41.863  24.920  26.391  1.00  0.00     0.016 A 
ATOM     36  C   UNL A   1      43.074  27.356  27.071  1.00  0.00     0.010 A 
ATOM     37  C   UNL A   1      41.254  25.773  27.320  1.00  0.00     0.010 A 
ATOM     38  C   UNL A   1      41.885  26.971  27.705  1.00  0.00    -0.014 A 
BRANCH  38  39
ATOM     39  C   UNL A   1      41.417  27.742  28.886  1.00  0.00     0.031 A 
ATOM     40  C   UNL A   1      42.177  27.632  30.182  1.00  0.00     0.074 A 
ATOM     41  C   UNL A   1      40.379  28.593  28.791  1.00  0.00     0.049 A 
ATOM     42  N   UNL A   1      41.974  28.245  31.320  1.00  0.00    -0.248 NA
ATOM     43  C   UNL A   1      43.321  26.705  30.197  1.00  0.00     0.031 C 
ATOM     44  C   UNL A   1      39.578  28.821  27.590  1.00  0.00     0.029 A 
ATOM     45  N   UNL A   1      39.829  29.434  29.727  1.00  0.00    -0.354 N 
ATOM     46  C   UNL A   1      42.956  27.776  32.184  1.00  0.00     0.074 A 
ATOM     47  C   UNL A   1      43.731  26.799  31.453  1.00  0.00     0.031 C 
ATOM     48  C   UNL A   1      38.643  29.749  27.858  1.00  0.00     0.029 A 
ATOM     49  C   UNL A   1      38.765  30.163  29.254  1.00  0.00     0.049 A 
ATOM     50  H   UNL A   1      40.165  29.508  30.650  1.00  0.00     0.167 HD
ATOM     51  C   UNL A   1      43.204  28.136  33.466  1.00  0.00     0.037 A 
ATOM     52  C   UNL A   1      37.977  31.061  29.879  1.00  0.00     0.037 A 
ATOM     53  C   UNL A   1      42.450  29.121  34.196  1.00  0.00     0.049 A 
ATOM     54  C   UNL A   1      38.243  31.410  31.320  1.00  0.00     0.074 A 
ATOM     55  C   UNL A   1      42.644  29.571  35.490  1.00  0.00     0.029 A 
ATOM     56  N   UNL A   1      41.358  29.809  33.691  1.00  0.00    -0.354 N 
ATOM     57  N   UNL A   1      39.191  30.978  32.115  1.00  0.00    -0.248 NA
ATOM     58  C   UNL A   1      37.330  32.378  31.946  1.00  0.00     0.031 C 
ATOM     59  C   UNL A   1      41.643  30.504  35.783  1.00  0.00     0.029 A 
ATOM     60  C   UNL A   1      40.854  30.665  34.656  1.00  0.00     0.049 A 
ATOM     61  H   UNL A   1      40.995  29.706  32.781  1.00  0.00     0.167 HD
ATOM     62  C   UNL A   1      39.004  31.637  33.324  1.00  0.00     0.074 A 
ATOM     63  C   UNL A   1      37.860  32.508  33.155  1.00  0.00     0.031 C 
ATOM     64  C   UNL A   1      39.718  31.531  34.472  1.00  0.00     0.037 A 
BRANCH  51  65
ATOM     65  C   UNL A   1      44.335  27.445  34.169  1.00  0.00     0.057 A 
ATOM     66  C   UNL A   1      44.153  26.235  34.850  1.00  0.00     0.134 A 
ATOM     67  C   UNL A   1      45.627  27.985  34.142  1.00  0.00     0.134 A 
ATOM     68  F   UNL A   1      42.936  25.673  34.925  1.00  0.00    -0.206 F 
ATOM     69  C   UNL A   1      45.211  25.597  35.499  1.00  0.00     0.040 A 
ATOM     70  C   UNL A   1      46.698  27.345  34.766  1.00  0.00     0.040 A 
ATOM     71  F   UNL A   1      45.869  29.139  33.502  1.00  0.00    -0.206 F 
ATOM     72  C   UNL A   1      46.490  26.150  35.454  1.00  0.00     0.006 A 
ENDBRANCH  51  65
BRANCH  52  73
ATOM     73  C   UNL A   1      36.854  31.697  29.146  1.00  0.00     0.057 A 
ATOM     74  C   UNL A   1      36.935  33.020  28.699  1.00  0.00     0.134 A 
ATOM     75  C   UNL A   1      35.664  31.002  28.897  1.00  0.00     0.134 A 
ATOM     76  F   UNL A   1      38.039  33.744  28.931  1.00  0.00    -0.206 F 
ATOM     77  C   UNL A   1      35.868  33.635  28.042  1.00  0.00     0.040 A 
ATOM     78  C   UNL A   1      34.598  31.597  28.221  1.00  0.00     0.040 A 
ATOM     79  F   UNL A   1      35.524  29.731  29.302  1.00  0.00    -0.206 F 
ATOM     80  C   UNL A   1      34.696  32.921  27.797  1.00  0.00     0.006 A 
ENDBRANCH  52  73
BRANCH  64  81
ATOM     81  C   UNL A   1      39.302  32.395  35.626  1.00  0.00     0.057 A 
ATOM     82  C   UNL A   1      38.418  31.936  36.610  1.00  0.00     0.134 A 
ATOM     83  C   UNL A   1      39.828  33.684  35.777  1.00  0.00     0.134 A 
ATOM     84  F   UNL A   1      37.871  30.714  36.516  1.00  0.00    -0.206 F 
ATOM     85  C   UNL A   1      38.058  32.736  37.696  1.00  0.00     0.040 A 
ATOM     86  C   UNL A   1      39.493  34.485  36.870  1.00  0.00     0.040 A 
ATOM     87  F   UNL A   1      40.686  34.180  34.874  1.00  0.00    -0.206 F 
ATOM     88  C   UNL A   1      38.601  34.012  37.831  1.00  0.00     0.006 A 
ENDBRANCH  64  81
ENDBRANCH  38  39
ENDBRANCH  31  33
ENDBRANCH  30  31
ENDBRANCH  29  30
ENDBRANCH  28  29
ENDBRANCH  27  28
ENDBRANCH  26  27
ENDBRANCH   1  26
TORSDOF 19
ENDMDL
MODEL 2
REMARK VINA RESULT:     -10.8      3.309      8.089
REMARK SMILES CCC[NH+]1CCC(NC(=O)NC2(CC(=O)OCCOCCOC(=O)c3ccc(-c4c5nc(c(-c6c(F)cccc6F)c6ccc([nH]6)c(-c6c(F)cccc6F)c6nc(c(-c7c(F)cccc7F)c7ccc4[nH]7)C=C6)C=C5)cc3)CCC2)CC1
REMARK SMILES IDX 17 1 16 2 14 3 15 4 13 5 12 6 79 7 81 8 80 9 11 10 8 11 9 12
REMARK SMILES IDX 10 14 7 16 4 17 5 18 83 19 6 21 82 22 3 23 2 24 1 25 18 26
REMARK SMILES IDX 19 27 20 28 21 29 22 30 23 31 24 32 25 33 26 34 78 35 27 36
REMARK SMILES IDX 77 37 28 38 29 39 30 40 71 41 31 42 76 43 70 44 72 45 32 46
REMARK SMILES IDX 75 47 69 48 68 49 33 51 59 52 42 53 58 54 43 55 46 56 57 57
REMARK SMILES IDX 73 58 44 59 45 60 56 62 74 63 47 64 34 65 35 66 40 67 36 68
REMARK SMILES IDX 37 69 39 70 41 71 38 72 60 73 61 74 66 75 62 76 63 77 65 78
REMARK SMILES IDX 67 79 64 80 48 81 49 82 54 83 50 84 51 85 53 86 55 87 52 88
REMARK H PARENT 8 13 11 15 4 20 72 50 46 61
REMARK Flexibility Score: inf
ROOT
ATOM      1  C   UNL A   1      32.883  28.473  25.236  1.00  0.00     0.261 C 
ENDROOT
BRANCH   1   2
ATOM      2  O   UNL A   1      31.476  28.228  25.049  1.00  0.00    -0.463 OA
BRANCH   2   3
ATOM      3  C   UNL A   1      30.983  27.062  25.535  1.00  0.00     0.308 C 
ATOM      4  O   UNL A   1      30.815  26.816  26.723  1.00  0.00    -0.252 OA
BRANCH   3   5
ATOM      5  C   UNL A   1      30.677  26.040  24.460  1.00  0.00     0.151 C 
BRANCH   5   6
ATOM      6  C   UNL A   1      31.133  24.575  24.672  1.00  0.00     0.052 C 
ATOM      7  C   UNL A   1      32.669  24.475  24.884  1.00  0.00     0.029 C 
ATOM      8  C   UNL A   1      31.297  23.856  23.317  1.00  0.00     0.029 C 
ATOM      9  C   UNL A   1      32.824  24.022  23.424  1.00  0.00     0.005 C 
BRANCH   6  10
ATOM     10  N   UNL A   1      30.371  23.984  25.802  1.00  0.00    -0.332 N 
ATOM     11  N   UNL A   1      31.483  22.273  27.066  1.00  0.00    -0.335 N 
ATOM     12  C   UNL A   1      30.477  23.104  26.807  1.00  0.00     0.315 C 
ATOM     13  H   UNL A   1      31.326  21.716  27.861  1.00  0.00     0.165 HD
ATOM     14  O   UNL A   1      29.520  23.072  27.590  1.00  0.00    -0.249 OA
ATOM     15  H   UNL A   1      29.470  24.378  25.818  1.00  0.00     0.165 HD
BRANCH  11  16
ATOM     16  C   UNL A   1      32.753  22.011  26.438  1.00  0.00     0.095 C 
ATOM     17  N   UNL A   1      35.249  20.746  25.661  1.00  0.00    -0.335 N 
ATOM     18  C   UNL A   1      35.204  21.855  26.629  1.00  0.00     0.264 C 
ATOM     19  C   UNL A   1      34.045  20.650  24.813  1.00  0.00     0.264 C 
ATOM     20  H   UNL A   1      35.304  19.906  26.236  1.00  0.00     0.348 HD
ATOM     21  C   UNL A   1      33.900  21.904  27.428  1.00  0.00     0.086 C 
ATOM     22  C   UNL A   1      32.736  20.744  25.594  1.00  0.00     0.086 C 
BRANCH  17  23
ATOM     23  C   UNL A   1      36.431  20.839  24.774  1.00  0.00     0.261 C 
BRANCH  23  24
ATOM     24  C   UNL A   1      36.972  22.249  24.509  1.00  0.00     0.058 C 
ATOM     25  C   UNL A   1      36.464  22.857  23.213  1.00  0.00     0.010 C 
ENDBRANCH  23  24
ENDBRANCH  17  23
ENDBRANCH  11  16
ENDBRANCH   6  10
ENDBRANCH   5   6
ENDBRANCH   3   5
ENDBRANCH   2   3
ENDBRANCH   1   2
BRANCH   1  26
ATOM     26  C   UNL A   1      33.105  29.698  26.125  1.00  0.00     0.202 C 
BRANCH  26  27
ATOM     27  O   UNL A   1      31.909  30.206  26.720  1.00  0.00    -0.374 OA
BRANCH  27  28
ATOM     28  C   UNL A   1      31.363  31.381  26.109  1.00  0.00     0.202 C 
BRANCH  28  29
ATOM     29  C   UNL A   1      31.396  32.620  27.006  1.00  0.00     0.261 C 
BRANCH  29  30
ATOM     30  O   UNL A   1      32.637  33.334  26.835  1.00  0.00    -0.460 OA
BRANCH  30  31
ATOM     31  C   UNL A   1      33.155  33.844  27.970  1.00  0.00     0.338 C 
ATOM     32  O   UNL A   1      32.645  34.668  28.721  1.00  0.00    -0.246 OA
BRANCH  31  33
ATOM     33  C   UNL A   1      34.404  33.150  28.316  1.00  0.00     0.060 A 
ATOM     34  C   UNL A   1      34.306  31.806  28.696  1.00  0.00     0.016 A 
ATOM     35  C   UNL A   1      35.628  33.819  28.385  1.00  0.00     0.016 A 
ATOM     36  C   UNL A   1      35.418  31.149  29.217  1.00  0.00     0.010 A 
ATOM     37  C   UNL A   1      36.749  33.150  28.893  1.00  0.00     0.010 A 
ATOM     38  C   UNL A   1      36.636  31.828  29.362  1.00  0.00    -0.014 A 
BRANCH  38  39
ATOM     39  C   UNL A   1      37.717  31.201  30.166  1.00  0.00     0.031 A 
ATOM     40  C   UNL A   1      38.653  30.225  29.501  1.00  0.00     0.074 A 
ATOM     41  C   UNL A   1      37.919  31.552  31.448  1.00  0.00     0.049 A 
ATOM     42  N   UNL A   1      39.688  29.596  29.997  1.00  0.00    -0.248 NA
ATOM     43  C   UNL A   1      38.387  29.917  28.086  1.00  0.00     0.031 C 
ATOM     44  C   UNL A   1      37.109  32.507  32.202  1.00  0.00     0.029 A 
ATOM     45  N   UNL A   1      38.881  31.148  32.341  1.00  0.00    -0.354 N 
ATOM     46  C   UNL A   1      40.190  28.816  28.962  1.00  0.00     0.074 A 
ATOM     47  C   UNL A   1      39.326  29.021  27.821  1.00  0.00     0.031 C 
ATOM     48  C   UNL A   1      37.614  32.624  33.443  1.00  0.00     0.029 A 
ATOM     49  C   UNL A   1      38.767  31.735  33.577  1.00  0.00     0.049 A 
ATOM     50  H   UNL A   1      39.587  30.499  32.116  1.00  0.00     0.167 HD
ATOM     51  C   UNL A   1      41.282  28.015  28.953  1.00  0.00     0.037 A 
ATOM     52  C   UNL A   1      39.506  31.572  34.692  1.00  0.00     0.037 A 
ATOM     53  C   UNL A   1      42.159  27.821  30.077  1.00  0.00     0.049 A 
ATOM     54  C   UNL A   1      40.689  30.639  34.672  1.00  0.00     0.074 A 
ATOM     55  C   UNL A   1      43.305  27.049  30.154  1.00  0.00     0.029 A 
ATOM     56  N   UNL A   1      41.986  28.407  31.321  1.00  0.00    -0.354 N 
ATOM     57  N   UNL A   1      41.167  29.930  33.678  1.00  0.00    -0.248 NA
ATOM     58  C   UNL A   1      41.437  30.489  35.929  1.00  0.00     0.031 C 
ATOM     59  C   UNL A   1      43.804  27.136  31.458  1.00  0.00     0.029 A 
ATOM     60  C   UNL A   1      42.992  27.996  32.180  1.00  0.00     0.049 A 
ATOM     61  H   UNL A   1      41.256  29.024  31.559  1.00  0.00     0.167 HD
ATOM     62  C   UNL A   1      42.281  29.271  34.181  1.00  0.00     0.074 A 
ATOM     63  C   UNL A   1      42.417  29.674  35.566  1.00  0.00     0.031 C 
ATOM     64  C   UNL A   1      43.119  28.410  33.553  1.00  0.00     0.037 A 
BRANCH  51  65
ATOM     65  C   UNL A   1      41.581  27.274  27.684  1.00  0.00     0.057 A 
ATOM     66  C   UNL A   1      41.107  25.975  27.457  1.00  0.00     0.134 A 
ATOM     67  C   UNL A   1      42.332  27.876  26.666  1.00  0.00     0.134 A 
ATOM     68  F   UNL A   1      40.394  25.337  28.398  1.00  0.00    -0.206 F 
ATOM     69  C   UNL A   1      41.388  25.293  26.272  1.00  0.00     0.040 A 
ATOM     70  C   UNL A   1      42.599  27.214  25.468  1.00  0.00     0.040 A 
ATOM     71  F   UNL A   1      42.810  29.120  26.818  1.00  0.00    -0.206 F 
ATOM     72  C   UNL A   1      42.132  25.915  25.270  1.00  0.00     0.006 A 
ENDBRANCH  51  65
BRANCH  52  73
ATOM     73  C   UNL A   1      39.153  32.309  35.931  1.00  0.00     0.057 A 
ATOM     74  C   UNL A   1      38.287  31.759  36.881  1.00  0.00     0.134 A 
ATOM     75  C   UNL A   1      39.657  33.591  36.181  1.00  0.00     0.134 A 
ATOM     76  F   UNL A   1      37.752  30.545  36.686  1.00  0.00    -0.206 F 
ATOM     77  C   UNL A   1      37.922  32.462  38.031  1.00  0.00     0.040 A 
ATOM     78  C   UNL A   1      39.319  34.297  37.337  1.00  0.00     0.040 A 
ATOM     79  F   UNL A   1      40.491  34.174  35.307  1.00  0.00    -0.206 F 
ATOM     80  C   UNL A   1      38.444  33.735  38.263  1.00  0.00     0.006 A 
ENDBRANCH  52  73
BRANCH  64  81
ATOM     81  C   UNL A   1      44.272  27.866  34.344  1.00  0.00     0.057 A 
ATOM     82  C   UNL A   1      44.189  26.643  35.022  1.00  0.00     0.134 A 
ATOM     83  C   UNL A   1      45.492  28.552  34.390  1.00  0.00     0.134 A 
ATOM     84  F   UNL A   1      43.044  25.943  35.026  1.00  0.00    -0.206 F 
ATOM     85  C   UNL A   1      45.275  26.129  35.733  1.00  0.00     0.040 A 
ATOM     86  C   UNL A   1      46.592  28.038  35.079  1.00  0.00     0.040 A 
ATOM     87  F   UNL A   1      45.639  29.724  33.756  1.00  0.00    -0.206 F 
ATOM     88  C   UNL A   1      46.483  26.825  35.757  1.00  0.00     0.006 A 
ENDBRANCH  64  81
ENDBRANCH  38  39
ENDBRANCH  31  33
ENDBRANCH  30  31
ENDBRANCH  29  30
ENDBRANCH  28  29
ENDBRANCH  27  28
ENDBRANCH  26  27
ENDBRANCH   1  26
TORSDOF 19
ENDMDL
MODEL 3
REMARK VINA RESULT:     -10.8      3.309      8.153
REMARK SMILES CCC[NH+]1CCC(NC(=O)NC2(CC(=O)OCCOCCOC(=O)c3ccc(-c4c5nc(c(-c6c(F)cccc6F)c6ccc([nH]6)c(-c6c(F)cccc6F)c6nc(c(-c7c(F)cccc7F)c7ccc4[nH]7)C=C6)C=C5)cc3)CCC2)CC1
REMARK SMILES IDX 17 1 16 2 14 3 15 4 13 5 12 6 79 7 81 8 80 9 11 10 8 11 9 12
REMARK SMILES IDX 10 14 7 16 4 17 5 18 83 19 6 21 82 22 3 23 2 24 1 25 18 26
REMARK SMILES IDX 19 27 20 28 21 29 22 30 23 31 24 32 25 33 26 34 78 35 27 36
REMARK SMILES IDX 77 37 28 38 29 39 30 40 71 41 31 42 76 43 70 44 72 45 32 46
REMARK SMILES IDX 75 47 69 48 68 49 33 51 59 52 42 53 58 54 43 55 46 56 57 57
REMARK SMILES IDX 73 58 44 59 45 60 56 62 74 63 47 64 34 65 35 66 40 67 36 68
REMARK SMILES IDX 37 69 39 70 41 71 38 72 60 73 61 74 66 75 62 76 63 77 65 78
REMARK SMILES IDX 67 79 64 80 48 81 49 82 54 83 50 84 51 85 53 86 55 87 52 88
REMARK H PARENT 8 13 11 15 4 20 72 50 46 61
REMARK Flexibility Score: inf
ROOT
ATOM      1  C   UNL A   1      33.032  28.996  24.510  1.00  0.00     0.261 C 
ENDROOT
BRANCH   1   2
ATOM      2  O   UNL A   1      31.687  28.492  24.413  1.00  0.00    -0.463 OA
BRANCH   2   3
ATOM      3  C   UNL A   1      31.518  27.304  23.782  1.00  0.00     0.308 C 
ATOM      4  O   UNL A   1      31.901  27.056  22.644  1.00  0.00    -0.252 OA
BRANCH   3   5
ATOM      5  C   UNL A   1      30.764  26.282  24.607  1.00  0.00     0.151 C 
BRANCH   5   6
ATOM      6  C   UNL A   1      31.563  25.164  25.321  1.00  0.00     0.052 C 
ATOM      7  C   UNL A   1      32.762  25.738  26.125  1.00  0.00     0.029 C 
ATOM      8  C   UNL A   1      32.561  24.503  24.349  1.00  0.00     0.029 C 
ATOM      9  C   UNL A   1      33.707  25.306  24.992  1.00  0.00     0.005 C 
BRANCH   6  10
ATOM     10  N   UNL A   1      30.641  24.374  26.177  1.00  0.00    -0.332 N 
ATOM     11  N   UNL A   1      31.451  22.253  26.953  1.00  0.00    -0.335 N 
ATOM     12  C   UNL A   1      30.561  23.239  26.885  1.00  0.00     0.315 C 
ATOM     13  H   UNL A   1      31.163  21.517  27.539  1.00  0.00     0.165 HD
ATOM     14  O   UNL A   1      29.534  23.104  27.561  1.00  0.00    -0.249 OA
ATOM     15  H   UNL A   1      29.785  24.855  26.250  1.00  0.00     0.165 HD
BRANCH  11  16
ATOM     16  C   UNL A   1      32.744  22.027  26.360  1.00  0.00     0.095 C 
ATOM     17  N   UNL A   1      35.337  20.883  25.722  1.00  0.00    -0.335 N 
ATOM     18  C   UNL A   1      35.198  22.076  26.574  1.00  0.00     0.264 C 
ATOM     19  C   UNL A   1      34.152  20.612  24.884  1.00  0.00     0.264 C 
ATOM     20  H   UNL A   1      35.448  20.111  26.379  1.00  0.00     0.348 HD
ATOM     21  C   UNL A   1      33.885  22.106  27.360  1.00  0.00     0.086 C 
ATOM     22  C   UNL A   1      32.832  20.684  25.647  1.00  0.00     0.086 C 
BRANCH  17  23
ATOM     23  C   UNL A   1      36.518  20.977  24.835  1.00  0.00     0.261 C 
BRANCH  23  24
ATOM     24  C   UNL A   1      37.010  22.391  24.506  1.00  0.00     0.058 C 
ATOM     25  C   UNL A   1      36.588  22.871  23.128  1.00  0.00     0.010 C 
ENDBRANCH  23  24
ENDBRANCH  17  23
ENDBRANCH  11  16
ENDBRANCH   6  10
ENDBRANCH   5   6
ENDBRANCH   3   5
ENDBRANCH   2   3
ENDBRANCH   1   2
BRANCH   1  26
ATOM     26  C   UNL A   1      33.221  29.790  25.804  1.00  0.00     0.202 C 
BRANCH  26  27
ATOM     27  O   UNL A   1      31.999  30.103  26.474  1.00  0.00    -0.374 OA
BRANCH  27  28
ATOM     28  C   UNL A   1      31.361  31.319  26.066  1.00  0.00     0.202 C 
BRANCH  28  29
ATOM     29  C   UNL A   1      31.403  32.428  27.120  1.00  0.00     0.261 C 
BRANCH  29  30
ATOM     30  O   UNL A   1      32.528  33.299  26.890  1.00  0.00    -0.460 OA
BRANCH  30  31
ATOM     31  C   UNL A   1      33.123  33.759  28.009  1.00  0.00     0.338 C 
ATOM     32  O   UNL A   1      32.661  34.538  28.836  1.00  0.00    -0.246 OA
BRANCH  31  33
ATOM     33  C   UNL A   1      34.400  33.063  28.229  1.00  0.00     0.060 A 
ATOM     34  C   UNL A   1      34.339  31.728  28.641  1.00  0.00     0.016 A 
ATOM     35  C   UNL A   1      35.627  33.727  28.152  1.00  0.00     0.016 A 
ATOM     36  C   UNL A   1      35.499  31.073  29.049  1.00  0.00     0.010 A 
ATOM     37  C   UNL A   1      36.794  33.061  28.546  1.00  0.00     0.010 A 
ATOM     38  C   UNL A   1      36.728  31.748  29.048  1.00  0.00    -0.014 A 
BRANCH  38  39
ATOM     39  C   UNL A   1      37.889  31.129  29.740  1.00  0.00     0.031 A 
ATOM     40  C   UNL A   1      38.128  31.444  31.194  1.00  0.00     0.074 A 
ATOM     41  C   UNL A   1      38.673  30.235  29.112  1.00  0.00     0.049 A 
ATOM     42  N   UNL A   1      39.050  30.985  32.003  1.00  0.00    -0.248 NA
ATOM     43  C   UNL A   1      37.207  32.405  31.820  1.00  0.00     0.031 C 
ATOM     44  C   UNL A   1      38.531  29.816  27.718  1.00  0.00     0.029 A 
ATOM     45  N   UNL A   1      39.744  29.510  29.574  1.00  0.00    -0.354 N 
ATOM     46  C   UNL A   1      38.823  31.604  33.226  1.00  0.00     0.074 A 
ATOM     47  C   UNL A   1      37.702  32.500  33.045  1.00  0.00     0.031 C 
ATOM     48  C   UNL A   1      39.475  28.899  27.441  1.00  0.00     0.029 A 
ATOM     49  C   UNL A   1      40.300  28.685  28.628  1.00  0.00     0.049 A 
ATOM     50  H   UNL A   1      40.082  29.576  30.497  1.00  0.00     0.167 HD
ATOM     51  C   UNL A   1      39.475  31.432  34.400  1.00  0.00     0.037 A 
ATOM     52  C   UNL A   1      41.357  27.853  28.709  1.00  0.00     0.037 A 
ATOM     53  C   UNL A   1      40.578  30.528  34.595  1.00  0.00     0.049 A 
ATOM     54  C   UNL A   1      42.097  27.714  30.014  1.00  0.00     0.074 A 
ATOM     55  C   UNL A   1      41.285  30.267  35.755  1.00  0.00     0.029 A 
ATOM     56  N   UNL A   1      41.133  29.738  33.600  1.00  0.00    -0.354 N 
ATOM     57  N   UNL A   1      41.853  28.285  31.168  1.00  0.00    -0.248 NA
ATOM     58  C   UNL A   1      43.255  26.807  30.026  1.00  0.00     0.031 C 
ATOM     59  C   UNL A   1      42.295  29.347  35.454  1.00  0.00     0.029 A 
ATOM     60  C   UNL A   1      42.188  29.004  34.116  1.00  0.00     0.049 A 
ATOM     61  H   UNL A   1      40.822  29.702  32.667  1.00  0.00     0.167 HD
ATOM     62  C   UNL A   1      42.810  27.792  32.047  1.00  0.00     0.074 A 
ATOM     63  C   UNL A   1      43.631  26.864  31.296  1.00  0.00     0.031 C 
ATOM     64  C   UNL A   1      42.992  28.080  33.359  1.00  0.00     0.037 A 
BRANCH  51  65
ATOM     65  C   UNL A   1      39.017  32.253  35.569  1.00  0.00     0.057 A 
ATOM     66  C   UNL A   1      38.207  31.717  36.578  1.00  0.00     0.134 A 
ATOM     67  C   UNL A   1      39.412  33.591  35.699  1.00  0.00     0.134 A 
ATOM     68  F   UNL A   1      37.783  30.445  36.505  1.00  0.00    -0.206 F 
ATOM     69  C   UNL A   1      37.787  32.486  37.663  1.00  0.00     0.040 A 
ATOM     70  C   UNL A   1      39.018  34.364  36.791  1.00  0.00     0.040 A 
ATOM     71  F   UNL A   1      40.191  34.164  34.769  1.00  0.00    -0.206 F 
ATOM     72  C   UNL A   1      38.198  33.815  37.775  1.00  0.00     0.006 A 
ENDBRANCH  51  65
BRANCH  52  73
ATOM     73  C   UNL A   1      41.787  27.081  27.516  1.00  0.00     0.057 A 
ATOM     74  C   UNL A   1      41.369  25.762  27.316  1.00  0.00     0.134 A 
ATOM     75  C   UNL A   1      42.644  27.641  26.561  1.00  0.00     0.134 A 
ATOM     76  F   UNL A   1      40.568  25.163  28.209  1.00  0.00    -0.206 F 
ATOM     77  C   UNL A   1      41.799  25.019  26.215  1.00  0.00     0.040 A 
ATOM     78  C   UNL A   1      43.064  26.917  25.443  1.00  0.00     0.040 A 
ATOM     79  F   UNL A   1      43.080  28.901  26.697  1.00  0.00    -0.206 F 
ATOM     80  C   UNL A   1      42.646  25.600  25.271  1.00  0.00     0.006 A 
ENDBRANCH  52  73
BRANCH  64  81
ATOM     81  C   UNL A   1      44.101  27.367  34.076  1.00  0.00     0.057 A 
ATOM     82  C   UNL A   1      45.386  27.914  34.174  1.00  0.00     0.134 A 
ATOM     83  C   UNL A   1      43.867  26.142  34.713  1.00  0.00     0.134 A 
ATOM     84  F   UNL A   1      45.678  29.079  33.575  1.00  0.00    -0.206 F 
ATOM     85  C   UNL A   1      46.406  27.257  34.866  1.00  0.00     0.040 A 
ATOM     86  C   UNL A   1      44.871  25.488  35.427  1.00  0.00     0.040 A 
ATOM     87  F   UNL A   1      42.655  25.569  34.664  1.00  0.00    -0.206 F 
ATOM     88  C   UNL A   1      46.147  26.044  35.501  1.00  0.00     0.006 A 
ENDBRANCH  64  81
ENDBRANCH  38  39
ENDBRANCH  31  33
ENDBRANCH  30  31
ENDBRANCH  29  30
ENDBRANCH  28  29
ENDBRANCH  27  28
ENDBRANCH  26  27
ENDBRANCH   1  26
TORSDOF 19
ENDMDL
