MODEL 1
REMARK VINA RESULT:     -11.9      0.000      0.000
REMARK SMILES CS(=O)(=O)Nc1ccc(-c2cc(Cl)cc3c2O[C@@H](C(F)(F)F)C(C(=O)OCCOCCOC(=O)c2ccc(-c4c5nc(c(-c6c(F)cccc6F)c6ccc([nH]6)c(-c6c(F)cccc6F)c6nc(c(-c7c(F)cccc7F)c7ccc4[nH]7)C=C6)C=C5)cc2)=C3)cc1
REMARK SMILES IDX 28 1 27 2 26 3 24 4 25 5 23 6 10 7 11 8 16 9 12 10 15 11
REMARK SMILES IDX 17 12 13 13 14 14 89 15 18 16 9 17 6 18 7 19 91 20 8 21
REMARK SMILES IDX 90 22 5 23 2 25 1 26 3 27 4 28 19 29 20 30 21 31 22 32 29 33
REMARK SMILES IDX 30 34 31 35 32 36 33 37 34 38 35 39 36 40 88 41 37 42 87 43
REMARK SMILES IDX 38 44 39 45 40 46 81 47 41 48 86 49 80 50 82 51 42 52 85 53
REMARK SMILES IDX 79 54 78 55 43 57 69 58 52 59 68 60 53 61 56 62 67 63 83 64
REMARK SMILES IDX 54 65 55 66 66 68 84 69 57 70 44 71 45 72 50 73 46 74 47 75
REMARK SMILES IDX 49 76 51 77 48 78 70 79 71 80 76 81 72 82 73 83 75 84 77 85
REMARK SMILES IDX 74 86 58 87 59 88 64 89 60 90 61 91 63 92 65 93 62 94
REMARK H PARENT 5 24 82 56 56 67
REMARK Flexibility Score: inf
ROOT
ATOM      1  C   UNL A   1      34.423  29.347  27.224  1.00  0.00     0.202 C 
ENDROOT
BRANCH   1   2
ATOM      2  C   UNL A   1      33.367  28.294  26.854  1.00  0.00     0.261 C 
BRANCH   2   3
ATOM      3  O   UNL A   1      33.814  27.375  25.847  1.00  0.00    -0.460 OA
BRANCH   3   4
ATOM      4  C   UNL A   1      33.415  27.641  24.588  1.00  0.00     0.338 C 
ATOM      5  O   UNL A   1      33.692  28.652  23.959  1.00  0.00    -0.246 OA
BRANCH   4   6
ATOM      6  C   UNL A   1      32.728  26.488  23.958  1.00  0.00     0.087 C 
ATOM      7  C   UNL A   1      33.678  22.708  25.409  1.00  0.00     0.026 A 
ATOM      8  C   UNL A   1      34.912  22.920  26.067  1.00  0.00     0.033 A 
ATOM      9  C   UNL A   1      33.186  23.832  24.712  1.00  0.00     0.135 A 
ATOM     10  C   UNL A   1      35.751  23.971  25.697  1.00  0.00     0.042 A 
ATOM     11  C   UNL A   1      34.103  24.735  24.144  1.00  0.00     0.019 A 
ATOM     12  O   UNL A   1      31.951  24.395  25.128  1.00  0.00    -0.475 OA
ATOM     13  Cl  UNL A   1      37.283  24.142  26.452  1.00  0.00    -0.084 Cl
ATOM     14  C   UNL A   1      35.392  24.819  24.659  1.00  0.00     0.032 A 
ATOM     15  C   UNL A   1      33.598  25.776  23.222  1.00  0.00     0.027 C 
ATOM     16  C   UNL A   1      31.562  25.691  24.509  1.00  0.00     0.316 C 
BRANCH   7  17
ATOM     17  C   UNL A   1      33.517  21.272  24.940  1.00  0.00    -0.014 A 
ATOM     18  C   UNL A   1      33.419  18.397  25.058  1.00  0.00     0.048 A 
ATOM     19  C   UNL A   1      32.275  19.173  25.258  1.00  0.00     0.027 A 
ATOM     20  C   UNL A   1      34.584  19.050  24.668  1.00  0.00     0.027 A 
ATOM     21  C   UNL A   1      32.315  20.577  25.175  1.00  0.00     0.011 A 
ATOM     22  C   UNL A   1      34.630  20.468  24.609  1.00  0.00     0.011 A 
BRANCH  18  23
ATOM     23  N   UNL A   1      33.323  17.029  25.456  1.00  0.00    -0.284 N 
ATOM     24  H   UNL A   1      32.734  16.851  26.224  1.00  0.00     0.180 HD
BRANCH  23  25
ATOM     25  S   UNL A   1      34.071  15.700  24.800  1.00  0.00     0.229 S 
ATOM     26  C   UNL A   1      35.732  15.764  25.446  1.00  0.00     0.183 C 
ATOM     27  O   UNL A   1      34.116  15.826  23.362  1.00  0.00    -0.207 OA
ATOM     28  O   UNL A   1      33.419  14.568  25.429  1.00  0.00    -0.207 OA
ENDBRANCH  23  25
ENDBRANCH  18  23
ENDBRANCH   7  17
BRANCH  16  29
ATOM     29  C   UNL A   1      30.504  26.524  25.268  1.00  0.00     0.430 C 
ATOM     30  F   UNL A   1      30.779  26.488  26.602  1.00  0.00    -0.167 F 
ATOM     31  F   UNL A   1      30.537  27.828  24.907  1.00  0.00    -0.167 F 
ATOM     32  F   UNL A   1      29.233  26.106  25.125  1.00  0.00    -0.167 F 
ENDBRANCH  16  29
ENDBRANCH   4   6
ENDBRANCH   3   4
ENDBRANCH   2   3
ENDBRANCH   1   2
BRANCH   1  33
ATOM     33  O   UNL A   1      34.027  30.710  27.303  1.00  0.00    -0.374 OA
BRANCH  33  34
ATOM     34  C   UNL A   1      32.674  31.037  26.991  1.00  0.00     0.202 C 
BRANCH  34  35
ATOM     35  C   UNL A   1      32.182  32.460  27.269  1.00  0.00     0.261 C 
BRANCH  35  36
ATOM     36  O   UNL A   1      33.225  33.447  27.239  1.00  0.00    -0.460 OA
BRANCH  36  37
ATOM     37  C   UNL A   1      33.315  34.207  28.355  1.00  0.00     0.338 C 
ATOM     38  O   UNL A   1      32.536  35.069  28.740  1.00  0.00    -0.246 OA
BRANCH  37  39
ATOM     39  C   UNL A   1      34.446  33.752  29.174  1.00  0.00     0.060 A 
ATOM     40  C   UNL A   1      35.726  34.219  28.851  1.00  0.00     0.016 A 
ATOM     41  C   UNL A   1      34.262  32.808  30.186  1.00  0.00     0.016 A 
ATOM     42  C   UNL A   1      36.836  33.725  29.528  1.00  0.00     0.010 A 
ATOM     43  C   UNL A   1      35.378  32.307  30.858  1.00  0.00     0.010 A 
ATOM     44  C   UNL A   1      36.670  32.744  30.516  1.00  0.00    -0.014 A 
BRANCH  44  45
ATOM     45  C   UNL A   1      37.858  32.107  31.127  1.00  0.00     0.031 A 
ATOM     46  C   UNL A   1      38.598  31.043  30.369  1.00  0.00     0.074 A 
ATOM     47  C   UNL A   1      38.264  32.474  32.354  1.00  0.00     0.049 A 
ATOM     48  N   UNL A   1      39.622  30.319  30.742  1.00  0.00    -0.248 NA
ATOM     49  C   UNL A   1      38.111  30.752  29.013  1.00  0.00     0.031 C 
ATOM     50  C   UNL A   1      37.633  33.506  33.173  1.00  0.00     0.029 A 
ATOM     51  N   UNL A   1      39.291  32.004  33.130  1.00  0.00    -0.354 N 
ATOM     52  C   UNL A   1      39.894  29.476  29.672  1.00  0.00     0.074 A 
ATOM     53  C   UNL A   1      38.908  29.758  28.650  1.00  0.00     0.031 C 
ATOM     54  C   UNL A   1      38.273  33.577  34.351  1.00  0.00     0.029 A 
ATOM     55  C   UNL A   1      39.333  32.571  34.378  1.00  0.00     0.049 A 
ATOM     56  H   UNL A   1      39.935  31.326  32.821  1.00  0.00     0.167 HD
ATOM     57  C   UNL A   1      40.879  28.553  29.555  1.00  0.00     0.037 A 
ATOM     58  C   UNL A   1      40.117  32.288  35.436  1.00  0.00     0.037 A 
ATOM     59  C   UNL A   1      41.850  28.276  30.584  1.00  0.00     0.049 A 
ATOM     60  C   UNL A   1      41.170  31.222  35.308  1.00  0.00     0.074 A 
ATOM     61  C   UNL A   1      42.918  27.398  30.549  1.00  0.00     0.029 A 
ATOM     62  N   UNL A   1      41.854  28.860  31.844  1.00  0.00    -0.354 N 
ATOM     63  N   UNL A   1      41.457  30.465  34.276  1.00  0.00    -0.248 NA
ATOM     64  C   UNL A   1      42.010  30.974  36.486  1.00  0.00     0.031 C 
ATOM     65  C   UNL A   1      43.526  27.399  31.809  1.00  0.00     0.029 A 
ATOM     66  C   UNL A   1      42.879  28.327  32.610  1.00  0.00     0.049 A 
ATOM     67  H   UNL A   1      41.222  29.550  32.148  1.00  0.00     0.167 HD
ATOM     68  C   UNL A   1      42.517  29.660  34.673  1.00  0.00     0.074 A 
ATOM     69  C   UNL A   1      42.834  30.038  36.037  1.00  0.00     0.031 C 
ATOM     70  C   UNL A   1      43.170  28.698  33.974  1.00  0.00     0.037 A 
BRANCH  57  71
ATOM     71  C   UNL A   1      40.919  27.748  28.286  1.00  0.00     0.057 A 
ATOM     72  C   UNL A   1      40.215  26.545  28.140  1.00  0.00     0.134 A 
ATOM     73  C   UNL A   1      41.681  28.184  27.194  1.00  0.00     0.134 A 
ATOM     74  F   UNL A   1      39.475  26.062  29.148  1.00  0.00    -0.206 F 
ATOM     75  C   UNL A   1      40.305  25.782  26.973  1.00  0.00     0.040 A 
ATOM     76  C   UNL A   1      41.752  27.447  26.011  1.00  0.00     0.040 A 
ATOM     77  F   UNL A   1      42.373  29.331  27.260  1.00  0.00    -0.206 F 
ATOM     78  C   UNL A   1      41.073  26.236  25.902  1.00  0.00     0.006 A 
ENDBRANCH  57  71
BRANCH  58  79
ATOM     79  C   UNL A   1      39.907  33.019  36.709  1.00  0.00     0.057 A 
ATOM     80  C   UNL A   1      40.664  34.148  37.034  1.00  0.00     0.134 A 
ATOM     81  C   UNL A   1      38.911  32.627  37.613  1.00  0.00     0.134 A 
ATOM     82  F   UNL A   1      41.646  34.561  36.219  1.00  0.00    -0.206 F 
ATOM     83  C   UNL A   1      40.438  34.864  38.212  1.00  0.00     0.040 A 
ATOM     84  C   UNL A   1      38.656  33.346  38.780  1.00  0.00     0.040 A 
ATOM     85  F   UNL A   1      38.148  31.554  37.354  1.00  0.00    -0.206 F 
ATOM     86  C   UNL A   1      39.423  34.469  39.083  1.00  0.00     0.006 A 
ENDBRANCH  58  79
BRANCH  70  87
ATOM     87  C   UNL A   1      44.298  27.990  34.669  1.00  0.00     0.057 A 
ATOM     88  C   UNL A   1      45.605  28.494  34.660  1.00  0.00     0.134 A 
ATOM     89  C   UNL A   1      44.067  26.811  35.391  1.00  0.00     0.134 A 
ATOM     90  F   UNL A   1      45.899  29.612  33.978  1.00  0.00    -0.206 F 
ATOM     91  C   UNL A   1      46.646  27.840  35.323  1.00  0.00     0.040 A 
ATOM     92  C   UNL A   1      45.092  26.165  36.083  1.00  0.00     0.040 A 
ATOM     93  F   UNL A   1      42.837  26.279  35.449  1.00  0.00    -0.206 F 
ATOM     94  C   UNL A   1      46.387  26.675  36.045  1.00  0.00     0.006 A 
ENDBRANCH  70  87
ENDBRANCH  44  45
ENDBRANCH  37  39
ENDBRANCH  36  37
ENDBRANCH  35  36
ENDBRANCH  34  35
ENDBRANCH  33  34
ENDBRANCH   1  33
TORSDOF 18
ENDMDL
MODEL 2
REMARK VINA RESULT:     -11.9      3.707      8.966
REMARK SMILES CS(=O)(=O)Nc1ccc(-c2cc(Cl)cc3c2O[C@@H](C(F)(F)F)C(C(=O)OCCOCCOC(=O)c2ccc(-c4c5nc(c(-c6c(F)cccc6F)c6ccc([nH]6)c(-c6c(F)cccc6F)c6nc(c(-c7c(F)cccc7F)c7ccc4[nH]7)C=C6)C=C5)cc2)=C3)cc1
REMARK SMILES IDX 28 1 27 2 26 3 24 4 25 5 23 6 10 7 11 8 16 9 12 10 15 11
REMARK SMILES IDX 17 12 13 13 14 14 89 15 18 16 9 17 6 18 7 19 91 20 8 21
REMARK SMILES IDX 90 22 5 23 2 25 1 26 3 27 4 28 19 29 20 30 21 31 22 32 29 33
REMARK SMILES IDX 30 34 31 35 32 36 33 37 34 38 35 39 36 40 88 41 37 42 87 43
REMARK SMILES IDX 38 44 39 45 40 46 81 47 41 48 86 49 80 50 82 51 42 52 85 53
REMARK SMILES IDX 79 54 78 55 43 57 69 58 52 59 68 60 53 61 56 62 67 63 83 64
REMARK SMILES IDX 54 65 55 66 66 68 84 69 57 70 44 71 45 72 50 73 46 74 47 75
REMARK SMILES IDX 49 76 51 77 48 78 70 79 71 80 76 81 72 82 73 83 75 84 77 85
REMARK SMILES IDX 74 86 58 87 59 88 64 89 60 90 61 91 63 92 65 93 62 94
REMARK H PARENT 5 24 82 56 56 67
REMARK Flexibility Score: inf
ROOT
ATOM      1  C   UNL A   1      40.578  19.724  26.195  1.00  0.00     0.202 C 
ENDROOT
BRANCH   1   2
ATOM      2  C   UNL A   1      39.121  19.652  25.710  1.00  0.00     0.261 C 
BRANCH   2   3
ATOM      3  O   UNL A   1      38.750  20.755  24.869  1.00  0.00    -0.460 OA
BRANCH   3   4
ATOM      4  C   UNL A   1      37.527  21.277  25.088  1.00  0.00     0.338 C 
ATOM      5  O   UNL A   1      36.660  20.773  25.787  1.00  0.00    -0.246 OA
BRANCH   4   6
ATOM      6  C   UNL A   1      37.386  22.639  24.520  1.00  0.00     0.087 C 
ATOM      7  C   UNL A   1      33.715  24.524  25.037  1.00  0.00     0.026 A 
ATOM      8  C   UNL A   1      32.843  23.449  25.329  1.00  0.00     0.033 A 
ATOM      9  C   UNL A   1      35.028  24.135  24.693  1.00  0.00     0.135 A 
ATOM     10  C   UNL A   1      33.129  22.155  24.893  1.00  0.00     0.042 A 
ATOM     11  C   UNL A   1      35.223  22.913  24.026  1.00  0.00     0.019 A 
ATOM     12  O   UNL A   1      36.094  24.551  25.533  1.00  0.00    -0.475 OA
ATOM     13  Cl  UNL A   1      32.003  20.892  25.183  1.00  0.00    -0.084 Cl
ATOM     14  C   UNL A   1      34.272  21.906  24.148  1.00  0.00     0.032 A 
ATOM     15  C   UNL A   1      36.558  22.616  23.462  1.00  0.00     0.027 C 
ATOM     16  C   UNL A   1      37.432  23.961  25.261  1.00  0.00     0.316 C 
BRANCH   7  17
ATOM     17  C   UNL A   1      32.984  25.705  24.423  1.00  0.00    -0.014 A 
ATOM     18  C   UNL A   1      30.798  27.307  23.450  1.00  0.00     0.048 A 
ATOM     19  C   UNL A   1      31.235  27.399  24.774  1.00  0.00     0.027 A 
ATOM     20  C   UNL A   1      31.536  26.513  22.578  1.00  0.00     0.027 A 
ATOM     21  C   UNL A   1      32.320  26.637  25.245  1.00  0.00     0.011 A 
ATOM     22  C   UNL A   1      32.615  25.724  23.059  1.00  0.00     0.011 A 
BRANCH  18  23
ATOM     23  N   UNL A   1      29.525  27.891  23.171  1.00  0.00    -0.284 N 
ATOM     24  H   UNL A   1      28.751  27.292  23.276  1.00  0.00     0.180 HD
BRANCH  23  25
ATOM     25  S   UNL A   1      29.176  29.443  22.695  1.00  0.00     0.229 S 
ATOM     26  C   UNL A   1      27.404  29.567  22.864  1.00  0.00     0.183 C 
ATOM     27  O   UNL A   1      29.534  29.620  21.307  1.00  0.00    -0.207 OA
ATOM     28  O   UNL A   1      29.756  30.279  23.728  1.00  0.00    -0.207 OA
ENDBRANCH  23  25
ENDBRANCH  18  23
ENDBRANCH   7  17
BRANCH  16  29
ATOM     29  C   UNL A   1      38.460  24.027  26.413  1.00  0.00     0.430 C 
ATOM     30  F   UNL A   1      39.267  22.930  26.355  1.00  0.00    -0.167 F 
ATOM     31  F   UNL A   1      39.273  25.103  26.302  1.00  0.00    -0.167 F 
ATOM     32  F   UNL A   1      37.935  24.053  27.652  1.00  0.00    -0.167 F 
ENDBRANCH  16  29
ENDBRANCH   4   6
ENDBRANCH   3   4
ENDBRANCH   2   3
ENDBRANCH   1   2
BRANCH   1  33
ATOM     33  O   UNL A   1      41.392  20.799  25.746  1.00  0.00    -0.374 OA
BRANCH  33  34
ATOM     34  C   UNL A   1      42.800  20.709  25.950  1.00  0.00     0.202 C 
BRANCH  34  35
ATOM     35  C   UNL A   1      43.709  21.716  25.240  1.00  0.00     0.261 C 
BRANCH  35  36
ATOM     36  O   UNL A   1      43.055  22.953  24.915  1.00  0.00    -0.460 OA
BRANCH  36  37
ATOM     37  C   UNL A   1      43.815  24.058  25.098  1.00  0.00     0.338 C 
ATOM     38  O   UNL A   1      44.828  24.380  24.491  1.00  0.00    -0.246 OA
BRANCH  37  39
ATOM     39  C   UNL A   1      43.165  24.951  26.066  1.00  0.00     0.060 A 
ATOM     40  C   UNL A   1      43.482  26.314  26.023  1.00  0.00     0.016 A 
ATOM     41  C   UNL A   1      42.327  24.441  27.059  1.00  0.00     0.016 A 
ATOM     42  C   UNL A   1      42.977  27.175  26.993  1.00  0.00     0.010 A 
ATOM     43  C   UNL A   1      41.829  25.305  28.036  1.00  0.00     0.010 A 
ATOM     44  C   UNL A   1      42.172  26.669  28.022  1.00  0.00    -0.014 A 
BRANCH  44  45
ATOM     45  C   UNL A   1      41.761  27.552  29.137  1.00  0.00     0.031 A 
ATOM     46  C   UNL A   1      42.478  27.460  30.453  1.00  0.00     0.074 A 
ATOM     47  C   UNL A   1      40.750  28.420  28.973  1.00  0.00     0.049 A 
ATOM     48  N   UNL A   1      42.243  28.095  31.572  1.00  0.00    -0.248 NA
ATOM     49  C   UNL A   1      43.607  26.519  30.516  1.00  0.00     0.031 C 
ATOM     50  C   UNL A   1      39.996  28.606  27.736  1.00  0.00     0.029 A 
ATOM     51  N   UNL A   1      40.174  29.293  29.859  1.00  0.00    -0.354 N 
ATOM     52  C   UNL A   1      43.183  27.621  32.477  1.00  0.00     0.074 A 
ATOM     53  C   UNL A   1      43.972  26.625  31.784  1.00  0.00     0.031 C 
ATOM     54  C   UNL A   1      39.036  29.522  27.947  1.00  0.00     0.029 A 
ATOM     55  C   UNL A   1      39.090  29.956  29.342  1.00  0.00     0.049 A 
ATOM     56  H   UNL A   1      40.506  29.431  30.776  1.00  0.00     0.167 HD
ATOM     57  C   UNL A   1      43.371  27.988  33.768  1.00  0.00     0.037 A 
ATOM     58  C   UNL A   1      38.219  30.793  29.935  1.00  0.00     0.037 A 
ATOM     59  C   UNL A   1      42.573  28.977  34.449  1.00  0.00     0.049 A 
ATOM     60  C   UNL A   1      38.409  31.148  31.383  1.00  0.00     0.074 A 
ATOM     61  C   UNL A   1      42.710  29.457  35.738  1.00  0.00     0.029 A 
ATOM     62  N   UNL A   1      41.472  29.618  33.898  1.00  0.00    -0.354 N 
ATOM     63  N   UNL A   1      39.331  30.738  32.220  1.00  0.00    -0.248 NA
ATOM     64  C   UNL A   1      37.440  32.084  31.970  1.00  0.00     0.031 C 
ATOM     65  C   UNL A   1      41.652  30.339  35.991  1.00  0.00     0.029 A 
ATOM     66  C   UNL A   1      40.893  30.458  34.837  1.00  0.00     0.049 A 
ATOM     67  H   UNL A   1      41.149  29.495  32.976  1.00  0.00     0.167 HD
ATOM     68  C   UNL A   1      39.066  31.373  33.427  1.00  0.00     0.074 A 
ATOM     69  C   UNL A   1      37.905  32.213  33.205  1.00  0.00     0.031 C 
ATOM     70  C   UNL A   1      39.724  31.273  34.609  1.00  0.00     0.037 A 
BRANCH  57  71
ATOM     71  C   UNL A   1      44.453  27.279  34.533  1.00  0.00     0.057 A 
ATOM     72  C   UNL A   1      45.768  27.761  34.593  1.00  0.00     0.134 A 
ATOM     73  C   UNL A   1      44.174  26.087  35.215  1.00  0.00     0.134 A 
ATOM     74  F   UNL A   1      46.108  28.890  33.954  1.00  0.00    -0.206 F 
ATOM     75  C   UNL A   1      46.774  27.063  35.264  1.00  0.00     0.040 A 
ATOM     76  C   UNL A   1      45.164  25.397  35.917  1.00  0.00     0.040 A 
ATOM     77  F   UNL A   1      42.936  25.571  35.208  1.00  0.00    -0.206 F 
ATOM     78  C   UNL A   1      46.471  25.878  35.932  1.00  0.00     0.006 A 
ENDBRANCH  57  71
BRANCH  58  79
ATOM     79  C   UNL A   1      37.078  31.327  29.150  1.00  0.00     0.057 A 
ATOM     80  C   UNL A   1      35.941  30.553  28.899  1.00  0.00     0.134 A 
ATOM     81  C   UNL A   1      37.083  32.642  28.669  1.00  0.00     0.134 A 
ATOM     82  F   UNL A   1      35.886  29.279  29.317  1.00  0.00    -0.206 F 
ATOM     83  C   UNL A   1      34.848  31.068  28.199  1.00  0.00     0.040 A 
ATOM     84  C   UNL A   1      35.990  33.178  27.990  1.00  0.00     0.040 A 
ATOM     85  F   UNL A   1      38.144  33.436  28.882  1.00  0.00    -0.206 F 
ATOM     86  C   UNL A   1      34.867  32.388  27.752  1.00  0.00     0.006 A 
ENDBRANCH  58  79
BRANCH  70  87
ATOM     87  C   UNL A   1      39.208  32.097  35.754  1.00  0.00     0.057 A 
ATOM     88  C   UNL A   1      38.325  31.570  36.706  1.00  0.00     0.134 A 
ATOM     89  C   UNL A   1      39.631  33.421  35.930  1.00  0.00     0.134 A 
ATOM     90  F   UNL A   1      37.870  30.313  36.590  1.00  0.00    -0.206 F 
ATOM     91  C   UNL A   1      37.863  32.338  37.777  1.00  0.00     0.040 A 
ATOM     92  C   UNL A   1      39.200  34.188  37.014  1.00  0.00     0.040 A 
ATOM     93  F   UNL A   1      40.483  33.985  35.061  1.00  0.00    -0.206 F 
ATOM     94  C   UNL A   1      38.309  33.649  37.938  1.00  0.00     0.006 A 
ENDBRANCH  70  87
ENDBRANCH  44  45
ENDBRANCH  37  39
ENDBRANCH  36  37
ENDBRANCH  35  36
ENDBRANCH  34  35
ENDBRANCH  33  34
ENDBRANCH   1  33
TORSDOF 18
ENDMDL
MODEL 3
REMARK VINA RESULT:     -11.7      3.733      8.804
REMARK SMILES CS(=O)(=O)Nc1ccc(-c2cc(Cl)cc3c2O[C@@H](C(F)(F)F)C(C(=O)OCCOCCOC(=O)c2ccc(-c4c5nc(c(-c6c(F)cccc6F)c6ccc([nH]6)c(-c6c(F)cccc6F)c6nc(c(-c7c(F)cccc7F)c7ccc4[nH]7)C=C6)C=C5)cc2)=C3)cc1
REMARK SMILES IDX 28 1 27 2 26 3 24 4 25 5 23 6 10 7 11 8 16 9 12 10 15 11
REMARK SMILES IDX 17 12 13 13 14 14 89 15 18 16 9 17 6 18 7 19 91 20 8 21
REMARK SMILES IDX 90 22 5 23 2 25 1 26 3 27 4 28 19 29 20 30 21 31 22 32 29 33
REMARK SMILES IDX 30 34 31 35 32 36 33 37 34 38 35 39 36 40 88 41 37 42 87 43
REMARK SMILES IDX 38 44 39 45 40 46 81 47 41 48 86 49 80 50 82 51 42 52 85 53
REMARK SMILES IDX 79 54 78 55 43 57 69 58 52 59 68 60 53 61 56 62 67 63 83 64
REMARK SMILES IDX 54 65 55 66 66 68 84 69 57 70 44 71 45 72 50 73 46 74 47 75
REMARK SMILES IDX 49 76 51 77 48 78 70 79 71 80 76 81 72 82 73 83 75 84 77 85
REMARK SMILES IDX 74 86 58 87 59 88 64 89 60 90 61 91 63 92 65 93 62 94
REMARK H PARENT 5 24 82 56 56 67
REMARK Flexibility Score: inf
ROOT
ATOM      1  C   UNL A   1      37.827  20.871  25.465  1.00  0.00     0.202 C 
ENDROOT
BRANCH   1   2
ATOM      2  C   UNL A   1      36.630  21.342  24.624  1.00  0.00     0.261 C 
BRANCH   2   3
ATOM      3  O   UNL A   1      36.088  22.596  25.066  1.00  0.00    -0.460 OA
BRANCH   3   4
ATOM      4  C   UNL A   1      34.830  22.867  24.666  1.00  0.00     0.338 C 
ATOM      5  O   UNL A   1      34.196  22.221  23.843  1.00  0.00    -0.246 OA
BRANCH   4   6
ATOM      6  C   UNL A   1      34.208  23.955  25.459  1.00  0.00     0.087 C 
ATOM      7  C   UNL A   1      31.152  26.105  23.634  1.00  0.00     0.026 A 
ATOM      8  C   UNL A   1      31.347  25.834  22.260  1.00  0.00     0.033 A 
ATOM      9  C   UNL A   1      32.151  25.580  24.482  1.00  0.00     0.135 A 
ATOM     10  C   UNL A   1      32.605  25.478  21.771  1.00  0.00     0.042 A 
ATOM     11  C   UNL A   1      33.468  25.477  23.999  1.00  0.00     0.019 A 
ATOM     12  O   UNL A   1      31.774  24.607  25.444  1.00  0.00    -0.475 OA
ATOM     13  Cl  UNL A   1      32.826  25.248  20.084  1.00  0.00    -0.084 Cl
ATOM     14  C   UNL A   1      33.692  25.403  22.628  1.00  0.00     0.032 A 
ATOM     15  C   UNL A   1      34.551  25.151  24.952  1.00  0.00     0.027 C 
ATOM     16  C   UNL A   1      32.876  23.930  26.180  1.00  0.00     0.316 C 
BRANCH   7  17
ATOM     17  C   UNL A   1      30.446  27.430  23.862  1.00  0.00    -0.014 A 
ATOM     18  C   UNL A   1      29.767  30.209  23.534  1.00  0.00     0.048 A 
ATOM     19  C   UNL A   1      29.108  29.209  22.815  1.00  0.00     0.027 A 
ATOM     20  C   UNL A   1      30.673  29.813  24.513  1.00  0.00     0.027 A 
ATOM     21  C   UNL A   1      29.420  27.849  22.993  1.00  0.00     0.011 A 
ATOM     22  C   UNL A   1      31.006  28.442  24.674  1.00  0.00     0.011 A 
BRANCH  18  23
ATOM     23  N   UNL A   1      29.582  31.543  23.061  1.00  0.00    -0.284 N 
ATOM     24  H   UNL A   1      30.402  32.077  22.962  1.00  0.00     0.180 HD
BRANCH  23  25
ATOM     25  S   UNL A   1      28.169  32.315  22.654  1.00  0.00     0.229 S 
ATOM     26  C   UNL A   1      27.888  31.855  20.954  1.00  0.00     0.183 C 
ATOM     27  O   UNL A   1      28.353  33.746  22.734  1.00  0.00    -0.207 OA
ATOM     28  O   UNL A   1      27.151  31.650  23.443  1.00  0.00    -0.207 OA
ENDBRANCH  23  25
ENDBRANCH  18  23
ENDBRANCH   7  17
BRANCH  16  29
ATOM     29  C   UNL A   1      32.525  22.584  26.855  1.00  0.00     0.430 C 
ATOM     30  F   UNL A   1      33.669  21.999  27.308  1.00  0.00    -0.167 F 
ATOM     31  F   UNL A   1      31.732  22.756  27.938  1.00  0.00    -0.167 F 
ATOM     32  F   UNL A   1      31.920  21.682  26.060  1.00  0.00    -0.167 F 
ENDBRANCH  16  29
ENDBRANCH   4   6
ENDBRANCH   3   4
ENDBRANCH   2   3
ENDBRANCH   1   2
BRANCH   1  33
ATOM     33  O   UNL A   1      38.930  21.753  25.632  1.00  0.00    -0.374 OA
BRANCH  33  34
ATOM     34  C   UNL A   1      40.043  21.302  26.401  1.00  0.00     0.202 C 
BRANCH  34  35
ATOM     35  C   UNL A   1      41.320  22.146  26.406  1.00  0.00     0.261 C 
BRANCH  35  36
ATOM     36  O   UNL A   1      41.123  23.491  25.943  1.00  0.00    -0.460 OA
BRANCH  36  37
ATOM     37  C   UNL A   1      42.181  24.313  26.131  1.00  0.00     0.338 C 
ATOM     38  O   UNL A   1      43.272  24.270  25.577  1.00  0.00    -0.246 OA
BRANCH  37  39
ATOM     39  C   UNL A   1      41.799  25.416  27.022  1.00  0.00     0.060 A 
ATOM     40  C   UNL A   1      42.545  26.600  26.965  1.00  0.00     0.016 A 
ATOM     41  C   UNL A   1      40.781  25.256  27.963  1.00  0.00     0.016 A 
ATOM     42  C   UNL A   1      42.289  27.626  27.870  1.00  0.00     0.010 A 
ATOM     43  C   UNL A   1      40.532  26.282  28.875  1.00  0.00     0.010 A 
ATOM     44  C   UNL A   1      41.301  27.460  28.849  1.00  0.00    -0.014 A 
BRANCH  44  45
ATOM     45  C   UNL A   1      41.132  28.483  29.906  1.00  0.00     0.031 A 
ATOM     46  C   UNL A   1      42.028  28.455  31.110  1.00  0.00     0.074 A 
ATOM     47  C   UNL A   1      40.179  29.423  29.789  1.00  0.00     0.049 A 
ATOM     48  N   UNL A   1      42.012  29.217  32.173  1.00  0.00    -0.248 NA
ATOM     49  C   UNL A   1      43.075  27.423  31.119  1.00  0.00     0.031 C 
ATOM     50  C   UNL A   1      39.266  29.556  28.656  1.00  0.00     0.029 A 
ATOM     51  N   UNL A   1      39.812  30.429  30.643  1.00  0.00    -0.354 N 
ATOM     52  C   UNL A   1      43.037  28.749  32.985  1.00  0.00     0.074 A 
ATOM     53  C   UNL A   1      43.633  27.619  32.304  1.00  0.00     0.031 C 
ATOM     54  C   UNL A   1      38.424  30.574  28.896  1.00  0.00     0.029 A 
ATOM     55  C   UNL A   1      38.719  31.136  30.212  1.00  0.00     0.049 A 
ATOM     56  H   UNL A   1      40.287  30.625  31.484  1.00  0.00     0.167 HD
ATOM     57  C   UNL A   1      43.443  29.222  34.188  1.00  0.00     0.037 A 
ATOM     58  C   UNL A   1      38.014  32.107  30.824  1.00  0.00     0.037 A 
ATOM     59  C   UNL A   1      42.836  30.344  34.859  1.00  0.00     0.049 A 
ATOM     60  C   UNL A   1      38.445  32.584  32.184  1.00  0.00     0.074 A 
ATOM     61  C   UNL A   1      43.201  30.935  36.055  1.00  0.00     0.029 A 
ATOM     62  N   UNL A   1      41.719  31.029  34.400  1.00  0.00    -0.354 N 
ATOM     63  N   UNL A   1      39.448  32.173  32.923  1.00  0.00    -0.248 NA
ATOM     64  C   UNL A   1      37.652  33.660  32.792  1.00  0.00     0.031 C 
ATOM     65  C   UNL A   1      42.266  31.932  36.353  1.00  0.00     0.029 A 
ATOM     66  C   UNL A   1      41.355  32.007  35.311  1.00  0.00     0.049 A 
ATOM     67  H   UNL A   1      41.254  30.846  33.552  1.00  0.00     0.167 HD
ATOM     68  C   UNL A   1      39.416  32.947  34.077  1.00  0.00     0.074 A 
ATOM     69  C   UNL A   1      38.304  33.866  33.928  1.00  0.00     0.031 C 
ATOM     70  C   UNL A   1      40.233  32.902  35.159  1.00  0.00     0.037 A 
BRANCH  57  71
ATOM     71  C   UNL A   1      44.569  28.493  34.868  1.00  0.00     0.057 A 
ATOM     72  C   UNL A   1      45.912  28.842  34.676  1.00  0.00     0.134 A 
ATOM     73  C   UNL A   1      44.300  27.418  35.726  1.00  0.00     0.134 A 
ATOM     74  F   UNL A   1      46.243  29.853  33.859  1.00  0.00    -0.206 F 
ATOM     75  C   UNL A   1      46.948  28.121  35.274  1.00  0.00     0.040 A 
ATOM     76  C   UNL A   1      45.326  26.710  36.355  1.00  0.00     0.040 A 
ATOM     77  F   UNL A   1      43.037  27.034  35.963  1.00  0.00    -0.206 F 
ATOM     78  C   UNL A   1      46.655  27.053  36.120  1.00  0.00     0.006 A 
ENDBRANCH  57  71
BRANCH  58  79
ATOM     79  C   UNL A   1      36.816  32.665  30.153  1.00  0.00     0.057 A 
ATOM     80  C   UNL A   1      35.526  32.253  30.503  1.00  0.00     0.134 A 
ATOM     81  C   UNL A   1      36.932  33.658  29.171  1.00  0.00     0.134 A 
ATOM     82  F   UNL A   1      35.351  31.292  31.421  1.00  0.00    -0.206 F 
ATOM     83  C   UNL A   1      34.394  32.809  29.904  1.00  0.00     0.040 A 
ATOM     84  C   UNL A   1      35.811  34.240  28.582  1.00  0.00     0.040 A 
ATOM     85  F   UNL A   1      38.142  34.098  28.796  1.00  0.00    -0.206 F 
ATOM     86  C   UNL A   1      34.536  33.814  28.947  1.00  0.00     0.006 A 
ENDBRANCH  58  79
BRANCH  70  87
ATOM     87  C   UNL A   1      39.960  33.880  36.266  1.00  0.00     0.057 A 
ATOM     88  C   UNL A   1      40.427  35.200  36.219  1.00  0.00     0.134 A 
ATOM     89  C   UNL A   1      39.184  33.510  37.373  1.00  0.00     0.134 A 
ATOM     90  F   UNL A   1      41.186  35.618  35.194  1.00  0.00    -0.206 F 
ATOM     91  C   UNL A   1      40.154  36.109  37.244  1.00  0.00     0.040 A 
ATOM     92  C   UNL A   1      38.879  34.418  38.388  1.00  0.00     0.040 A 
ATOM     93  F   UNL A   1      38.696  32.265  37.477  1.00  0.00    -0.206 F 
ATOM     94  C   UNL A   1      39.370  35.720  38.329  1.00  0.00     0.006 A 
ENDBRANCH  70  87
ENDBRANCH  44  45
ENDBRANCH  37  39
ENDBRANCH  36  37
ENDBRANCH  35  36
ENDBRANCH  34  35
ENDBRANCH  33  34
ENDBRANCH   1  33
TORSDOF 18
ENDMDL
