MODEL 1
REMARK VINA RESULT:     -10.7      0.000      0.000
REMARK SMILES CC(C)[C@@H](NC(=O)[C@@H]1CC[C@H]2CCCC[C@@H]2[NH2+]1)C(=O)OCCOCCOC(=O)c1ccc(-c2c3nc(c(-c4c(F)cccc4F)c4ccc([nH]4)c(-c4c(F)cccc4F)c4nc(c(-c5c(F)cccc5F)c5ccc2[nH]5)C=C4)C=C3)cc1
REMARK SMILES IDX 23 1 22 2 21 3 20 4 18 5 19 6 4 7 2 8 1 9 3 10 5 11 6 12
REMARK SMILES IDX 7 14 8 15 9 16 17 17 10 18 16 19 11 22 15 23 12 24 14 25
REMARK SMILES IDX 13 26 24 27 25 28 26 29 27 30 28 31 29 32 30 33 82 34 31 35
REMARK SMILES IDX 81 36 32 37 33 38 34 39 75 40 35 41 80 42 74 43 76 44 36 45
REMARK SMILES IDX 79 46 73 47 72 48 37 50 63 51 46 52 62 53 47 54 50 55 61 56
REMARK SMILES IDX 77 57 48 58 49 59 60 61 78 62 51 63 38 64 39 65 44 66 40 67
REMARK SMILES IDX 41 68 43 69 45 70 42 71 64 72 65 73 70 74 66 75 67 76 69 77
REMARK SMILES IDX 71 78 68 79 52 80 53 81 58 82 54 83 55 84 57 85 59 86 56 87
REMARK H PARENT 5 13 17 20 17 21 76 49 50 60
REMARK Flexibility Score: inf
ROOT
ATOM      1  O   UNL A   1      43.536  20.718  25.105  1.00  0.00    -0.374 OA
ENDROOT
BRANCH   1   2
ATOM      2  C   UNL A   1      42.869  19.653  25.753  1.00  0.00     0.202 C 
BRANCH   2   3
ATOM      3  C   UNL A   1      41.394  19.763  26.171  1.00  0.00     0.261 C 
BRANCH   3   4
ATOM      4  O   UNL A   1      40.582  20.920  25.919  1.00  0.00    -0.462 OA
BRANCH   4   5
ATOM      5  C   UNL A   1      40.319  21.715  26.988  1.00  0.00     0.328 C 
ATOM      6  O   UNL A   1      40.930  21.671  28.050  1.00  0.00    -0.250 OA
BRANCH   5   7
ATOM      7  C   UNL A   1      39.248  22.788  26.756  1.00  0.00     0.195 C 
BRANCH   7   8
ATOM      8  C   UNL A   1      39.785  24.205  27.125  1.00  0.00     0.017 C 
ATOM      9  C   UNL A   1      40.081  25.016  25.852  1.00  0.00     0.010 C 
ATOM     10  C   UNL A   1      38.820  25.026  27.993  1.00  0.00     0.010 C 
ENDBRANCH   7   8
BRANCH   7  11
ATOM     11  N   UNL A   1      38.587  22.797  25.432  1.00  0.00    -0.337 N 
ATOM     12  C   UNL A   1      37.225  22.734  25.199  1.00  0.00     0.278 C 
ATOM     13  H   UNL A   1      39.172  22.853  24.642  1.00  0.00     0.164 HD
ATOM     14  O   UNL A   1      36.767  23.494  24.342  1.00  0.00    -0.268 OA
BRANCH  12  15
ATOM     15  C   UNL A   1      36.385  21.585  25.819  1.00  0.00     0.272 C 
ATOM     16  C   UNL A   1      35.820  20.541  24.836  1.00  0.00     0.076 C 
ATOM     17  N   UNL A   1      35.393  22.066  26.776  1.00  0.00    -0.333 N 
ATOM     18  C   UNL A   1      34.295  20.588  24.663  1.00  0.00     0.016 C 
ATOM     19  C   UNL A   1      34.072  22.438  26.295  1.00  0.00     0.186 C 
ATOM     20  H   UNL A   1      35.789  22.890  27.228  1.00  0.00     0.347 HD
ATOM     21  H   UNL A   1      35.218  21.259  27.374  1.00  0.00     0.347 HD
ATOM     22  C   UNL A   1      33.788  22.012  24.858  1.00  0.00     0.048 C 
ATOM     23  C   UNL A   1      33.765  23.928  26.472  1.00  0.00     0.065 C 
ATOM     24  C   UNL A   1      32.284  22.172  24.612  1.00  0.00     0.010 C 
ATOM     25  C   UNL A   1      32.291  24.194  26.176  1.00  0.00     0.006 C 
ATOM     26  C   UNL A   1      31.857  23.630  24.823  1.00  0.00     0.001 C 
ENDBRANCH  12  15
ENDBRANCH   7  11
ENDBRANCH   5   7
ENDBRANCH   4   5
ENDBRANCH   3   4
ENDBRANCH   2   3
ENDBRANCH   1   2
BRANCH   1  27
ATOM     27  C   UNL A   1      44.965  20.731  25.068  1.00  0.00     0.202 C 
BRANCH  27  28
ATOM     28  C   UNL A   1      45.707  22.021  25.406  1.00  0.00     0.261 C 
BRANCH  28  29
ATOM     29  O   UNL A   1      44.883  22.874  26.221  1.00  0.00    -0.460 OA
BRANCH  29  30
ATOM     30  C   UNL A   1      44.881  24.171  25.834  1.00  0.00     0.338 C 
ATOM     31  O   UNL A   1      45.380  24.642  24.825  1.00  0.00    -0.246 OA
BRANCH  30  32
ATOM     32  C   UNL A   1      43.939  24.928  26.678  1.00  0.00     0.060 A 
ATOM     33  C   UNL A   1      43.784  26.292  26.391  1.00  0.00     0.016 A 
ATOM     34  C   UNL A   1      43.261  24.341  27.747  1.00  0.00     0.016 A 
ATOM     35  C   UNL A   1      43.007  27.094  27.215  1.00  0.00     0.010 A 
ATOM     36  C   UNL A   1      42.507  25.154  28.598  1.00  0.00     0.010 A 
ATOM     37  C   UNL A   1      42.422  26.538  28.359  1.00  0.00    -0.014 A 
BRANCH  37  38
ATOM     38  C   UNL A   1      41.945  27.452  29.418  1.00  0.00     0.031 A 
ATOM     39  C   UNL A   1      42.707  27.487  30.714  1.00  0.00     0.074 A 
ATOM     40  C   UNL A   1      40.904  28.276  29.213  1.00  0.00     0.049 A 
ATOM     41  N   UNL A   1      42.485  28.195  31.790  1.00  0.00    -0.248 NA
ATOM     42  C   UNL A   1      43.887  26.611  30.801  1.00  0.00     0.031 C 
ATOM     43  C   UNL A   1      40.144  28.385  27.971  1.00  0.00     0.029 A 
ATOM     44  N   UNL A   1      40.314  29.181  30.056  1.00  0.00    -0.354 N 
ATOM     45  C   UNL A   1      43.502  27.859  32.675  1.00  0.00     0.074 A 
ATOM     46  C   UNL A   1      44.325  26.865  32.024  1.00  0.00     0.031 C 
ATOM     47  C   UNL A   1      39.174  29.301  28.137  1.00  0.00     0.029 A 
ATOM     48  C   UNL A   1      39.227  29.813  29.506  1.00  0.00     0.049 A 
ATOM     49  H   UNL A   1      40.638  29.361  30.969  1.00  0.00     0.167 HD
ATOM     50  C   UNL A   1      43.730  28.340  33.918  1.00  0.00     0.037 A 
ATOM     51  C   UNL A   1      38.361  30.683  30.061  1.00  0.00     0.037 A 
ATOM     52  C   UNL A   1      42.893  29.308  34.571  1.00  0.00     0.049 A 
ATOM     53  C   UNL A   1      38.552  31.093  31.497  1.00  0.00     0.074 A 
ATOM     54  C   UNL A   1      43.034  29.864  35.830  1.00  0.00     0.029 A 
ATOM     55  N   UNL A   1      41.744  29.851  34.017  1.00  0.00    -0.354 N 
ATOM     56  N   UNL A   1      39.520  30.782  32.326  1.00  0.00    -0.248 NA
ATOM     57  C   UNL A   1      37.521  31.965  32.080  1.00  0.00     0.031 C 
ATOM     58  C   UNL A   1      41.938  30.703  36.058  1.00  0.00     0.029 A 
ATOM     59  C   UNL A   1      41.140  30.703  34.924  1.00  0.00     0.049 A 
ATOM     60  H   UNL A   1      41.407  29.658  33.112  1.00  0.00     0.167 HD
ATOM     61  C   UNL A   1      39.224  31.427  33.520  1.00  0.00     0.074 A 
ATOM     62  C   UNL A   1      37.994  32.160  33.305  1.00  0.00     0.031 C 
ATOM     63  C   UNL A   1      39.909  31.416  34.690  1.00  0.00     0.037 A 
BRANCH  50  64
ATOM     64  C   UNL A   1      44.910  27.785  34.659  1.00  0.00     0.057 A 
ATOM     65  C   UNL A   1      44.804  26.651  35.474  1.00  0.00     0.134 A 
ATOM     66  C   UNL A   1      46.165  28.396  34.557  1.00  0.00     0.134 A 
ATOM     67  F   UNL A   1      43.623  26.034  35.631  1.00  0.00    -0.206 F 
ATOM     68  C   UNL A   1      45.902  26.157  36.181  1.00  0.00     0.040 A 
ATOM     69  C   UNL A   1      47.275  27.898  35.241  1.00  0.00     0.040 A 
ATOM     70  F   UNL A   1      46.332  29.488  33.795  1.00  0.00    -0.206 F 
ATOM     71  C   UNL A   1      47.143  26.778  36.060  1.00  0.00     0.006 A 
ENDBRANCH  50  64
BRANCH  51  72
ATOM     72  C   UNL A   1      37.215  31.193  29.271  1.00  0.00     0.057 A 
ATOM     73  C   UNL A   1      36.087  30.402  29.033  1.00  0.00     0.134 A 
ATOM     74  C   UNL A   1      37.226  32.483  28.725  1.00  0.00     0.134 A 
ATOM     75  F   UNL A   1      36.029  29.149  29.508  1.00  0.00    -0.206 F 
ATOM     76  C   UNL A   1      35.012  30.871  28.275  1.00  0.00     0.040 A 
ATOM     77  C   UNL A   1      36.149  32.973  27.984  1.00  0.00     0.040 A 
ATOM     78  F   UNL A   1      38.281  33.289  28.913  1.00  0.00    -0.206 F 
ATOM     79  C   UNL A   1      35.039  32.164  27.754  1.00  0.00     0.006 A 
ENDBRANCH  51  72
BRANCH  63  80
ATOM     80  C   UNL A   1      39.347  32.217  35.826  1.00  0.00     0.057 A 
ATOM     81  C   UNL A   1      39.713  33.552  36.032  1.00  0.00     0.134 A 
ATOM     82  C   UNL A   1      38.385  31.668  36.683  1.00  0.00     0.134 A 
ATOM     83  F   UNL A   1      40.639  34.131  35.253  1.00  0.00    -0.206 F 
ATOM     84  C   UNL A   1      39.148  34.311  37.058  1.00  0.00     0.040 A 
ATOM     85  C   UNL A   1      37.797  32.423  37.697  1.00  0.00     0.040 A 
ATOM     86  F   UNL A   1      37.986  30.395  36.532  1.00  0.00    -0.206 F 
ATOM     87  C   UNL A   1      38.180  33.748  37.888  1.00  0.00     0.006 A 
ENDBRANCH  63  80
ENDBRANCH  37  38
ENDBRANCH  30  32
ENDBRANCH  29  30
ENDBRANCH  28  29
ENDBRANCH  27  28
ENDBRANCH   1  27
TORSDOF 17
ENDMDL
MODEL 2
REMARK VINA RESULT:     -10.5      3.547      8.727
REMARK SMILES CC(C)[C@@H](NC(=O)[C@@H]1CC[C@H]2CCCC[C@@H]2[NH2+]1)C(=O)OCCOCCOC(=O)c1ccc(-c2c3nc(c(-c4c(F)cccc4F)c4ccc([nH]4)c(-c4c(F)cccc4F)c4nc(c(-c5c(F)cccc5F)c5ccc2[nH]5)C=C4)C=C3)cc1
REMARK SMILES IDX 23 1 22 2 21 3 20 4 18 5 19 6 4 7 2 8 1 9 3 10 5 11 6 12
REMARK SMILES IDX 7 14 8 15 9 16 17 17 10 18 16 19 11 22 15 23 12 24 14 25
REMARK SMILES IDX 13 26 24 27 25 28 26 29 27 30 28 31 29 32 30 33 82 34 31 35
REMARK SMILES IDX 81 36 32 37 33 38 34 39 75 40 35 41 80 42 74 43 76 44 36 45
REMARK SMILES IDX 79 46 73 47 72 48 37 50 63 51 46 52 62 53 47 54 50 55 61 56
REMARK SMILES IDX 77 57 48 58 49 59 60 61 78 62 51 63 38 64 39 65 44 66 40 67
REMARK SMILES IDX 41 68 43 69 45 70 42 71 64 72 65 73 70 74 66 75 67 76 69 77
REMARK SMILES IDX 71 78 68 79 52 80 53 81 58 82 54 83 55 84 57 85 59 86 56 87
REMARK H PARENT 5 13 17 20 17 21 76 49 50 60
REMARK Flexibility Score: inf
ROOT
ATOM      1  O   UNL A   1      32.400  30.704  26.355  1.00  0.00    -0.374 OA
ENDROOT
BRANCH   1   2
ATOM      2  C   UNL A   1      32.326  29.577  27.205  1.00  0.00     0.202 C 
BRANCH   2   3
ATOM      3  C   UNL A   1      33.454  28.534  27.261  1.00  0.00     0.261 C 
BRANCH   3   4
ATOM      4  O   UNL A   1      33.445  27.315  26.503  1.00  0.00    -0.462 OA
BRANCH   4   5
ATOM      5  C   UNL A   1      32.226  26.848  26.129  1.00  0.00     0.328 C 
ATOM      6  O   UNL A   1      31.309  26.609  26.905  1.00  0.00    -0.250 OA
BRANCH   5   7
ATOM      7  C   UNL A   1      32.009  26.729  24.616  1.00  0.00     0.195 C 
BRANCH   7   8
ATOM      8  C   UNL A   1      31.486  28.071  24.018  1.00  0.00     0.017 C 
ATOM      9  C   UNL A   1      32.629  28.834  23.326  1.00  0.00     0.010 C 
ATOM     10  C   UNL A   1      30.352  27.896  22.997  1.00  0.00     0.010 C 
ENDBRANCH   7   8
BRANCH   7  11
ATOM     11  N   UNL A   1      33.135  26.195  23.818  1.00  0.00    -0.337 N 
ATOM     12  C   UNL A   1      33.034  25.364  22.716  1.00  0.00     0.278 C 
ATOM     13  H   UNL A   1      34.043  26.455  24.098  1.00  0.00     0.164 HD
ATOM     14  O   UNL A   1      33.755  25.623  21.750  1.00  0.00    -0.268 OA
BRANCH  12  15
ATOM     15  C   UNL A   1      32.230  24.040  22.817  1.00  0.00     0.272 C 
ATOM     16  C   UNL A   1      30.997  24.054  23.742  1.00  0.00     0.076 C 
ATOM     17  N   UNL A   1      33.087  22.876  23.024  1.00  0.00    -0.333 N 
ATOM     18  C   UNL A   1      31.147  23.215  25.019  1.00  0.00     0.016 C 
ATOM     19  C   UNL A   1      33.427  22.483  24.382  1.00  0.00     0.186 C 
ATOM     20  H   UNL A   1      33.964  23.060  22.538  1.00  0.00     0.347 HD
ATOM     21  H   UNL A   1      32.529  22.096  22.676  1.00  0.00     0.347 HD
ATOM     22  C   UNL A   1      32.606  23.185  25.459  1.00  0.00     0.048 C 
ATOM     23  C   UNL A   1      34.921  22.614  24.690  1.00  0.00     0.065 C 
ATOM     24  C   UNL A   1      32.837  22.445  26.780  1.00  0.00     0.010 C 
ATOM     25  C   UNL A   1      35.234  21.960  26.034  1.00  0.00     0.006 C 
ATOM     26  C   UNL A   1      34.325  22.467  27.154  1.00  0.00     0.001 C 
ENDBRANCH  12  15
ENDBRANCH   7  11
ENDBRANCH   5   7
ENDBRANCH   4   5
ENDBRANCH   3   4
ENDBRANCH   2   3
ENDBRANCH   1   2
BRANCH   1  27
ATOM     27  C   UNL A   1      31.409  31.728  26.460  1.00  0.00     0.202 C 
BRANCH  27  28
ATOM     28  C   UNL A   1      31.850  33.173  26.679  1.00  0.00     0.261 C 
BRANCH  28  29
ATOM     29  O   UNL A   1      32.184  33.390  28.063  1.00  0.00    -0.460 OA
BRANCH  29  30
ATOM     30  C   UNL A   1      33.205  34.257  28.254  1.00  0.00     0.338 C 
ATOM     31  O   UNL A   1      33.132  35.467  28.394  1.00  0.00    -0.246 OA
BRANCH  30  32
ATOM     32  C   UNL A   1      34.436  33.500  28.547  1.00  0.00     0.060 A 
ATOM     33  C   UNL A   1      34.277  32.201  29.053  1.00  0.00     0.016 A 
ATOM     34  C   UNL A   1      35.706  34.050  28.377  1.00  0.00     0.016 A 
ATOM     35  C   UNL A   1      35.385  31.473  29.464  1.00  0.00     0.010 A 
ATOM     36  C   UNL A   1      36.819  33.332  28.823  1.00  0.00     0.010 A 
ATOM     37  C   UNL A   1      36.652  32.065  29.411  1.00  0.00    -0.014 A 
BRANCH  37  38
ATOM     38  C   UNL A   1      37.745  31.455  30.199  1.00  0.00     0.031 A 
ATOM     39  C   UNL A   1      38.622  30.442  29.518  1.00  0.00     0.074 A 
ATOM     40  C   UNL A   1      37.992  31.837  31.462  1.00  0.00     0.049 A 
ATOM     41  N   UNL A   1      39.635  29.767  29.994  1.00  0.00    -0.248 NA
ATOM     42  C   UNL A   1      38.322  30.163  28.104  1.00  0.00     0.031 C 
ATOM     43  C   UNL A   1      37.258  32.866  32.193  1.00  0.00     0.029 A 
ATOM     44  N   UNL A   1      38.939  31.398  32.349  1.00  0.00    -0.354 N 
ATOM     45  C   UNL A   1      40.098  28.993  28.936  1.00  0.00     0.074 A 
ATOM     46  C   UNL A   1      39.242  29.261  27.802  1.00  0.00     0.031 C 
ATOM     47  C   UNL A   1      37.777  32.971  33.429  1.00  0.00     0.029 A 
ATOM     48  C   UNL A   1      38.853  31.993  33.583  1.00  0.00     0.049 A 
ATOM     49  H   UNL A   1      39.617  30.719  32.124  1.00  0.00     0.167 HD
ATOM     50  C   UNL A   1      41.148  28.140  28.913  1.00  0.00     0.037 A 
ATOM     51  C   UNL A   1      39.549  31.750  34.710  1.00  0.00     0.037 A 
ATOM     52  C   UNL A   1      41.979  27.858  30.050  1.00  0.00     0.049 A 
ATOM     53  C   UNL A   1      40.617  30.689  34.699  1.00  0.00     0.074 A 
ATOM     54  C   UNL A   1      43.068  27.010  30.135  1.00  0.00     0.029 A 
ATOM     55  N   UNL A   1      41.798  28.408  31.309  1.00  0.00    -0.354 N 
ATOM     56  N   UNL A   1      41.059  29.969  33.695  1.00  0.00    -0.248 NA
ATOM     57  C   UNL A   1      41.274  30.396  35.981  1.00  0.00     0.031 C 
ATOM     58  C   UNL A   1      43.512  27.007  31.462  1.00  0.00     0.029 A 
ATOM     59  C   UNL A   1      42.727  27.886  32.191  1.00  0.00     0.049 A 
ATOM     60  H   UNL A   1      41.108  29.072  31.543  1.00  0.00     0.167 HD
ATOM     61  C   UNL A   1      42.050  29.150  34.219  1.00  0.00     0.074 A 
ATOM     62  C   UNL A   1      42.158  29.471  35.627  1.00  0.00     0.031 C 
ATOM     63  C   UNL A   1      42.807  28.215  33.592  1.00  0.00     0.037 A 
BRANCH  50  64
ATOM     64  C   UNL A   1      41.416  27.423  27.623  1.00  0.00     0.057 A 
ATOM     65  C   UNL A   1      40.855  26.172  27.343  1.00  0.00     0.134 A 
ATOM     66  C   UNL A   1      42.249  27.993  26.653  1.00  0.00     0.134 A 
ATOM     67  F   UNL A   1      40.067  25.562  28.241  1.00  0.00    -0.206 F 
ATOM     68  C   UNL A   1      41.132  25.500  26.150  1.00  0.00     0.040 A 
ATOM     69  C   UNL A   1      42.514  27.342  25.447  1.00  0.00     0.040 A 
ATOM     70  F   UNL A   1      42.820  29.190  26.862  1.00  0.00    -0.206 F 
ATOM     71  C   UNL A   1      41.960  26.089  25.196  1.00  0.00     0.006 A 
ENDBRANCH  50  64
BRANCH  51  72
ATOM     72  C   UNL A   1      39.232  32.495  35.951  1.00  0.00     0.057 A 
ATOM     73  C   UNL A   1      39.835  33.725  36.235  1.00  0.00     0.134 A 
ATOM     74  C   UNL A   1      38.324  31.989  36.891  1.00  0.00     0.134 A 
ATOM     75  F   UNL A   1      40.731  34.249  35.386  1.00  0.00    -0.206 F 
ATOM     76  C   UNL A   1      39.553  34.422  37.412  1.00  0.00     0.040 A 
ATOM     77  C   UNL A   1      38.017  32.686  38.060  1.00  0.00     0.040 A 
ATOM     78  F   UNL A   1      37.717  30.812  36.680  1.00  0.00    -0.206 F 
ATOM     79  C   UNL A   1      38.635  33.906  38.325  1.00  0.00     0.006 A 
ENDBRANCH  51  72
BRANCH  63  80
ATOM     80  C   UNL A   1      43.815  27.475  34.419  1.00  0.00     0.057 A 
ATOM     81  C   UNL A   1      45.094  27.994  34.654  1.00  0.00     0.134 A 
ATOM     82  C   UNL A   1      43.482  26.263  35.038  1.00  0.00     0.134 A 
ATOM     83  F   UNL A   1      45.477  29.143  34.079  1.00  0.00    -0.206 F 
ATOM     84  C   UNL A   1      46.011  27.327  35.468  1.00  0.00     0.040 A 
ATOM     85  C   UNL A   1      44.382  25.600  35.872  1.00  0.00     0.040 A 
ATOM     86  F   UNL A   1      42.269  25.718  34.859  1.00  0.00    -0.206 F 
ATOM     87  C   UNL A   1      45.652  26.131  36.087  1.00  0.00     0.006 A 
ENDBRANCH  63  80
ENDBRANCH  37  38
ENDBRANCH  30  32
ENDBRANCH  29  30
ENDBRANCH  28  29
ENDBRANCH  27  28
ENDBRANCH   1  27
TORSDOF 17
ENDMDL
MODEL 3
REMARK VINA RESULT:     -10.5      3.612      8.816
REMARK SMILES CC(C)[C@@H](NC(=O)[C@@H]1CC[C@H]2CCCC[C@@H]2[NH2+]1)C(=O)OCCOCCOC(=O)c1ccc(-c2c3nc(c(-c4c(F)cccc4F)c4ccc([nH]4)c(-c4c(F)cccc4F)c4nc(c(-c5c(F)cccc5F)c5ccc2[nH]5)C=C4)C=C3)cc1
REMARK SMILES IDX 23 1 22 2 21 3 20 4 18 5 19 6 4 7 2 8 1 9 3 10 5 11 6 12
REMARK SMILES IDX 7 14 8 15 9 16 17 17 10 18 16 19 11 22 15 23 12 24 14 25
REMARK SMILES IDX 13 26 24 27 25 28 26 29 27 30 28 31 29 32 30 33 82 34 31 35
REMARK SMILES IDX 81 36 32 37 33 38 34 39 75 40 35 41 80 42 74 43 76 44 36 45
REMARK SMILES IDX 79 46 73 47 72 48 37 50 63 51 46 52 62 53 47 54 50 55 61 56
REMARK SMILES IDX 77 57 48 58 49 59 60 61 78 62 51 63 38 64 39 65 44 66 40 67
REMARK SMILES IDX 41 68 43 69 45 70 42 71 64 72 65 73 70 74 66 75 67 76 69 77
REMARK SMILES IDX 71 78 68 79 52 80 53 81 58 82 54 83 55 84 57 85 59 86 56 87
REMARK H PARENT 5 13 17 20 17 21 76 49 50 60
REMARK Flexibility Score: inf
ROOT
ATOM      1  O   UNL A   1      32.289  30.590  26.300  1.00  0.00    -0.374 OA
ENDROOT
BRANCH   1   2
ATOM      2  C   UNL A   1      32.327  29.554  27.261  1.00  0.00     0.202 C 
BRANCH   2   3
ATOM      3  C   UNL A   1      33.430  28.483  27.247  1.00  0.00     0.261 C 
BRANCH   3   4
ATOM      4  O   UNL A   1      33.451  27.378  26.332  1.00  0.00    -0.462 OA
BRANCH   4   5
ATOM      5  C   UNL A   1      32.246  26.840  26.010  1.00  0.00     0.328 C 
ATOM      6  O   UNL A   1      31.404  26.492  26.829  1.00  0.00    -0.250 OA
BRANCH   5   7
ATOM      7  C   UNL A   1      31.936  26.785  24.510  1.00  0.00     0.195 C 
BRANCH   7   8
ATOM      8  C   UNL A   1      31.103  28.025  24.064  1.00  0.00     0.017 C 
ATOM      9  C   UNL A   1      31.951  28.951  23.174  1.00  0.00     0.010 C 
ATOM     10  C   UNL A   1      29.825  27.669  23.290  1.00  0.00     0.010 C 
ENDBRANCH   7   8
BRANCH   7  11
ATOM     11  N   UNL A   1      33.079  26.555  23.598  1.00  0.00    -0.337 N 
ATOM     12  C   UNL A   1      33.053  25.826  22.423  1.00  0.00     0.278 C 
ATOM     13  H   UNL A   1      33.940  26.960  23.852  1.00  0.00     0.164 HD
ATOM     14  O   UNL A   1      33.638  26.308  21.450  1.00  0.00    -0.268 OA
BRANCH  12  15
ATOM     15  C   UNL A   1      32.522  24.367  22.429  1.00  0.00     0.272 C 
ATOM     16  C   UNL A   1      31.435  24.036  23.471  1.00  0.00     0.076 C 
ATOM     17  N   UNL A   1      33.595  23.377  22.388  1.00  0.00    -0.333 N 
ATOM     18  C   UNL A   1      31.897  23.107  24.602  1.00  0.00     0.016 C 
ATOM     19  C   UNL A   1      34.171  22.910  23.639  1.00  0.00     0.186 C 
ATOM     20  H   UNL A   1      34.356  23.783  21.843  1.00  0.00     0.347 HD
ATOM     21  H   UNL A   1      33.149  22.547  21.999  1.00  0.00     0.347 HD
ATOM     22  C   UNL A   1      33.381  23.314  24.880  1.00  0.00     0.048 C 
ATOM     23  C   UNL A   1      35.644  23.297  23.805  1.00  0.00     0.065 C 
ATOM     24  C   UNL A   1      33.910  22.492  26.059  1.00  0.00     0.010 C 
ATOM     25  C   UNL A   1      36.239  22.572  25.010  1.00  0.00     0.006 C 
ATOM     26  C   UNL A   1      35.404  22.763  26.276  1.00  0.00     0.001 C 
ENDBRANCH  12  15
ENDBRANCH   7  11
ENDBRANCH   5   7
ENDBRANCH   4   5
ENDBRANCH   3   4
ENDBRANCH   2   3
ENDBRANCH   1   2
BRANCH   1  27
ATOM     27  C   UNL A   1      31.405  31.697  26.496  1.00  0.00     0.202 C 
BRANCH  27  28
ATOM     28  C   UNL A   1      31.989  33.100  26.640  1.00  0.00     0.261 C 
BRANCH  28  29
ATOM     29  O   UNL A   1      32.141  33.439  28.031  1.00  0.00    -0.460 OA
BRANCH  29  30
ATOM     30  C   UNL A   1      33.154  34.301  28.280  1.00  0.00     0.338 C 
ATOM     31  O   UNL A   1      33.073  35.505  28.463  1.00  0.00    -0.246 OA
BRANCH  30  32
ATOM     32  C   UNL A   1      34.379  33.537  28.577  1.00  0.00     0.060 A 
ATOM     33  C   UNL A   1      34.211  32.248  29.107  1.00  0.00     0.016 A 
ATOM     34  C   UNL A   1      35.654  34.071  28.387  1.00  0.00     0.016 A 
ATOM     35  C   UNL A   1      35.316  31.516  29.521  1.00  0.00     0.010 A 
ATOM     36  C   UNL A   1      36.763  33.349  28.836  1.00  0.00     0.010 A 
ATOM     37  C   UNL A   1      36.588  32.094  29.448  1.00  0.00    -0.014 A 
BRANCH  37  38
ATOM     38  C   UNL A   1      37.681  31.488  30.237  1.00  0.00     0.031 A 
ATOM     39  C   UNL A   1      38.568  30.483  29.555  1.00  0.00     0.074 A 
ATOM     40  C   UNL A   1      37.920  31.864  31.504  1.00  0.00     0.049 A 
ATOM     41  N   UNL A   1      39.583  29.812  30.032  1.00  0.00    -0.248 NA
ATOM     42  C   UNL A   1      38.275  30.210  28.138  1.00  0.00     0.031 C 
ATOM     43  C   UNL A   1      37.177  32.885  32.237  1.00  0.00     0.029 A 
ATOM     44  N   UNL A   1      38.866  31.426  32.393  1.00  0.00    -0.354 N 
ATOM     45  C   UNL A   1      40.055  29.046  28.973  1.00  0.00     0.074 A 
ATOM     46  C   UNL A   1      39.202  29.314  27.836  1.00  0.00     0.031 C 
ATOM     47  C   UNL A   1      37.690  32.987  33.475  1.00  0.00     0.029 A 
ATOM     48  C   UNL A   1      38.771  32.015  33.629  1.00  0.00     0.049 A 
ATOM     49  H   UNL A   1      39.550  30.753  32.167  1.00  0.00     0.167 HD
ATOM     50  C   UNL A   1      41.110  28.200  28.950  1.00  0.00     0.037 A 
ATOM     51  C   UNL A   1      39.464  31.771  34.757  1.00  0.00     0.037 A 
ATOM     52  C   UNL A   1      41.938  27.917  30.089  1.00  0.00     0.049 A 
ATOM     53  C   UNL A   1      40.538  30.716  34.746  1.00  0.00     0.074 A 
ATOM     54  C   UNL A   1      43.032  27.075  30.175  1.00  0.00     0.029 A 
ATOM     55  N   UNL A   1      41.747  28.460  31.351  1.00  0.00    -0.354 N 
ATOM     56  N   UNL A   1      40.989  30.004  33.741  1.00  0.00    -0.248 NA
ATOM     57  C   UNL A   1      41.192  30.421  36.030  1.00  0.00     0.031 C 
ATOM     58  C   UNL A   1      43.470  27.068  31.504  1.00  0.00     0.029 A 
ATOM     59  C   UNL A   1      42.676  27.939  32.234  1.00  0.00     0.049 A 
ATOM     60  H   UNL A   1      41.053  29.118  31.584  1.00  0.00     0.167 HD
ATOM     61  C   UNL A   1      41.983  29.188  34.265  1.00  0.00     0.074 A 
ATOM     62  C   UNL A   1      42.082  29.503  35.675  1.00  0.00     0.031 C 
ATOM     63  C   UNL A   1      42.748  28.262  33.637  1.00  0.00     0.037 A 
BRANCH  50  64
ATOM     64  C   UNL A   1      41.389  27.491  27.658  1.00  0.00     0.057 A 
ATOM     65  C   UNL A   1      42.170  28.070  26.651  1.00  0.00     0.134 A 
ATOM     66  C   UNL A   1      40.866  26.214  27.420  1.00  0.00     0.134 A 
ATOM     67  F   UNL A   1      42.681  29.301  26.809  1.00  0.00    -0.206 F 
ATOM     68  C   UNL A   1      42.403  27.413  25.441  1.00  0.00     0.040 A 
ATOM     69  C   UNL A   1      41.110  25.538  26.224  1.00  0.00     0.040 A 
ATOM     70  F   UNL A   1      40.107  25.606  28.345  1.00  0.00    -0.206 F 
ATOM     71  C   UNL A   1      41.876  26.141  25.228  1.00  0.00     0.006 A 
ENDBRANCH  50  64
BRANCH  51  72
ATOM     72  C   UNL A   1      39.136  32.508  36.001  1.00  0.00     0.057 A 
ATOM     73  C   UNL A   1      38.271  31.968  36.960  1.00  0.00     0.134 A 
ATOM     74  C   UNL A   1      39.673  33.776  36.257  1.00  0.00     0.134 A 
ATOM     75  F   UNL A   1      37.706  30.769  36.760  1.00  0.00    -0.206 F 
ATOM     76  C   UNL A   1      37.946  32.666  38.125  1.00  0.00     0.040 A 
ATOM     77  C   UNL A   1      39.373  34.475  37.427  1.00  0.00     0.040 A 
ATOM     78  F   UNL A   1      40.504  34.350  35.375  1.00  0.00    -0.206 F 
ATOM     79  C   UNL A   1      38.504  33.921  38.364  1.00  0.00     0.006 A 
ENDBRANCH  51  72
BRANCH  63  80
ATOM     80  C   UNL A   1      43.757  27.523  34.465  1.00  0.00     0.057 A 
ATOM     81  C   UNL A   1      43.467  26.277  35.033  1.00  0.00     0.134 A 
ATOM     82  C   UNL A   1      45.050  28.033  34.642  1.00  0.00     0.134 A 
ATOM     83  F   UNL A   1      42.243  25.742  34.910  1.00  0.00    -0.206 F 
ATOM     84  C   UNL A   1      44.426  25.568  35.759  1.00  0.00     0.040 A 
ATOM     85  C   UNL A   1      46.023  27.323  35.345  1.00  0.00     0.040 A 
ATOM     86  F   UNL A   1      45.392  29.218  34.114  1.00  0.00    -0.206 F 
ATOM     87  C   UNL A   1      45.711  26.088  35.908  1.00  0.00     0.006 A 
ENDBRANCH  63  80
ENDBRANCH  37  38
ENDBRANCH  30  32
ENDBRANCH  29  30
ENDBRANCH  28  29
ENDBRANCH  27  28
ENDBRANCH   1  27
TORSDOF 17
ENDMDL
