MODEL 1
REMARK VINA RESULT:      -9.6      0.000      0.000
REMARK SMILES CC(=O)NCCc1c[nH]c2ccc(C(=O)OCCOCCOC(=O)c3ccc(-c4c5nc(c(-c6c(F)cccc6F)c6ccc([nH]6)c(-c6c(F)cccc6F)c6nc(c(-c7c(F)cccc7F)c7ccc4[nH]7)C=C6)C=C5)cc3)cc12
REMARK SMILES IDX 18 1 17 2 16 3 14 4 15 5 13 6 7 7 8 8 80 9 9 10 10 11 79 12
REMARK SMILES IDX 11 14 12 15 6 16 5 17 4 18 1 19 2 20 3 21 19 23 20 24 21 25
REMARK SMILES IDX 22 26 23 27 24 28 25 29 26 30 78 31 27 32 77 33 28 34 29 35
REMARK SMILES IDX 30 36 71 37 31 38 76 39 70 40 72 41 32 42 75 43 69 44 68 45
REMARK SMILES IDX 33 47 59 48 42 49 58 50 43 51 46 52 57 53 73 54 44 55 45 56
REMARK SMILES IDX 56 58 74 59 47 60 34 61 35 62 40 63 36 64 37 65 39 66 41 67
REMARK SMILES IDX 38 68 60 69 61 70 66 71 62 72 63 73 65 74 67 75 64 76 48 77
REMARK SMILES IDX 49 78 54 79 50 80 51 81 53 82 55 83 52 84
REMARK H PARENT 9 13 4 22 72 46 46 57
REMARK Flexibility Score: inf
ROOT
ATOM      1  C   UNL A   1      32.770  36.200  32.467  1.00  0.00     0.202 C 
ENDROOT
BRANCH   1   2
ATOM      2  C   UNL A   1      34.285  36.046  32.631  1.00  0.00     0.261 C 
BRANCH   2   3
ATOM      3  O   UNL A   1      34.716  34.721  32.277  1.00  0.00    -0.460 OA
BRANCH   3   4
ATOM      4  C   UNL A   1      34.384  33.762  33.175  1.00  0.00     0.338 C 
ATOM      5  O   UNL A   1      33.335  33.139  33.224  1.00  0.00    -0.246 OA
BRANCH   4   6
ATOM      6  C   UNL A   1      35.544  33.430  34.033  1.00  0.00     0.060 A 
ATOM      7  C   UNL A   1      38.329  30.826  34.353  1.00  0.00    -0.021 A 
ATOM      8  C   UNL A   1      39.102  30.885  35.496  1.00  0.00     0.087 A 
ATOM      9  C   UNL A   1      37.381  31.895  34.448  1.00  0.00     0.003 A 
ATOM     10  N   UNL A   1      38.713  31.975  36.228  1.00  0.00    -0.361 N 
ATOM     11  C   UNL A   1      37.670  32.621  35.603  1.00  0.00     0.046 A 
ATOM     12  C   UNL A   1      36.298  32.308  33.652  1.00  0.00     0.026 A 
ATOM     13  H   UNL A   1      39.120  32.257  37.079  1.00  0.00     0.166 HD
ATOM     14  C   UNL A   1      36.961  33.773  35.976  1.00  0.00     0.027 A 
ATOM     15  C   UNL A   1      35.889  34.171  35.165  1.00  0.00     0.018 A 
BRANCH   7  16
ATOM     16  C   UNL A   1      38.445  29.826  33.238  1.00  0.00     0.059 C 
BRANCH  16  17
ATOM     17  C   UNL A   1      39.891  29.375  32.992  1.00  0.00     0.120 C 
BRANCH  17  18
ATOM     18  N   UNL A   1      40.194  28.119  33.662  1.00  0.00    -0.356 N 
ATOM     19  C   UNL A   1      42.242  28.882  34.791  1.00  0.00     0.114 C 
ATOM     20  C   UNL A   1      41.263  27.798  34.442  1.00  0.00     0.216 C 
ATOM     21  O   UNL A   1      41.394  26.645  34.849  1.00  0.00    -0.275 OA
ATOM     22  H   UNL A   1      39.533  27.400  33.533  1.00  0.00     0.163 HD
ENDBRANCH  17  18
ENDBRANCH  16  17
ENDBRANCH   7  16
ENDBRANCH   4   6
ENDBRANCH   3   4
ENDBRANCH   2   3
ENDBRANCH   1   2
BRANCH   1  23
ATOM     23  O   UNL A   1      32.329  36.867  31.285  1.00  0.00    -0.374 OA
BRANCH  23  24
ATOM     24  C   UNL A   1      33.298  37.074  30.256  1.00  0.00     0.202 C 
BRANCH  24  25
ATOM     25  C   UNL A   1      33.058  36.323  28.940  1.00  0.00     0.261 C 
BRANCH  25  26
ATOM     26  O   UNL A   1      32.567  34.988  29.169  1.00  0.00    -0.460 OA
BRANCH  26  27
ATOM     27  C   UNL A   1      33.122  34.033  28.387  1.00  0.00     0.338 C 
ATOM     28  O   UNL A   1      32.754  33.675  27.277  1.00  0.00    -0.246 OA
BRANCH  27  29
ATOM     29  C   UNL A   1      34.386  33.569  28.985  1.00  0.00     0.060 A 
ATOM     30  C   UNL A   1      35.560  34.239  28.618  1.00  0.00     0.016 A 
ATOM     31  C   UNL A   1      34.438  32.464  29.837  1.00  0.00     0.016 A 
ATOM     32  C   UNL A   1      36.797  33.778  29.064  1.00  0.00     0.010 A 
ATOM     33  C   UNL A   1      35.681  31.996  30.277  1.00  0.00     0.010 A 
ATOM     34  C   UNL A   1      36.867  32.632  29.865  1.00  0.00    -0.014 A 
BRANCH  34  35
ATOM     35  C   UNL A   1      38.186  32.019  30.152  1.00  0.00     0.031 A 
ATOM     36  C   UNL A   1      39.143  32.738  31.061  1.00  0.00     0.074 A 
ATOM     37  C   UNL A   1      38.516  30.823  29.634  1.00  0.00     0.049 A 
ATOM     38  N   UNL A   1      40.354  32.403  31.425  1.00  0.00    -0.248 NA
ATOM     39  C   UNL A   1      38.670  34.007  31.637  1.00  0.00     0.031 C 
ATOM     40  C   UNL A   1      37.661  30.010  28.772  1.00  0.00     0.029 A 
ATOM     41  N   UNL A   1      39.669  30.089  29.758  1.00  0.00    -0.354 N 
ATOM     42  C   UNL A   1      40.790  33.419  32.268  1.00  0.00     0.074 A 
ATOM     43  C   UNL A   1      39.725  34.396  32.337  1.00  0.00     0.031 C 
ATOM     44  C   UNL A   1      38.323  28.889  28.435  1.00  0.00     0.029 A 
ATOM     45  C   UNL A   1      39.657  28.922  29.034  1.00  0.00     0.049 A 
ATOM     46  H   UNL A   1      40.432  30.372  30.311  1.00  0.00     0.167 HD
ATOM     47  C   UNL A   1      41.966  33.522  32.931  1.00  0.00     0.037 A 
ATOM     48  C   UNL A   1      40.620  27.999  28.858  1.00  0.00     0.037 A 
ATOM     49  C   UNL A   1      43.024  32.549  32.861  1.00  0.00     0.049 A 
ATOM     50  C   UNL A   1      41.948  28.172  29.549  1.00  0.00     0.074 A 
ATOM     51  C   UNL A   1      44.247  32.557  33.509  1.00  0.00     0.029 A 
ATOM     52  N   UNL A   1      42.988  31.398  32.089  1.00  0.00    -0.354 N 
ATOM     53  N   UNL A   1      42.340  29.123  30.360  1.00  0.00    -0.248 NA
ATOM     54  C   UNL A   1      42.965  27.140  29.297  1.00  0.00     0.031 C 
ATOM     55  C   UNL A   1      44.968  31.432  33.095  1.00  0.00     0.029 A 
ATOM     56  C   UNL A   1      44.176  30.700  32.225  1.00  0.00     0.049 A 
ATOM     57  H   UNL A   1      42.229  31.118  31.528  1.00  0.00     0.167 HD
ATOM     58  C   UNL A   1      43.636  28.792  30.738  1.00  0.00     0.074 A 
ATOM     59  C   UNL A   1      43.960  27.546  30.075  1.00  0.00     0.031 C 
ATOM     60  C   UNL A   1      44.481  29.457  31.563  1.00  0.00     0.037 A 
BRANCH  47  61
ATOM     61  C   UNL A   1      42.176  34.745  33.774  1.00  0.00     0.057 A 
ATOM     62  C   UNL A   1      41.830  34.776  35.131  1.00  0.00     0.134 A 
ATOM     63  C   UNL A   1      42.755  35.896  33.227  1.00  0.00     0.134 A 
ATOM     64  F   UNL A   1      41.258  33.711  35.711  1.00  0.00    -0.206 F 
ATOM     65  C   UNL A   1      42.033  35.917  35.909  1.00  0.00     0.040 A 
ATOM     66  C   UNL A   1      42.986  37.035  34.001  1.00  0.00     0.040 A 
ATOM     67  F   UNL A   1      43.113  35.931  31.934  1.00  0.00    -0.206 F 
ATOM     68  C   UNL A   1      42.619  37.049  35.344  1.00  0.00     0.006 A 
ENDBRANCH  47  61
BRANCH  48  69
ATOM     69  C   UNL A   1      40.374  26.825  27.982  1.00  0.00     0.057 A 
ATOM     70  C   UNL A   1      40.912  26.757  26.693  1.00  0.00     0.134 A 
ATOM     71  C   UNL A   1      39.579  25.754  28.408  1.00  0.00     0.134 A 
ATOM     72  F   UNL A   1      41.661  27.765  26.220  1.00  0.00    -0.206 F 
ATOM     73  C   UNL A   1      40.657  25.673  25.851  1.00  0.00     0.040 A 
ATOM     74  C   UNL A   1      39.335  24.653  27.586  1.00  0.00     0.040 A 
ATOM     75  F   UNL A   1      39.035  25.760  29.634  1.00  0.00    -0.206 F 
ATOM     76  C   UNL A   1      39.870  24.615  26.300  1.00  0.00     0.006 A 
ENDBRANCH  48  69
BRANCH  60  77
ATOM     77  C   UNL A   1      45.823  28.837  31.822  1.00  0.00     0.057 A 
ATOM     78  C   UNL A   1      46.021  27.905  32.848  1.00  0.00     0.134 A 
ATOM     79  C   UNL A   1      46.920  29.148  31.008  1.00  0.00     0.134 A 
ATOM     80  F   UNL A   1      45.015  27.574  33.670  1.00  0.00    -0.206 F 
ATOM     81  C   UNL A   1      47.270  27.318  33.068  1.00  0.00     0.040 A 
ATOM     82  C   UNL A   1      48.166  28.550  31.202  1.00  0.00     0.040 A 
ATOM     83  F   UNL A   1      46.795  30.026  30.002  1.00  0.00    -0.206 F 
ATOM     84  C   UNL A   1      48.344  27.636  32.238  1.00  0.00     0.006 A 
ENDBRANCH  60  77
ENDBRANCH  34  35
ENDBRANCH  27  29
ENDBRANCH  26  27
ENDBRANCH  25  26
ENDBRANCH  24  25
ENDBRANCH  23  24
ENDBRANCH   1  23
TORSDOF 17
ENDMDL
MODEL 2
REMARK VINA RESULT:      -9.5      0.396      6.140
REMARK SMILES CC(=O)NCCc1c[nH]c2ccc(C(=O)OCCOCCOC(=O)c3ccc(-c4c5nc(c(-c6c(F)cccc6F)c6ccc([nH]6)c(-c6c(F)cccc6F)c6nc(c(-c7c(F)cccc7F)c7ccc4[nH]7)C=C6)C=C5)cc3)cc12
REMARK SMILES IDX 18 1 17 2 16 3 14 4 15 5 13 6 7 7 8 8 80 9 9 10 10 11 79 12
REMARK SMILES IDX 11 14 12 15 6 16 5 17 4 18 1 19 2 20 3 21 19 23 20 24 21 25
REMARK SMILES IDX 22 26 23 27 24 28 25 29 26 30 78 31 27 32 77 33 28 34 29 35
REMARK SMILES IDX 30 36 71 37 31 38 76 39 70 40 72 41 32 42 75 43 69 44 68 45
REMARK SMILES IDX 33 47 59 48 42 49 58 50 43 51 46 52 57 53 73 54 44 55 45 56
REMARK SMILES IDX 56 58 74 59 47 60 34 61 35 62 40 63 36 64 37 65 39 66 41 67
REMARK SMILES IDX 38 68 60 69 61 70 66 71 62 72 63 73 65 74 67 75 64 76 48 77
REMARK SMILES IDX 49 78 54 79 50 80 51 81 53 82 55 83 52 84
REMARK H PARENT 9 13 4 22 72 46 46 57
REMARK Flexibility Score: inf
ROOT
ATOM      1  C   UNL A   1      32.605  36.068  32.399  1.00  0.00     0.202 C 
ENDROOT
BRANCH   1   2
ATOM      2  C   UNL A   1      34.112  36.026  32.667  1.00  0.00     0.261 C 
BRANCH   2   3
ATOM      3  O   UNL A   1      34.669  34.749  32.312  1.00  0.00    -0.460 OA
BRANCH   3   4
ATOM      4  C   UNL A   1      34.371  33.745  33.172  1.00  0.00     0.338 C 
ATOM      5  O   UNL A   1      33.357  33.064  33.175  1.00  0.00    -0.246 OA
BRANCH   4   6
ATOM      6  C   UNL A   1      35.526  33.451  34.049  1.00  0.00     0.060 A 
ATOM      7  C   UNL A   1      38.356  30.907  34.447  1.00  0.00    -0.021 A 
ATOM      8  C   UNL A   1      39.114  31.001  35.598  1.00  0.00     0.087 A 
ATOM      9  C   UNL A   1      37.387  31.959  34.512  1.00  0.00     0.003 A 
ATOM     10  N   UNL A   1      38.696  32.096  36.306  1.00  0.00    -0.361 N 
ATOM     11  C   UNL A   1      37.649  32.711  35.657  1.00  0.00     0.046 A 
ATOM     12  C   UNL A   1      36.306  32.337  33.696  1.00  0.00     0.026 A 
ATOM     13  H   UNL A   1      39.087  32.400  37.156  1.00  0.00     0.166 HD
ATOM     14  C   UNL A   1      36.913  33.855  36.002  1.00  0.00     0.027 A 
ATOM     15  C   UNL A   1      35.843  34.218  35.172  1.00  0.00     0.018 A 
BRANCH   7  16
ATOM     16  C   UNL A   1      38.504  29.890  33.351  1.00  0.00     0.059 C 
BRANCH  16  17
ATOM     17  C   UNL A   1      39.962  29.465  33.127  1.00  0.00     0.120 C 
BRANCH  17  18
ATOM     18  N   UNL A   1      40.257  28.177  33.737  1.00  0.00    -0.356 N 
ATOM     19  C   UNL A   1      42.154  28.935  35.107  1.00  0.00     0.114 C 
ATOM     20  C   UNL A   1      41.261  27.842  34.594  1.00  0.00     0.216 C 
ATOM     21  O   UNL A   1      41.405  26.668  34.932  1.00  0.00    -0.275 OA
ATOM     22  H   UNL A   1      39.644  27.445  33.497  1.00  0.00     0.163 HD
ENDBRANCH  17  18
ENDBRANCH  16  17
ENDBRANCH   7  16
ENDBRANCH   4   6
ENDBRANCH   3   4
ENDBRANCH   2   3
ENDBRANCH   1   2
BRANCH   1  23
ATOM     23  O   UNL A   1      32.202  36.655  31.163  1.00  0.00    -0.374 OA
BRANCH  23  24
ATOM     24  C   UNL A   1      33.213  36.840  30.171  1.00  0.00     0.202 C 
BRANCH  24  25
ATOM     25  C   UNL A   1      33.023  36.067  28.859  1.00  0.00     0.261 C 
BRANCH  25  26
ATOM     26  O   UNL A   1      32.601  34.710  29.096  1.00  0.00    -0.460 OA
BRANCH  26  27
ATOM     27  C   UNL A   1      33.254  33.773  28.369  1.00  0.00     0.338 C 
ATOM     28  O   UNL A   1      32.960  33.358  27.256  1.00  0.00    -0.246 OA
BRANCH  27  29
ATOM     29  C   UNL A   1      34.520  33.417  29.034  1.00  0.00     0.060 A 
ATOM     30  C   UNL A   1      35.657  34.164  28.704  1.00  0.00     0.016 A 
ATOM     31  C   UNL A   1      34.613  32.336  29.913  1.00  0.00     0.016 A 
ATOM     32  C   UNL A   1      36.903  33.806  29.216  1.00  0.00     0.010 A 
ATOM     33  C   UNL A   1      35.865  31.971  30.419  1.00  0.00     0.010 A 
ATOM     34  C   UNL A   1      37.019  32.684  30.045  1.00  0.00    -0.014 A 
BRANCH  34  35
ATOM     35  C   UNL A   1      38.365  32.177  30.406  1.00  0.00     0.031 A 
ATOM     36  C   UNL A   1      38.846  30.887  29.801  1.00  0.00     0.074 A 
ATOM     37  C   UNL A   1      39.160  32.869  31.239  1.00  0.00     0.049 A 
ATOM     38  N   UNL A   1      39.970  30.246  29.996  1.00  0.00    -0.248 NA
ATOM     39  C   UNL A   1      37.937  30.233  28.847  1.00  0.00     0.031 C 
ATOM     40  C   UNL A   1      38.825  34.150  31.860  1.00  0.00     0.029 A 
ATOM     41  N   UNL A   1      40.417  32.584  31.711  1.00  0.00    -0.354 N 
ATOM     42  C   UNL A   1      39.901  29.113  29.195  1.00  0.00     0.074 A 
ATOM     43  C   UNL A   1      38.614  29.139  28.533  1.00  0.00     0.031 C 
ATOM     44  C   UNL A   1      39.849  34.537  32.639  1.00  0.00     0.029 A 
ATOM     45  C   UNL A   1      40.897  33.518  32.595  1.00  0.00     0.049 A 
ATOM     46  H   UNL A   1      40.926  31.786  31.441  1.00  0.00     0.167 HD
ATOM     47  C   UNL A   1      40.831  28.145  29.018  1.00  0.00     0.037 A 
ATOM     48  C   UNL A   1      42.042  33.537  33.303  1.00  0.00     0.037 A 
ATOM     49  C   UNL A   1      42.111  28.119  29.676  1.00  0.00     0.049 A 
ATOM     50  C   UNL A   1      43.030  32.411  33.145  1.00  0.00     0.074 A 
ATOM     51  C   UNL A   1      43.128  27.189  29.550  1.00  0.00     0.029 A 
ATOM     52  N   UNL A   1      42.545  29.066  30.592  1.00  0.00    -0.354 N 
ATOM     53  N   UNL A   1      42.966  31.357  32.368  1.00  0.00    -0.248 NA
ATOM     54  C   UNL A   1      44.250  32.479  33.964  1.00  0.00     0.031 C 
ATOM     55  C   UNL A   1      44.160  27.548  30.423  1.00  0.00     0.029 A 
ATOM     56  C   UNL A   1      43.805  28.729  31.057  1.00  0.00     0.049 A 
ATOM     57  H   UNL A   1      42.034  29.859  30.869  1.00  0.00     0.167 HD
ATOM     58  C   UNL A   1      44.145  30.653  32.582  1.00  0.00     0.074 A 
ATOM     59  C   UNL A   1      44.910  31.405  33.554  1.00  0.00     0.031 C 
ATOM     60  C   UNL A   1      44.558  29.490  32.021  1.00  0.00     0.037 A 
BRANCH  47  61
ATOM     61  C   UNL A   1      40.484  27.018  28.089  1.00  0.00     0.057 A 
ATOM     62  C   UNL A   1      39.603  25.996  28.463  1.00  0.00     0.134 A 
ATOM     63  C   UNL A   1      41.018  26.973  26.796  1.00  0.00     0.134 A 
ATOM     64  F   UNL A   1      39.070  25.974  29.694  1.00  0.00    -0.206 F 
ATOM     65  C   UNL A   1      39.283  24.954  27.591  1.00  0.00     0.040 A 
ATOM     66  C   UNL A   1      40.685  25.950  25.905  1.00  0.00     0.040 A 
ATOM     67  F   UNL A   1      41.865  27.924  26.373  1.00  0.00    -0.206 F 
ATOM     68  C   UNL A   1      39.820  24.934  26.305  1.00  0.00     0.006 A 
ENDBRANCH  47  61
BRANCH  48  69
ATOM     69  C   UNL A   1      42.320  34.657  34.238  1.00  0.00     0.057 A 
ATOM     70  C   UNL A   1      42.904  35.847  33.790  1.00  0.00     0.134 A 
ATOM     71  C   UNL A   1      42.024  34.556  35.602  1.00  0.00     0.134 A 
ATOM     72  F   UNL A   1      43.232  35.994  32.497  1.00  0.00    -0.206 F 
ATOM     73  C   UNL A   1      43.200  36.891  34.668  1.00  0.00     0.040 A 
ATOM     74  C   UNL A   1      42.293  35.601  36.488  1.00  0.00     0.040 A 
ATOM     75  F   UNL A   1      41.464  33.440  36.092  1.00  0.00    -0.206 F 
ATOM     76  C   UNL A   1      42.889  36.771  36.021  1.00  0.00     0.006 A 
ENDBRANCH  48  69
BRANCH  60  77
ATOM     77  C   UNL A   1      45.911  28.976  32.418  1.00  0.00     0.057 A 
ATOM     78  C   UNL A   1      46.075  28.054  33.459  1.00  0.00     0.134 A 
ATOM     79  C   UNL A   1      47.058  29.381  31.724  1.00  0.00     0.134 A 
ATOM     80  F   UNL A   1      45.019  27.637  34.172  1.00  0.00    -0.206 F 
ATOM     81  C   UNL A   1      47.337  27.566  33.807  1.00  0.00     0.040 A 
ATOM     82  C   UNL A   1      48.321  28.882  32.046  1.00  0.00     0.040 A 
ATOM     83  F   UNL A   1      46.968  30.255  30.711  1.00  0.00    -0.206 F 
ATOM     84  C   UNL A   1      48.463  27.976  33.095  1.00  0.00     0.006 A 
ENDBRANCH  60  77
ENDBRANCH  34  35
ENDBRANCH  27  29
ENDBRANCH  26  27
ENDBRANCH  25  26
ENDBRANCH  24  25
ENDBRANCH  23  24
ENDBRANCH   1  23
TORSDOF 17
ENDMDL
MODEL 3
REMARK VINA RESULT:      -9.4      4.455      7.631
REMARK SMILES CC(=O)NCCc1c[nH]c2ccc(C(=O)OCCOCCOC(=O)c3ccc(-c4c5nc(c(-c6c(F)cccc6F)c6ccc([nH]6)c(-c6c(F)cccc6F)c6nc(c(-c7c(F)cccc7F)c7ccc4[nH]7)C=C6)C=C5)cc3)cc12
REMARK SMILES IDX 18 1 17 2 16 3 14 4 15 5 13 6 7 7 8 8 80 9 9 10 10 11 79 12
REMARK SMILES IDX 11 14 12 15 6 16 5 17 4 18 1 19 2 20 3 21 19 23 20 24 21 25
REMARK SMILES IDX 22 26 23 27 24 28 25 29 26 30 78 31 27 32 77 33 28 34 29 35
REMARK SMILES IDX 30 36 71 37 31 38 76 39 70 40 72 41 32 42 75 43 69 44 68 45
REMARK SMILES IDX 33 47 59 48 42 49 58 50 43 51 46 52 57 53 73 54 44 55 45 56
REMARK SMILES IDX 56 58 74 59 47 60 34 61 35 62 40 63 36 64 37 65 39 66 41 67
REMARK SMILES IDX 38 68 60 69 61 70 66 71 62 72 63 73 65 74 67 75 64 76 48 77
REMARK SMILES IDX 49 78 54 79 50 80 51 81 53 82 55 83 52 84
REMARK H PARENT 9 13 4 22 72 46 46 57
REMARK Flexibility Score: inf
ROOT
ATOM      1  C   UNL A   1      33.807  30.216  26.930  1.00  0.00     0.202 C 
ENDROOT
BRANCH   1   2
ATOM      2  C   UNL A   1      34.315  28.773  27.000  1.00  0.00     0.261 C 
BRANCH   2   3
ATOM      3  O   UNL A   1      33.224  27.837  27.044  1.00  0.00    -0.460 OA
BRANCH   3   4
ATOM      4  C   UNL A   1      33.223  26.924  26.043  1.00  0.00     0.338 C 
ATOM      5  O   UNL A   1      34.144  26.187  25.727  1.00  0.00    -0.246 OA
BRANCH   4   6
ATOM      6  C   UNL A   1      31.873  26.807  25.448  1.00  0.00     0.060 A 
ATOM      7  C   UNL A   1      29.600  28.561  22.920  1.00  0.00    -0.021 A 
ATOM      8  C   UNL A   1      28.296  28.113  22.846  1.00  0.00     0.087 A 
ATOM      9  C   UNL A   1      30.252  27.753  23.905  1.00  0.00     0.003 A 
ATOM     10  N   UNL A   1      28.158  27.036  23.680  1.00  0.00    -0.361 N 
ATOM     11  C   UNL A   1      29.345  26.783  24.331  1.00  0.00     0.046 A 
ATOM     12  C   UNL A   1      31.537  27.763  24.476  1.00  0.00     0.026 A 
ATOM     13  H   UNL A   1      27.331  26.516  23.798  1.00  0.00     0.166 HD
ATOM     14  C   UNL A   1      29.675  25.789  25.264  1.00  0.00     0.027 A 
ATOM     15  C   UNL A   1      30.964  25.813  25.817  1.00  0.00     0.018 A 
BRANCH   7  16
ATOM     16  C   UNL A   1      30.211  29.688  22.135  1.00  0.00     0.059 C 
BRANCH  16  17
ATOM     17  C   UNL A   1      29.168  30.517  21.375  1.00  0.00     0.120 C 
BRANCH  17  18
ATOM     18  N   UNL A   1      29.186  31.917  21.773  1.00  0.00    -0.356 N 
ATOM     19  C   UNL A   1      27.696  31.682  23.717  1.00  0.00     0.114 C 
ATOM     20  C   UNL A   1      28.506  32.532  22.780  1.00  0.00     0.216 C 
ATOM     21  O   UNL A   1      28.579  33.754  22.905  1.00  0.00    -0.275 OA
ATOM     22  H   UNL A   1      29.772  32.502  21.240  1.00  0.00     0.163 HD
ENDBRANCH  17  18
ENDBRANCH  16  17
ENDBRANCH   7  16
ENDBRANCH   4   6
ENDBRANCH   3   4
ENDBRANCH   2   3
ENDBRANCH   1   2
BRANCH   1  23
ATOM     23  O   UNL A   1      32.438  30.419  27.277  1.00  0.00    -0.374 OA
BRANCH  23  24
ATOM     24  C   UNL A   1      31.718  31.403  26.533  1.00  0.00     0.202 C 
BRANCH  24  25
ATOM     25  C   UNL A   1      31.681  32.814  27.135  1.00  0.00     0.261 C 
BRANCH  25  26
ATOM     26  O   UNL A   1      32.989  33.417  27.162  1.00  0.00    -0.460 OA
BRANCH  26  27
ATOM     27  C   UNL A   1      33.224  34.227  28.220  1.00  0.00     0.338 C 
ATOM     28  O   UNL A   1      32.562  35.190  28.581  1.00  0.00    -0.246 OA
BRANCH  27  29
ATOM     29  C   UNL A   1      34.329  33.684  29.030  1.00  0.00     0.060 A 
ATOM     30  C   UNL A   1      35.624  34.132  28.742  1.00  0.00     0.016 A 
ATOM     31  C   UNL A   1      34.117  32.710  30.009  1.00  0.00     0.016 A 
ATOM     32  C   UNL A   1      36.719  33.575  29.399  1.00  0.00     0.010 A 
ATOM     33  C   UNL A   1      35.218  32.144  30.661  1.00  0.00     0.010 A 
ATOM     34  C   UNL A   1      36.525  32.551  30.334  1.00  0.00    -0.014 A 
BRANCH  34  35
ATOM     35  C   UNL A   1      37.696  31.811  30.864  1.00  0.00     0.031 A 
ATOM     36  C   UNL A   1      38.209  32.143  32.237  1.00  0.00     0.074 A 
ATOM     37  C   UNL A   1      38.277  30.837  30.143  1.00  0.00     0.049 A 
ATOM     38  N   UNL A   1      39.232  31.645  32.885  1.00  0.00    -0.248 NA
ATOM     39  C   UNL A   1      37.469  33.174  32.981  1.00  0.00     0.031 C 
ATOM     40  C   UNL A   1      37.849  30.395  28.817  1.00  0.00     0.029 A 
ATOM     41  N   UNL A   1      39.361  30.045  30.430  1.00  0.00    -0.354 N 
ATOM     42  C   UNL A   1      39.261  32.305  34.107  1.00  0.00     0.074 A 
ATOM     43  C   UNL A   1      38.172  33.259  34.100  1.00  0.00     0.031 C 
ATOM     44  C   UNL A   1      38.669  29.416  28.399  1.00  0.00     0.029 A 
ATOM     45  C   UNL A   1      39.694  29.183  29.415  1.00  0.00     0.049 A 
ATOM     46  H   UNL A   1      39.852  30.091  31.281  1.00  0.00     0.167 HD
ATOM     47  C   UNL A   1      40.111  32.125  35.146  1.00  0.00     0.037 A 
ATOM     48  C   UNL A   1      40.722  28.320  29.311  1.00  0.00     0.037 A 
ATOM     49  C   UNL A   1      41.194  31.177  35.152  1.00  0.00     0.049 A 
ATOM     50  C   UNL A   1      41.699  28.189  30.450  1.00  0.00     0.074 A 
ATOM     51  C   UNL A   1      42.100  30.909  36.164  1.00  0.00     0.029 A 
ATOM     52  N   UNL A   1      41.521  30.346  34.091  1.00  0.00    -0.354 N 
ATOM     53  N   UNL A   1      41.704  28.800  31.609  1.00  0.00    -0.248 NA
ATOM     54  C   UNL A   1      42.813  27.246  30.264  1.00  0.00     0.031 C 
ATOM     55  C   UNL A   1      43.003  29.947  35.697  1.00  0.00     0.029 A 
ATOM     56  C   UNL A   1      42.630  29.582  34.414  1.00  0.00     0.049 A 
ATOM     57  H   UNL A   1      41.036  30.305  33.236  1.00  0.00     0.167 HD
ATOM     58  C   UNL A   1      42.800  28.298  32.301  1.00  0.00     0.074 A 
ATOM     59  C   UNL A   1      43.431  27.324  31.434  1.00  0.00     0.031 C 
ATOM     60  C   UNL A   1      43.243  28.612  33.543  1.00  0.00     0.037 A 
BRANCH  47  61
ATOM     61  C   UNL A   1      39.915  32.992  36.355  1.00  0.00     0.057 A 
ATOM     62  C   UNL A   1      40.624  34.187  36.531  1.00  0.00     0.134 A 
ATOM     63  C   UNL A   1      38.985  32.639  37.340  1.00  0.00     0.134 A 
ATOM     64  F   UNL A   1      41.539  34.573  35.630  1.00  0.00    -0.206 F 
ATOM     65  C   UNL A   1      40.431  34.989  37.657  1.00  0.00     0.040 A 
ATOM     66  C   UNL A   1      38.766  33.445  38.459  1.00  0.00     0.040 A 
ATOM     67  F   UNL A   1      38.271  31.509  37.230  1.00  0.00    -0.206 F 
ATOM     68  C   UNL A   1      39.494  34.622  38.621  1.00  0.00     0.006 A 
ENDBRANCH  47  61
BRANCH  48  69
ATOM     69  C   UNL A   1      40.893  27.512  28.076  1.00  0.00     0.057 A 
ATOM     70  C   UNL A   1      41.627  27.998  26.988  1.00  0.00     0.134 A 
ATOM     71  C   UNL A   1      40.310  26.246  27.948  1.00  0.00     0.134 A 
ATOM     72  F   UNL A   1      42.189  29.215  27.042  1.00  0.00    -0.206 F 
ATOM     73  C   UNL A   1      41.763  27.259  25.811  1.00  0.00     0.040 A 
ATOM     74  C   UNL A   1      40.457  25.487  26.786  1.00  0.00     0.040 A 
ATOM     75  F   UNL A   1      39.593  25.726  28.956  1.00  0.00    -0.206 F 
ATOM     76  C   UNL A   1      41.181  25.998  25.710  1.00  0.00     0.006 A 
ENDBRANCH  48  69
BRANCH  60  77
ATOM     77  C   UNL A   1      44.446  27.874  34.053  1.00  0.00     0.057 A 
ATOM     78  C   UNL A   1      45.742  28.380  33.904  1.00  0.00     0.134 A 
ATOM     79  C   UNL A   1      44.299  26.659  34.736  1.00  0.00     0.134 A 
ATOM     80  F   UNL A   1      45.953  29.531  33.249  1.00  0.00    -0.206 F 
ATOM     81  C   UNL A   1      46.854  27.695  34.401  1.00  0.00     0.040 A 
ATOM     82  C   UNL A   1      45.398  25.977  35.258  1.00  0.00     0.040 A 
ATOM     83  F   UNL A   1      43.083  26.124  34.920  1.00  0.00    -0.206 F 
ATOM     84  C   UNL A   1      46.681  26.493  35.086  1.00  0.00     0.006 A 
ENDBRANCH  60  77
ENDBRANCH  34  35
ENDBRANCH  27  29
ENDBRANCH  26  27
ENDBRANCH  25  26
ENDBRANCH  24  25
ENDBRANCH  23  24
ENDBRANCH   1  23
TORSDOF 17
ENDMDL
