MODEL 1
REMARK VINA RESULT:     -10.8      0.000      0.000
REMARK SMILES CCOC(=O)c1cc(CC)sc1NC(=O)[C@H]1[C@@H]2CC[C@@H](C2)[C@@H]1C(=O)OCCOCCOC(=O)c1ccc(-c2c3nc(c(-c4c(F)cccc4F)c4ccc([nH]4)c(-c4c(F)cccc4F)c4nc(c(-c5c(F)cccc5F)c5ccc2[nH]5)C=C4)C=C3)cc1
REMARK SMILES IDX 26 1 25 2 23 3 24 4 22 5 16 6 17 7 18 8 21 9 20 10 19 11
REMARK SMILES IDX 14 12 13 13 15 15 12 16 6 17 7 18 8 19 11 20 4 21 5 22 3 23
REMARK SMILES IDX 2 24 1 25 9 26 10 27 27 28 28 29 29 30 30 31 31 32 32 33
REMARK SMILES IDX 33 34 34 35 35 36 87 37 36 38 86 39 37 40 38 41 39 42 80 43
REMARK SMILES IDX 40 44 85 45 79 46 81 47 41 48 84 49 78 50 77 51 42 53 68 54
REMARK SMILES IDX 51 55 67 56 52 57 55 58 66 59 82 60 53 61 54 62 65 64 83 65
REMARK SMILES IDX 56 66 43 67 44 68 49 69 45 70 46 71 48 72 50 73 47 74 69 75
REMARK SMILES IDX 70 76 75 77 71 78 72 79 74 80 76 81 73 82 57 83 58 84 63 85
REMARK SMILES IDX 59 86 60 87 62 88 64 89 61 90
REMARK H PARENT 13 14 81 52 55 63
REMARK Flexibility Score: inf
ROOT
ATOM      1  C   UNL A   1      36.640  23.563  25.598  1.00  0.00     0.261 C 
ENDROOT
BRANCH   1   2
ATOM      2  O   UNL A   1      35.521  24.461  25.468  1.00  0.00    -0.463 OA
BRANCH   2   3
ATOM      3  C   UNL A   1      34.291  23.939  25.743  1.00  0.00     0.310 C 
ATOM      4  O   UNL A   1      34.060  23.090  26.589  1.00  0.00    -0.252 OA
BRANCH   3   5
ATOM      5  C   UNL A   1      33.275  24.478  24.757  1.00  0.00     0.115 C 
ATOM      6  C   UNL A   1      31.819  24.081  25.006  1.00  0.00     0.096 C 
ATOM      7  C   UNL A   1      31.331  23.702  23.576  1.00  0.00     0.003 C 
ATOM      8  C   UNL A   1      31.903  22.305  23.231  1.00  0.00     0.005 C 
ATOM      9  C   UNL A   1      32.186  24.584  22.670  1.00  0.00     0.009 C 
ATOM     10  C   UNL A   1      33.504  24.094  23.281  1.00  0.00     0.004 C 
ATOM     11  C   UNL A   1      33.403  22.579  23.063  1.00  0.00     0.005 C 
BRANCH   6  12
ATOM     12  C   UNL A   1      30.781  24.910  25.798  1.00  0.00     0.229 C 
ATOM     13  N   UNL A   1      30.311  26.163  25.563  1.00  0.00    -0.317 N 
ATOM     14  H   UNL A   1      29.505  26.387  26.083  1.00  0.00     0.170 HD
ATOM     15  O   UNL A   1      30.165  24.291  26.686  1.00  0.00    -0.274 OA
BRANCH  13  16
ATOM     16  C   UNL A   1      30.738  27.173  24.745  1.00  0.00     0.110 A 
ATOM     17  C   UNL A   1      30.103  27.798  23.681  1.00  0.00     0.095 A 
ATOM     18  C   UNL A   1      31.113  28.496  22.918  1.00  0.00     0.033 A 
ATOM     19  C   UNL A   1      32.304  28.600  23.626  1.00  0.00     0.007 A 
ATOM     20  S   UNL A   1      31.936  28.261  25.271  1.00  0.00    -0.122 S 
BRANCH  17  21
ATOM     21  C   UNL A   1      28.684  27.655  23.396  1.00  0.00     0.341 C 
ATOM     22  O   UNL A   1      28.012  26.750  23.881  1.00  0.00    -0.246 OA
BRANCH  21  23
ATOM     23  O   UNL A   1      28.185  28.684  22.658  1.00  0.00    -0.462 OA
BRANCH  23  24
ATOM     24  C   UNL A   1      27.259  29.567  23.313  1.00  0.00     0.230 C 
ATOM     25  C   UNL A   1      27.653  31.033  23.281  1.00  0.00     0.049 C 
ENDBRANCH  23  24
ENDBRANCH  21  23
ENDBRANCH  17  21
BRANCH  19  26
ATOM     26  C   UNL A   1      33.673  28.991  23.152  1.00  0.00     0.043 C 
ATOM     27  C   UNL A   1      34.291  28.102  22.079  1.00  0.00     0.010 C 
ENDBRANCH  19  26
ENDBRANCH  13  16
ENDBRANCH   6  12
ENDBRANCH   3   5
ENDBRANCH   2   3
ENDBRANCH   1   2
BRANCH   1  28
ATOM     28  C   UNL A   1      36.887  22.783  24.304  1.00  0.00     0.202 C 
BRANCH  28  29
ATOM     29  O   UNL A   1      37.323  21.434  24.494  1.00  0.00    -0.374 OA
BRANCH  29  30
ATOM     30  C   UNL A   1      38.400  21.284  25.423  1.00  0.00     0.202 C 
BRANCH  30  31
ATOM     31  C   UNL A   1      39.078  19.916  25.408  1.00  0.00     0.261 C 
BRANCH  31  32
ATOM     32  O   UNL A   1      39.952  19.800  26.545  1.00  0.00    -0.460 OA
BRANCH  32  33
ATOM     33  C   UNL A   1      41.258  19.653  26.241  1.00  0.00     0.338 C 
ATOM     34  O   UNL A   1      41.797  18.678  25.745  1.00  0.00    -0.246 OA
BRANCH  33  35
ATOM     35  C   UNL A   1      41.961  20.936  26.437  1.00  0.00     0.060 A 
ATOM     36  C   UNL A   1      42.290  21.280  27.753  1.00  0.00     0.016 A 
ATOM     37  C   UNL A   1      42.247  21.809  25.382  1.00  0.00     0.016 A 
ATOM     38  C   UNL A   1      42.824  22.532  28.033  1.00  0.00     0.010 A 
ATOM     39  C   UNL A   1      42.780  23.071  25.664  1.00  0.00     0.010 A 
ATOM     40  C   UNL A   1      43.018  23.453  26.997  1.00  0.00    -0.014 A 
BRANCH  40  41
ATOM     41  C   UNL A   1      43.268  24.871  27.346  1.00  0.00     0.031 A 
ATOM     42  C   UNL A   1      44.628  25.448  27.064  1.00  0.00     0.074 A 
ATOM     43  C   UNL A   1      42.287  25.647  27.835  1.00  0.00     0.049 A 
ATOM     44  N   UNL A   1      45.072  26.664  27.258  1.00  0.00    -0.248 NA
ATOM     45  C   UNL A   1      45.622  24.530  26.481  1.00  0.00     0.031 C 
ATOM     46  C   UNL A   1      40.919  25.210  28.105  1.00  0.00     0.029 A 
ATOM     47  N   UNL A   1      42.294  26.974  28.182  1.00  0.00    -0.354 N 
ATOM     48  C   UNL A   1      46.392  26.654  26.824  1.00  0.00     0.074 A 
ATOM     49  C   UNL A   1      46.690  25.308  26.389  1.00  0.00     0.031 C 
ATOM     50  C   UNL A   1      40.217  26.251  28.584  1.00  0.00     0.029 A 
ATOM     51  C   UNL A   1      41.093  27.419  28.673  1.00  0.00     0.049 A 
ATOM     52  H   UNL A   1      43.086  27.551  28.089  1.00  0.00     0.167 HD
ATOM     53  C   UNL A   1      47.275  27.681  26.781  1.00  0.00     0.037 A 
ATOM     54  C   UNL A   1      40.748  28.630  29.151  1.00  0.00     0.037 A 
ATOM     55  C   UNL A   1      46.976  29.020  27.212  1.00  0.00     0.049 A 
ATOM     56  C   UNL A   1      41.765  29.739  29.152  1.00  0.00     0.074 A 
ATOM     57  C   UNL A   1      47.796  30.133  27.199  1.00  0.00     0.029 A 
ATOM     58  N   UNL A   1      45.758  29.422  27.737  1.00  0.00    -0.354 N 
ATOM     59  N   UNL A   1      43.004  29.726  28.720  1.00  0.00    -0.248 NA
ATOM     60  C   UNL A   1      41.335  31.033  29.701  1.00  0.00     0.031 C 
ATOM     61  C   UNL A   1      47.087  31.202  27.759  1.00  0.00     0.029 A 
ATOM     62  C   UNL A   1      45.810  30.764  28.075  1.00  0.00     0.049 A 
ATOM     63  H   UNL A   1      44.972  28.841  27.854  1.00  0.00     0.167 HD
ATOM     64  C   UNL A   1      43.491  31.013  28.920  1.00  0.00     0.074 A 
ATOM     65  C   UNL A   1      42.409  31.782  29.501  1.00  0.00     0.031 C 
ATOM     66  C   UNL A   1      44.720  31.513  28.645  1.00  0.00     0.037 A 
BRANCH  53  67
ATOM     67  C   UNL A   1      48.654  27.382  26.272  1.00  0.00     0.057 A 
ATOM     68  C   UNL A   1      48.972  27.456  24.910  1.00  0.00     0.134 A 
ATOM     69  C   UNL A   1      49.681  27.034  27.157  1.00  0.00     0.134 A 
ATOM     70  F   UNL A   1      48.029  27.767  24.006  1.00  0.00    -0.206 F 
ATOM     71  C   UNL A   1      50.258  27.173  24.445  1.00  0.00     0.040 A 
ATOM     72  C   UNL A   1      50.976  26.773  26.708  1.00  0.00     0.040 A 
ATOM     73  F   UNL A   1      49.443  26.947  28.475  1.00  0.00    -0.206 F 
ATOM     74  C   UNL A   1      51.266  26.837  25.346  1.00  0.00     0.006 A 
ENDBRANCH  53  67
BRANCH  54  75
ATOM     75  C   UNL A   1      39.377  28.857  29.675  1.00  0.00     0.057 A 
ATOM     76  C   UNL A   1      38.357  29.350  28.854  1.00  0.00     0.134 A 
ATOM     77  C   UNL A   1      39.062  28.603  31.015  1.00  0.00     0.134 A 
ATOM     78  F   UNL A   1      38.604  29.634  27.567  1.00  0.00    -0.206 F 
ATOM     79  C   UNL A   1      37.074  29.595  29.349  1.00  0.00     0.040 A 
ATOM     80  C   UNL A   1      37.778  28.821  31.519  1.00  0.00     0.040 A 
ATOM     81  F   UNL A   1      39.996  28.130  31.854  1.00  0.00    -0.206 F 
ATOM     82  C   UNL A   1      36.782  29.326  30.685  1.00  0.00     0.006 A 
ENDBRANCH  54  75
BRANCH  66  83
ATOM     83  C   UNL A   1      44.952  32.966  28.937  1.00  0.00     0.057 A 
ATOM     84  C   UNL A   1      44.626  33.967  28.013  1.00  0.00     0.134 A 
ATOM     85  C   UNL A   1      45.468  33.370  30.175  1.00  0.00     0.134 A 
ATOM     86  F   UNL A   1      44.139  33.645  26.805  1.00  0.00    -0.206 F 
ATOM     87  C   UNL A   1      44.826  35.318  28.302  1.00  0.00     0.040 A 
ATOM     88  C   UNL A   1      45.649  34.719  30.485  1.00  0.00     0.040 A 
ATOM     89  F   UNL A   1      45.791  32.462  31.107  1.00  0.00    -0.206 F 
ATOM     90  C   UNL A   1      45.333  35.696  29.544  1.00  0.00     0.006 A 
ENDBRANCH  66  83
ENDBRANCH  40  41
ENDBRANCH  33  35
ENDBRANCH  32  33
ENDBRANCH  31  32
ENDBRANCH  30  31
ENDBRANCH  29  30
ENDBRANCH  28  29
ENDBRANCH   1  28
TORSDOF 20
ENDMDL
MODEL 2
REMARK VINA RESULT:     -10.7      1.633      2.664
REMARK SMILES CCOC(=O)c1cc(CC)sc1NC(=O)[C@H]1[C@@H]2CC[C@@H](C2)[C@@H]1C(=O)OCCOCCOC(=O)c1ccc(-c2c3nc(c(-c4c(F)cccc4F)c4ccc([nH]4)c(-c4c(F)cccc4F)c4nc(c(-c5c(F)cccc5F)c5ccc2[nH]5)C=C4)C=C3)cc1
REMARK SMILES IDX 26 1 25 2 23 3 24 4 22 5 16 6 17 7 18 8 21 9 20 10 19 11
REMARK SMILES IDX 14 12 13 13 15 15 12 16 6 17 7 18 8 19 11 20 4 21 5 22 3 23
REMARK SMILES IDX 2 24 1 25 9 26 10 27 27 28 28 29 29 30 30 31 31 32 32 33
REMARK SMILES IDX 33 34 34 35 35 36 87 37 36 38 86 39 37 40 38 41 39 42 80 43
REMARK SMILES IDX 40 44 85 45 79 46 81 47 41 48 84 49 78 50 77 51 42 53 68 54
REMARK SMILES IDX 51 55 67 56 52 57 55 58 66 59 82 60 53 61 54 62 65 64 83 65
REMARK SMILES IDX 56 66 43 67 44 68 49 69 45 70 46 71 48 72 50 73 47 74 69 75
REMARK SMILES IDX 70 76 75 77 71 78 72 79 74 80 76 81 73 82 57 83 58 84 63 85
REMARK SMILES IDX 59 86 60 87 62 88 64 89 61 90
REMARK H PARENT 13 14 81 52 55 63
REMARK Flexibility Score: inf
ROOT
ATOM      1  C   UNL A   1      36.681  23.857  25.417  1.00  0.00     0.261 C 
ENDROOT
BRANCH   1   2
ATOM      2  O   UNL A   1      35.359  24.429  25.414  1.00  0.00    -0.463 OA
BRANCH   2   3
ATOM      3  C   UNL A   1      34.395  23.727  26.075  1.00  0.00     0.310 C 
ATOM      4  O   UNL A   1      34.560  23.112  27.116  1.00  0.00    -0.252 OA
BRANCH   3   5
ATOM      5  C   UNL A   1      33.119  23.718  25.259  1.00  0.00     0.115 C 
ATOM      6  C   UNL A   1      31.865  23.210  25.973  1.00  0.00     0.096 C 
ATOM      7  C   UNL A   1      31.226  22.281  24.898  1.00  0.00     0.003 C 
ATOM      8  C   UNL A   1      32.034  20.960  24.867  1.00  0.00     0.005 C 
ATOM      9  C   UNL A   1      31.673  22.912  23.581  1.00  0.00     0.009 C 
ATOM     10  C   UNL A   1      33.157  22.881  23.963  1.00  0.00     0.004 C 
ATOM     11  C   UNL A   1      33.373  21.390  24.253  1.00  0.00     0.005 C 
BRANCH   6  12
ATOM     12  C   UNL A   1      30.825  24.090  26.705  1.00  0.00     0.229 C 
ATOM     13  N   UNL A   1      30.640  25.435  26.655  1.00  0.00    -0.317 N 
ATOM     14  H   UNL A   1      29.784  25.731  27.043  1.00  0.00     0.170 HD
ATOM     15  O   UNL A   1      29.924  23.471  27.302  1.00  0.00    -0.274 OA
BRANCH  13  16
ATOM     16  C   UNL A   1      31.409  26.458  26.172  1.00  0.00     0.110 A 
ATOM     17  C   UNL A   1      31.599  26.903  24.872  1.00  0.00     0.095 A 
ATOM     18  C   UNL A   1      32.789  27.724  24.860  1.00  0.00     0.033 A 
ATOM     19  C   UNL A   1      33.179  28.072  26.147  1.00  0.00     0.007 A 
ATOM     20  S   UNL A   1      31.836  27.765  27.174  1.00  0.00    -0.122 S 
BRANCH  17  21
ATOM     21  C   UNL A   1      30.760  26.500  23.754  1.00  0.00     0.341 C 
ATOM     22  O   UNL A   1      29.772  25.789  23.907  1.00  0.00    -0.246 OA
BRANCH  21  23
ATOM     23  O   UNL A   1      31.119  27.092  22.581  1.00  0.00    -0.462 OA
BRANCH  23  24
ATOM     24  C   UNL A   1      31.608  26.229  21.540  1.00  0.00     0.230 C 
ATOM     25  C   UNL A   1      33.057  25.804  21.701  1.00  0.00     0.049 C 
ENDBRANCH  23  24
ENDBRANCH  21  23
ENDBRANCH  17  21
BRANCH  19  26
ATOM     26  C   UNL A   1      34.467  28.670  26.632  1.00  0.00     0.043 C 
ATOM     27  C   UNL A   1      34.352  29.985  27.395  1.00  0.00     0.010 C 
ENDBRANCH  19  26
ENDBRANCH  13  16
ENDBRANCH   6  12
ENDBRANCH   3   5
ENDBRANCH   2   3
ENDBRANCH   1   2
BRANCH   1  28
ATOM     28  C   UNL A   1      36.952  23.067  24.134  1.00  0.00     0.202 C 
BRANCH  28  29
ATOM     29  O   UNL A   1      36.625  21.677  24.209  1.00  0.00    -0.374 OA
BRANCH  29  30
ATOM     30  C   UNL A   1      37.073  21.025  25.399  1.00  0.00     0.202 C 
BRANCH  30  31
ATOM     31  C   UNL A   1      38.300  20.133  25.223  1.00  0.00     0.261 C 
BRANCH  31  32
ATOM     32  O   UNL A   1      39.493  20.928  25.332  1.00  0.00    -0.460 OA
BRANCH  32  33
ATOM     33  C   UNL A   1      40.197  20.738  26.467  1.00  0.00     0.338 C 
ATOM     34  O   UNL A   1      40.665  19.691  26.881  1.00  0.00    -0.246 OA
BRANCH  33  35
ATOM     35  C   UNL A   1      40.487  22.041  27.097  1.00  0.00     0.060 A 
ATOM     36  C   UNL A   1      39.790  23.150  26.601  1.00  0.00     0.016 A 
ATOM     37  C   UNL A   1      41.447  22.198  28.102  1.00  0.00     0.016 A 
ATOM     38  C   UNL A   1      40.111  24.428  27.042  1.00  0.00     0.010 A 
ATOM     39  C   UNL A   1      41.772  23.484  28.542  1.00  0.00     0.010 A 
ATOM     40  C   UNL A   1      41.142  24.605  27.973  1.00  0.00    -0.014 A 
BRANCH  40  41
ATOM     41  C   UNL A   1      41.685  25.967  28.179  1.00  0.00     0.031 A 
ATOM     42  C   UNL A   1      43.040  26.291  27.611  1.00  0.00     0.074 A 
ATOM     43  C   UNL A   1      40.959  26.917  28.793  1.00  0.00     0.049 A 
ATOM     44  N   UNL A   1      43.707  27.417  27.642  1.00  0.00    -0.248 NA
ATOM     45  C   UNL A   1      43.736  25.198  26.912  1.00  0.00     0.031 C 
ATOM     46  C   UNL A   1      39.617  26.731  29.342  1.00  0.00     0.029 A 
ATOM     47  N   UNL A   1      41.252  28.232  29.048  1.00  0.00    -0.354 N 
ATOM     48  C   UNL A   1      44.897  27.166  26.970  1.00  0.00     0.074 A 
ATOM     49  C   UNL A   1      44.878  25.776  26.572  1.00  0.00     0.031 C 
ATOM     50  C   UNL A   1      39.203  27.893  29.877  1.00  0.00     0.029 A 
ATOM     51  C   UNL A   1      40.259  28.893  29.727  1.00  0.00     0.049 A 
ATOM     52  H   UNL A   1      42.095  28.659  28.772  1.00  0.00     0.167 HD
ATOM     53  C   UNL A   1      45.910  28.022  26.698  1.00  0.00     0.037 A 
ATOM     54  C   UNL A   1      40.218  30.159  30.184  1.00  0.00     0.037 A 
ATOM     55  C   UNL A   1      45.925  29.405  27.092  1.00  0.00     0.049 A 
ATOM     56  C   UNL A   1      41.384  31.075  29.924  1.00  0.00     0.074 A 
ATOM     57  C   UNL A   1      46.899  30.359  26.855  1.00  0.00     0.029 A 
ATOM     58  N   UNL A   1      44.916  30.028  27.810  1.00  0.00    -0.354 N 
ATOM     59  N   UNL A   1      42.496  30.835  29.270  1.00  0.00    -0.248 NA
ATOM     60  C   UNL A   1      41.288  32.439  30.461  1.00  0.00     0.031 C 
ATOM     61  C   UNL A   1      46.498  31.550  27.470  1.00  0.00     0.029 A 
ATOM     62  C   UNL A   1      45.253  31.350  28.047  1.00  0.00     0.049 A 
ATOM     63  H   UNL A   1      44.084  29.596  28.108  1.00  0.00     0.167 HD
ATOM     64  C   UNL A   1      43.217  32.023  29.294  1.00  0.00     0.074 A 
ATOM     65  C   UNL A   1      42.411  32.985  30.017  1.00  0.00     0.031 C 
ATOM     66  C   UNL A   1      44.434  32.294  28.762  1.00  0.00     0.037 A 
BRANCH  53  67
ATOM     67  C   UNL A   1      47.095  27.474  25.959  1.00  0.00     0.057 A 
ATOM     68  C   UNL A   1      48.172  26.876  26.627  1.00  0.00     0.134 A 
ATOM     69  C   UNL A   1      47.151  27.528  24.562  1.00  0.00     0.134 A 
ATOM     70  F   UNL A   1      48.189  26.808  27.968  1.00  0.00    -0.206 F 
ATOM     71  C   UNL A   1      49.273  26.372  25.931  1.00  0.00     0.040 A 
ATOM     72  C   UNL A   1      48.234  27.005  23.853  1.00  0.00     0.040 A 
ATOM     73  F   UNL A   1      46.152  28.086  23.862  1.00  0.00    -0.206 F 
ATOM     74  C   UNL A   1      49.302  26.430  24.539  1.00  0.00     0.006 A 
ENDBRANCH  53  67
BRANCH  54  75
ATOM     75  C   UNL A   1      39.032  30.636  30.939  1.00  0.00     0.057 A 
ATOM     76  C   UNL A   1      38.919  30.435  32.319  1.00  0.00     0.134 A 
ATOM     77  C   UNL A   1      37.976  31.289  30.293  1.00  0.00     0.134 A 
ATOM     78  F   UNL A   1      39.889  29.794  32.990  1.00  0.00    -0.206 F 
ATOM     79  C   UNL A   1      37.792  30.853  33.029  1.00  0.00     0.040 A 
ATOM     80  C   UNL A   1      36.853  31.735  30.994  1.00  0.00     0.040 A 
ATOM     81  F   UNL A   1      38.023  31.512  28.971  1.00  0.00    -0.206 F 
ATOM     82  C   UNL A   1      36.757  31.509  32.366  1.00  0.00     0.006 A 
ENDBRANCH  54  75
BRANCH  66  83
ATOM     83  C   UNL A   1      44.953  33.693  28.913  1.00  0.00     0.057 A 
ATOM     84  C   UNL A   1      45.759  34.071  29.995  1.00  0.00     0.134 A 
ATOM     85  C   UNL A   1      44.679  34.663  27.940  1.00  0.00     0.134 A 
ATOM     86  F   UNL A   1      46.048  33.191  30.966  1.00  0.00    -0.206 F 
ATOM     87  C   UNL A   1      46.254  35.370  30.115  1.00  0.00     0.040 A 
ATOM     88  C   UNL A   1      45.188  35.958  28.037  1.00  0.00     0.040 A 
ATOM     89  F   UNL A   1      43.922  34.363  26.875  1.00  0.00    -0.206 F 
ATOM     90  C   UNL A   1      45.974  36.315  29.130  1.00  0.00     0.006 A 
ENDBRANCH  66  83
ENDBRANCH  40  41
ENDBRANCH  33  35
ENDBRANCH  32  33
ENDBRANCH  31  32
ENDBRANCH  30  31
ENDBRANCH  29  30
ENDBRANCH  28  29
ENDBRANCH   1  28
TORSDOF 20
ENDMDL
MODEL 3
REMARK VINA RESULT:     -10.7      4.445      9.865
REMARK SMILES CCOC(=O)c1cc(CC)sc1NC(=O)[C@H]1[C@@H]2CC[C@@H](C2)[C@@H]1C(=O)OCCOCCOC(=O)c1ccc(-c2c3nc(c(-c4c(F)cccc4F)c4ccc([nH]4)c(-c4c(F)cccc4F)c4nc(c(-c5c(F)cccc5F)c5ccc2[nH]5)C=C4)C=C3)cc1
REMARK SMILES IDX 26 1 25 2 23 3 24 4 22 5 16 6 17 7 18 8 21 9 20 10 19 11
REMARK SMILES IDX 14 12 13 13 15 15 12 16 6 17 7 18 8 19 11 20 4 21 5 22 3 23
REMARK SMILES IDX 2 24 1 25 9 26 10 27 27 28 28 29 29 30 30 31 31 32 32 33
REMARK SMILES IDX 33 34 34 35 35 36 87 37 36 38 86 39 37 40 38 41 39 42 80 43
REMARK SMILES IDX 40 44 85 45 79 46 81 47 41 48 84 49 78 50 77 51 42 53 68 54
REMARK SMILES IDX 51 55 67 56 52 57 55 58 66 59 82 60 53 61 54 62 65 64 83 65
REMARK SMILES IDX 56 66 43 67 44 68 49 69 45 70 46 71 48 72 50 73 47 74 69 75
REMARK SMILES IDX 70 76 75 77 71 78 72 79 74 80 76 81 73 82 57 83 58 84 63 85
REMARK SMILES IDX 59 86 60 87 62 88 64 89 61 90
REMARK H PARENT 13 14 81 52 55 63
REMARK Flexibility Score: inf
ROOT
ATOM      1  C   UNL A   1      32.906  29.338  24.814  1.00  0.00     0.261 C 
ENDROOT
BRANCH   1   2
ATOM      2  O   UNL A   1      32.888  27.934  24.493  1.00  0.00    -0.463 OA
BRANCH   2   3
ATOM      3  C   UNL A   1      33.171  27.077  25.515  1.00  0.00     0.310 C 
ATOM      4  O   UNL A   1      33.845  27.349  26.496  1.00  0.00    -0.252 OA
BRANCH   3   5
ATOM      5  C   UNL A   1      32.630  25.700  25.193  1.00  0.00     0.115 C 
ATOM      6  C   UNL A   1      32.434  25.382  23.709  1.00  0.00     0.096 C 
ATOM      7  C   UNL A   1      31.033  24.701  23.698  1.00  0.00     0.003 C 
ATOM      8  C   UNL A   1      29.962  25.809  23.848  1.00  0.00     0.005 C 
ATOM      9  C   UNL A   1      30.953  24.047  25.076  1.00  0.00     0.009 C 
ATOM     10  C   UNL A   1      31.262  25.354  25.816  1.00  0.00     0.004 C 
ATOM     11  C   UNL A   1      30.149  26.275  25.299  1.00  0.00     0.005 C 
BRANCH   6  12
ATOM     12  C   UNL A   1      33.459  24.669  22.797  1.00  0.00     0.229 C 
ATOM     13  N   UNL A   1      33.802  23.356  22.739  1.00  0.00    -0.317 N 
ATOM     14  H   UNL A   1      34.320  23.117  21.936  1.00  0.00     0.170 HD
ATOM     15  O   UNL A   1      33.926  25.360  21.871  1.00  0.00    -0.274 OA
BRANCH  13  16
ATOM     16  C   UNL A   1      33.568  22.301  23.578  1.00  0.00     0.110 A 
ATOM     17  C   UNL A   1      34.016  22.063  24.870  1.00  0.00     0.095 A 
ATOM     18  C   UNL A   1      33.824  20.656  25.147  1.00  0.00     0.033 A 
ATOM     19  C   UNL A   1      32.989  20.063  24.209  1.00  0.00     0.007 A 
ATOM     20  S   UNL A   1      32.179  21.338  23.387  1.00  0.00    -0.122 S 
BRANCH  17  21
ATOM     21  C   UNL A   1      34.641  23.077  25.703  1.00  0.00     0.341 C 
ATOM     22  O   UNL A   1      34.268  23.295  26.851  1.00  0.00    -0.246 OA
BRANCH  21  23
ATOM     23  O   UNL A   1      35.733  23.644  25.120  1.00  0.00    -0.462 OA
BRANCH  23  24
ATOM     24  C   UNL A   1      36.984  22.951  25.267  1.00  0.00     0.230 C 
ATOM     25  C   UNL A   1      38.041  23.717  26.042  1.00  0.00     0.049 C 
ENDBRANCH  23  24
ENDBRANCH  21  23
ENDBRANCH  17  21
BRANCH  19  26
ATOM     26  C   UNL A   1      32.725  18.611  23.939  1.00  0.00     0.043 C 
ATOM     27  C   UNL A   1      32.429  18.240  22.490  1.00  0.00     0.010 C 
ENDBRANCH  19  26
ENDBRANCH  13  16
ENDBRANCH   6  12
ENDBRANCH   3   5
ENDBRANCH   2   3
ENDBRANCH   1   2
BRANCH   1  28
ATOM     28  C   UNL A   1      31.692  29.736  25.657  1.00  0.00     0.202 C 
BRANCH  28  29
ATOM     29  O   UNL A   1      31.361  31.127  25.606  1.00  0.00    -0.374 OA
BRANCH  29  30
ATOM     30  C   UNL A   1      31.363  31.785  26.875  1.00  0.00     0.202 C 
BRANCH  30  31
ATOM     31  C   UNL A   1      32.054  33.147  26.895  1.00  0.00     0.261 C 
BRANCH  31  32
ATOM     32  O   UNL A   1      32.208  33.589  28.255  1.00  0.00    -0.460 OA
BRANCH  32  33
ATOM     33  C   UNL A   1      33.266  34.398  28.470  1.00  0.00     0.338 C 
ATOM     34  O   UNL A   1      33.250  35.606  28.638  1.00  0.00    -0.246 OA
BRANCH  33  35
ATOM     35  C   UNL A   1      34.485  33.586  28.649  1.00  0.00     0.060 A 
ATOM     36  C   UNL A   1      34.314  32.301  29.177  1.00  0.00     0.016 A 
ATOM     37  C   UNL A   1      35.765  34.074  28.367  1.00  0.00     0.016 A 
ATOM     38  C   UNL A   1      35.423  31.531  29.507  1.00  0.00     0.010 A 
ATOM     39  C   UNL A   1      36.881  33.301  28.704  1.00  0.00     0.010 A 
ATOM     40  C   UNL A   1      36.711  32.051  29.325  1.00  0.00    -0.014 A 
BRANCH  40  41
ATOM     41  C   UNL A   1      37.850  31.366  29.978  1.00  0.00     0.031 A 
ATOM     42  C   UNL A   1      38.132  31.666  31.424  1.00  0.00     0.074 A 
ATOM     43  C   UNL A   1      38.574  30.445  29.319  1.00  0.00     0.049 A 
ATOM     44  N   UNL A   1      39.054  31.173  32.212  1.00  0.00    -0.248 NA
ATOM     45  C   UNL A   1      37.253  32.654  32.072  1.00  0.00     0.031 C 
ATOM     46  C   UNL A   1      38.364  30.040  27.931  1.00  0.00     0.029 A 
ATOM     47  N   UNL A   1      39.629  29.677  29.742  1.00  0.00    -0.354 N 
ATOM     48  C   UNL A   1      38.866  31.791  33.442  1.00  0.00     0.074 A 
ATOM     49  C   UNL A   1      37.767  32.718  33.291  1.00  0.00     0.031 C 
ATOM     50  C   UNL A   1      39.268  29.098  27.612  1.00  0.00     0.029 A 
ATOM     51  C   UNL A   1      40.132  28.853  28.767  1.00  0.00     0.049 A 
ATOM     52  H   UNL A   1      39.990  29.715  30.656  1.00  0.00     0.167 HD
ATOM     53  C   UNL A   1      39.542  31.593  34.598  1.00  0.00     0.037 A 
ATOM     54  C   UNL A   1      41.180  28.008  28.803  1.00  0.00     0.037 A 
ATOM     55  C   UNL A   1      40.633  30.668  34.747  1.00  0.00     0.049 A 
ATOM     56  C   UNL A   1      41.957  27.852  30.083  1.00  0.00     0.074 A 
ATOM     57  C   UNL A   1      41.376  30.385  35.879  1.00  0.00     0.029 A 
ATOM     58  N   UNL A   1      41.137  29.878  33.726  1.00  0.00    -0.354 N 
ATOM     59  N   UNL A   1      41.758  28.424  31.247  1.00  0.00    -0.248 NA
ATOM     60  C   UNL A   1      43.099  26.928  30.057  1.00  0.00     0.031 C 
ATOM     61  C   UNL A   1      42.361  29.454  35.530  1.00  0.00     0.029 A 
ATOM     62  C   UNL A   1      42.199  29.123  34.194  1.00  0.00     0.049 A 
ATOM     63  H   UNL A   1      40.793  29.856  32.804  1.00  0.00     0.167 HD
ATOM     64  C   UNL A   1      42.732  27.911  32.095  1.00  0.00     0.074 A 
ATOM     65  C   UNL A   1      43.512  26.972  31.315  1.00  0.00     0.031 C 
ATOM     66  C   UNL A   1      42.958  28.188  33.403  1.00  0.00     0.037 A 
BRANCH  53  67
ATOM     67  C   UNL A   1      39.132  32.415  35.785  1.00  0.00     0.057 A 
ATOM     68  C   UNL A   1      38.291  31.905  36.783  1.00  0.00     0.134 A 
ATOM     69  C   UNL A   1      39.599  33.725  35.940  1.00  0.00     0.134 A 
ATOM     70  F   UNL A   1      37.795  30.662  36.685  1.00  0.00    -0.206 F 
ATOM     71  C   UNL A   1      37.912  32.679  37.882  1.00  0.00     0.040 A 
ATOM     72  C   UNL A   1      39.247  34.500  37.046  1.00  0.00     0.040 A 
ATOM     73  F   UNL A   1      40.409  34.273  35.020  1.00  0.00    -0.206 F 
ATOM     74  C   UNL A   1      38.396  33.979  38.019  1.00  0.00     0.006 A 
ENDBRANCH  53  67
BRANCH  54  75
ATOM     75  C   UNL A   1      41.561  27.247  27.587  1.00  0.00     0.057 A 
ATOM     76  C   UNL A   1      42.377  27.812  26.600  1.00  0.00     0.134 A 
ATOM     77  C   UNL A   1      41.102  25.941  27.376  1.00  0.00     0.134 A 
ATOM     78  F   UNL A   1      42.829  29.068  26.735  1.00  0.00    -0.206 F 
ATOM     79  C   UNL A   1      42.712  27.111  25.440  1.00  0.00     0.040 A 
ATOM     80  C   UNL A   1      41.448  25.220  26.232  1.00  0.00     0.040 A 
ATOM     81  F   UNL A   1      40.316  25.343  28.283  1.00  0.00    -0.206 F 
ATOM     82  C   UNL A   1      42.250  25.809  25.256  1.00  0.00     0.006 A 
ENDBRANCH  54  75
BRANCH  66  83
ATOM     83  C   UNL A   1      44.070  27.444  34.081  1.00  0.00     0.057 A 
ATOM     84  C   UNL A   1      43.869  26.191  34.674  1.00  0.00     0.134 A 
ATOM     85  C   UNL A   1      45.368  27.971  34.104  1.00  0.00     0.134 A 
ATOM     86  F   UNL A   1      42.647  25.639  34.696  1.00  0.00    -0.206 F 
ATOM     87  C   UNL A   1      44.915  25.498  35.283  1.00  0.00     0.040 A 
ATOM     88  C   UNL A   1      46.427  27.276  34.689  1.00  0.00     0.040 A 
ATOM     89  F   UNL A   1      45.630  29.161  33.545  1.00  0.00    -0.206 F 
ATOM     90  C   UNL A   1      46.200  26.038  35.286  1.00  0.00     0.006 A 
ENDBRANCH  66  83
ENDBRANCH  40  41
ENDBRANCH  33  35
ENDBRANCH  32  33
ENDBRANCH  31  32
ENDBRANCH  30  31
ENDBRANCH  29  30
ENDBRANCH  28  29
ENDBRANCH   1  28
TORSDOF 20
ENDMDL
