MODEL 1
REMARK VINA RESULT:     -11.8      0.000      0.000
REMARK SMILES O=C(OCCOCCOC(=O)c1ccc(NC(=O)c2ccc([N+](=O)[O-])cc2Cl)cc1Cl)c1ccc(-c2c3nc(c(-c4c(F)cccc4F)c4ccc([nH]4)c(-c4c(F)cccc4F)c4nc(c(-c5c(F)cccc5F)c5ccc2[nH]5)C=C4)C=C3)cc1
REMARK SMILES IDX 7 1 6 2 5 3 4 4 3 5 2 6 1 7 32 8 33 9 85 10 34 11 84 12
REMARK SMILES IDX 35 13 36 14 37 15 78 16 38 17 83 18 77 19 79 20 39 21 82 22
REMARK SMILES IDX 76 23 75 24 40 26 66 27 49 28 65 29 50 30 53 31 64 32 80 33
REMARK SMILES IDX 51 34 52 35 63 37 81 38 54 39 41 40 42 41 47 42 43 43 44 44
REMARK SMILES IDX 46 45 48 46 45 47 67 48 68 49 73 50 69 51 70 52 72 53 74 54
REMARK SMILES IDX 71 55 55 56 56 57 61 58 57 59 58 60 60 61 62 62 59 63 8 64
REMARK SMILES IDX 9 65 10 66 11 67 12 68 13 69 30 70 14 71 29 72 31 73 15 74
REMARK SMILES IDX 16 75 17 76 18 78 19 79 20 80 27 81 21 82 26 83 28 84 22 85
REMARK SMILES IDX 23 86 24 87 25 88
REMARK H PARENT 79 25 53 36 16 77
REMARK Flexibility Score: inf
ROOT
ATOM      1  C   UNL A   1      39.454  22.113  26.511  1.00  0.00     0.202 C 
ENDROOT
BRANCH   1   2
ATOM      2  O   UNL A   1      40.397  21.171  27.045  1.00  0.00    -0.374 OA
BRANCH   2   3
ATOM      3  C   UNL A   1      41.336  20.646  26.102  1.00  0.00     0.202 C 
BRANCH   3   4
ATOM      4  C   UNL A   1      42.685  21.375  26.059  1.00  0.00     0.261 C 
BRANCH   4   5
ATOM      5  O   UNL A   1      42.634  22.490  25.153  1.00  0.00    -0.460 OA
BRANCH   5   6
ATOM      6  C   UNL A   1      43.119  23.741  25.327  1.00  0.00     0.338 C 
ATOM      7  O   UNL A   1      44.053  24.113  24.619  1.00  0.00    -0.246 OA
BRANCH   6   8
ATOM      8  C   UNL A   1      42.608  24.694  26.361  1.00  0.00     0.060 A 
ATOM      9  C   UNL A   1      41.738  24.352  27.397  1.00  0.00     0.016 A 
ATOM     10  C   UNL A   1      43.138  25.996  26.353  1.00  0.00     0.016 A 
ATOM     11  C   UNL A   1      41.374  25.263  28.376  1.00  0.00     0.010 A 
ATOM     12  C   UNL A   1      42.812  26.912  27.360  1.00  0.00     0.010 A 
ATOM     13  C   UNL A   1      41.930  26.538  28.376  1.00  0.00    -0.014 A 
BRANCH  13  14
ATOM     14  C   UNL A   1      41.533  27.453  29.456  1.00  0.00     0.031 A 
ATOM     15  C   UNL A   1      42.331  27.466  30.718  1.00  0.00     0.074 A 
ATOM     16  C   UNL A   1      40.543  28.337  29.228  1.00  0.00     0.049 A 
ATOM     17  N   UNL A   1      42.140  28.162  31.805  1.00  0.00    -0.248 NA
ATOM     18  C   UNL A   1      43.514  26.589  30.757  1.00  0.00     0.031 C 
ATOM     19  C   UNL A   1      39.799  28.462  27.970  1.00  0.00     0.029 A 
ATOM     20  N   UNL A   1      40.010  29.312  30.026  1.00  0.00    -0.354 N 
ATOM     21  C   UNL A   1      43.160  27.788  32.668  1.00  0.00     0.074 A 
ATOM     22  C   UNL A   1      43.975  26.813  31.980  1.00  0.00     0.031 C 
ATOM     23  C   UNL A   1      38.911  29.463  28.082  1.00  0.00     0.029 A 
ATOM     24  C   UNL A   1      38.975  29.998  29.436  1.00  0.00     0.049 A 
ATOM     25  H   UNL A   1      40.335  29.502  30.935  1.00  0.00     0.167 HD
ATOM     26  C   UNL A   1      43.376  28.222  33.930  1.00  0.00     0.037 A 
ATOM     27  C   UNL A   1      38.148  30.919  29.959  1.00  0.00     0.037 A 
ATOM     28  C   UNL A   1      42.545  29.197  34.581  1.00  0.00     0.049 A 
ATOM     29  C   UNL A   1      38.355  31.307  31.399  1.00  0.00     0.074 A 
ATOM     30  C   UNL A   1      42.638  29.694  35.866  1.00  0.00     0.029 A 
ATOM     31  N   UNL A   1      41.458  29.823  33.983  1.00  0.00    -0.354 N 
ATOM     32  N   UNL A   1      39.298  30.925  32.229  1.00  0.00    -0.248 NA
ATOM     33  C   UNL A   1      37.374  32.229  31.985  1.00  0.00     0.031 C 
ATOM     34  C   UNL A   1      41.576  30.582  36.063  1.00  0.00     0.029 A 
ATOM     35  C   UNL A   1      40.850  30.676  34.884  1.00  0.00     0.049 A 
ATOM     36  H   UNL A   1      41.164  29.680  33.054  1.00  0.00     0.167 HD
ATOM     37  C   UNL A   1      39.030  31.565  33.430  1.00  0.00     0.074 A 
ATOM     38  C   UNL A   1      37.855  32.384  33.210  1.00  0.00     0.031 C 
ATOM     39  C   UNL A   1      39.683  31.477  34.616  1.00  0.00     0.037 A 
BRANCH  26  40
ATOM     40  C   UNL A   1      44.494  27.586  34.697  1.00  0.00     0.057 A 
ATOM     41  C   UNL A   1      44.326  26.402  35.424  1.00  0.00     0.134 A 
ATOM     42  C   UNL A   1      45.765  28.174  34.701  1.00  0.00     0.134 A 
ATOM     43  F   UNL A   1      43.126  25.805  35.485  1.00  0.00    -0.206 F 
ATOM     44  C   UNL A   1      45.382  25.830  36.139  1.00  0.00     0.040 A 
ATOM     45  C   UNL A   1      46.833  27.602  35.393  1.00  0.00     0.040 A 
ATOM     46  F   UNL A   1      45.989  29.315  34.031  1.00  0.00    -0.206 F 
ATOM     47  C   UNL A   1      46.641  26.429  36.119  1.00  0.00     0.006 A 
ENDBRANCH  26  40
BRANCH  27  48
ATOM     48  C   UNL A   1      37.012  31.465  29.169  1.00  0.00     0.057 A 
ATOM     49  C   UNL A   1      37.013  32.780  28.689  1.00  0.00     0.134 A 
ATOM     50  C   UNL A   1      35.867  30.696  28.918  1.00  0.00     0.134 A 
ATOM     51  F   UNL A   1      38.067  33.579  28.912  1.00  0.00    -0.206 F 
ATOM     52  C   UNL A   1      35.912  33.317  28.018  1.00  0.00     0.040 A 
ATOM     53  C   UNL A   1      34.772  31.209  28.221  1.00  0.00     0.040 A 
ATOM     54  F   UNL A   1      35.794  29.427  29.349  1.00  0.00    -0.206 F 
ATOM     55  C   UNL A   1      34.787  32.529  27.780  1.00  0.00     0.006 A 
ENDBRANCH  27  48
BRANCH  39  56
ATOM     56  C   UNL A   1      39.141  32.299  35.744  1.00  0.00     0.057 A 
ATOM     57  C   UNL A   1      38.237  31.765  36.670  1.00  0.00     0.134 A 
ATOM     58  C   UNL A   1      39.570  33.617  35.934  1.00  0.00     0.134 A 
ATOM     59  F   UNL A   1      37.779  30.512  36.529  1.00  0.00    -0.206 F 
ATOM     60  C   UNL A   1      37.762  32.523  37.739  1.00  0.00     0.040 A 
ATOM     61  C   UNL A   1      39.124  34.376  37.015  1.00  0.00     0.040 A 
ATOM     62  F   UNL A   1      40.443  34.180  35.084  1.00  0.00    -0.206 F 
ATOM     63  C   UNL A   1      38.214  33.830  37.919  1.00  0.00     0.006 A 
ENDBRANCH  39  56
ENDBRANCH  13  14
ENDBRANCH   6   8
ENDBRANCH   5   6
ENDBRANCH   4   5
ENDBRANCH   3   4
ENDBRANCH   2   3
ENDBRANCH   1   2
BRANCH   1  64
ATOM     64  C   UNL A   1      38.610  21.425  25.437  1.00  0.00     0.261 C 
BRANCH  64  65
ATOM     65  O   UNL A   1      37.237  21.691  25.746  1.00  0.00    -0.460 OA
BRANCH  65  66
ATOM     66  C   UNL A   1      36.497  22.188  24.722  1.00  0.00     0.339 C 
ATOM     67  O   UNL A   1      36.795  22.214  23.544  1.00  0.00    -0.246 OA
BRANCH  66  68
ATOM     68  C   UNL A   1      35.130  22.442  25.220  1.00  0.00     0.078 A 
ATOM     69  C   UNL A   1      34.896  23.722  25.745  1.00  0.00     0.019 A 
ATOM     70  C   UNL A   1      34.079  21.530  25.154  1.00  0.00     0.057 A 
ATOM     71  C   UNL A   1      33.617  24.098  26.168  1.00  0.00     0.027 A 
ATOM     72  C   UNL A   1      32.798  21.919  25.569  1.00  0.00     0.047 A 
ATOM     73  Cl  UNL A   1      34.270  19.896  24.624  1.00  0.00    -0.083 Cl
ATOM     74  C   UNL A   1      32.548  23.210  26.058  1.00  0.00     0.043 A 
BRANCH  74  75
ATOM     75  N   UNL A   1      31.224  23.491  26.442  1.00  0.00    -0.322 N 
ATOM     76  C   UNL A   1      30.395  24.572  26.255  1.00  0.00     0.257 C 
ATOM     77  H   UNL A   1      30.803  22.761  26.952  1.00  0.00     0.170 HD
ATOM     78  O   UNL A   1      29.334  24.654  26.870  1.00  0.00    -0.269 OA
BRANCH  76  79
ATOM     79  C   UNL A   1      30.726  25.652  25.316  1.00  0.00     0.059 A 
ATOM     80  C   UNL A   1      31.024  26.909  25.864  1.00  0.00     0.022 A 
ATOM     81  C   UNL A   1      30.728  25.464  23.926  1.00  0.00     0.060 A 
ATOM     82  C   UNL A   1      31.410  27.960  25.028  1.00  0.00     0.086 A 
ATOM     83  C   UNL A   1      31.116  26.512  23.088  1.00  0.00     0.107 A 
ATOM     84  Cl  UNL A   1      30.277  23.970  23.189  1.00  0.00    -0.083 Cl
ATOM     85  C   UNL A   1      31.474  27.747  23.644  1.00  0.00     0.270 A 
BRANCH  85  86
ATOM     86  N   UNL A   1      31.951  28.822  22.766  1.00  0.00     0.062 N 
ATOM     87  O   UNL A   1      33.167  29.053  22.747  1.00  0.00    -0.258 OA
ATOM     88  O   UNL A   1      31.105  29.415  22.084  1.00  0.00    -0.258 OA
ENDBRANCH  85  86
ENDBRANCH  76  79
ENDBRANCH  74  75
ENDBRANCH  66  68
ENDBRANCH  65  66
ENDBRANCH  64  65
ENDBRANCH   1  64
TORSDOF 17
ENDMDL
MODEL 2
REMARK VINA RESULT:     -11.5      2.299      8.134
REMARK SMILES O=C(OCCOCCOC(=O)c1ccc(NC(=O)c2ccc([N+](=O)[O-])cc2Cl)cc1Cl)c1ccc(-c2c3nc(c(-c4c(F)cccc4F)c4ccc([nH]4)c(-c4c(F)cccc4F)c4nc(c(-c5c(F)cccc5F)c5ccc2[nH]5)C=C4)C=C3)cc1
REMARK SMILES IDX 7 1 6 2 5 3 4 4 3 5 2 6 1 7 32 8 33 9 85 10 34 11 84 12
REMARK SMILES IDX 35 13 36 14 37 15 78 16 38 17 83 18 77 19 79 20 39 21 82 22
REMARK SMILES IDX 76 23 75 24 40 26 66 27 49 28 65 29 50 30 53 31 64 32 80 33
REMARK SMILES IDX 51 34 52 35 63 37 81 38 54 39 41 40 42 41 47 42 43 43 44 44
REMARK SMILES IDX 46 45 48 46 45 47 67 48 68 49 73 50 69 51 70 52 72 53 74 54
REMARK SMILES IDX 71 55 55 56 56 57 61 58 57 59 58 60 60 61 62 62 59 63 8 64
REMARK SMILES IDX 9 65 10 66 11 67 12 68 13 69 30 70 14 71 29 72 31 73 15 74
REMARK SMILES IDX 16 75 17 76 18 78 19 79 20 80 27 81 21 82 26 83 28 84 22 85
REMARK SMILES IDX 23 86 24 87 25 88
REMARK H PARENT 79 25 53 36 16 77
REMARK Flexibility Score: inf
ROOT
ATOM      1  C   UNL A   1      32.261  29.539  26.641  1.00  0.00     0.202 C 
ENDROOT
BRANCH   1   2
ATOM      2  O   UNL A   1      32.345  30.836  27.251  1.00  0.00    -0.374 OA
BRANCH   2   3
ATOM      3  C   UNL A   1      31.433  31.812  26.740  1.00  0.00     0.202 C 
BRANCH   3   4
ATOM      4  C   UNL A   1      32.035  33.206  26.521  1.00  0.00     0.261 C 
BRANCH   4   5
ATOM      5  O   UNL A   1      32.153  33.912  27.768  1.00  0.00    -0.460 OA
BRANCH   5   6
ATOM      6  C   UNL A   1      33.253  34.481  28.315  1.00  0.00     0.338 C 
ATOM      7  O   UNL A   1      33.311  35.707  28.376  1.00  0.00    -0.246 OA
BRANCH   6   8
ATOM      8  C   UNL A   1      34.427  33.702  28.818  1.00  0.00     0.060 A 
ATOM      9  C   UNL A   1      35.756  34.121  28.733  1.00  0.00     0.016 A 
ATOM     10  C   UNL A   1      34.157  32.522  29.533  1.00  0.00     0.016 A 
ATOM     11  C   UNL A   1      36.789  33.393  29.300  1.00  0.00     0.010 A 
ATOM     12  C   UNL A   1      35.187  31.801  30.147  1.00  0.00     0.010 A 
ATOM     13  C   UNL A   1      36.507  32.245  30.032  1.00  0.00    -0.014 A 
BRANCH  13  14
ATOM     14  C   UNL A   1      37.638  31.529  30.639  1.00  0.00     0.031 A 
ATOM     15  C   UNL A   1      37.944  31.759  32.082  1.00  0.00     0.074 A 
ATOM     16  C   UNL A   1      38.283  30.598  29.912  1.00  0.00     0.049 A 
ATOM     17  N   UNL A   1      38.908  31.265  32.808  1.00  0.00    -0.248 NA
ATOM     18  C   UNL A   1      37.030  32.653  32.814  1.00  0.00     0.031 C 
ATOM     19  C   UNL A   1      37.957  30.234  28.529  1.00  0.00     0.029 A 
ATOM     20  N   UNL A   1      39.324  29.770  30.235  1.00  0.00    -0.354 N 
ATOM     21  C   UNL A   1      38.737  31.808  34.073  1.00  0.00     0.074 A 
ATOM     22  C   UNL A   1      37.572  32.662  34.023  1.00  0.00     0.031 C 
ATOM     23  C   UNL A   1      38.779  29.251  28.127  1.00  0.00     0.029 A 
ATOM     24  C   UNL A   1      39.729  28.968  29.195  1.00  0.00     0.049 A 
ATOM     25  H   UNL A   1      39.742  29.752  31.126  1.00  0.00     0.167 HD
ATOM     26  C   UNL A   1      39.505  31.611  35.168  1.00  0.00     0.037 A 
ATOM     27  C   UNL A   1      40.784  28.137  29.112  1.00  0.00     0.037 A 
ATOM     28  C   UNL A   1      40.655  30.751  35.180  1.00  0.00     0.049 A 
ATOM     29  C   UNL A   1      41.675  28.018  30.319  1.00  0.00     0.074 A 
ATOM     30  C   UNL A   1      41.533  30.494  36.215  1.00  0.00     0.029 A 
ATOM     31  N   UNL A   1      41.086  30.005  34.089  1.00  0.00    -0.354 N 
ATOM     32  N   UNL A   1      41.535  28.561  31.506  1.00  0.00    -0.248 NA
ATOM     33  C   UNL A   1      42.882  27.195  30.174  1.00  0.00     0.031 C 
ATOM     34  C   UNL A   1      42.526  29.633  35.734  1.00  0.00     0.029 A 
ATOM     35  C   UNL A   1      42.238  29.315  34.415  1.00  0.00     0.049 A 
ATOM     36  H   UNL A   1      40.637  29.974  33.214  1.00  0.00     0.167 HD
ATOM     37  C   UNL A   1      42.627  28.142  32.249  1.00  0.00     0.074 A 
ATOM     38  C   UNL A   1      43.404  27.271  31.389  1.00  0.00     0.031 C 
ATOM     39  C   UNL A   1      42.973  28.454  33.524  1.00  0.00     0.037 A 
BRANCH  26  40
ATOM     40  C   UNL A   1      39.168  32.398  36.397  1.00  0.00     0.057 A 
ATOM     41  C   UNL A   1      39.767  33.629  36.687  1.00  0.00     0.134 A 
ATOM     42  C   UNL A   1      38.220  31.909  37.305  1.00  0.00     0.134 A 
ATOM     43  F   UNL A   1      40.704  34.139  35.873  1.00  0.00    -0.206 F 
ATOM     44  C   UNL A   1      39.442  34.342  37.844  1.00  0.00     0.040 A 
ATOM     45  C   UNL A   1      37.872  32.620  38.453  1.00  0.00     0.040 A 
ATOM     46  F   UNL A   1      37.617  30.729  37.090  1.00  0.00    -0.206 F 
ATOM     47  C   UNL A   1      38.487  33.840  38.728  1.00  0.00     0.006 A 
ENDBRANCH  26  40
BRANCH  27  48
ATOM     48  C   UNL A   1      41.107  27.435  27.842  1.00  0.00     0.057 A 
ATOM     49  C   UNL A   1      41.867  28.044  26.836  1.00  0.00     0.134 A 
ATOM     50  C   UNL A   1      40.613  26.149  27.578  1.00  0.00     0.134 A 
ATOM     51  F   UNL A   1      42.352  29.281  27.013  1.00  0.00    -0.206 F 
ATOM     52  C   UNL A   1      42.100  27.415  25.611  1.00  0.00     0.040 A 
ATOM     53  C   UNL A   1      40.865  25.496  26.370  1.00  0.00     0.040 A 
ATOM     54  F   UNL A   1      39.875  25.505  28.494  1.00  0.00    -0.206 F 
ATOM     55  C   UNL A   1      41.600  26.135  25.376  1.00  0.00     0.006 A 
ENDBRANCH  27  48
BRANCH  39  56
ATOM     56  C   UNL A   1      44.231  27.835  34.049  1.00  0.00     0.057 A 
ATOM     57  C   UNL A   1      45.458  28.507  33.989  1.00  0.00     0.134 A 
ATOM     58  C   UNL A   1      44.202  26.581  34.669  1.00  0.00     0.134 A 
ATOM     59  F   UNL A   1      45.549  29.706  33.393  1.00  0.00    -0.206 F 
ATOM     60  C   UNL A   1      46.620  27.942  34.511  1.00  0.00     0.040 A 
ATOM     61  C   UNL A   1      45.352  26.019  35.221  1.00  0.00     0.040 A 
ATOM     62  F   UNL A   1      43.054  25.894  34.765  1.00  0.00    -0.206 F 
ATOM     63  C   UNL A   1      46.566  26.698  35.139  1.00  0.00     0.006 A 
ENDBRANCH  39  56
ENDBRANCH  13  14
ENDBRANCH   6   8
ENDBRANCH   5   6
ENDBRANCH   4   5
ENDBRANCH   3   4
ENDBRANCH   2   3
ENDBRANCH   1   2
BRANCH   1  64
ATOM     64  C   UNL A   1      32.162  29.702  25.124  1.00  0.00     0.261 C 
BRANCH  64  65
ATOM     65  O   UNL A   1      32.227  28.390  24.554  1.00  0.00    -0.460 OA
BRANCH  65  66
ATOM     66  C   UNL A   1      31.031  27.848  24.208  1.00  0.00     0.339 C 
ATOM     67  O   UNL A   1      30.109  28.401  23.640  1.00  0.00    -0.246 OA
BRANCH  66  68
ATOM     68  C   UNL A   1      31.122  26.384  24.372  1.00  0.00     0.078 A 
ATOM     69  C   UNL A   1      30.956  25.901  25.679  1.00  0.00     0.019 A 
ATOM     70  C   UNL A   1      31.309  25.478  23.330  1.00  0.00     0.057 A 
ATOM     71  C   UNL A   1      30.940  24.527  25.937  1.00  0.00     0.027 A 
ATOM     72  C   UNL A   1      31.280  24.102  23.595  1.00  0.00     0.047 A 
ATOM     73  Cl  UNL A   1      31.626  25.957  21.700  1.00  0.00    -0.083 Cl
ATOM     74  C   UNL A   1      31.073  23.611  24.894  1.00  0.00     0.043 A 
BRANCH  74  75
ATOM     75  N   UNL A   1      31.061  22.212  25.041  1.00  0.00    -0.322 N 
ATOM     76  C   UNL A   1      32.053  21.265  25.145  1.00  0.00     0.257 C 
ATOM     77  H   UNL A   1      30.153  21.831  25.078  1.00  0.00     0.170 HD
ATOM     78  O   UNL A   1      31.778  20.069  25.065  1.00  0.00    -0.269 OA
BRANCH  76  79
ATOM     79  C   UNL A   1      33.458  21.630  25.367  1.00  0.00     0.059 A 
ATOM     80  C   UNL A   1      34.338  21.481  24.285  1.00  0.00     0.022 A 
ATOM     81  C   UNL A   1      33.926  22.090  26.606  1.00  0.00     0.060 A 
ATOM     82  C   UNL A   1      35.672  21.873  24.413  1.00  0.00     0.086 A 
ATOM     83  C   UNL A   1      35.260  22.485  26.738  1.00  0.00     0.107 A 
ATOM     84  Cl  UNL A   1      32.914  22.203  28.000  1.00  0.00    -0.083 Cl
ATOM     85  C   UNL A   1      36.120  22.394  25.635  1.00  0.00     0.270 A 
BRANCH  85  86
ATOM     86  N   UNL A   1      37.500  22.878  25.756  1.00  0.00     0.062 N 
ATOM     87  O   UNL A   1      38.413  22.063  25.573  1.00  0.00    -0.258 OA
ATOM     88  O   UNL A   1      37.661  24.078  26.013  1.00  0.00    -0.258 OA
ENDBRANCH  85  86
ENDBRANCH  76  79
ENDBRANCH  74  75
ENDBRANCH  66  68
ENDBRANCH  65  66
ENDBRANCH  64  65
ENDBRANCH   1  64
TORSDOF 17
ENDMDL
MODEL 3
REMARK VINA RESULT:     -11.2      1.974      6.694
REMARK SMILES O=C(OCCOCCOC(=O)c1ccc(NC(=O)c2ccc([N+](=O)[O-])cc2Cl)cc1Cl)c1ccc(-c2c3nc(c(-c4c(F)cccc4F)c4ccc([nH]4)c(-c4c(F)cccc4F)c4nc(c(-c5c(F)cccc5F)c5ccc2[nH]5)C=C4)C=C3)cc1
REMARK SMILES IDX 7 1 6 2 5 3 4 4 3 5 2 6 1 7 32 8 33 9 85 10 34 11 84 12
REMARK SMILES IDX 35 13 36 14 37 15 78 16 38 17 83 18 77 19 79 20 39 21 82 22
REMARK SMILES IDX 76 23 75 24 40 26 66 27 49 28 65 29 50 30 53 31 64 32 80 33
REMARK SMILES IDX 51 34 52 35 63 37 81 38 54 39 41 40 42 41 47 42 43 43 44 44
REMARK SMILES IDX 46 45 48 46 45 47 67 48 68 49 73 50 69 51 70 52 72 53 74 54
REMARK SMILES IDX 71 55 55 56 56 57 61 58 57 59 58 60 60 61 62 62 59 63 8 64
REMARK SMILES IDX 9 65 10 66 11 67 12 68 13 69 30 70 14 71 29 72 31 73 15 74
REMARK SMILES IDX 16 75 17 76 18 78 19 79 20 80 27 81 21 82 26 83 28 84 22 85
REMARK SMILES IDX 23 86 24 87 25 88
REMARK H PARENT 79 25 53 36 16 77
REMARK Flexibility Score: inf
ROOT
ATOM      1  C   UNL A   1      38.450  20.886  25.564  1.00  0.00     0.202 C 
ENDROOT
BRANCH   1   2
ATOM      2  O   UNL A   1      39.027  21.941  26.350  1.00  0.00    -0.374 OA
BRANCH   2   3
ATOM      3  C   UNL A   1      40.381  21.728  26.758  1.00  0.00     0.202 C 
BRANCH   3   4
ATOM      4  C   UNL A   1      41.326  22.909  26.501  1.00  0.00     0.261 C 
BRANCH   4   5
ATOM      5  O   UNL A   1      40.587  24.075  26.097  1.00  0.00    -0.460 OA
BRANCH   5   6
ATOM      6  C   UNL A   1      40.989  25.368  26.092  1.00  0.00     0.338 C 
ATOM      7  O   UNL A   1      41.642  25.776  25.134  1.00  0.00    -0.246 OA
BRANCH   6   8
ATOM      8  C   UNL A   1      40.715  26.327  27.207  1.00  0.00     0.060 A 
ATOM      9  C   UNL A   1      39.864  26.074  28.284  1.00  0.00     0.016 A 
ATOM     10  C   UNL A   1      41.462  27.518  27.228  1.00  0.00     0.016 A 
ATOM     11  C   UNL A   1      39.725  26.971  29.331  1.00  0.00     0.010 A 
ATOM     12  C   UNL A   1      41.363  28.411  28.301  1.00  0.00     0.010 A 
ATOM     13  C   UNL A   1      40.492  28.129  29.357  1.00  0.00    -0.014 A 
BRANCH  13  14
ATOM     14  C   UNL A   1      40.328  29.030  30.508  1.00  0.00     0.031 A 
ATOM     15  C   UNL A   1      39.250  30.062  30.465  1.00  0.00     0.074 A 
ATOM     16  C   UNL A   1      41.067  28.814  31.612  1.00  0.00     0.049 A 
ATOM     17  N   UNL A   1      38.951  30.976  31.346  1.00  0.00    -0.248 NA
ATOM     18  C   UNL A   1      38.379  30.055  29.277  1.00  0.00     0.031 C 
ATOM     19  C   UNL A   1      42.057  27.743  31.768  1.00  0.00     0.029 A 
ATOM     20  N   UNL A   1      41.087  29.461  32.818  1.00  0.00    -0.354 N 
ATOM     21  C   UNL A   1      37.878  31.672  30.809  1.00  0.00     0.074 A 
ATOM     22  C   UNL A   1      37.568  31.072  29.531  1.00  0.00     0.031 C 
ATOM     23  C   UNL A   1      42.580  27.804  33.002  1.00  0.00     0.029 A 
ATOM     24  C   UNL A   1      42.018  28.956  33.695  1.00  0.00     0.049 A 
ATOM     25  H   UNL A   1      40.494  30.215  33.035  1.00  0.00     0.167 HD
ATOM     26  C   UNL A   1      37.227  32.729  31.344  1.00  0.00     0.037 A 
ATOM     27  C   UNL A   1      42.398  29.415  34.900  1.00  0.00     0.037 A 
ATOM     28  C   UNL A   1      37.561  33.297  32.621  1.00  0.00     0.049 A 
ATOM     29  C   UNL A   1      41.720  30.653  35.422  1.00  0.00     0.074 A 
ATOM     30  C   UNL A   1      37.000  34.387  33.257  1.00  0.00     0.029 A 
ATOM     31  N   UNL A   1      38.559  32.809  33.456  1.00  0.00    -0.354 N 
ATOM     32  N   UNL A   1      40.729  31.335  34.897  1.00  0.00    -0.248 NA
ATOM     33  C   UNL A   1      42.225  31.203  36.687  1.00  0.00     0.031 C 
ATOM     34  C   UNL A   1      37.694  34.591  34.454  1.00  0.00     0.029 A 
ATOM     35  C   UNL A   1      38.654  33.598  34.588  1.00  0.00     0.049 A 
ATOM     36  H   UNL A   1      39.116  32.019  33.270  1.00  0.00     0.167 HD
ATOM     37  C   UNL A   1      40.486  32.387  35.767  1.00  0.00     0.074 A 
ATOM     38  C   UNL A   1      41.412  32.233  36.872  1.00  0.00     0.031 C 
ATOM     39  C   UNL A   1      39.590  33.400  35.664  1.00  0.00     0.037 A 
BRANCH  26  40
ATOM     40  C   UNL A   1      36.158  33.373  30.515  1.00  0.00     0.057 A 
ATOM     41  C   UNL A   1      36.452  34.204  29.428  1.00  0.00     0.134 A 
ATOM     42  C   UNL A   1      34.808  33.150  30.814  1.00  0.00     0.134 A 
ATOM     43  F   UNL A   1      37.725  34.481  29.107  1.00  0.00    -0.206 F 
ATOM     44  C   UNL A   1      35.438  34.801  28.673  1.00  0.00     0.040 A 
ATOM     45  C   UNL A   1      33.787  33.724  30.057  1.00  0.00     0.040 A 
ATOM     46  F   UNL A   1      34.461  32.371  31.851  1.00  0.00    -0.206 F 
ATOM     47  C   UNL A   1      34.101  34.555  28.984  1.00  0.00     0.006 A 
ENDBRANCH  26  40
BRANCH  27  48
ATOM     48  C   UNL A   1      43.513  28.772  35.646  1.00  0.00     0.057 A 
ATOM     49  C   UNL A   1      43.284  27.754  36.580  1.00  0.00     0.134 A 
ATOM     50  C   UNL A   1      44.838  29.202  35.482  1.00  0.00     0.134 A 
ATOM     51  F   UNL A   1      42.039  27.311  36.803  1.00  0.00    -0.206 F 
ATOM     52  C   UNL A   1      44.323  27.209  37.339  1.00  0.00     0.040 A 
ATOM     53  C   UNL A   1      45.889  28.643  36.211  1.00  0.00     0.040 A 
ATOM     54  F   UNL A   1      45.132  30.174  34.607  1.00  0.00    -0.206 F 
ATOM     55  C   UNL A   1      45.631  27.652  37.153  1.00  0.00     0.006 A 
ENDBRANCH  27  48
BRANCH  39  56
ATOM     56  C   UNL A   1      39.572  34.397  36.781  1.00  0.00     0.057 A 
ATOM     57  C   UNL A   1      40.228  35.630  36.673  1.00  0.00     0.134 A 
ATOM     58  C   UNL A   1      38.847  34.143  37.951  1.00  0.00     0.134 A 
ATOM     59  F   UNL A   1      40.951  35.923  35.581  1.00  0.00    -0.206 F 
ATOM     60  C   UNL A   1      40.179  36.569  37.701  1.00  0.00     0.040 A 
ATOM     61  C   UNL A   1      38.767  35.086  38.974  1.00  0.00     0.040 A 
ATOM     62  F   UNL A   1      38.191  32.983  38.108  1.00  0.00    -0.206 F 
ATOM     63  C   UNL A   1      39.438  36.302  38.852  1.00  0.00     0.006 A 
ENDBRANCH  39  56
ENDBRANCH  13  14
ENDBRANCH   6   8
ENDBRANCH   5   6
ENDBRANCH   4   5
ENDBRANCH   3   4
ENDBRANCH   2   3
ENDBRANCH   1   2
BRANCH   1  64
ATOM     64  C   UNL A   1      37.381  21.473  24.643  1.00  0.00     0.261 C 
BRANCH  64  65
ATOM     65  O   UNL A   1      36.172  20.744  24.882  1.00  0.00    -0.460 OA
BRANCH  65  66
ATOM     66  C   UNL A   1      35.202  21.430  25.541  1.00  0.00     0.339 C 
ATOM     67  O   UNL A   1      35.073  21.551  26.743  1.00  0.00    -0.246 OA
BRANCH  66  68
ATOM     68  C   UNL A   1      34.473  22.257  24.558  1.00  0.00     0.078 A 
ATOM     69  C   UNL A   1      34.946  23.566  24.387  1.00  0.00     0.019 A 
ATOM     70  C   UNL A   1      33.408  21.810  23.779  1.00  0.00     0.057 A 
ATOM     71  C   UNL A   1      34.383  24.409  23.423  1.00  0.00     0.027 A 
ATOM     72  C   UNL A   1      32.858  22.657  22.807  1.00  0.00     0.047 A 
ATOM     73  Cl  UNL A   1      32.676  20.256  23.972  1.00  0.00    -0.083 Cl
ATOM     74  C   UNL A   1      33.352  23.954  22.602  1.00  0.00     0.043 A 
BRANCH  74  75
ATOM     75  N   UNL A   1      32.725  24.714  21.598  1.00  0.00    -0.322 N 
ATOM     76  C   UNL A   1      31.996  25.880  21.612  1.00  0.00     0.257 C 
ATOM     77  H   UNL A   1      32.830  24.331  20.696  1.00  0.00     0.170 HD
ATOM     78  O   UNL A   1      31.379  26.237  20.611  1.00  0.00    -0.269 OA
BRANCH  76  79
ATOM     79  C   UNL A   1      31.935  26.745  22.798  1.00  0.00     0.059 A 
ATOM     80  C   UNL A   1      32.743  27.892  22.797  1.00  0.00     0.022 A 
ATOM     81  C   UNL A   1      31.127  26.445  23.904  1.00  0.00     0.060 A 
ATOM     82  C   UNL A   1      32.681  28.789  23.865  1.00  0.00     0.086 A 
ATOM     83  C   UNL A   1      31.061  27.341  24.974  1.00  0.00     0.107 A 
ATOM     84  Cl  UNL A   1      30.186  25.002  24.006  1.00  0.00    -0.083 Cl
ATOM     85  C   UNL A   1      31.822  28.518  24.939  1.00  0.00     0.270 A 
BRANCH  85  86
ATOM     86  N   UNL A   1      31.694  29.491  26.030  1.00  0.00     0.062 N 
ATOM     87  O   UNL A   1      31.686  29.058  27.189  1.00  0.00    -0.258 OA
ATOM     88  O   UNL A   1      31.625  30.688  25.719  1.00  0.00    -0.258 OA
ENDBRANCH  85  86
ENDBRANCH  76  79
ENDBRANCH  74  75
ENDBRANCH  66  68
ENDBRANCH  65  66
ENDBRANCH  64  65
ENDBRANCH   1  64
TORSDOF 17
ENDMDL
