MODEL 1
REMARK VINA RESULT:     -10.6      0.000      0.000
REMARK SMILES O=C(OCCOCCOC(=O)[C@@H]1CC[C@@H](CNC(=O)c2ccno2)O1)c1ccc(-c2c3nc(c(-c4c(F)cccc4F)c4ccc([nH]4)c(-c4c(F)cccc4F)c4nc(c(-c5c(F)cccc5F)c5ccc2[nH]5)C=C4)C=C3)cc1
REMARK SMILES IDX 7 1 6 2 5 3 4 4 3 5 2 6 1 7 26 8 27 9 79 10 28 11 78 12
REMARK SMILES IDX 29 13 30 14 31 15 72 16 32 17 77 18 71 19 73 20 33 21 76 22
REMARK SMILES IDX 70 23 69 24 34 26 60 27 43 28 59 29 44 30 47 31 58 32 74 33
REMARK SMILES IDX 45 34 46 35 57 37 75 38 48 39 35 40 36 41 41 42 37 43 38 44
REMARK SMILES IDX 40 45 42 46 39 47 61 48 62 49 67 50 63 51 64 52 66 53 68 54
REMARK SMILES IDX 65 55 49 56 50 57 55 58 51 59 52 60 54 61 56 62 53 63 8 64
REMARK SMILES IDX 9 65 10 66 11 67 12 68 13 69 25 70 14 71 15 72 16 73 17 74
REMARK SMILES IDX 18 75 19 77 20 78 21 79 24 80 22 81 23 82
REMARK H PARENT 73 25 47 36 17 76
REMARK Flexibility Score: inf
ROOT
ATOM      1  C   UNL A   1      32.382  29.421  27.205  1.00  0.00     0.202 C 
ENDROOT
BRANCH   1   2
ATOM      2  O   UNL A   1      32.519  30.683  26.548  1.00  0.00    -0.374 OA
BRANCH   2   3
ATOM      3  C   UNL A   1      31.521  31.650  26.877  1.00  0.00     0.202 C 
BRANCH   3   4
ATOM      4  C   UNL A   1      31.960  33.098  26.641  1.00  0.00     0.261 C 
BRANCH   4   5
ATOM      5  O   UNL A   1      32.149  33.778  27.893  1.00  0.00    -0.460 OA
BRANCH   5   6
ATOM      6  C   UNL A   1      33.273  34.341  28.395  1.00  0.00     0.338 C 
ATOM      7  O   UNL A   1      33.309  35.566  28.499  1.00  0.00    -0.246 OA
BRANCH   6   8
ATOM      8  C   UNL A   1      34.462  33.569  28.877  1.00  0.00     0.060 A 
ATOM      9  C   UNL A   1      34.421  32.355  29.564  1.00  0.00     0.016 A 
ATOM     10  C   UNL A   1      35.730  34.092  28.558  1.00  0.00     0.016 A 
ATOM     11  C   UNL A   1      35.573  31.704  29.965  1.00  0.00     0.010 A 
ATOM     12  C   UNL A   1      36.904  33.434  28.939  1.00  0.00     0.010 A 
ATOM     13  C   UNL A   1      36.819  32.245  29.667  1.00  0.00    -0.014 A 
BRANCH  13  14
ATOM     14  C   UNL A   1      37.980  31.588  30.283  1.00  0.00     0.031 A 
ATOM     15  C   UNL A   1      38.196  31.779  31.751  1.00  0.00     0.074 A 
ATOM     16  C   UNL A   1      38.667  30.677  29.573  1.00  0.00     0.049 A 
ATOM     17  N   UNL A   1      39.074  31.222  32.538  1.00  0.00    -0.248 NA
ATOM     18  C   UNL A   1      37.272  32.705  32.433  1.00  0.00     0.031 C 
ATOM     19  C   UNL A   1      38.411  30.335  28.171  1.00  0.00     0.029 A 
ATOM     20  N   UNL A   1      39.673  29.829  29.947  1.00  0.00    -0.354 N 
ATOM     21  C   UNL A   1      38.823  31.742  33.800  1.00  0.00     0.074 A 
ATOM     22  C   UNL A   1      37.714  32.658  33.680  1.00  0.00     0.031 C 
ATOM     23  C   UNL A   1      39.213  29.319  27.816  1.00  0.00     0.029 A 
ATOM     24  C   UNL A   1      40.072  28.979  28.944  1.00  0.00     0.049 A 
ATOM     25  H   UNL A   1      40.073  29.827  30.846  1.00  0.00     0.167 HD
ATOM     26  C   UNL A   1      39.477  31.478  34.954  1.00  0.00     0.037 A 
ATOM     27  C   UNL A   1      41.037  28.041  28.949  1.00  0.00     0.037 A 
ATOM     28  C   UNL A   1      40.582  30.563  35.041  1.00  0.00     0.049 A 
ATOM     29  C   UNL A   1      41.810  27.837  30.223  1.00  0.00     0.074 A 
ATOM     30  C   UNL A   1      41.380  30.266  36.127  1.00  0.00     0.029 A 
ATOM     31  N   UNL A   1      41.039  29.792  33.978  1.00  0.00    -0.354 N 
ATOM     32  N   UNL A   1      41.622  28.387  31.401  1.00  0.00    -0.248 NA
ATOM     33  C   UNL A   1      42.938  26.899  30.168  1.00  0.00     0.031 C 
ATOM     34  C   UNL A   1      42.350  29.345  35.711  1.00  0.00     0.029 A 
ATOM     35  C   UNL A   1      42.123  29.034  34.377  1.00  0.00     0.049 A 
ATOM     36  H   UNL A   1      40.650  29.788  33.074  1.00  0.00     0.167 HD
ATOM     37  C   UNL A   1      42.595  27.852  32.231  1.00  0.00     0.074 A 
ATOM     38  C   UNL A   1      43.358  26.918  31.425  1.00  0.00     0.031 C 
ATOM     39  C   UNL A   1      42.846  28.110  33.539  1.00  0.00     0.037 A 
BRANCH  26  40
ATOM     40  C   UNL A   1      39.056  32.259  36.162  1.00  0.00     0.057 A 
ATOM     41  C   UNL A   1      38.141  31.759  37.097  1.00  0.00     0.134 A 
ATOM     42  C   UNL A   1      39.534  33.561  36.356  1.00  0.00     0.134 A 
ATOM     43  F   UNL A   1      37.618  30.533  36.949  1.00  0.00    -0.206 F 
ATOM     44  C   UNL A   1      37.693  32.539  38.166  1.00  0.00     0.040 A 
ATOM     45  C   UNL A   1      39.110  34.342  37.432  1.00  0.00     0.040 A 
ATOM     46  F   UNL A   1      40.402  34.104  35.490  1.00  0.00    -0.206 F 
ATOM     47  C   UNL A   1      38.181  33.834  38.337  1.00  0.00     0.006 A 
ENDBRANCH  26  40
BRANCH  27  48
ATOM     48  C   UNL A   1      41.344  27.266  27.719  1.00  0.00     0.057 A 
ATOM     49  C   UNL A   1      42.423  27.599  26.892  1.00  0.00     0.134 A 
ATOM     50  C   UNL A   1      40.553  26.176  27.331  1.00  0.00     0.134 A 
ATOM     51  F   UNL A   1      43.208  28.643  27.195  1.00  0.00    -0.206 F 
ATOM     52  C   UNL A   1      42.696  26.889  25.721  1.00  0.00     0.040 A 
ATOM     53  C   UNL A   1      40.829  25.440  26.178  1.00  0.00     0.040 A 
ATOM     54  F   UNL A   1      39.502  25.802  28.075  1.00  0.00    -0.206 F 
ATOM     55  C   UNL A   1      41.900  25.801  25.365  1.00  0.00     0.006 A 
ENDBRANCH  27  48
BRANCH  39  56
ATOM     56  C   UNL A   1      43.969  27.345  34.170  1.00  0.00     0.057 A 
ATOM     57  C   UNL A   1      45.276  27.845  34.195  1.00  0.00     0.134 A 
ATOM     58  C   UNL A   1      43.726  26.114  34.791  1.00  0.00     0.134 A 
ATOM     59  F   UNL A   1      45.570  29.012  33.604  1.00  0.00    -0.206 F 
ATOM     60  C   UNL A   1      46.312  27.132  34.799  1.00  0.00     0.040 A 
ATOM     61  C   UNL A   1      44.748  25.406  35.421  1.00  0.00     0.040 A 
ATOM     62  F   UNL A   1      42.492  25.590  34.807  1.00  0.00    -0.206 F 
ATOM     63  C   UNL A   1      46.047  25.913  35.420  1.00  0.00     0.006 A 
ENDBRANCH  39  56
ENDBRANCH  13  14
ENDBRANCH   6   8
ENDBRANCH   5   6
ENDBRANCH   4   5
ENDBRANCH   3   4
ENDBRANCH   2   3
ENDBRANCH   1   2
BRANCH   1  64
ATOM     64  C   UNL A   1      33.641  28.576  27.016  1.00  0.00     0.261 C 
BRANCH  64  65
ATOM     65  O   UNL A   1      33.653  28.040  25.683  1.00  0.00    -0.461 OA
BRANCH  65  66
ATOM     66  C   UNL A   1      33.242  26.748  25.540  1.00  0.00     0.335 C 
ATOM     67  O   UNL A   1      33.696  25.796  26.165  1.00  0.00    -0.249 OA
BRANCH  66  68
ATOM     68  C   UNL A   1      32.047  26.640  24.581  1.00  0.00     0.228 C 
ATOM     69  C   UNL A   1      32.321  25.923  23.261  1.00  0.00     0.047 C 
ATOM     70  O   UNL A   1      31.528  27.945  24.230  1.00  0.00    -0.361 OA
ATOM     71  C   UNL A   1      31.360  26.610  22.320  1.00  0.00     0.037 C 
ATOM     72  C   UNL A   1      31.472  28.045  22.794  1.00  0.00     0.138 C 
BRANCH  72  73
ATOM     73  C   UNL A   1      30.394  29.053  22.358  1.00  0.00     0.148 C 
BRANCH  73  74
ATOM     74  N   UNL A   1      29.035  28.652  22.680  1.00  0.00    -0.347 N 
ATOM     75  C   UNL A   1      27.904  29.425  22.682  1.00  0.00     0.289 C 
ATOM     76  H   UNL A   1      28.912  27.707  22.928  1.00  0.00     0.164 HD
ATOM     77  O   UNL A   1      26.927  28.987  23.319  1.00  0.00    -0.266 OA
BRANCH  75  78
ATOM     78  C   UNL A   1      27.892  30.674  21.984  1.00  0.00     0.224 A 
ATOM     79  C   UNL A   1      28.070  31.982  22.388  1.00  0.00     0.079 A 
ATOM     80  O   UNL A   1      27.719  30.654  20.633  1.00  0.00    -0.351 OA
ATOM     81  C   UNL A   1      27.959  32.727  21.202  1.00  0.00     0.159 A 
ATOM     82  N   UNL A   1      27.734  31.951  20.141  1.00  0.00    -0.088 NA
ENDBRANCH  75  78
ENDBRANCH  73  74
ENDBRANCH  72  73
ENDBRANCH  66  68
ENDBRANCH  65  66
ENDBRANCH  64  65
ENDBRANCH   1  64
TORSDOF 17
ENDMDL
MODEL 2
REMARK VINA RESULT:     -10.2      5.125     10.015
REMARK SMILES O=C(OCCOCCOC(=O)[C@@H]1CC[C@@H](CNC(=O)c2ccno2)O1)c1ccc(-c2c3nc(c(-c4c(F)cccc4F)c4ccc([nH]4)c(-c4c(F)cccc4F)c4nc(c(-c5c(F)cccc5F)c5ccc2[nH]5)C=C4)C=C3)cc1
REMARK SMILES IDX 7 1 6 2 5 3 4 4 3 5 2 6 1 7 26 8 27 9 79 10 28 11 78 12
REMARK SMILES IDX 29 13 30 14 31 15 72 16 32 17 77 18 71 19 73 20 33 21 76 22
REMARK SMILES IDX 70 23 69 24 34 26 60 27 43 28 59 29 44 30 47 31 58 32 74 33
REMARK SMILES IDX 45 34 46 35 57 37 75 38 48 39 35 40 36 41 41 42 37 43 38 44
REMARK SMILES IDX 40 45 42 46 39 47 61 48 62 49 67 50 63 51 64 52 66 53 68 54
REMARK SMILES IDX 65 55 49 56 50 57 55 58 51 59 52 60 54 61 56 62 53 63 8 64
REMARK SMILES IDX 9 65 10 66 11 67 12 68 13 69 25 70 14 71 15 72 16 73 17 74
REMARK SMILES IDX 18 75 19 77 20 78 21 79 24 80 22 81 23 82
REMARK H PARENT 73 25 47 36 17 76
REMARK Flexibility Score: inf
ROOT
ATOM      1  C   UNL A   1      35.431  20.004  25.004  1.00  0.00     0.202 C 
ENDROOT
BRANCH   1   2
ATOM      2  O   UNL A   1      36.734  20.496  24.682  1.00  0.00    -0.374 OA
BRANCH   2   3
ATOM      3  C   UNL A   1      37.799  19.562  24.869  1.00  0.00     0.202 C 
BRANCH   3   4
ATOM      4  C   UNL A   1      38.944  20.094  25.736  1.00  0.00     0.261 C 
BRANCH   4   5
ATOM      5  O   UNL A   1      40.063  19.192  25.700  1.00  0.00    -0.460 OA
BRANCH   5   6
ATOM      6  C   UNL A   1      41.367  19.444  25.961  1.00  0.00     0.338 C 
ATOM      7  O   UNL A   1      42.180  18.543  25.760  1.00  0.00    -0.246 OA
BRANCH   6   8
ATOM      8  C   UNL A   1      41.895  20.762  26.435  1.00  0.00     0.060 A 
ATOM      9  C   UNL A   1      42.151  21.107  27.762  1.00  0.00     0.016 A 
ATOM     10  C   UNL A   1      42.209  21.713  25.444  1.00  0.00     0.016 A 
ATOM     11  C   UNL A   1      42.649  22.349  28.110  1.00  0.00     0.010 A 
ATOM     12  C   UNL A   1      42.733  22.966  25.781  1.00  0.00     0.010 A 
ATOM     13  C   UNL A   1      42.930  23.289  27.125  1.00  0.00    -0.014 A 
BRANCH  13  14
ATOM     14  C   UNL A   1      43.282  24.637  27.590  1.00  0.00     0.031 A 
ATOM     15  C   UNL A   1      44.693  25.098  27.398  1.00  0.00     0.074 A 
ATOM     16  C   UNL A   1      42.301  25.478  27.958  1.00  0.00     0.049 A 
ATOM     17  N   UNL A   1      45.218  26.270  27.622  1.00  0.00    -0.248 NA
ATOM     18  C   UNL A   1      45.636  24.106  26.849  1.00  0.00     0.031 C 
ATOM     19  C   UNL A   1      40.878  25.132  28.025  1.00  0.00     0.029 A 
ATOM     20  N   UNL A   1      42.339  26.806  28.282  1.00  0.00    -0.354 N 
ATOM     21  C   UNL A   1      46.553  26.153  27.260  1.00  0.00     0.074 A 
ATOM     22  C   UNL A   1      46.763  24.799  26.804  1.00  0.00     0.031 C 
ATOM     23  C   UNL A   1      40.175  26.235  28.330  1.00  0.00     0.029 A 
ATOM     24  C   UNL A   1      41.100  27.344  28.531  1.00  0.00     0.049 A 
ATOM     25  H   UNL A   1      43.173  27.327  28.331  1.00  0.00     0.167 HD
ATOM     26  C   UNL A   1      47.518  27.100  27.319  1.00  0.00     0.037 A 
ATOM     27  C   UNL A   1      40.767  28.596  28.894  1.00  0.00     0.037 A 
ATOM     28  C   UNL A   1      47.279  28.438  27.783  1.00  0.00     0.049 A 
ATOM     29  C   UNL A   1      41.874  29.602  29.042  1.00  0.00     0.074 A 
ATOM     30  C   UNL A   1      48.181  29.467  27.968  1.00  0.00     0.029 A 
ATOM     31  N   UNL A   1      46.027  28.928  28.137  1.00  0.00    -0.354 N 
ATOM     32  N   UNL A   1      43.153  29.469  28.774  1.00  0.00    -0.248 NA
ATOM     33  C   UNL A   1      41.501  30.924  29.559  1.00  0.00     0.031 C 
ATOM     34  C   UNL A   1      47.480  30.569  28.474  1.00  0.00     0.029 A 
ATOM     35  C   UNL A   1      46.134  30.239  28.559  1.00  0.00     0.049 A 
ATOM     36  H   UNL A   1      45.188  28.415  28.095  1.00  0.00     0.167 HD
ATOM     37  C   UNL A   1      43.735  30.691  29.072  1.00  0.00     0.074 A 
ATOM     38  C   UNL A   1      42.664  31.560  29.523  1.00  0.00     0.031 C 
ATOM     39  C   UNL A   1      45.036  31.067  28.991  1.00  0.00     0.037 A 
BRANCH  26  40
ATOM     40  C   UNL A   1      48.907  26.671  26.955  1.00  0.00     0.057 A 
ATOM     41  C   UNL A   1      49.422  26.815  25.661  1.00  0.00     0.134 A 
ATOM     42  C   UNL A   1      49.720  26.045  27.909  1.00  0.00     0.134 A 
ATOM     43  F   UNL A   1      48.681  27.373  24.692  1.00  0.00    -0.206 F 
ATOM     44  C   UNL A   1      50.685  26.327  25.321  1.00  0.00     0.040 A 
ATOM     45  C   UNL A   1      50.992  25.572  27.587  1.00  0.00     0.040 A 
ATOM     46  F   UNL A   1      49.282  25.864  29.164  1.00  0.00    -0.206 F 
ATOM     47  C   UNL A   1      51.475  25.704  26.287  1.00  0.00     0.006 A 
ENDBRANCH  26  40
BRANCH  27  48
ATOM     48  C   UNL A   1      39.351  28.950  29.174  1.00  0.00     0.057 A 
ATOM     49  C   UNL A   1      38.788  28.779  30.444  1.00  0.00     0.134 A 
ATOM     50  C   UNL A   1      38.517  29.458  28.168  1.00  0.00     0.134 A 
ATOM     51  F   UNL A   1      39.525  28.278  31.447  1.00  0.00    -0.206 F 
ATOM     52  C   UNL A   1      37.450  29.085  30.701  1.00  0.00     0.040 A 
ATOM     53  C   UNL A   1      37.185  29.793  28.417  1.00  0.00     0.040 A 
ATOM     54  F   UNL A   1      38.989  29.646  26.927  1.00  0.00    -0.206 F 
ATOM     55  C   UNL A   1      36.646  29.600  29.685  1.00  0.00     0.006 A 
ENDBRANCH  27  48
BRANCH  39  56
ATOM     56  C   UNL A   1      45.350  32.482  29.370  1.00  0.00     0.057 A 
ATOM     57  C   UNL A   1      45.734  32.827  30.671  1.00  0.00     0.134 A 
ATOM     58  C   UNL A   1      45.305  33.499  28.409  1.00  0.00     0.134 A 
ATOM     59  F   UNL A   1      45.782  31.896  31.636  1.00  0.00    -0.206 F 
ATOM     60  C   UNL A   1      46.040  34.145  31.010  1.00  0.00     0.040 A 
ATOM     61  C   UNL A   1      45.634  34.815  28.730  1.00  0.00     0.040 A 
ATOM     62  F   UNL A   1      44.953  33.226  27.144  1.00  0.00    -0.206 F 
ATOM     63  C   UNL A   1      45.997  35.141  30.036  1.00  0.00     0.006 A 
ENDBRANCH  39  56
ENDBRANCH  13  14
ENDBRANCH   6   8
ENDBRANCH   5   6
ENDBRANCH   4   5
ENDBRANCH   3   4
ENDBRANCH   2   3
ENDBRANCH   1   2
BRANCH   1  64
ATOM     64  C   UNL A   1      34.384  21.105  24.842  1.00  0.00     0.261 C 
BRANCH  64  65
ATOM     65  O   UNL A   1      34.219  21.786  26.098  1.00  0.00    -0.461 OA
BRANCH  65  66
ATOM     66  C   UNL A   1      34.627  23.086  26.145  1.00  0.00     0.335 C 
ATOM     67  O   UNL A   1      35.794  23.451  26.224  1.00  0.00    -0.249 OA
BRANCH  66  68
ATOM     68  C   UNL A   1      33.447  24.053  25.965  1.00  0.00     0.228 C 
ATOM     69  C   UNL A   1      32.161  23.671  26.695  1.00  0.00     0.047 C 
ATOM     70  O   UNL A   1      33.089  24.201  24.571  1.00  0.00    -0.361 OA
ATOM     71  C   UNL A   1      31.097  24.251  25.793  1.00  0.00     0.037 C 
ATOM     72  C   UNL A   1      31.679  23.938  24.429  1.00  0.00     0.138 C 
BRANCH  72  73
ATOM     73  C   UNL A   1      31.108  24.664  23.199  1.00  0.00     0.148 C 
BRANCH  73  74
ATOM     74  N   UNL A   1      31.929  24.553  22.005  1.00  0.00    -0.347 N 
ATOM     75  C   UNL A   1      32.638  25.540  21.371  1.00  0.00     0.289 C 
ATOM     76  H   UNL A   1      31.982  23.657  21.599  1.00  0.00     0.164 HD
ATOM     77  O   UNL A   1      32.975  25.320  20.193  1.00  0.00    -0.266 OA
BRANCH  75  78
ATOM     78  C   UNL A   1      32.946  26.754  22.064  1.00  0.00     0.224 A 
ATOM     79  C   UNL A   1      32.393  27.378  23.164  1.00  0.00     0.079 A 
ATOM     80  O   UNL A   1      34.017  27.481  21.642  1.00  0.00    -0.351 OA
ATOM     81  C   UNL A   1      33.181  28.527  23.341  1.00  0.00     0.159 A 
ATOM     82  N   UNL A   1      34.152  28.615  22.430  1.00  0.00    -0.088 NA
ENDBRANCH  75  78
ENDBRANCH  73  74
ENDBRANCH  72  73
ENDBRANCH  66  68
ENDBRANCH  65  66
ENDBRANCH  64  65
ENDBRANCH   1  64
TORSDOF 17
ENDMDL
MODEL 3
REMARK VINA RESULT:     -10.2      4.137      9.208
REMARK SMILES O=C(OCCOCCOC(=O)[C@@H]1CC[C@@H](CNC(=O)c2ccno2)O1)c1ccc(-c2c3nc(c(-c4c(F)cccc4F)c4ccc([nH]4)c(-c4c(F)cccc4F)c4nc(c(-c5c(F)cccc5F)c5ccc2[nH]5)C=C4)C=C3)cc1
REMARK SMILES IDX 7 1 6 2 5 3 4 4 3 5 2 6 1 7 26 8 27 9 79 10 28 11 78 12
REMARK SMILES IDX 29 13 30 14 31 15 72 16 32 17 77 18 71 19 73 20 33 21 76 22
REMARK SMILES IDX 70 23 69 24 34 26 60 27 43 28 59 29 44 30 47 31 58 32 74 33
REMARK SMILES IDX 45 34 46 35 57 37 75 38 48 39 35 40 36 41 41 42 37 43 38 44
REMARK SMILES IDX 40 45 42 46 39 47 61 48 62 49 67 50 63 51 64 52 66 53 68 54
REMARK SMILES IDX 65 55 49 56 50 57 55 58 51 59 52 60 54 61 56 62 53 63 8 64
REMARK SMILES IDX 9 65 10 66 11 67 12 68 13 69 25 70 14 71 15 72 16 73 17 74
REMARK SMILES IDX 18 75 19 77 20 78 21 79 24 80 22 81 23 82
REMARK H PARENT 73 25 47 36 17 76
REMARK Flexibility Score: inf
ROOT
ATOM      1  C   UNL A   1      34.988  22.522  24.131  1.00  0.00     0.202 C 
ENDROOT
BRANCH   1   2
ATOM      2  O   UNL A   1      35.409  22.062  25.417  1.00  0.00    -0.374 OA
BRANCH   2   3
ATOM      3  C   UNL A   1      36.301  20.946  25.401  1.00  0.00     0.202 C 
BRANCH   3   4
ATOM      4  C   UNL A   1      37.728  21.301  24.973  1.00  0.00     0.261 C 
BRANCH   4   5
ATOM      5  O   UNL A   1      38.668  20.363  25.526  1.00  0.00    -0.460 OA
BRANCH   5   6
ATOM      6  C   UNL A   1      39.800  20.605  26.227  1.00  0.00     0.338 C 
ATOM      7  O   UNL A   1      40.549  19.658  26.459  1.00  0.00    -0.246 OA
BRANCH   6   8
ATOM      8  C   UNL A   1      40.227  21.960  26.700  1.00  0.00     0.060 A 
ATOM      9  C   UNL A   1      39.782  23.179  26.188  1.00  0.00     0.016 A 
ATOM     10  C   UNL A   1      41.116  21.999  27.793  1.00  0.00     0.016 A 
ATOM     11  C   UNL A   1      40.224  24.388  26.694  1.00  0.00     0.010 A 
ATOM     12  C   UNL A   1      41.555  23.215  28.327  1.00  0.00     0.010 A 
ATOM     13  C   UNL A   1      41.122  24.413  27.755  1.00  0.00    -0.014 A 
BRANCH  13  14
ATOM     14  C   UNL A   1      41.677  25.726  28.110  1.00  0.00     0.031 A 
ATOM     15  C   UNL A   1      43.010  26.100  27.543  1.00  0.00     0.074 A 
ATOM     16  C   UNL A   1      40.891  26.621  28.734  1.00  0.00     0.049 A 
ATOM     17  N   UNL A   1      43.654  27.231  27.618  1.00  0.00    -0.248 NA
ATOM     18  C   UNL A   1      43.700  25.061  26.756  1.00  0.00     0.031 C 
ATOM     19  C   UNL A   1      39.520  26.365  29.184  1.00  0.00     0.029 A 
ATOM     20  N   UNL A   1      41.104  27.937  29.038  1.00  0.00    -0.354 N 
ATOM     21  C   UNL A   1      44.830  27.037  26.907  1.00  0.00     0.074 A 
ATOM     22  C   UNL A   1      44.816  25.682  26.407  1.00  0.00     0.031 C 
ATOM     23  C   UNL A   1      39.001  27.503  29.672  1.00  0.00     0.029 A 
ATOM     24  C   UNL A   1      40.018  28.547  29.616  1.00  0.00     0.049 A 
ATOM     25  H   UNL A   1      41.953  28.402  28.860  1.00  0.00     0.167 HD
ATOM     26  C   UNL A   1      45.835  27.918  26.703  1.00  0.00     0.037 A 
ATOM     27  C   UNL A   1      39.880  29.810  30.059  1.00  0.00     0.037 A 
ATOM     28  C   UNL A   1      45.821  29.260  27.218  1.00  0.00     0.049 A 
ATOM     29  C   UNL A   1      41.051  30.740  29.903  1.00  0.00     0.074 A 
ATOM     30  C   UNL A   1      46.806  30.225  27.153  1.00  0.00     0.029 A 
ATOM     31  N   UNL A   1      44.748  29.820  27.900  1.00  0.00    -0.354 N 
ATOM     32  N   UNL A   1      42.197  30.531  29.296  1.00  0.00    -0.248 NA
ATOM     33  C   UNL A   1      40.922  32.073  30.505  1.00  0.00     0.031 C 
ATOM     34  C   UNL A   1      46.345  31.359  27.834  1.00  0.00     0.029 A 
ATOM     35  C   UNL A   1      45.054  31.114  28.280  1.00  0.00     0.049 A 
ATOM     36  H   UNL A   1      43.896  29.364  28.087  1.00  0.00     0.167 HD
ATOM     37  C   UNL A   1      42.919  31.707  29.428  1.00  0.00     0.074 A 
ATOM     38  C   UNL A   1      42.071  32.633  30.156  1.00  0.00     0.031 C 
ATOM     39  C   UNL A   1      44.172  32.001  28.997  1.00  0.00     0.037 A 
BRANCH  26  40
ATOM     40  C   UNL A   1      47.041  27.409  25.975  1.00  0.00     0.057 A 
ATOM     41  C   UNL A   1      47.184  27.527  24.586  1.00  0.00     0.134 A 
ATOM     42  C   UNL A   1      48.050  26.734  26.674  1.00  0.00     0.134 A 
ATOM     43  F   UNL A   1      46.237  28.131  23.854  1.00  0.00    -0.206 F 
ATOM     44  C   UNL A   1      48.273  26.966  23.916  1.00  0.00     0.040 A 
ATOM     45  C   UNL A   1      49.153  26.187  26.018  1.00  0.00     0.040 A 
ATOM     46  F   UNL A   1      47.967  26.575  28.003  1.00  0.00    -0.206 F 
ATOM     47  C   UNL A   1      49.263  26.295  24.633  1.00  0.00     0.006 A 
ENDBRANCH  26  40
BRANCH  27  48
ATOM     48  C   UNL A   1      38.620  30.248  30.714  1.00  0.00     0.057 A 
ATOM     49  C   UNL A   1      37.614  30.908  29.999  1.00  0.00     0.134 A 
ATOM     50  C   UNL A   1      38.397  30.029  32.080  1.00  0.00     0.134 A 
ATOM     51  F   UNL A   1      37.772  31.168  28.693  1.00  0.00    -0.206 F 
ATOM     52  C   UNL A   1      36.441  31.346  30.620  1.00  0.00     0.040 A 
ATOM     53  C   UNL A   1      37.218  30.436  32.707  1.00  0.00     0.040 A 
ATOM     54  F   UNL A   1      39.319  29.403  32.825  1.00  0.00    -0.206 F 
ATOM     55  C   UNL A   1      36.238  31.103  31.977  1.00  0.00     0.006 A 
ENDBRANCH  27  48
BRANCH  39  56
ATOM     56  C   UNL A   1      44.671  33.385  29.280  1.00  0.00     0.057 A 
ATOM     57  C   UNL A   1      45.406  33.680  30.433  1.00  0.00     0.134 A 
ATOM     58  C   UNL A   1      44.444  34.420  28.365  1.00  0.00     0.134 A 
ATOM     59  F   UNL A   1      45.644  32.731  31.350  1.00  0.00    -0.206 F 
ATOM     60  C   UNL A   1      45.881  34.968  30.679  1.00  0.00     0.040 A 
ATOM     61  C   UNL A   1      44.935  35.705  28.588  1.00  0.00     0.040 A 
ATOM     62  F   UNL A   1      43.753  34.194  27.238  1.00  0.00    -0.206 F 
ATOM     63  C   UNL A   1      45.651  35.983  29.751  1.00  0.00     0.006 A 
ENDBRANCH  39  56
ENDBRANCH  13  14
ENDBRANCH   6   8
ENDBRANCH   5   6
ENDBRANCH   4   5
ENDBRANCH   3   4
ENDBRANCH   2   3
ENDBRANCH   1   2
BRANCH   1  64
ATOM     64  C   UNL A   1      33.481  22.336  23.959  1.00  0.00     0.261 C 
BRANCH  64  65
ATOM     65  O   UNL A   1      32.805  23.520  24.417  1.00  0.00    -0.461 OA
BRANCH  65  66
ATOM     66  C   UNL A   1      31.782  23.977  23.640  1.00  0.00     0.335 C 
ATOM     67  O   UNL A   1      30.720  23.392  23.465  1.00  0.00    -0.249 OA
BRANCH  66  68
ATOM     68  C   UNL A   1      32.074  25.385  23.099  1.00  0.00     0.228 C 
ATOM     69  C   UNL A   1      32.998  26.246  23.956  1.00  0.00     0.047 C 
ATOM     70  O   UNL A   1      30.857  26.151  22.927  1.00  0.00    -0.361 OA
ATOM     71  C   UNL A   1      32.499  27.641  23.663  1.00  0.00     0.037 C 
ATOM     72  C   UNL A   1      31.003  27.406  23.619  1.00  0.00     0.138 C 
BRANCH  72  73
ATOM     73  C   UNL A   1      30.103  28.484  22.991  1.00  0.00     0.148 C 
BRANCH  73  74
ATOM     74  N   UNL A   1      28.681  28.195  23.067  1.00  0.00    -0.347 N 
ATOM     75  C   UNL A   1      27.633  29.067  22.930  1.00  0.00     0.289 C 
ATOM     76  H   UNL A   1      28.441  27.256  23.239  1.00  0.00     0.164 HD
ATOM     77  O   UNL A   1      26.531  28.693  23.375  1.00  0.00    -0.266 OA
BRANCH  75  78
ATOM     78  C   UNL A   1      27.840  30.340  22.310  1.00  0.00     0.224 A 
ATOM     79  C   UNL A   1      27.993  31.618  22.808  1.00  0.00     0.079 A 
ATOM     80  O   UNL A   1      27.968  30.382  20.954  1.00  0.00    -0.351 OA
ATOM     81  C   UNL A   1      28.185  32.413  21.666  1.00  0.00     0.159 A 
ATOM     82  N   UNL A   1      28.159  31.693  20.543  1.00  0.00    -0.088 NA
ENDBRANCH  75  78
ENDBRANCH  73  74
ENDBRANCH  72  73
ENDBRANCH  66  68
ENDBRANCH  65  66
ENDBRANCH  64  65
ENDBRANCH   1  64
TORSDOF 17
ENDMDL
