MODEL 1
REMARK VINA RESULT:     -10.9      0.000      0.000
REMARK SMILES COCc1cccc(O[C@@H](C)c2ccc(C(=O)OCCOCCOC(=O)c3ccc(-c4c5nc(c(-c6c(F)cccc6F)c6ccc([nH]6)c(-c6c(F)cccc6F)c6nc(c(-c7c(F)cccc7F)c7ccc4[nH]7)C=C6)C=C5)cc3)o2)c1
REMARK SMILES IDX 19 1 18 2 16 3 17 4 15 5 12 6 13 7 81 8 14 9 10 10 11 11
REMARK SMILES IDX 9 12 8 13 4 14 5 15 82 16 6 17 7 18 3 19 2 20 1 21 20 22
REMARK SMILES IDX 21 23 22 24 23 25 24 26 25 27 26 28 27 29 28 30 80 31 29 32
REMARK SMILES IDX 79 33 30 34 31 35 32 36 73 37 33 38 78 39 72 40 74 41 34 42
REMARK SMILES IDX 77 43 71 44 70 45 35 47 61 48 44 49 60 50 45 51 48 52 59 53
REMARK SMILES IDX 75 54 46 55 47 56 58 58 76 59 49 60 36 61 37 62 42 63 38 64
REMARK SMILES IDX 39 65 41 66 43 67 40 68 62 69 63 70 68 71 64 72 65 73 67 74
REMARK SMILES IDX 69 75 66 76 50 77 51 78 56 79 52 80 53 81 55 82 57 83 54 84
REMARK H PARENT 74 46 48 57
REMARK Flexibility Score: inf
ROOT
ATOM      1  C   UNL A   1      33.279  37.338  31.417  1.00  0.00     0.261 C 
ENDROOT
BRANCH   1   2
ATOM      2  O   UNL A   1      32.919  36.043  30.905  1.00  0.00    -0.457 OA
BRANCH   2   3
ATOM      3  C   UNL A   1      32.933  35.917  29.546  1.00  0.00     0.374 C 
ATOM      4  O   UNL A   1      32.672  36.819  28.760  1.00  0.00    -0.242 OA
BRANCH   3   5
ATOM      5  C   UNL A   1      33.415  34.600  29.197  1.00  0.00     0.211 A 
ATOM      6  C   UNL A   1      33.362  32.738  28.006  1.00  0.00     0.145 A 
ATOM      7  C   UNL A   1      34.519  32.689  28.757  1.00  0.00     0.050 A 
ATOM      8  O   UNL A   1      32.670  33.872  28.314  1.00  0.00    -0.450 OA
ATOM      9  C   UNL A   1      34.563  33.893  29.507  1.00  0.00     0.058 A 
BRANCH   6  10
ATOM     10  C   UNL A   1      32.722  31.820  27.013  1.00  0.00     0.236 C 
ATOM     11  C   UNL A   1      31.320  32.213  26.558  1.00  0.00     0.062 C 
BRANCH  10  12
ATOM     12  O   UNL A   1      32.830  30.448  27.426  1.00  0.00    -0.483 OA
BRANCH  12  13
ATOM     13  C   UNL A   1      32.329  29.397  26.717  1.00  0.00     0.120 A 
ATOM     14  C   UNL A   1      31.853  28.029  24.757  1.00  0.00    -0.019 A 
ATOM     15  C   UNL A   1      31.288  27.051  25.588  1.00  0.00     0.006 A 
ATOM     16  C   UNL A   1      32.346  29.218  25.333  1.00  0.00     0.052 A 
ATOM     17  C   UNL A   1      31.212  27.253  26.962  1.00  0.00     0.004 A 
ATOM     18  C   UNL A   1      31.736  28.418  27.520  1.00  0.00     0.046 A 
BRANCH  14  19
ATOM     19  C   UNL A   1      31.959  27.785  23.270  1.00  0.00     0.195 C 
BRANCH  19  20
ATOM     20  O   UNL A   1      32.215  26.423  22.941  1.00  0.00    -0.380 OA
ATOM     21  C   UNL A   1      31.998  26.106  21.572  1.00  0.00     0.195 C 
ENDBRANCH  19  20
ENDBRANCH  14  19
ENDBRANCH  12  13
ENDBRANCH  10  12
ENDBRANCH   6  10
ENDBRANCH   3   5
ENDBRANCH   2   3
ENDBRANCH   1   2
BRANCH   1  22
ATOM     22  C   UNL A   1      34.044  37.183  32.735  1.00  0.00     0.202 C 
BRANCH  22  23
ATOM     23  O   UNL A   1      33.811  35.951  33.420  1.00  0.00    -0.374 OA
BRANCH  23  24
ATOM     24  C   UNL A   1      34.880  35.001  33.417  1.00  0.00     0.202 C 
BRANCH  24  25
ATOM     25  C   UNL A   1      34.455  33.542  33.614  1.00  0.00     0.261 C 
BRANCH  25  26
ATOM     26  O   UNL A   1      35.264  32.647  32.832  1.00  0.00    -0.460 OA
BRANCH  26  27
ATOM     27  C   UNL A   1      36.399  32.241  33.446  1.00  0.00     0.338 C 
ATOM     28  O   UNL A   1      36.706  32.382  34.617  1.00  0.00    -0.246 OA
BRANCH  27  29
ATOM     29  C   UNL A   1      37.214  31.441  32.514  1.00  0.00     0.060 A 
ATOM     30  C   UNL A   1      38.253  30.686  33.070  1.00  0.00     0.016 A 
ATOM     31  C   UNL A   1      37.033  31.492  31.129  1.00  0.00     0.016 A 
ATOM     32  C   UNL A   1      39.166  30.046  32.239  1.00  0.00     0.010 A 
ATOM     33  C   UNL A   1      37.951  30.847  30.294  1.00  0.00     0.010 A 
ATOM     34  C   UNL A   1      39.050  30.167  30.847  1.00  0.00    -0.014 A 
BRANCH  34  35
ATOM     35  C   UNL A   1      40.190  29.737  30.003  1.00  0.00     0.031 A 
ATOM     36  C   UNL A   1      41.316  30.704  29.758  1.00  0.00     0.074 A 
ATOM     37  C   UNL A   1      40.261  28.479  29.532  1.00  0.00     0.049 A 
ATOM     38  N   UNL A   1      42.444  30.521  29.120  1.00  0.00    -0.248 NA
ATOM     39  C   UNL A   1      41.149  32.059  30.308  1.00  0.00     0.031 C 
ATOM     40  C   UNL A   1      39.246  27.446  29.725  1.00  0.00     0.029 A 
ATOM     41  N   UNL A   1      41.243  27.860  28.803  1.00  0.00    -0.354 N 
ATOM     42  C   UNL A   1      43.119  31.733  29.194  1.00  0.00     0.074 A 
ATOM     43  C   UNL A   1      42.260  32.655  29.902  1.00  0.00     0.031 C 
ATOM     44  C   UNL A   1      39.663  26.313  29.132  1.00  0.00     0.029 A 
ATOM     45  C   UNL A   1      40.964  26.549  28.509  1.00  0.00     0.049 A 
ATOM     46  H   UNL A   1      42.069  28.312  28.517  1.00  0.00     0.167 HD
ATOM     47  C   UNL A   1      44.352  32.045  28.729  1.00  0.00     0.037 A 
ATOM     48  C   UNL A   1      41.680  25.644  27.817  1.00  0.00     0.037 A 
ATOM     49  C   UNL A   1      45.210  31.128  28.027  1.00  0.00     0.049 A 
ATOM     50  C   UNL A   1      43.034  26.026  27.279  1.00  0.00     0.074 A 
ATOM     51  C   UNL A   1      46.481  31.345  27.525  1.00  0.00     0.029 A 
ATOM     52  N   UNL A   1      44.881  29.814  27.730  1.00  0.00    -0.354 N 
ATOM     53  N   UNL A   1      43.675  27.164  27.382  1.00  0.00    -0.248 NA
ATOM     54  C   UNL A   1      43.767  24.988  26.539  1.00  0.00     0.031 C 
ATOM     55  C   UNL A   1      46.907  30.173  26.889  1.00  0.00     0.029 A 
ATOM     56  C   UNL A   1      45.918  29.213  27.037  1.00  0.00     0.049 A 
ATOM     57  H   UNL A   1      44.035  29.374  27.975  1.00  0.00     0.167 HD
ATOM     58  C   UNL A   1      44.898  26.972  26.750  1.00  0.00     0.074 A 
ATOM     59  C   UNL A   1      44.911  25.603  26.277  1.00  0.00     0.031 C 
ATOM     60  C   UNL A   1      45.919  27.847  26.580  1.00  0.00     0.037 A 
BRANCH  47  61
ATOM     61  C   UNL A   1      44.835  33.448  28.953  1.00  0.00     0.057 A 
ATOM     62  C   UNL A   1      44.570  34.473  28.036  1.00  0.00     0.134 A 
ATOM     63  C   UNL A   1      45.558  33.779  30.105  1.00  0.00     0.134 A 
ATOM     64  F   UNL A   1      43.896  34.218  26.905  1.00  0.00    -0.206 F 
ATOM     65  C   UNL A   1      45.028  35.776  28.247  1.00  0.00     0.040 A 
ATOM     66  C   UNL A   1      46.001  35.083  30.338  1.00  0.00     0.040 A 
ATOM     67  F   UNL A   1      45.843  32.843  31.023  1.00  0.00    -0.206 F 
ATOM     68  C   UNL A   1      45.742  36.083  29.404  1.00  0.00     0.006 A 
ENDBRANCH  47  61
BRANCH  48  69
ATOM     69  C   UNL A   1      41.142  24.278  27.603  1.00  0.00     0.057 A 
ATOM     70  C   UNL A   1      41.651  23.178  28.304  1.00  0.00     0.134 A 
ATOM     71  C   UNL A   1      40.118  24.038  26.679  1.00  0.00     0.134 A 
ATOM     72  F   UNL A   1      42.647  23.342  29.186  1.00  0.00    -0.206 F 
ATOM     73  C   UNL A   1      41.174  21.886  28.080  1.00  0.00     0.040 A 
ATOM     74  C   UNL A   1      39.617  22.754  26.462  1.00  0.00     0.040 A 
ATOM     75  F   UNL A   1      39.587  25.051  25.978  1.00  0.00    -0.206 F 
ATOM     76  C   UNL A   1      40.150  21.671  27.158  1.00  0.00     0.006 A 
ENDBRANCH  48  69
BRANCH  60  77
ATOM     77  C   UNL A   1      47.149  27.338  25.888  1.00  0.00     0.057 A 
ATOM     78  C   UNL A   1      47.373  27.552  24.522  1.00  0.00     0.134 A 
ATOM     79  C   UNL A   1      48.133  26.646  26.605  1.00  0.00     0.134 A 
ATOM     80  F   UNL A   1      46.463  28.197  23.777  1.00  0.00    -0.206 F 
ATOM     81  C   UNL A   1      48.520  27.071  23.888  1.00  0.00     0.040 A 
ATOM     82  C   UNL A   1      49.296  26.182  25.988  1.00  0.00     0.040 A 
ATOM     83  F   UNL A   1      47.985  26.416  27.919  1.00  0.00    -0.206 F 
ATOM     84  C   UNL A   1      49.488  26.387  24.623  1.00  0.00     0.006 A 
ENDBRANCH  60  77
ENDBRANCH  34  35
ENDBRANCH  27  29
ENDBRANCH  26  27
ENDBRANCH  25  26
ENDBRANCH  24  25
ENDBRANCH  23  24
ENDBRANCH  22  23
ENDBRANCH   1  22
TORSDOF 19
ENDMDL
MODEL 2
REMARK VINA RESULT:     -10.5      1.528      6.656
REMARK SMILES COCc1cccc(O[C@@H](C)c2ccc(C(=O)OCCOCCOC(=O)c3ccc(-c4c5nc(c(-c6c(F)cccc6F)c6ccc([nH]6)c(-c6c(F)cccc6F)c6nc(c(-c7c(F)cccc7F)c7ccc4[nH]7)C=C6)C=C5)cc3)o2)c1
REMARK SMILES IDX 19 1 18 2 16 3 17 4 15 5 12 6 13 7 81 8 14 9 10 10 11 11
REMARK SMILES IDX 9 12 8 13 4 14 5 15 82 16 6 17 7 18 3 19 2 20 1 21 20 22
REMARK SMILES IDX 21 23 22 24 23 25 24 26 25 27 26 28 27 29 28 30 80 31 29 32
REMARK SMILES IDX 79 33 30 34 31 35 32 36 73 37 33 38 78 39 72 40 74 41 34 42
REMARK SMILES IDX 77 43 71 44 70 45 35 47 61 48 44 49 60 50 45 51 48 52 59 53
REMARK SMILES IDX 75 54 46 55 47 56 58 58 76 59 49 60 36 61 37 62 42 63 38 64
REMARK SMILES IDX 39 65 41 66 43 67 40 68 62 69 63 70 68 71 64 72 65 73 67 74
REMARK SMILES IDX 69 75 66 76 50 77 51 78 56 79 52 80 53 81 55 82 57 83 54 84
REMARK H PARENT 74 46 48 57
REMARK Flexibility Score: inf
ROOT
ATOM      1  C   UNL A   1      33.517  34.294  28.804  1.00  0.00     0.261 C 
ENDROOT
BRANCH   1   2
ATOM      2  O   UNL A   1      34.080  32.984  28.991  1.00  0.00    -0.457 OA
BRANCH   2   3
ATOM      3  C   UNL A   1      34.985  32.586  28.049  1.00  0.00     0.374 C 
ATOM      4  O   UNL A   1      35.909  33.275  27.637  1.00  0.00    -0.242 OA
BRANCH   3   5
ATOM      5  C   UNL A   1      34.742  31.201  27.714  1.00  0.00     0.211 A 
ATOM      6  C   UNL A   1      33.753  29.603  26.550  1.00  0.00     0.145 A 
ATOM      7  C   UNL A   1      34.743  28.991  27.291  1.00  0.00     0.050 A 
ATOM      8  O   UNL A   1      33.721  30.933  26.848  1.00  0.00    -0.450 OA
ATOM      9  C   UNL A   1      35.391  30.019  28.023  1.00  0.00     0.058 A 
BRANCH   6  10
ATOM     10  C   UNL A   1      32.726  29.117  25.576  1.00  0.00     0.236 C 
ATOM     11  C   UNL A   1      31.442  29.938  25.506  1.00  0.00     0.062 C 
BRANCH  10  12
ATOM     12  O   UNL A   1      32.499  27.705  25.717  1.00  0.00    -0.483 OA
BRANCH  12  13
ATOM     13  C   UNL A   1      33.065  26.758  24.917  1.00  0.00     0.120 A 
ATOM     14  C   UNL A   1      34.262  24.710  24.357  1.00  0.00    -0.019 A 
ATOM     15  C   UNL A   1      34.008  24.944  22.998  1.00  0.00     0.006 A 
ATOM     16  C   UNL A   1      33.808  25.644  25.311  1.00  0.00     0.052 A 
ATOM     17  C   UNL A   1      33.322  26.086  22.597  1.00  0.00     0.004 A 
ATOM     18  C   UNL A   1      32.850  26.982  23.554  1.00  0.00     0.046 A 
BRANCH  14  19
ATOM     19  C   UNL A   1      34.978  23.450  24.783  1.00  0.00     0.195 C 
BRANCH  19  20
ATOM     20  O   UNL A   1      34.787  23.132  26.158  1.00  0.00    -0.380 OA
ATOM     21  C   UNL A   1      34.954  21.753  26.464  1.00  0.00     0.195 C 
ENDBRANCH  19  20
ENDBRANCH  14  19
ENDBRANCH  12  13
ENDBRANCH  10  12
ENDBRANCH   6  10
ENDBRANCH   3   5
ENDBRANCH   2   3
ENDBRANCH   1   2
BRANCH   1  22
ATOM     22  C   UNL A   1      33.713  35.132  30.071  1.00  0.00     0.202 C 
BRANCH  22  23
ATOM     23  O   UNL A   1      33.311  34.489  31.281  1.00  0.00    -0.374 OA
BRANCH  23  24
ATOM     24  C   UNL A   1      34.066  34.794  32.456  1.00  0.00     0.202 C 
BRANCH  24  25
ATOM     25  C   UNL A   1      35.527  34.335  32.429  1.00  0.00     0.261 C 
BRANCH  25  26
ATOM     26  O   UNL A   1      35.644  32.969  31.997  1.00  0.00    -0.460 OA
BRANCH  26  27
ATOM     27  C   UNL A   1      36.440  32.204  32.778  1.00  0.00     0.338 C 
ATOM     28  O   UNL A   1      36.362  32.031  33.982  1.00  0.00    -0.246 OA
BRANCH  27  29
ATOM     29  C   UNL A   1      37.391  31.452  31.939  1.00  0.00     0.060 A 
ATOM     30  C   UNL A   1      38.278  30.595  32.600  1.00  0.00     0.016 A 
ATOM     31  C   UNL A   1      37.480  31.640  30.557  1.00  0.00     0.016 A 
ATOM     32  C   UNL A   1      39.310  29.986  31.895  1.00  0.00     0.010 A 
ATOM     33  C   UNL A   1      38.519  31.028  29.848  1.00  0.00     0.010 A 
ATOM     34  C   UNL A   1      39.467  30.242  30.526  1.00  0.00    -0.014 A 
BRANCH  34  35
ATOM     35  C   UNL A   1      40.732  29.832  29.871  1.00  0.00     0.031 A 
ATOM     36  C   UNL A   1      40.841  28.439  29.312  1.00  0.00     0.074 A 
ATOM     37  C   UNL A   1      41.736  30.710  29.704  1.00  0.00     0.049 A 
ATOM     38  N   UNL A   1      41.817  27.890  28.634  1.00  0.00    -0.248 NA
ATOM     39  C   UNL A   1      39.694  27.546  29.547  1.00  0.00     0.031 C 
ATOM     40  C   UNL A   1      41.738  32.092  30.178  1.00  0.00     0.029 A 
ATOM     41  N   UNL A   1      42.946  30.565  29.075  1.00  0.00    -0.354 N 
ATOM     42  C   UNL A   1      41.401  26.593  28.361  1.00  0.00     0.074 A 
ATOM     43  C   UNL A   1      40.106  26.422  28.979  1.00  0.00     0.031 C 
ATOM     44  C   UNL A   1      42.895  32.674  29.816  1.00  0.00     0.029 A 
ATOM     45  C   UNL A   1      43.717  31.700  29.098  1.00  0.00     0.049 A 
ATOM     46  H   UNL A   1      43.234  29.727  28.647  1.00  0.00     0.167 HD
ATOM     47  C   UNL A   1      42.035  25.634  27.644  1.00  0.00     0.037 A 
ATOM     48  C   UNL A   1      44.944  31.925  28.595  1.00  0.00     0.037 A 
ATOM     49  C   UNL A   1      43.322  25.803  27.024  1.00  0.00     0.049 A 
ATOM     50  C   UNL A   1      45.644  30.832  27.832  1.00  0.00     0.074 A 
ATOM     51  C   UNL A   1      44.044  24.896  26.268  1.00  0.00     0.029 A 
ATOM     52  N   UNL A   1      44.081  26.962  27.090  1.00  0.00    -0.354 N 
ATOM     53  N   UNL A   1      45.228  29.620  27.553  1.00  0.00    -0.248 NA
ATOM     54  C   UNL A   1      46.978  31.146  27.302  1.00  0.00     0.031 C 
ATOM     55  C   UNL A   1      45.257  25.493  25.908  1.00  0.00     0.029 A 
ATOM     56  C   UNL A   1      45.269  26.787  26.402  1.00  0.00     0.049 A 
ATOM     57  H   UNL A   1      43.814  27.787  27.558  1.00  0.00     0.167 HD
ATOM     58  C   UNL A   1      46.234  29.039  26.790  1.00  0.00     0.074 A 
ATOM     59  C   UNL A   1      47.274  30.036  26.642  1.00  0.00     0.031 C 
ATOM     60  C   UNL A   1      46.290  27.793  26.257  1.00  0.00     0.037 A 
BRANCH  47  61
ATOM     61  C   UNL A   1      41.344  24.309  27.509  1.00  0.00     0.057 A 
ATOM     62  C   UNL A   1      41.746  23.190  28.250  1.00  0.00     0.134 A 
ATOM     63  C   UNL A   1      40.256  24.156  26.642  1.00  0.00     0.134 A 
ATOM     64  F   UNL A   1      42.791  23.267  29.086  1.00  0.00    -0.206 F 
ATOM     65  C   UNL A   1      41.103  21.957  28.115  1.00  0.00     0.040 A 
ATOM     66  C   UNL A   1      39.591  22.935  26.516  1.00  0.00     0.040 A 
ATOM     67  F   UNL A   1      39.821  25.189  25.905  1.00  0.00    -0.206 F 
ATOM     68  C   UNL A   1      40.019  21.830  27.249  1.00  0.00     0.006 A 
ENDBRANCH  47  61
BRANCH  48  69
ATOM     69  C   UNL A   1      45.591  33.248  28.781  1.00  0.00     0.057 A 
ATOM     70  C   UNL A   1      45.471  34.257  27.819  1.00  0.00     0.134 A 
ATOM     71  C   UNL A   1      46.360  33.526  29.917  1.00  0.00     0.134 A 
ATOM     72  F   UNL A   1      44.765  34.042  26.700  1.00  0.00    -0.206 F 
ATOM     73  C   UNL A   1      46.108  35.489  27.970  1.00  0.00     0.040 A 
ATOM     74  C   UNL A   1      46.984  34.761  30.092  1.00  0.00     0.040 A 
ATOM     75  F   UNL A   1      46.511  32.600  30.876  1.00  0.00    -0.206 F 
ATOM     76  C   UNL A   1      46.865  35.746  29.113  1.00  0.00     0.006 A 
ENDBRANCH  48  69
BRANCH  60  77
ATOM     77  C   UNL A   1      47.497  27.456  25.433  1.00  0.00     0.057 A 
ATOM     78  C   UNL A   1      48.633  26.858  25.993  1.00  0.00     0.134 A 
ATOM     79  C   UNL A   1      47.512  27.710  24.056  1.00  0.00     0.134 A 
ATOM     80  F   UNL A   1      48.688  26.599  27.308  1.00  0.00    -0.206 F 
ATOM     81  C   UNL A   1      49.752  26.551  25.216  1.00  0.00     0.040 A 
ATOM     82  C   UNL A   1      48.614  27.385  23.264  1.00  0.00     0.040 A 
ATOM     83  F   UNL A   1      46.451  28.272  23.455  1.00  0.00    -0.206 F 
ATOM     84  C   UNL A   1      49.743  26.810  23.846  1.00  0.00     0.006 A 
ENDBRANCH  60  77
ENDBRANCH  34  35
ENDBRANCH  27  29
ENDBRANCH  26  27
ENDBRANCH  25  26
ENDBRANCH  24  25
ENDBRANCH  23  24
ENDBRANCH  22  23
ENDBRANCH   1  22
TORSDOF 19
ENDMDL
MODEL 3
REMARK VINA RESULT:     -10.4      1.380      2.208
REMARK SMILES COCc1cccc(O[C@@H](C)c2ccc(C(=O)OCCOCCOC(=O)c3ccc(-c4c5nc(c(-c6c(F)cccc6F)c6ccc([nH]6)c(-c6c(F)cccc6F)c6nc(c(-c7c(F)cccc7F)c7ccc4[nH]7)C=C6)C=C5)cc3)o2)c1
REMARK SMILES IDX 19 1 18 2 16 3 17 4 15 5 12 6 13 7 81 8 14 9 10 10 11 11
REMARK SMILES IDX 9 12 8 13 4 14 5 15 82 16 6 17 7 18 3 19 2 20 1 21 20 22
REMARK SMILES IDX 21 23 22 24 23 25 24 26 25 27 26 28 27 29 28 30 80 31 29 32
REMARK SMILES IDX 79 33 30 34 31 35 32 36 73 37 33 38 78 39 72 40 74 41 34 42
REMARK SMILES IDX 77 43 71 44 70 45 35 47 61 48 44 49 60 50 45 51 48 52 59 53
REMARK SMILES IDX 75 54 46 55 47 56 58 58 76 59 49 60 36 61 37 62 42 63 38 64
REMARK SMILES IDX 39 65 41 66 43 67 40 68 62 69 63 70 68 71 64 72 65 73 67 74
REMARK SMILES IDX 69 75 66 76 50 77 51 78 56 79 52 80 53 81 55 82 57 83 54 84
REMARK H PARENT 74 46 48 57
REMARK Flexibility Score: inf
ROOT
ATOM      1  C   UNL A   1      34.414  34.653  29.920  1.00  0.00     0.261 C 
ENDROOT
BRANCH   1   2
ATOM      2  O   UNL A   1      34.324  33.295  29.455  1.00  0.00    -0.457 OA
BRANCH   2   3
ATOM      3  C   UNL A   1      34.735  33.078  28.171  1.00  0.00     0.374 C 
ATOM      4  O   UNL A   1      35.007  33.961  27.369  1.00  0.00    -0.242 OA
BRANCH   3   5
ATOM      5  C   UNL A   1      34.904  31.658  27.962  1.00  0.00     0.211 A 
ATOM      6  C   UNL A   1      34.217  29.679  27.255  1.00  0.00     0.145 A 
ATOM      7  C   UNL A   1      35.549  29.535  27.588  1.00  0.00     0.050 A 
ATOM      8  O   UNL A   1      33.817  30.952  27.532  1.00  0.00    -0.450 OA
ATOM      9  C   UNL A   1      35.995  30.810  28.022  1.00  0.00     0.058 A 
BRANCH   6  10
ATOM     10  C   UNL A   1      33.167  28.752  26.730  1.00  0.00     0.236 C 
ATOM     11  C   UNL A   1      31.895  28.654  27.567  1.00  0.00     0.062 C 
BRANCH  10  12
ATOM     12  O   UNL A   1      33.724  27.475  26.380  1.00  0.00    -0.483 OA
BRANCH  12  13
ATOM     13  C   UNL A   1      33.734  26.969  25.114  1.00  0.00     0.120 A 
ATOM     14  C   UNL A   1      33.798  25.263  23.375  1.00  0.00    -0.019 A 
ATOM     15  C   UNL A   1      33.608  26.257  22.405  1.00  0.00     0.006 A 
ATOM     16  C   UNL A   1      33.890  25.636  24.732  1.00  0.00     0.052 A 
ATOM     17  C   UNL A   1      33.515  27.595  22.777  1.00  0.00     0.004 A 
ATOM     18  C   UNL A   1      33.572  27.943  24.125  1.00  0.00     0.046 A 
BRANCH  14  19
ATOM     19  C   UNL A   1      33.865  23.811  22.962  1.00  0.00     0.195 C 
BRANCH  19  20
ATOM     20  O   UNL A   1      34.189  22.935  24.037  1.00  0.00    -0.380 OA
ATOM     21  C   UNL A   1      33.379  21.768  24.099  1.00  0.00     0.195 C 
ENDBRANCH  19  20
ENDBRANCH  14  19
ENDBRANCH  12  13
ENDBRANCH  10  12
ENDBRANCH   6  10
ENDBRANCH   3   5
ENDBRANCH   2   3
ENDBRANCH   1   2
BRANCH   1  22
ATOM     22  C   UNL A   1      34.492  34.678  31.449  1.00  0.00     0.202 C 
BRANCH  22  23
ATOM     23  O   UNL A   1      33.475  33.923  32.111  1.00  0.00    -0.374 OA
BRANCH  23  24
ATOM     24  C   UNL A   1      33.694  33.618  33.490  1.00  0.00     0.202 C 
BRANCH  24  25
ATOM     25  C   UNL A   1      35.161  33.600  33.930  1.00  0.00     0.261 C 
BRANCH  25  26
ATOM     26  O   UNL A   1      35.789  32.344  33.621  1.00  0.00    -0.460 OA
BRANCH  26  27
ATOM     27  C   UNL A   1      37.103  32.286  33.934  1.00  0.00     0.338 C 
ATOM     28  O   UNL A   1      37.649  32.690  34.947  1.00  0.00    -0.246 OA
BRANCH  27  29
ATOM     29  C   UNL A   1      37.828  31.513  32.909  1.00  0.00     0.060 A 
ATOM     30  C   UNL A   1      38.833  30.649  33.361  1.00  0.00     0.016 A 
ATOM     31  C   UNL A   1      37.602  31.687  31.541  1.00  0.00     0.016 A 
ATOM     32  C   UNL A   1      39.670  30.020  32.447  1.00  0.00     0.010 A 
ATOM     33  C   UNL A   1      38.443  31.053  30.622  1.00  0.00     0.010 A 
ATOM     34  C   UNL A   1      39.513  30.260  31.075  1.00  0.00    -0.014 A 
BRANCH  34  35
ATOM     35  C   UNL A   1      40.590  29.827  30.154  1.00  0.00     0.031 A 
ATOM     36  C   UNL A   1      41.715  30.780  29.853  1.00  0.00     0.074 A 
ATOM     37  C   UNL A   1      40.609  28.577  29.659  1.00  0.00     0.049 A 
ATOM     38  N   UNL A   1      42.797  30.590  29.142  1.00  0.00    -0.248 NA
ATOM     39  C   UNL A   1      41.606  32.128  30.435  1.00  0.00     0.031 C 
ATOM     40  C   UNL A   1      39.591  27.556  29.899  1.00  0.00     0.029 A 
ATOM     41  N   UNL A   1      41.533  27.954  28.859  1.00  0.00    -0.354 N 
ATOM     42  C   UNL A   1      43.496  31.789  29.193  1.00  0.00     0.074 A 
ATOM     43  C   UNL A   1      42.699  32.713  29.969  1.00  0.00     0.031 C 
ATOM     44  C   UNL A   1      39.950  26.427  29.263  1.00  0.00     0.029 A 
ATOM     45  C   UNL A   1      41.214  26.652  28.562  1.00  0.00     0.049 A 
ATOM     46  H   UNL A   1      42.347  28.398  28.529  1.00  0.00     0.167 HD
ATOM     47  C   UNL A   1      44.703  32.090  28.656  1.00  0.00     0.037 A 
ATOM     48  C   UNL A   1      41.870  25.748  27.812  1.00  0.00     0.037 A 
ATOM     49  C   UNL A   1      45.499  31.171  27.887  1.00  0.00     0.049 A 
ATOM     50  C   UNL A   1      43.193  26.117  27.196  1.00  0.00     0.074 A 
ATOM     51  C   UNL A   1      46.740  31.376  27.309  1.00  0.00     0.029 A 
ATOM     52  N   UNL A   1      45.130  29.868  27.590  1.00  0.00    -0.354 N 
ATOM     53  N   UNL A   1      43.859  27.244  27.277  1.00  0.00    -0.248 NA
ATOM     54  C   UNL A   1      43.861  25.081  26.395  1.00  0.00     0.031 C 
ATOM     55  C   UNL A   1      47.104  30.209  26.629  1.00  0.00     0.029 A 
ATOM     56  C   UNL A   1      46.111  29.262  26.823  1.00  0.00     0.049 A 
ATOM     57  H   UNL A   1      44.293  29.437  27.881  1.00  0.00     0.167 HD
ATOM     58  C   UNL A   1      45.036  27.043  26.566  1.00  0.00     0.074 A 
ATOM     59  C   UNL A   1      44.997  25.682  26.071  1.00  0.00     0.031 C 
ATOM     60  C   UNL A   1      46.060  27.904  26.346  1.00  0.00     0.037 A 
BRANCH  47  61
ATOM     61  C   UNL A   1      45.222  33.480  28.872  1.00  0.00     0.057 A 
ATOM     62  C   UNL A   1      46.059  33.795  29.950  1.00  0.00     0.134 A 
ATOM     63  C   UNL A   1      44.894  34.511  27.984  1.00  0.00     0.134 A 
ATOM     64  F   UNL A   1      46.398  32.856  30.845  1.00  0.00    -0.206 F 
ATOM     65  C   UNL A   1      46.534  35.093  30.150  1.00  0.00     0.040 A 
ATOM     66  C   UNL A   1      45.381  35.808  28.160  1.00  0.00     0.040 A 
ATOM     67  F   UNL A   1      44.096  34.275  26.931  1.00  0.00    -0.206 F 
ATOM     68  C   UNL A   1      46.198  36.103  29.249  1.00  0.00     0.006 A 
ENDBRANCH  47  61
BRANCH  48  69
ATOM     69  C   UNL A   1      41.296  24.395  27.611  1.00  0.00     0.057 A 
ATOM     70  C   UNL A   1      41.753  23.295  28.346  1.00  0.00     0.134 A 
ATOM     71  C   UNL A   1      40.289  24.167  26.665  1.00  0.00     0.134 A 
ATOM     72  F   UNL A   1      42.730  23.447  29.251  1.00  0.00    -0.206 F 
ATOM     73  C   UNL A   1      41.243  22.013  28.135  1.00  0.00     0.040 A 
ATOM     74  C   UNL A   1      39.755  22.895  26.459  1.00  0.00     0.040 A 
ATOM     75  F   UNL A   1      39.808  25.181  25.930  1.00  0.00    -0.206 F 
ATOM     76  C   UNL A   1      40.237  21.811  27.191  1.00  0.00     0.006 A 
ENDBRANCH  48  69
BRANCH  60  77
ATOM     77  C   UNL A   1      47.235  27.388  25.570  1.00  0.00     0.057 A 
ATOM     78  C   UNL A   1      47.348  27.573  24.186  1.00  0.00     0.134 A 
ATOM     79  C   UNL A   1      48.278  26.717  26.221  1.00  0.00     0.134 A 
ATOM     80  F   UNL A   1      46.378  28.197  23.502  1.00  0.00    -0.206 F 
ATOM     81  C   UNL A   1      48.445  27.085  23.474  1.00  0.00     0.040 A 
ATOM     82  C   UNL A   1      49.391  26.246  25.524  1.00  0.00     0.040 A 
ATOM     83  F   UNL A   1      48.235  26.515  27.547  1.00  0.00    -0.206 F 
ATOM     84  C   UNL A   1      49.473  26.423  24.144  1.00  0.00     0.006 A 
ENDBRANCH  60  77
ENDBRANCH  34  35
ENDBRANCH  27  29
ENDBRANCH  26  27
ENDBRANCH  25  26
ENDBRANCH  24  25
ENDBRANCH  23  24
ENDBRANCH  22  23
ENDBRANCH   1  22
TORSDOF 19
ENDMDL
