MODEL 1
REMARK VINA RESULT:     -11.2      0.000      0.000
REMARK SMILES CCOC(=O)c1ccc(-c2cc(F)cc(C(=O)OCCOCCOC(=O)c3ccc(-c4c5nc(c(-c6c(F)cccc6F)c6ccc([nH]6)c(-c6c(F)cccc6F)c6nc(c(-c7c(F)cccc7F)c7ccc4[nH]7)C=C6)C=C5)cc3)c2)cc1
REMARK SMILES IDX 20 1 19 2 18 3 16 4 17 5 15 6 10 7 11 8 81 9 12 10 13 11
REMARK SMILES IDX 14 12 9 13 6 14 7 15 83 16 8 17 82 18 4 19 5 20 3 21 2 22
REMARK SMILES IDX 1 23 21 24 22 25 23 26 24 27 25 28 26 29 27 30 28 31 80 32
REMARK SMILES IDX 29 33 79 34 30 35 31 36 32 37 73 38 33 39 78 40 72 41 74 42
REMARK SMILES IDX 34 43 77 44 71 45 70 46 35 48 61 49 44 50 60 51 45 52 48 53
REMARK SMILES IDX 59 54 75 55 46 56 47 57 58 59 76 60 49 61 36 62 37 63 42 64
REMARK SMILES IDX 38 65 39 66 41 67 43 68 40 69 62 70 63 71 68 72 64 73 65 74
REMARK SMILES IDX 67 75 69 76 66 77 50 78 51 79 56 80 52 81 53 82 55 83 57 84
REMARK SMILES IDX 54 85
REMARK H PARENT 74 47 48 58
REMARK Flexibility Score: inf
ROOT
ATOM      1  C   UNL A   1      45.814  19.556  24.244  1.00  0.00     0.202 C 
ENDROOT
BRANCH   1   2
ATOM      2  C   UNL A   1      44.738  18.785  25.014  1.00  0.00     0.261 C 
BRANCH   2   3
ATOM      3  O   UNL A   1      43.472  19.466  24.929  1.00  0.00    -0.460 OA
BRANCH   3   4
ATOM      4  C   UNL A   1      42.501  18.985  25.741  1.00  0.00     0.338 C 
ATOM      5  O   UNL A   1      42.347  17.826  26.096  1.00  0.00    -0.246 OA
BRANCH   4   6
ATOM      6  C   UNL A   1      41.719  20.106  26.311  1.00  0.00     0.063 A 
ATOM      7  C   UNL A   1      39.777  21.598  26.355  1.00  0.00    -0.015 A 
ATOM      8  C   UNL A   1      40.372  22.267  27.439  1.00  0.00     0.048 A 
ATOM      9  C   UNL A   1      40.478  20.512  25.790  1.00  0.00     0.024 A 
ATOM     10  C   UNL A   1      41.609  21.865  27.935  1.00  0.00     0.124 A 
ATOM     11  F   UNL A   1      42.157  22.539  28.955  1.00  0.00    -0.207 F 
ATOM     12  C   UNL A   1      42.285  20.789  27.389  1.00  0.00     0.055 A 
BRANCH   7  13
ATOM     13  C   UNL A   1      38.466  22.032  25.830  1.00  0.00    -0.018 A 
ATOM     14  C   UNL A   1      35.970  22.888  24.802  1.00  0.00     0.060 A 
ATOM     15  C   UNL A   1      36.734  23.746  25.596  1.00  0.00     0.016 A 
ATOM     16  C   UNL A   1      36.437  21.600  24.529  1.00  0.00     0.016 A 
ATOM     17  C   UNL A   1      37.964  23.318  26.109  1.00  0.00     0.009 A 
ATOM     18  C   UNL A   1      37.674  21.181  25.037  1.00  0.00     0.009 A 
BRANCH  14  19
ATOM     19  C   UNL A   1      34.717  23.406  24.210  1.00  0.00     0.338 C 
ATOM     20  O   UNL A   1      34.456  24.597  24.143  1.00  0.00    -0.246 OA
BRANCH  19  21
ATOM     21  O   UNL A   1      33.937  22.380  23.793  1.00  0.00    -0.462 OA
BRANCH  21  22
ATOM     22  C   UNL A   1      33.011  21.870  24.765  1.00  0.00     0.230 C 
ATOM     23  C   UNL A   1      32.529  20.471  24.423  1.00  0.00     0.049 C 
ENDBRANCH  21  22
ENDBRANCH  19  21
ENDBRANCH  14  19
ENDBRANCH   7  13
ENDBRANCH   4   6
ENDBRANCH   3   4
ENDBRANCH   2   3
ENDBRANCH   1   2
BRANCH   1  24
ATOM     24  O   UNL A   1      46.489  20.568  24.993  1.00  0.00    -0.374 OA
BRANCH  24  25
ATOM     25  C   UNL A   1      46.049  21.913  24.797  1.00  0.00     0.202 C 
BRANCH  25  26
ATOM     26  C   UNL A   1      45.191  22.500  25.924  1.00  0.00     0.261 C 
BRANCH  26  27
ATOM     27  O   UNL A   1      44.213  23.426  25.414  1.00  0.00    -0.460 OA
BRANCH  27  28
ATOM     28  C   UNL A   1      44.625  24.713  25.349  1.00  0.00     0.338 C 
ATOM     29  O   UNL A   1      45.464  25.186  24.597  1.00  0.00    -0.246 OA
BRANCH  28  30
ATOM     30  C   UNL A   1      43.788  25.554  26.225  1.00  0.00     0.060 A 
ATOM     31  C   UNL A   1      44.135  26.905  26.344  1.00  0.00     0.016 A 
ATOM     32  C   UNL A   1      42.730  25.023  26.969  1.00  0.00     0.016 A 
ATOM     33  C   UNL A   1      43.463  27.722  27.251  1.00  0.00     0.010 A 
ATOM     34  C   UNL A   1      42.062  25.843  27.885  1.00  0.00     0.010 A 
ATOM     35  C   UNL A   1      42.451  27.184  28.058  1.00  0.00    -0.014 A 
BRANCH  35  36
ATOM     36  C   UNL A   1      41.920  27.974  29.193  1.00  0.00     0.031 A 
ATOM     37  C   UNL A   1      42.615  27.888  30.524  1.00  0.00     0.074 A 
ATOM     38  C   UNL A   1      40.852  28.775  29.040  1.00  0.00     0.049 A 
ATOM     39  N   UNL A   1      42.298  28.443  31.665  1.00  0.00    -0.248 NA
ATOM     40  C   UNL A   1      43.831  27.060  30.574  1.00  0.00     0.031 C 
ATOM     41  C   UNL A   1      40.120  28.981  27.791  1.00  0.00     0.029 A 
ATOM     42  N   UNL A   1      40.191  29.560  29.952  1.00  0.00    -0.354 N 
ATOM     43  C   UNL A   1      43.269  28.027  32.569  1.00  0.00     0.074 A 
ATOM     44  C   UNL A   1      44.170  27.152  31.851  1.00  0.00     0.031 C 
ATOM     45  C   UNL A   1      39.101  29.829  28.020  1.00  0.00     0.029 A 
ATOM     46  C   UNL A   1      39.092  30.198  29.434  1.00  0.00     0.049 A 
ATOM     47  H   UNL A   1      40.480  29.657  30.888  1.00  0.00     0.167 HD
ATOM     48  C   UNL A   1      43.401  28.350  33.877  1.00  0.00     0.037 A 
ATOM     49  C   UNL A   1      38.171  30.971  30.041  1.00  0.00     0.037 A 
ATOM     50  C   UNL A   1      42.505  29.222  34.589  1.00  0.00     0.049 A 
ATOM     51  C   UNL A   1      38.299  31.262  31.513  1.00  0.00     0.074 A 
ATOM     52  C   UNL A   1      42.560  29.618  35.915  1.00  0.00     0.029 A 
ATOM     53  N   UNL A   1      41.389  29.829  34.035  1.00  0.00    -0.354 N 
ATOM     54  N   UNL A   1      39.227  30.875  32.355  1.00  0.00    -0.248 NA
ATOM     55  C   UNL A   1      37.251  32.096  32.119  1.00  0.00     0.031 C 
ATOM     56  C   UNL A   1      41.453  30.433  36.172  1.00  0.00     0.029 A 
ATOM     57  C   UNL A   1      40.736  30.582  34.996  1.00  0.00     0.049 A 
ATOM     58  H   UNL A   1      41.104  29.738  33.098  1.00  0.00     0.167 HD
ATOM     59  C   UNL A   1      38.896  31.445  33.578  1.00  0.00     0.074 A 
ATOM     60  C   UNL A   1      37.682  32.208  33.368  1.00  0.00     0.031 C 
ATOM     61  C   UNL A   1      39.539  31.350  34.766  1.00  0.00     0.037 A 
BRANCH  48  62
ATOM     62  C   UNL A   1      44.546  27.737  34.626  1.00  0.00     0.057 A 
ATOM     63  C   UNL A   1      45.787  28.377  34.732  1.00  0.00     0.134 A 
ATOM     64  C   UNL A   1      44.395  26.504  35.273  1.00  0.00     0.134 A 
ATOM     65  F   UNL A   1      46.001  29.552  34.122  1.00  0.00    -0.206 F 
ATOM     66  C   UNL A   1      46.845  27.801  35.438  1.00  0.00     0.040 A 
ATOM     67  C   UNL A   1      45.438  25.930  36.002  1.00  0.00     0.040 A 
ATOM     68  F   UNL A   1      43.230  25.842  35.213  1.00  0.00    -0.206 F 
ATOM     69  C   UNL A   1      46.669  26.577  36.081  1.00  0.00     0.006 A 
ENDBRANCH  48  62
BRANCH  49  70
ATOM     70  C   UNL A   1      37.034  31.522  29.262  1.00  0.00     0.057 A 
ATOM     71  C   UNL A   1      37.049  32.838  28.786  1.00  0.00     0.134 A 
ATOM     72  C   UNL A   1      35.893  30.754  28.997  1.00  0.00     0.134 A 
ATOM     73  F   UNL A   1      38.103  33.631  29.030  1.00  0.00    -0.206 F 
ATOM     74  C   UNL A   1      35.966  33.377  28.090  1.00  0.00     0.040 A 
ATOM     75  C   UNL A   1      34.813  31.272  28.281  1.00  0.00     0.040 A 
ATOM     76  F   UNL A   1      35.816  29.485  29.425  1.00  0.00    -0.206 F 
ATOM     77  C   UNL A   1      34.845  32.591  27.831  1.00  0.00     0.006 A 
ENDBRANCH  49  70
BRANCH  61  78
ATOM     78  C   UNL A   1      38.977  32.125  35.922  1.00  0.00     0.057 A 
ATOM     79  C   UNL A   1      39.221  33.494  36.084  1.00  0.00     0.134 A 
ATOM     80  C   UNL A   1      38.140  31.499  36.855  1.00  0.00     0.134 A 
ATOM     81  F   UNL A   1      40.023  34.147  35.232  1.00  0.00    -0.206 F 
ATOM     82  C   UNL A   1      38.664  34.211  37.146  1.00  0.00     0.040 A 
ATOM     83  C   UNL A   1      37.558  32.211  37.905  1.00  0.00     0.040 A 
ATOM     84  F   UNL A   1      37.859  30.192  36.751  1.00  0.00    -0.206 F 
ATOM     85  C   UNL A   1      37.824  33.570  38.055  1.00  0.00     0.006 A 
ENDBRANCH  61  78
ENDBRANCH  35  36
ENDBRANCH  28  30
ENDBRANCH  27  28
ENDBRANCH  26  27
ENDBRANCH  25  26
ENDBRANCH  24  25
ENDBRANCH   1  24
TORSDOF 18
ENDMDL
MODEL 2
REMARK VINA RESULT:     -11.1      1.098      2.146
REMARK SMILES CCOC(=O)c1ccc(-c2cc(F)cc(C(=O)OCCOCCOC(=O)c3ccc(-c4c5nc(c(-c6c(F)cccc6F)c6ccc([nH]6)c(-c6c(F)cccc6F)c6nc(c(-c7c(F)cccc7F)c7ccc4[nH]7)C=C6)C=C5)cc3)c2)cc1
REMARK SMILES IDX 20 1 19 2 18 3 16 4 17 5 15 6 10 7 11 8 81 9 12 10 13 11
REMARK SMILES IDX 14 12 9 13 6 14 7 15 83 16 8 17 82 18 4 19 5 20 3 21 2 22
REMARK SMILES IDX 1 23 21 24 22 25 23 26 24 27 25 28 26 29 27 30 28 31 80 32
REMARK SMILES IDX 29 33 79 34 30 35 31 36 32 37 73 38 33 39 78 40 72 41 74 42
REMARK SMILES IDX 34 43 77 44 71 45 70 46 35 48 61 49 44 50 60 51 45 52 48 53
REMARK SMILES IDX 59 54 75 55 46 56 47 57 58 59 76 60 49 61 36 62 37 63 42 64
REMARK SMILES IDX 38 65 39 66 41 67 43 68 40 69 62 70 63 71 68 72 64 73 65 74
REMARK SMILES IDX 67 75 69 76 66 77 50 78 51 79 56 80 52 81 53 82 55 83 57 84
REMARK SMILES IDX 54 85
REMARK H PARENT 74 47 48 58
REMARK Flexibility Score: inf
ROOT
ATOM      1  C   UNL A   1      43.778  19.686  25.531  1.00  0.00     0.202 C 
ENDROOT
BRANCH   1   2
ATOM      2  C   UNL A   1      42.281  19.423  25.720  1.00  0.00     0.261 C 
BRANCH   2   3
ATOM      3  O   UNL A   1      41.555  20.666  25.773  1.00  0.00    -0.460 OA
BRANCH   3   4
ATOM      4  C   UNL A   1      40.658  20.768  26.782  1.00  0.00     0.338 C 
ATOM      5  O   UNL A   1      40.689  20.184  27.855  1.00  0.00    -0.246 OA
BRANCH   4   6
ATOM      6  C   UNL A   1      39.689  21.849  26.489  1.00  0.00     0.063 A 
ATOM      7  C   UNL A   1      37.570  22.679  25.585  1.00  0.00    -0.015 A 
ATOM      8  C   UNL A   1      37.978  23.977  25.942  1.00  0.00     0.048 A 
ATOM      9  C   UNL A   1      38.454  21.615  25.861  1.00  0.00     0.024 A 
ATOM     10  C   UNL A   1      39.211  24.197  26.548  1.00  0.00     0.124 A 
ATOM     11  F   UNL A   1      39.578  25.448  26.854  1.00  0.00    -0.207 F 
ATOM     12  C   UNL A   1      40.067  23.148  26.832  1.00  0.00     0.055 A 
BRANCH   7  13
ATOM     13  C   UNL A   1      36.261  22.453  24.938  1.00  0.00    -0.018 A 
ATOM     14  C   UNL A   1      33.736  22.029  23.728  1.00  0.00     0.060 A 
ATOM     15  C   UNL A   1      34.195  21.160  24.720  1.00  0.00     0.016 A 
ATOM     16  C   UNL A   1      34.536  23.102  23.326  1.00  0.00     0.016 A 
ATOM     17  C   UNL A   1      35.446  21.368  25.311  1.00  0.00     0.009 A 
ATOM     18  C   UNL A   1      35.783  23.310  23.929  1.00  0.00     0.009 A 
BRANCH  14  19
ATOM     19  C   UNL A   1      32.373  21.826  23.189  1.00  0.00     0.338 C 
ATOM     20  O   UNL A   1      32.143  21.145  22.202  1.00  0.00    -0.246 OA
BRANCH  19  21
ATOM     21  O   UNL A   1      31.469  22.509  23.932  1.00  0.00    -0.462 OA
BRANCH  21  22
ATOM     22  C   UNL A   1      31.024  23.756  23.373  1.00  0.00     0.230 C 
ATOM     23  C   UNL A   1      31.082  24.891  24.380  1.00  0.00     0.049 C 
ENDBRANCH  21  22
ENDBRANCH  19  21
ENDBRANCH  14  19
ENDBRANCH   7  13
ENDBRANCH   4   6
ENDBRANCH   3   4
ENDBRANCH   2   3
ENDBRANCH   1   2
BRANCH   1  24
ATOM     24  O   UNL A   1      44.141  20.256  24.274  1.00  0.00    -0.374 OA
BRANCH  24  25
ATOM     25  C   UNL A   1      45.125  21.293  24.298  1.00  0.00     0.202 C 
BRANCH  25  26
ATOM     26  C   UNL A   1      44.596  22.712  24.062  1.00  0.00     0.261 C 
BRANCH  26  27
ATOM     27  O   UNL A   1      44.314  23.382  25.305  1.00  0.00    -0.460 OA
BRANCH  27  28
ATOM     28  C   UNL A   1      44.747  24.662  25.374  1.00  0.00     0.338 C 
ATOM     29  O   UNL A   1      45.628  25.185  24.707  1.00  0.00    -0.246 OA
BRANCH  28  30
ATOM     30  C   UNL A   1      43.881  25.438  26.281  1.00  0.00     0.060 A 
ATOM     31  C   UNL A   1      43.940  26.835  26.190  1.00  0.00     0.016 A 
ATOM     32  C   UNL A   1      43.081  24.822  27.247  1.00  0.00     0.016 A 
ATOM     33  C   UNL A   1      43.243  27.624  27.103  1.00  0.00     0.010 A 
ATOM     34  C   UNL A   1      42.389  25.616  28.167  1.00  0.00     0.010 A 
ATOM     35  C   UNL A   1      42.498  27.019  28.123  1.00  0.00    -0.014 A 
BRANCH  35  36
ATOM     36  C   UNL A   1      41.976  27.842  29.239  1.00  0.00     0.031 A 
ATOM     37  C   UNL A   1      42.682  27.798  30.565  1.00  0.00     0.074 A 
ATOM     38  C   UNL A   1      40.905  28.637  29.070  1.00  0.00     0.049 A 
ATOM     39  N   UNL A   1      42.374  28.387  31.691  1.00  0.00    -0.248 NA
ATOM     40  C   UNL A   1      43.900  26.973  30.630  1.00  0.00     0.031 C 
ATOM     41  C   UNL A   1      40.162  28.804  27.822  1.00  0.00     0.029 A 
ATOM     42  N   UNL A   1      40.251  29.449  29.964  1.00  0.00    -0.354 N 
ATOM     43  C   UNL A   1      43.353  28.000  32.599  1.00  0.00     0.074 A 
ATOM     44  C   UNL A   1      44.250  27.104  31.901  1.00  0.00     0.031 C 
ATOM     45  C   UNL A   1      39.144  29.657  28.034  1.00  0.00     0.029 A 
ATOM     46  C   UNL A   1      39.146  30.069  29.436  1.00  0.00     0.049 A 
ATOM     47  H   UNL A   1      40.548  29.575  30.894  1.00  0.00     0.167 HD
ATOM     48  C   UNL A   1      43.497  28.364  33.896  1.00  0.00     0.037 A 
ATOM     49  C   UNL A   1      38.230  30.860  30.027  1.00  0.00     0.037 A 
ATOM     50  C   UNL A   1      42.606  29.255  34.589  1.00  0.00     0.049 A 
ATOM     51  C   UNL A   1      38.370  31.195  31.488  1.00  0.00     0.074 A 
ATOM     52  C   UNL A   1      42.672  29.693  35.901  1.00  0.00     0.029 A 
ATOM     53  N   UNL A   1      41.484  29.844  34.026  1.00  0.00    -0.354 N 
ATOM     54  N   UNL A   1      39.306  30.836  32.333  1.00  0.00    -0.248 NA
ATOM     55  C   UNL A   1      37.326  32.047  32.077  1.00  0.00     0.031 C 
ATOM     56  C   UNL A   1      41.566  30.514  36.143  1.00  0.00     0.029 A 
ATOM     57  C   UNL A   1      40.838  30.625  34.969  1.00  0.00     0.049 A 
ATOM     58  H   UNL A   1      41.191  29.725  33.094  1.00  0.00     0.167 HD
ATOM     59  C   UNL A   1      38.984  31.443  33.541  1.00  0.00     0.074 A 
ATOM     60  C   UNL A   1      37.768  32.197  33.319  1.00  0.00     0.031 C 
ATOM     61  C   UNL A   1      39.638  31.384  34.726  1.00  0.00     0.037 A 
BRANCH  48  62
ATOM     62  C   UNL A   1      44.649  27.775  34.653  1.00  0.00     0.057 A 
ATOM     63  C   UNL A   1      44.528  26.576  35.367  1.00  0.00     0.134 A 
ATOM     64  C   UNL A   1      45.902  28.401  34.644  1.00  0.00     0.134 A 
ATOM     65  F   UNL A   1      43.352  25.936  35.428  1.00  0.00    -0.206 F 
ATOM     66  C   UNL A   1      45.609  26.032  36.064  1.00  0.00     0.040 A 
ATOM     67  C   UNL A   1      46.995  27.854  35.316  1.00  0.00     0.040 A 
ATOM     68  F   UNL A   1      46.084  29.550  33.976  1.00  0.00    -0.206 F 
ATOM     69  C   UNL A   1      46.849  26.668  36.033  1.00  0.00     0.006 A 
ENDBRANCH  48  62
BRANCH  49  70
ATOM     70  C   UNL A   1      37.085  31.385  29.241  1.00  0.00     0.057 A 
ATOM     71  C   UNL A   1      37.070  32.704  28.772  1.00  0.00     0.134 A 
ATOM     72  C   UNL A   1      35.967  30.589  28.963  1.00  0.00     0.134 A 
ATOM     73  F   UNL A   1      38.102  33.522  29.029  1.00  0.00    -0.206 F 
ATOM     74  C   UNL A   1      35.980  33.218  28.069  1.00  0.00     0.040 A 
ATOM     75  C   UNL A   1      34.879  31.083  28.241  1.00  0.00     0.040 A 
ATOM     76  F   UNL A   1      35.919  29.317  29.384  1.00  0.00    -0.206 F 
ATOM     77  C   UNL A   1      34.881  32.404  27.798  1.00  0.00     0.006 A 
ENDBRANCH  49  70
BRANCH  61  78
ATOM     78  C   UNL A   1      39.086  32.194  35.862  1.00  0.00     0.057 A 
ATOM     79  C   UNL A   1      38.218  31.643  36.813  1.00  0.00     0.134 A 
ATOM     80  C   UNL A   1      39.471  33.530  36.033  1.00  0.00     0.134 A 
ATOM     81  F   UNL A   1      37.803  30.373  36.698  1.00  0.00    -0.206 F 
ATOM     82  C   UNL A   1      37.739  32.398  37.885  1.00  0.00     0.040 A 
ATOM     83  C   UNL A   1      39.017  34.287  37.115  1.00  0.00     0.040 A 
ATOM     84  F   UNL A   1      40.307  34.116  35.163  1.00  0.00    -0.206 F 
ATOM     85  C   UNL A   1      38.145  33.722  38.042  1.00  0.00     0.006 A 
ENDBRANCH  61  78
ENDBRANCH  35  36
ENDBRANCH  28  30
ENDBRANCH  27  28
ENDBRANCH  26  27
ENDBRANCH  25  26
ENDBRANCH  24  25
ENDBRANCH   1  24
TORSDOF 18
ENDMDL
MODEL 3
REMARK VINA RESULT:     -11.0      2.036      3.239
REMARK SMILES CCOC(=O)c1ccc(-c2cc(F)cc(C(=O)OCCOCCOC(=O)c3ccc(-c4c5nc(c(-c6c(F)cccc6F)c6ccc([nH]6)c(-c6c(F)cccc6F)c6nc(c(-c7c(F)cccc7F)c7ccc4[nH]7)C=C6)C=C5)cc3)c2)cc1
REMARK SMILES IDX 20 1 19 2 18 3 16 4 17 5 15 6 10 7 11 8 81 9 12 10 13 11
REMARK SMILES IDX 14 12 9 13 6 14 7 15 83 16 8 17 82 18 4 19 5 20 3 21 2 22
REMARK SMILES IDX 1 23 21 24 22 25 23 26 24 27 25 28 26 29 27 30 28 31 80 32
REMARK SMILES IDX 29 33 79 34 30 35 31 36 32 37 73 38 33 39 78 40 72 41 74 42
REMARK SMILES IDX 34 43 77 44 71 45 70 46 35 48 61 49 44 50 60 51 45 52 48 53
REMARK SMILES IDX 59 54 75 55 46 56 47 57 58 59 76 60 49 61 36 62 37 63 42 64
REMARK SMILES IDX 38 65 39 66 41 67 43 68 40 69 62 70 63 71 68 72 64 73 65 74
REMARK SMILES IDX 67 75 69 76 66 77 50 78 51 79 56 80 52 81 53 82 55 83 57 84
REMARK SMILES IDX 54 85
REMARK H PARENT 74 47 48 58
REMARK Flexibility Score: inf
ROOT
ATOM      1  C   UNL A   1      42.008  20.224  26.424  1.00  0.00     0.202 C 
ENDROOT
BRANCH   1   2
ATOM      2  C   UNL A   1      40.763  20.803  27.101  1.00  0.00     0.261 C 
BRANCH   2   3
ATOM      3  O   UNL A   1      39.694  20.950  26.147  1.00  0.00    -0.460 OA
BRANCH   3   4
ATOM      4  C   UNL A   1      39.085  22.159  26.141  1.00  0.00     0.338 C 
ATOM      5  O   UNL A   1      39.619  23.251  26.267  1.00  0.00    -0.246 OA
BRANCH   4   6
ATOM      6  C   UNL A   1      37.659  22.005  25.775  1.00  0.00     0.063 A 
ATOM      7  C   UNL A   1      35.367  22.843  25.570  1.00  0.00    -0.015 A 
ATOM      8  C   UNL A   1      34.991  21.570  25.104  1.00  0.00     0.048 A 
ATOM      9  C   UNL A   1      36.720  23.042  25.915  1.00  0.00     0.024 A 
ATOM     10  C   UNL A   1      35.927  20.547  24.987  1.00  0.00     0.124 A 
ATOM     11  F   UNL A   1      35.531  19.341  24.561  1.00  0.00    -0.207 F 
ATOM     12  C   UNL A   1      37.257  20.752  25.310  1.00  0.00     0.055 A 
BRANCH   7  13
ATOM     13  C   UNL A   1      34.367  23.923  25.696  1.00  0.00    -0.018 A 
ATOM     14  C   UNL A   1      32.453  25.992  25.975  1.00  0.00     0.060 A 
ATOM     15  C   UNL A   1      32.124  24.679  26.320  1.00  0.00     0.016 A 
ATOM     16  C   UNL A   1      33.728  26.277  25.479  1.00  0.00     0.016 A 
ATOM     17  C   UNL A   1      33.070  23.658  26.174  1.00  0.00     0.009 A 
ATOM     18  C   UNL A   1      34.673  25.252  25.345  1.00  0.00     0.009 A 
BRANCH  14  19
ATOM     19  C   UNL A   1      31.456  27.056  26.223  1.00  0.00     0.338 C 
ATOM     20  O   UNL A   1      30.963  27.263  27.321  1.00  0.00    -0.246 OA
BRANCH  19  21
ATOM     21  O   UNL A   1      31.180  27.717  25.073  1.00  0.00    -0.462 OA
BRANCH  21  22
ATOM     22  C   UNL A   1      30.128  27.156  24.272  1.00  0.00     0.230 C 
ATOM     23  C   UNL A   1      30.009  27.836  22.920  1.00  0.00     0.049 C 
ENDBRANCH  21  22
ENDBRANCH  19  21
ENDBRANCH  14  19
ENDBRANCH   7  13
ENDBRANCH   4   6
ENDBRANCH   3   4
ENDBRANCH   2   3
ENDBRANCH   1   2
BRANCH   1  24
ATOM     24  O   UNL A   1      42.565  21.030  25.384  1.00  0.00    -0.374 OA
BRANCH  24  25
ATOM     25  C   UNL A   1      43.986  21.188  25.385  1.00  0.00     0.202 C 
BRANCH  25  26
ATOM     26  C   UNL A   1      44.528  22.304  24.485  1.00  0.00     0.261 C 
BRANCH  26  27
ATOM     27  O   UNL A   1      43.749  23.508  24.612  1.00  0.00    -0.460 OA
BRANCH  27  28
ATOM     28  C   UNL A   1      44.443  24.596  25.016  1.00  0.00     0.338 C 
ATOM     29  O   UNL A   1      45.532  24.975  24.612  1.00  0.00    -0.246 OA
BRANCH  28  30
ATOM     30  C   UNL A   1      43.619  25.406  25.934  1.00  0.00     0.060 A 
ATOM     31  C   UNL A   1      43.829  26.791  25.937  1.00  0.00     0.016 A 
ATOM     32  C   UNL A   1      42.712  24.823  26.823  1.00  0.00     0.016 A 
ATOM     33  C   UNL A   1      43.175  27.595  26.868  1.00  0.00     0.010 A 
ATOM     34  C   UNL A   1      42.063  25.631  27.763  1.00  0.00     0.010 A 
ATOM     35  C   UNL A   1      42.321  27.013  27.814  1.00  0.00    -0.014 A 
BRANCH  35  36
ATOM     36  C   UNL A   1      41.834  27.820  28.957  1.00  0.00     0.031 A 
ATOM     37  C   UNL A   1      42.580  27.755  30.261  1.00  0.00     0.074 A 
ATOM     38  C   UNL A   1      40.760  28.619  28.834  1.00  0.00     0.049 A 
ATOM     39  N   UNL A   1      42.307  28.327  31.405  1.00  0.00    -0.248 NA
ATOM     40  C   UNL A   1      43.798  26.928  30.276  1.00  0.00     0.031 C 
ATOM     41  C   UNL A   1      39.980  28.806  27.611  1.00  0.00     0.029 A 
ATOM     42  N   UNL A   1      40.135  29.418  29.759  1.00  0.00    -0.354 N 
ATOM     43  C   UNL A   1      43.313  27.925  32.277  1.00  0.00     0.074 A 
ATOM     44  C   UNL A   1      44.186  27.039  31.538  1.00  0.00     0.031 C 
ATOM     45  C   UNL A   1      38.970  29.656  27.866  1.00  0.00     0.029 A 
ATOM     46  C   UNL A   1      39.015  30.047  29.274  1.00  0.00     0.049 A 
ATOM     47  H   UNL A   1      40.460  29.529  30.681  1.00  0.00     0.167 HD
ATOM     48  C   UNL A   1      43.495  28.269  33.574  1.00  0.00     0.037 A 
ATOM     49  C   UNL A   1      38.118  30.830  29.904  1.00  0.00     0.037 A 
ATOM     50  C   UNL A   1      42.628  29.151  34.307  1.00  0.00     0.049 A 
ATOM     51  C   UNL A   1      38.303  31.143  31.365  1.00  0.00     0.074 A 
ATOM     52  C   UNL A   1      42.733  29.568  35.623  1.00  0.00     0.029 A 
ATOM     53  N   UNL A   1      41.490  29.749  33.787  1.00  0.00    -0.354 N 
ATOM     54  N   UNL A   1      39.264  30.769  32.177  1.00  0.00    -0.248 NA
ATOM     55  C   UNL A   1      37.279  31.986  31.999  1.00  0.00     0.031 C 
ATOM     56  C   UNL A   1      41.636  30.386  35.911  1.00  0.00     0.029 A 
ATOM     57  C   UNL A   1      40.874  30.517  34.761  1.00  0.00     0.049 A 
ATOM     58  H   UNL A   1      41.169  29.644  32.863  1.00  0.00     0.167 HD
ATOM     59  C   UNL A   1      38.979  31.358  33.403  1.00  0.00     0.074 A 
ATOM     60  C   UNL A   1      37.758  32.117  33.228  1.00  0.00     0.031 C 
ATOM     61  C   UNL A   1      39.668  31.280  34.566  1.00  0.00     0.037 A 
BRANCH  48  62
ATOM     62  C   UNL A   1      44.669  27.667  34.287  1.00  0.00     0.057 A 
ATOM     63  C   UNL A   1      44.583  26.430  34.938  1.00  0.00     0.134 A 
ATOM     64  C   UNL A   1      45.908  28.321  34.298  1.00  0.00     0.134 A 
ATOM     65  F   UNL A   1      43.422  25.761  34.977  1.00  0.00    -0.206 F 
ATOM     66  C   UNL A   1      45.684  25.874  35.593  1.00  0.00     0.040 A 
ATOM     67  C   UNL A   1      47.021  27.764  34.929  1.00  0.00     0.040 A 
ATOM     68  F   UNL A   1      46.057  29.507  33.690  1.00  0.00    -0.206 F 
ATOM     69  C   UNL A   1      46.909  26.539  35.584  1.00  0.00     0.006 A 
ENDBRANCH  48  62
BRANCH  49  70
ATOM     70  C   UNL A   1      36.951  31.369  29.161  1.00  0.00     0.057 A 
ATOM     71  C   UNL A   1      35.851  30.560  28.853  1.00  0.00     0.134 A 
ATOM     72  C   UNL A   1      36.920  32.698  28.721  1.00  0.00     0.134 A 
ATOM     73  F   UNL A   1      35.835  29.273  29.227  1.00  0.00    -0.206 F 
ATOM     74  C   UNL A   1      34.769  31.048  28.119  1.00  0.00     0.040 A 
ATOM     75  C   UNL A   1      35.833  33.205  28.006  1.00  0.00     0.040 A 
ATOM     76  F   UNL A   1      37.942  33.524  28.984  1.00  0.00    -0.206 F 
ATOM     77  C   UNL A   1      34.756  32.376  27.697  1.00  0.00     0.006 A 
ENDBRANCH  49  70
BRANCH  61  78
ATOM     78  C   UNL A   1      39.152  32.073  35.731  1.00  0.00     0.057 A 
ATOM     79  C   UNL A   1      39.468  33.426  35.906  1.00  0.00     0.134 A 
ATOM     80  C   UNL A   1      38.284  31.484  36.660  1.00  0.00     0.134 A 
ATOM     81  F   UNL A   1      40.303  34.044  35.058  1.00  0.00    -0.206 F 
ATOM     82  C   UNL A   1      38.953  34.161  36.976  1.00  0.00     0.040 A 
ATOM     83  C   UNL A   1      37.744  32.216  37.719  1.00  0.00     0.040 A 
ATOM     84  F   UNL A   1      37.933  30.195  36.544  1.00  0.00    -0.206 F 
ATOM     85  C   UNL A   1      38.082  33.557  37.881  1.00  0.00     0.006 A 
ENDBRANCH  61  78
ENDBRANCH  35  36
ENDBRANCH  28  30
ENDBRANCH  27  28
ENDBRANCH  26  27
ENDBRANCH  25  26
ENDBRANCH  24  25
ENDBRANCH   1  24
TORSDOF 18
ENDMDL
