MODEL 1
REMARK VINA RESULT:     -14.2      0.000      0.000
REMARK SMILES Cc1ccc(NC(=O)c2cnn3c2NC2=C(C(=O)CCC2)[C@H]3c2ccc(C(=O)OCCOCCOC(=O)c3ccc(-c4c5nc(c(-c6c(F)cccc6F)c6ccc([nH]6)c(-c6c(F)cccc6F)c6nc(c(-c7c(F)cccc7F)c7ccc4[nH]7)C=C6)C=C5)cc3)cc2)cc1
REMARK SMILES IDX 31 1 30 2 29 3 27 4 28 5 26 6 23 7 24 8 93 9 25 10 92 11
REMARK SMILES IDX 22 12 9 13 10 14 13 15 11 16 12 17 14 18 15 19 16 21 21 22
REMARK SMILES IDX 17 23 20 24 18 25 19 26 7 27 6 28 8 30 5 31 1 32 2 33 3 34
REMARK SMILES IDX 95 35 4 36 94 37 32 38 33 39 34 40 35 41 36 42 37 43 38 44
REMARK SMILES IDX 39 45 91 46 40 47 90 48 41 49 42 50 43 51 84 52 44 53 89 54
REMARK SMILES IDX 83 55 85 56 45 57 88 58 82 59 81 60 46 62 72 63 55 64 71 65
REMARK SMILES IDX 56 66 59 67 70 68 86 69 57 70 58 71 69 73 87 74 60 75 47 76
REMARK SMILES IDX 48 77 53 78 49 79 50 80 52 81 54 82 51 83 73 84 74 85 79 86
REMARK SMILES IDX 75 87 76 88 78 89 80 90 77 91 61 92 62 93 67 94 63 95 64 96
REMARK SMILES IDX 66 97 68 98 65 99
REMARK H PARENT 14 20 6 29 85 61 59 72
REMARK Flexibility Score: inf
ROOT
ATOM      1  C   UNL A   1      33.855  33.736  28.439  1.00  0.00     0.202 C 
ENDROOT
BRANCH   1   2
ATOM      2  C   UNL A   1      34.451  32.011  28.756  1.00  0.00     0.261 C 
BRANCH   2   3
ATOM      3  O   UNL A   1      33.834  30.367  27.700  1.00  0.00    -0.460 OA
BRANCH   3   4
ATOM      4  C   UNL A   1      32.742  29.394  27.362  1.00  0.00     0.338 C 
ATOM      5  O   UNL A   1      31.554  29.755  27.304  1.00  0.00    -0.246 OA
BRANCH   4   6
ATOM      6  C   UNL A   1      32.896  27.970  26.907  1.00  0.00     0.060 A 
ATOM      7  C   UNL A   1      32.866  25.301  25.903  1.00  0.00    -0.019 A 
ATOM      8  C   UNL A   1      31.691  25.876  26.395  1.00  0.00     0.007 A 
ATOM      9  C   UNL A   1      33.937  26.166  25.655  1.00  0.00     0.007 A 
ATOM     10  C   UNL A   1      31.720  27.183  26.902  1.00  0.00     0.016 A 
ATOM     11  C   UNL A   1      33.988  27.435  26.245  1.00  0.00     0.016 A 
BRANCH   7  12
ATOM     12  C   UNL A   1      33.145  23.758  26.016  1.00  0.00     0.175 C 
ATOM     13  C   UNL A   1      32.798  23.187  22.519  1.00  0.00     0.102 A 
ATOM     14  C   UNL A   1      31.755  22.400  23.097  1.00  0.00     0.151 A 
ATOM     15  C   UNL A   1      33.610  23.481  23.596  1.00  0.00     0.142 A 
ATOM     16  N   UNL A   1      31.749  22.422  24.433  1.00  0.00    -0.178 NA
ATOM     17  N   UNL A   1      32.836  23.159  24.705  1.00  0.00    -0.237 N 
ATOM     18  N   UNL A   1      34.842  24.044  23.835  1.00  0.00    -0.343 N 
ATOM     19  C   UNL A   1      35.424  23.920  25.112  1.00  0.00     0.026 C 
ATOM     20  H   UNL A   1      35.313  24.530  23.121  1.00  0.00     0.168 HD
ATOM     21  C   UNL A   1      34.632  23.497  26.131  1.00  0.00     0.044 C 
ATOM     22  C   UNL A   1      36.912  23.885  25.297  1.00  0.00     0.055 C 
ATOM     23  C   UNL A   1      35.070  22.158  26.624  1.00  0.00     0.163 C 
ATOM     24  C   UNL A   1      37.378  22.497  25.744  1.00  0.00     0.014 C 
ATOM     25  O   UNL A   1      34.419  21.564  27.477  1.00  0.00    -0.294 OA
ATOM     26  C   UNL A   1      36.221  21.508  25.861  1.00  0.00     0.081 C 
BRANCH  13  27
ATOM     27  C   UNL A   1      32.986  23.546  21.129  1.00  0.00     0.261 C 
ATOM     28  N   UNL A   1      32.644  24.821  20.701  1.00  0.00    -0.322 N 
ATOM     29  H   UNL A   1      32.455  24.885  19.736  1.00  0.00     0.170 HD
ATOM     30  O   UNL A   1      33.393  22.728  20.305  1.00  0.00    -0.269 OA
BRANCH  28  31
ATOM     31  C   UNL A   1      32.517  26.045  21.397  1.00  0.00     0.041 A 
ATOM     32  C   UNL A   1      32.030  29.723  23.640  1.00  0.00     0.044 C 
ATOM     33  C   UNL A   1      32.179  28.469  22.829  1.00  0.00    -0.051 A 
ATOM     34  C   UNL A   1      33.446  28.054  22.427  1.00  0.00     0.005 A 
ATOM     35  C   UNL A   1      31.077  27.678  22.485  1.00  0.00     0.005 A 
ATOM     36  C   UNL A   1      33.596  26.872  21.696  1.00  0.00     0.026 A 
ATOM     37  C   UNL A   1      31.244  26.482  21.765  1.00  0.00     0.026 A 
ENDBRANCH  28  31
ENDBRANCH  13  27
ENDBRANCH   7  12
ENDBRANCH   4   6
ENDBRANCH   3   4
ENDBRANCH   2   3
ENDBRANCH   1   2
BRANCH   1  38
ATOM     38  O   UNL A   1      32.811  34.486  29.187  1.00  0.00    -0.374 OA
BRANCH  38  39
ATOM     39  C   UNL A   1      33.135  35.787  29.765  1.00  0.00     0.202 C 
BRANCH  39  40
ATOM     40  C   UNL A   1      32.843  35.977  31.273  1.00  0.00     0.261 C 
BRANCH  40  41
ATOM     41  O   UNL A   1      33.917  35.607  32.146  1.00  0.00    -0.460 OA
BRANCH  41  42
ATOM     42  C   UNL A   1      33.934  34.323  32.572  1.00  0.00     0.338 C 
ATOM     43  O   UNL A   1      33.004  33.714  33.067  1.00  0.00    -0.246 OA
BRANCH  42  44
ATOM     44  C   UNL A   1      35.350  33.874  32.498  1.00  0.00     0.060 A 
ATOM     45  C   UNL A   1      36.098  34.173  31.356  1.00  0.00     0.016 A 
ATOM     46  C   UNL A   1      35.857  32.978  33.454  1.00  0.00     0.016 A 
ATOM     47  C   UNL A   1      37.316  33.520  31.147  1.00  0.00     0.010 A 
ATOM     48  C   UNL A   1      37.016  32.264  33.193  1.00  0.00     0.010 A 
ATOM     49  C   UNL A   1      37.729  32.498  32.017  1.00  0.00    -0.014 A 
BRANCH  49  50
ATOM     50  C   UNL A   1      38.958  31.718  31.823  1.00  0.00     0.031 A 
ATOM     51  C   UNL A   1      38.796  30.351  31.374  1.00  0.00     0.074 A 
ATOM     52  C   UNL A   1      40.215  32.167  32.029  1.00  0.00     0.049 A 
ATOM     53  N   UNL A   1      39.576  29.390  31.724  1.00  0.00    -0.248 NA
ATOM     54  C   UNL A   1      37.663  29.932  30.558  1.00  0.00     0.031 C 
ATOM     55  C   UNL A   1      41.548  31.689  31.722  1.00  0.00     0.029 A 
ATOM     56  N   UNL A   1      40.509  33.284  32.731  1.00  0.00    -0.354 N 
ATOM     57  C   UNL A   1      39.389  28.454  30.746  1.00  0.00     0.074 A 
ATOM     58  C   UNL A   1      38.023  28.666  30.342  1.00  0.00     0.031 C 
ATOM     59  C   UNL A   1      42.461  32.385  32.445  1.00  0.00     0.029 A 
ATOM     60  C   UNL A   1      41.753  33.297  33.345  1.00  0.00     0.049 A 
ATOM     61  H   UNL A   1      39.880  34.039  32.801  1.00  0.00     0.167 HD
ATOM     62  C   UNL A   1      40.508  27.920  30.167  1.00  0.00     0.037 A 
ATOM     63  C   UNL A   1      41.828  33.420  34.724  1.00  0.00     0.037 A 
ATOM     64  C   UNL A   1      41.741  28.200  30.978  1.00  0.00     0.049 A 
ATOM     65  C   UNL A   1      42.126  31.978  35.277  1.00  0.00     0.074 A 
ATOM     66  C   UNL A   1      43.019  28.694  30.745  1.00  0.00     0.029 A 
ATOM     67  N   UNL A   1      41.647  28.181  32.376  1.00  0.00    -0.354 N 
ATOM     68  N   UNL A   1      42.331  30.952  34.479  1.00  0.00    -0.248 NA
ATOM     69  C   UNL A   1      42.229  31.532  36.672  1.00  0.00     0.031 C 
ATOM     70  C   UNL A   1      43.665  28.950  32.002  1.00  0.00     0.029 A 
ATOM     71  C   UNL A   1      42.784  28.629  33.017  1.00  0.00     0.049 A 
ATOM     72  H   UNL A   1      40.843  27.875  32.857  1.00  0.00     0.167 HD
ATOM     73  C   UNL A   1      42.573  29.789  35.149  1.00  0.00     0.074 A 
ATOM     74  C   UNL A   1      42.485  30.207  36.542  1.00  0.00     0.031 C 
ATOM     75  C   UNL A   1      42.821  28.609  34.487  1.00  0.00     0.037 A 
BRANCH  62  76
ATOM     76  C   UNL A   1      40.502  27.383  28.725  1.00  0.00     0.057 A 
ATOM     77  C   UNL A   1      39.838  26.183  28.407  1.00  0.00     0.134 A 
ATOM     78  C   UNL A   1      41.171  27.943  27.607  1.00  0.00     0.134 A 
ATOM     79  F   UNL A   1      39.098  25.528  29.309  1.00  0.00    -0.206 F 
ATOM     80  C   UNL A   1      39.881  25.583  27.135  1.00  0.00     0.040 A 
ATOM     81  C   UNL A   1      41.204  27.367  26.328  1.00  0.00     0.040 A 
ATOM     82  F   UNL A   1      41.849  29.089  27.642  1.00  0.00    -0.206 F 
ATOM     83  C   UNL A   1      40.565  26.173  26.087  1.00  0.00     0.006 A 
ENDBRANCH  62  76
BRANCH  63  84
ATOM     84  C   UNL A   1      40.842  34.586  35.326  1.00  0.00     0.057 A 
ATOM     85  C   UNL A   1      39.433  34.149  36.334  1.00  0.00     0.134 A 
ATOM     86  C   UNL A   1      41.913  35.809  35.967  1.00  0.00     0.134 A 
ATOM     87  F   UNL A   1      38.599  33.190  35.905  1.00  0.00    -0.206 F 
ATOM     88  C   UNL A   1      39.171  34.783  38.015  1.00  0.00     0.040 A 
ATOM     89  C   UNL A   1      41.838  36.388  37.656  1.00  0.00     0.040 A 
ATOM     90  F   UNL A   1      42.682  36.425  35.065  1.00  0.00    -0.206 F 
ATOM     91  C   UNL A   1      40.429  35.865  38.750  1.00  0.00     0.006 A 
ENDBRANCH  63  84
BRANCH  75  92
ATOM     92  C   UNL A   1      43.132  27.273  35.135  1.00  0.00     0.057 A 
ATOM     93  C   UNL A   1      44.395  26.925  35.624  1.00  0.00     0.134 A 
ATOM     94  C   UNL A   1      42.178  26.224  35.158  1.00  0.00     0.134 A 
ATOM     95  F   UNL A   1      45.425  27.781  35.553  1.00  0.00    -0.206 F 
ATOM     96  C   UNL A   1      44.667  25.656  36.164  1.00  0.00     0.040 A 
ATOM     97  C   UNL A   1      42.449  24.946  35.651  1.00  0.00     0.040 A 
ATOM     98  F   UNL A   1      40.926  26.382  34.709  1.00  0.00    -0.206 F 
ATOM     99  C   UNL A   1      43.694  24.663  36.180  1.00  0.00     0.006 A 
ENDBRANCH  75  92
ENDBRANCH  49  50
ENDBRANCH  42  44
ENDBRANCH  41  42
ENDBRANCH  40  41
ENDBRANCH  39  40
ENDBRANCH  38  39
ENDBRANCH   1  38
TORSDOF 17
ENDMDL
MODEL 2
REMARK VINA RESULT:     -13.5      4.849     10.192
REMARK SMILES Cc1ccc(NC(=O)c2cnn3c2NC2=C(C(=O)CCC2)[C@H]3c2ccc(C(=O)OCCOCCOC(=O)c3ccc(-c4c5nc(c(-c6c(F)cccc6F)c6ccc([nH]6)c(-c6c(F)cccc6F)c6nc(c(-c7c(F)cccc7F)c7ccc4[nH]7)C=C6)C=C5)cc3)cc2)cc1
REMARK SMILES IDX 31 1 30 2 29 3 27 4 28 5 26 6 23 7 24 8 93 9 25 10 92 11
REMARK SMILES IDX 22 12 9 13 10 14 13 15 11 16 12 17 14 18 15 19 16 21 21 22
REMARK SMILES IDX 17 23 20 24 18 25 19 26 7 27 6 28 8 30 5 31 1 32 2 33 3 34
REMARK SMILES IDX 95 35 4 36 94 37 32 38 33 39 34 40 35 41 36 42 37 43 38 44
REMARK SMILES IDX 39 45 91 46 40 47 90 48 41 49 42 50 43 51 84 52 44 53 89 54
REMARK SMILES IDX 83 55 85 56 45 57 88 58 82 59 81 60 46 62 72 63 55 64 71 65
REMARK SMILES IDX 56 66 59 67 70 68 86 69 57 70 58 71 69 73 87 74 60 75 47 76
REMARK SMILES IDX 48 77 53 78 49 79 50 80 52 81 54 82 51 83 73 84 74 85 79 86
REMARK SMILES IDX 75 87 76 88 78 89 80 90 77 91 61 92 62 93 67 94 63 95 64 96
REMARK SMILES IDX 66 97 68 98 65 99
REMARK H PARENT 14 20 6 29 85 61 59 72
REMARK Flexibility Score: inf
ROOT
ATOM      1  C   UNL A   1      42.972  19.347  25.885  1.00  0.00     0.202 C 
ENDROOT
BRANCH   1   2
ATOM      2  C   UNL A   1      41.205  18.883  26.196  1.00  0.00     0.261 C 
BRANCH   2   3
ATOM      3  O   UNL A   1      39.607  20.100  25.795  1.00  0.00    -0.460 OA
BRANCH   3   4
ATOM      4  C   UNL A   1      38.977  21.460  25.874  1.00  0.00     0.338 C 
ATOM      5  O   UNL A   1      39.564  22.410  26.420  1.00  0.00    -0.246 OA
BRANCH   4   6
ATOM      6  C   UNL A   1      37.705  21.917  25.217  1.00  0.00     0.060 A 
ATOM      7  C   UNL A   1      35.126  22.671  24.261  1.00  0.00    -0.019 A 
ATOM      8  C   UNL A   1      35.278  21.506  25.018  1.00  0.00     0.007 A 
ATOM      9  C   UNL A   1      36.200  23.567  24.258  1.00  0.00     0.007 A 
ATOM     10  C   UNL A   1      36.553  21.135  25.469  1.00  0.00     0.016 A 
ATOM     11  C   UNL A   1      37.485  23.151  24.627  1.00  0.00     0.016 A 
BRANCH   7  12
ATOM     12  C   UNL A   1      34.028  22.797  23.143  1.00  0.00     0.175 C 
ATOM     13  C   UNL A   1      31.360  23.220  25.463  1.00  0.00     0.102 A 
ATOM     14  C   UNL A   1      31.024  22.015  24.774  1.00  0.00     0.151 A 
ATOM     15  C   UNL A   1      32.335  23.783  24.664  1.00  0.00     0.142 A 
ATOM     16  N   UNL A   1      31.879  21.703  23.796  1.00  0.00    -0.178 NA
ATOM     17  N   UNL A   1      32.715  22.752  23.811  1.00  0.00    -0.237 N 
ATOM     18  N   UNL A   1      33.028  24.966  24.561  1.00  0.00    -0.343 N 
ATOM     19  C   UNL A   1      33.784  25.228  23.401  1.00  0.00     0.026 C 
ATOM     20  H   UNL A   1      32.996  25.625  25.291  1.00  0.00     0.168 HD
ATOM     21  C   UNL A   1      34.028  24.193  22.557  1.00  0.00     0.044 C 
ATOM     22  C   UNL A   1      34.003  26.627  22.905  1.00  0.00     0.055 C 
ATOM     23  C   UNL A   1      33.340  24.401  21.249  1.00  0.00     0.163 C 
ATOM     24  C   UNL A   1      33.250  26.868  21.594  1.00  0.00     0.014 C 
ATOM     25  O   UNL A   1      33.359  23.528  20.388  1.00  0.00    -0.294 OA
ATOM     26  C   UNL A   1      32.458  25.642  21.147  1.00  0.00     0.081 C 
BRANCH  13  27
ATOM     27  C   UNL A   1      30.782  23.750  26.680  1.00  0.00     0.261 C 
ATOM     28  N   UNL A   1      30.595  25.119  26.808  1.00  0.00    -0.322 N 
ATOM     29  H   UNL A   1      30.549  25.434  27.740  1.00  0.00     0.170 HD
ATOM     30  O   UNL A   1      30.502  23.018  27.628  1.00  0.00    -0.269 OA
BRANCH  28  31
ATOM     31  C   UNL A   1      30.459  26.144  25.844  1.00  0.00     0.041 A 
ATOM     32  C   UNL A   1      30.206  29.293  22.874  1.00  0.00     0.044 C 
ATOM     33  C   UNL A   1      30.275  28.230  23.931  1.00  0.00    -0.051 A 
ATOM     34  C   UNL A   1      29.469  27.100  23.828  1.00  0.00     0.005 A 
ATOM     35  C   UNL A   1      31.156  28.324  25.015  1.00  0.00     0.005 A 
ATOM     36  C   UNL A   1      29.548  26.092  24.793  1.00  0.00     0.026 A 
ATOM     37  C   UNL A   1      31.238  27.295  25.969  1.00  0.00     0.026 A 
ENDBRANCH  28  31
ENDBRANCH  13  27
ENDBRANCH   7  12
ENDBRANCH   4   6
ENDBRANCH   3   4
ENDBRANCH   2   3
ENDBRANCH   1   2
BRANCH   1  38
ATOM     38  O   UNL A   1      44.003  18.555  25.163  1.00  0.00    -0.374 OA
BRANCH  38  39
ATOM     39  C   UNL A   1      45.409  18.700  25.531  1.00  0.00     0.202 C 
BRANCH  39  40
ATOM     40  C   UNL A   1      46.182  19.883  24.900  1.00  0.00     0.261 C 
BRANCH  40  41
ATOM     41  O   UNL A   1      45.710  21.181  25.278  1.00  0.00    -0.460 OA
BRANCH  41  42
ATOM     42  C   UNL A   1      44.791  21.751  24.464  1.00  0.00     0.338 C 
ATOM     43  O   UNL A   1      44.548  21.432  23.315  1.00  0.00    -0.246 OA
BRANCH  42  44
ATOM     44  C   UNL A   1      44.287  22.954  25.177  1.00  0.00     0.060 A 
ATOM     45  C   UNL A   1      44.409  24.206  24.568  1.00  0.00     0.016 A 
ATOM     46  C   UNL A   1      43.901  22.866  26.525  1.00  0.00     0.016 A 
ATOM     47  C   UNL A   1      44.212  25.360  25.332  1.00  0.00     0.010 A 
ATOM     48  C   UNL A   1      43.803  24.013  27.299  1.00  0.00     0.010 A 
ATOM     49  C   UNL A   1      44.002  25.264  26.717  1.00  0.00    -0.014 A 
BRANCH  49  50
ATOM     50  C   UNL A   1      43.859  26.432  27.596  1.00  0.00     0.031 A 
ATOM     51  C   UNL A   1      42.658  27.224  27.432  1.00  0.00     0.074 A 
ATOM     52  C   UNL A   1      44.747  26.824  28.534  1.00  0.00     0.049 A 
ATOM     53  N   UNL A   1      42.619  28.500  27.597  1.00  0.00    -0.248 NA
ATOM     54  C   UNL A   1      41.405  26.646  26.962  1.00  0.00     0.031 C 
ATOM     55  C   UNL A   1      44.744  27.773  29.630  1.00  0.00     0.029 A 
ATOM     56  N   UNL A   1      46.024  26.387  28.590  1.00  0.00    -0.354 N 
ATOM     57  C   UNL A   1      41.296  28.751  27.832  1.00  0.00     0.074 A 
ATOM     58  C   UNL A   1      40.625  27.721  27.080  1.00  0.00     0.031 C 
ATOM     59  C   UNL A   1      46.015  27.990  30.049  1.00  0.00     0.029 A 
ATOM     60  C   UNL A   1      46.933  27.259  29.173  1.00  0.00     0.049 A 
ATOM     61  H   UNL A   1      46.292  25.506  28.239  1.00  0.00     0.167 HD
ATOM     62  C   UNL A   1      40.987  29.528  28.914  1.00  0.00     0.037 A 
ATOM     63  C   UNL A   1      48.005  27.722  28.426  1.00  0.00     0.037 A 
ATOM     64  C   UNL A   1      42.190  30.264  29.431  1.00  0.00     0.049 A 
ATOM     65  C   UNL A   1      47.638  29.188  27.992  1.00  0.00     0.074 A 
ATOM     66  C   UNL A   1      42.804  30.468  30.661  1.00  0.00     0.029 A 
ATOM     67  N   UNL A   1      43.128  30.753  28.512  1.00  0.00    -0.354 N 
ATOM     68  N   UNL A   1      46.535  29.781  28.397  1.00  0.00    -0.248 NA
ATOM     69  C   UNL A   1      48.389  30.105  27.128  1.00  0.00     0.031 C 
ATOM     70  C   UNL A   1      44.087  31.082  30.455  1.00  0.00     0.029 A 
ATOM     71  C   UNL A   1      44.277  31.246  29.096  1.00  0.00     0.049 A 
ATOM     72  H   UNL A   1      42.980  30.746  27.538  1.00  0.00     0.167 HD
ATOM     73  C   UNL A   1      46.397  31.048  27.913  1.00  0.00     0.074 A 
ATOM     74  C   UNL A   1      47.596  31.205  27.101  1.00  0.00     0.031 C 
ATOM     75  C   UNL A   1      45.313  31.833  28.233  1.00  0.00     0.037 A 
BRANCH  62  76
ATOM     76  C   UNL A   1      39.647  29.395  29.657  1.00  0.00     0.057 A 
ATOM     77  C   UNL A   1      39.533  28.576  30.796  1.00  0.00     0.134 A 
ATOM     78  C   UNL A   1      38.409  29.984  29.290  1.00  0.00     0.134 A 
ATOM     79  F   UNL A   1      40.598  27.976  31.341  1.00  0.00    -0.206 F 
ATOM     80  C   UNL A   1      38.317  28.328  31.460  1.00  0.00     0.040 A 
ATOM     81  C   UNL A   1      37.194  29.763  29.956  1.00  0.00     0.040 A 
ATOM     82  F   UNL A   1      38.258  30.820  28.266  1.00  0.00    -0.206 F 
ATOM     83  C   UNL A   1      37.139  28.922  31.042  1.00  0.00     0.006 A 
ENDBRANCH  62  76
BRANCH  63  84
ATOM     84  C   UNL A   1      48.761  26.539  27.575  1.00  0.00     0.057 A 
ATOM     85  C   UNL A   1      48.512  26.392  25.812  1.00  0.00     0.134 A 
ATOM     86  C   UNL A   1      50.417  26.556  28.132  1.00  0.00     0.134 A 
ATOM     87  F   UNL A   1      47.260  26.409  25.329  1.00  0.00    -0.206 F 
ATOM     88  C   UNL A   1      49.866  26.428  24.604  1.00  0.00     0.040 A 
ATOM     89  C   UNL A   1      51.816  26.746  27.036  1.00  0.00     0.040 A 
ATOM     90  F   UNL A   1      50.593  26.237  29.417  1.00  0.00    -0.206 F 
ATOM     91  C   UNL A   1      51.561  26.692  25.195  1.00  0.00     0.006 A 
ENDBRANCH  63  84
BRANCH  75  92
ATOM     92  C   UNL A   1      45.081  33.260  27.776  1.00  0.00     0.057 A 
ATOM     93  C   UNL A   1      44.412  33.595  26.595  1.00  0.00     0.134 A 
ATOM     94  C   UNL A   1      45.664  34.358  28.459  1.00  0.00     0.134 A 
ATOM     95  F   UNL A   1      43.916  32.648  25.787  1.00  0.00    -0.206 F 
ATOM     96  C   UNL A   1      44.266  34.927  26.167  1.00  0.00     0.040 A 
ATOM     97  C   UNL A   1      45.564  35.680  28.021  1.00  0.00     0.040 A 
ATOM     98  F   UNL A   1      46.357  34.210  29.596  1.00  0.00    -0.206 F 
ATOM     99  C   UNL A   1      44.842  35.973  26.880  1.00  0.00     0.006 A 
ENDBRANCH  75  92
ENDBRANCH  49  50
ENDBRANCH  42  44
ENDBRANCH  41  42
ENDBRANCH  40  41
ENDBRANCH  39  40
ENDBRANCH  38  39
ENDBRANCH   1  38
TORSDOF 17
ENDMDL
MODEL 3
REMARK VINA RESULT:     -12.7      4.890     11.083
REMARK SMILES Cc1ccc(NC(=O)c2cnn3c2NC2=C(C(=O)CCC2)[C@H]3c2ccc(C(=O)OCCOCCOC(=O)c3ccc(-c4c5nc(c(-c6c(F)cccc6F)c6ccc([nH]6)c(-c6c(F)cccc6F)c6nc(c(-c7c(F)cccc7F)c7ccc4[nH]7)C=C6)C=C5)cc3)cc2)cc1
REMARK SMILES IDX 31 1 30 2 29 3 27 4 28 5 26 6 23 7 24 8 93 9 25 10 92 11
REMARK SMILES IDX 22 12 9 13 10 14 13 15 11 16 12 17 14 18 15 19 16 21 21 22
REMARK SMILES IDX 17 23 20 24 18 25 19 26 7 27 6 28 8 30 5 31 1 32 2 33 3 34
REMARK SMILES IDX 95 35 4 36 94 37 32 38 33 39 34 40 35 41 36 42 37 43 38 44
REMARK SMILES IDX 39 45 91 46 40 47 90 48 41 49 42 50 43 51 84 52 44 53 89 54
REMARK SMILES IDX 83 55 85 56 45 57 88 58 82 59 81 60 46 62 72 63 55 64 71 65
REMARK SMILES IDX 56 66 59 67 70 68 86 69 57 70 58 71 69 73 87 74 60 75 47 76
REMARK SMILES IDX 48 77 53 78 49 79 50 80 52 81 54 82 51 83 73 84 74 85 79 86
REMARK SMILES IDX 75 87 76 88 78 89 80 90 77 91 61 92 62 93 67 94 63 95 64 96
REMARK SMILES IDX 66 97 68 98 65 99
REMARK H PARENT 14 20 6 29 85 61 59 72
REMARK Flexibility Score: inf
ROOT
ATOM      1  C   UNL A   1      39.165  23.082  26.778  1.00  0.00     0.202 C 
ENDROOT
BRANCH   1   2
ATOM      2  C   UNL A   1      39.478  24.906  26.861  1.00  0.00     0.261 C 
BRANCH   2   3
ATOM      3  O   UNL A   1      39.825  25.938  28.596  1.00  0.00    -0.460 OA
BRANCH   3   4
ATOM      4  C   UNL A   1      40.629  26.963  29.342  1.00  0.00     0.338 C 
ATOM      5  O   UNL A   1      41.852  26.820  29.513  1.00  0.00    -0.246 OA
BRANCH   4   6
ATOM      6  C   UNL A   1      40.169  28.309  29.826  1.00  0.00     0.060 A 
ATOM      7  C   UNL A   1      39.036  30.836  30.506  1.00  0.00    -0.019 A 
ATOM      8  C   UNL A   1      39.039  30.407  29.176  1.00  0.00     0.007 A 
ATOM      9  C   UNL A   1      39.323  29.875  31.481  1.00  0.00     0.007 A 
ATOM     10  C   UNL A   1      39.614  29.170  28.850  1.00  0.00     0.016 A 
ATOM     11  C   UNL A   1      39.980  28.684  31.146  1.00  0.00     0.016 A 
BRANCH   7  12
ATOM     12  C   UNL A   1      39.133  32.358  30.889  1.00  0.00     0.175 C 
ATOM     13  C   UNL A   1      36.003  33.185  29.407  1.00  0.00     0.102 A 
ATOM     14  C   UNL A   1      36.946  33.960  28.664  1.00  0.00     0.151 A 
ATOM     15  C   UNL A   1      36.719  32.791  30.519  1.00  0.00     0.142 A 
ATOM     16  N   UNL A   1      38.200  33.844  29.110  1.00  0.00    -0.178 NA
ATOM     17  N   UNL A   1      38.043  33.057  30.185  1.00  0.00    -0.237 N 
ATOM     18  N   UNL A   1      36.491  32.176  31.728  1.00  0.00    -0.343 N 
ATOM     19  C   UNL A   1      37.497  32.192  32.714  1.00  0.00     0.026 C 
ATOM     20  H   UNL A   1      35.633  31.728  31.902  1.00  0.00     0.168 HD
ATOM     21  C   UNL A   1      38.747  32.565  32.337  1.00  0.00     0.044 C 
ATOM     22  C   UNL A   1      37.164  32.169  34.176  1.00  0.00     0.055 C 
ATOM     23  C   UNL A   1      39.135  33.852  32.986  1.00  0.00     0.163 C 
ATOM     24  C   UNL A   1      37.502  33.507  34.838  1.00  0.00     0.014 C 
ATOM     25  O   UNL A   1      40.191  34.404  32.695  1.00  0.00    -0.294 OA
ATOM     26  C   UNL A   1      38.062  34.520  33.842  1.00  0.00     0.081 C 
BRANCH  13  27
ATOM     27  C   UNL A   1      34.614  32.919  29.093  1.00  0.00     0.261 C 
ATOM     28  N   UNL A   1      33.617  33.561  29.814  1.00  0.00    -0.322 N 
ATOM     29  H   UNL A   1      32.751  33.091  29.810  1.00  0.00     0.170 HD
ATOM     30  O   UNL A   1      34.297  32.095  28.237  1.00  0.00    -0.269 OA
BRANCH  28  31
ATOM     31  C   UNL A   1      33.617  34.765  30.554  1.00  0.00     0.041 A 
ATOM     32  C   UNL A   1      33.765  38.421  32.880  1.00  0.00     0.044 C 
ATOM     33  C   UNL A   1      33.679  37.143  32.099  1.00  0.00    -0.051 A 
ATOM     34  C   UNL A   1      33.282  37.174  30.765  1.00  0.00     0.005 A 
ATOM     35  C   UNL A   1      34.018  35.908  32.665  1.00  0.00     0.005 A 
ATOM     36  C   UNL A   1      33.228  35.991  30.022  1.00  0.00     0.026 A 
ATOM     37  C   UNL A   1      33.975  34.729  31.902  1.00  0.00     0.026 A 
ENDBRANCH  28  31
ENDBRANCH  13  27
ENDBRANCH   7  12
ENDBRANCH   4   6
ENDBRANCH   3   4
ENDBRANCH   2   3
ENDBRANCH   1   2
BRANCH   1  38
ATOM     38  O   UNL A   1      40.138  21.983  27.018  1.00  0.00    -0.374 OA
BRANCH  38  39
ATOM     39  C   UNL A   1      40.285  20.922  26.025  1.00  0.00     0.202 C 
BRANCH  39  40
ATOM     40  C   UNL A   1      41.542  20.026  26.137  1.00  0.00     0.261 C 
BRANCH  40  41
ATOM     41  O   UNL A   1      42.701  20.678  26.672  1.00  0.00    -0.460 OA
BRANCH  41  42
ATOM     42  C   UNL A   1      43.319  21.570  25.865  1.00  0.00     0.338 C 
ATOM     43  O   UNL A   1      43.609  21.405  24.695  1.00  0.00    -0.246 OA
BRANCH  42  44
ATOM     44  C   UNL A   1      43.743  22.699  26.734  1.00  0.00     0.060 A 
ATOM     45  C   UNL A   1      45.107  22.957  26.894  1.00  0.00     0.016 A 
ATOM     46  C   UNL A   1      42.806  23.351  27.553  1.00  0.00     0.016 A 
ATOM     47  C   UNL A   1      45.526  23.812  27.919  1.00  0.00     0.010 A 
ATOM     48  C   UNL A   1      43.233  24.118  28.626  1.00  0.00     0.010 A 
ATOM     49  C   UNL A   1      44.596  24.317  28.842  1.00  0.00    -0.014 A 
BRANCH  49  50
ATOM     50  C   UNL A   1      44.968  25.161  29.985  1.00  0.00     0.031 A 
ATOM     51  C   UNL A   1      44.508  24.729  31.288  1.00  0.00     0.074 A 
ATOM     52  C   UNL A   1      45.695  26.297  29.920  1.00  0.00     0.049 A 
ATOM     53  N   UNL A   1      44.179  25.539  32.232  1.00  0.00    -0.248 NA
ATOM     54  C   UNL A   1      44.283  23.323  31.604  1.00  0.00     0.031 C 
ATOM     55  C   UNL A   1      46.351  27.162  30.880  1.00  0.00     0.029 A 
ATOM     56  N   UNL A   1      45.921  26.981  28.776  1.00  0.00    -0.354 N 
ATOM     57  C   UNL A   1      44.292  24.778  33.361  1.00  0.00     0.074 A 
ATOM     58  C   UNL A   1      43.980  23.450  32.897  1.00  0.00     0.031 C 
ATOM     59  C   UNL A   1      46.666  28.342  30.290  1.00  0.00     0.029 A 
ATOM     60  C   UNL A   1      46.138  28.344  28.925  1.00  0.00     0.049 A 
ATOM     61  H   UNL A   1      45.930  26.540  27.896  1.00  0.00     0.167 HD
ATOM     62  C   UNL A   1      44.998  25.306  34.406  1.00  0.00     0.037 A 
ATOM     63  C   UNL A   1      45.279  29.239  28.306  1.00  0.00     0.037 A 
ATOM     64  C   UNL A   1      45.208  26.785  34.244  1.00  0.00     0.049 A 
ATOM     65  C   UNL A   1      44.320  29.777  29.431  1.00  0.00     0.074 A 
ATOM     66  C   UNL A   1      46.274  27.674  34.318  1.00  0.00     0.029 A 
ATOM     67  N   UNL A   1      44.178  27.554  33.685  1.00  0.00    -0.354 N 
ATOM     68  N   UNL A   1      44.464  29.434  30.694  1.00  0.00    -0.248 NA
ATOM     69  C   UNL A   1      43.179  30.691  29.305  1.00  0.00     0.031 C 
ATOM     70  C   UNL A   1      45.860  28.954  33.815  1.00  0.00     0.029 A 
ATOM     71  C   UNL A   1      44.541  28.858  33.413  1.00  0.00     0.049 A 
ATOM     72  H   UNL A   1      43.278  27.197  33.504  1.00  0.00     0.167 HD
ATOM     73  C   UNL A   1      43.536  30.005  31.514  1.00  0.00     0.074 A 
ATOM     74  C   UNL A   1      42.733  30.786  30.583  1.00  0.00     0.031 C 
ATOM     75  C   UNL A   1      43.528  29.775  32.870  1.00  0.00     0.037 A 
BRANCH  62  76
ATOM     76  C   UNL A   1      45.727  24.419  35.430  1.00  0.00     0.057 A 
ATOM     77  C   UNL A   1      45.032  23.853  36.515  1.00  0.00     0.134 A 
ATOM     78  C   UNL A   1      47.114  24.119  35.461  1.00  0.00     0.134 A 
ATOM     79  F   UNL A   1      43.704  23.967  36.637  1.00  0.00    -0.206 F 
ATOM     80  C   UNL A   1      45.655  23.120  37.542  1.00  0.00     0.040 A 
ATOM     81  C   UNL A   1      47.744  23.371  36.466  1.00  0.00     0.040 A 
ATOM     82  F   UNL A   1      47.981  24.516  34.533  1.00  0.00    -0.206 F 
ATOM     83  C   UNL A   1      47.017  22.874  37.523  1.00  0.00     0.006 A 
ENDBRANCH  62  76
BRANCH  63  84
ATOM     84  C   UNL A   1      44.943  28.845  26.748  1.00  0.00     0.057 A 
ATOM     85  C   UNL A   1      46.089  27.856  25.798  1.00  0.00     0.134 A 
ATOM     86  C   UNL A   1      43.276  28.322  26.754  1.00  0.00     0.134 A 
ATOM     87  F   UNL A   1      47.387  28.194  25.789  1.00  0.00    -0.206 F 
ATOM     88  C   UNL A   1      45.635  26.289  25.002  1.00  0.00     0.040 A 
ATOM     89  C   UNL A   1      42.748  26.729  26.137  1.00  0.00     0.040 A 
ATOM     90  F   UNL A   1      42.383  29.259  27.084  1.00  0.00    -0.206 F 
ATOM     91  C   UNL A   1      43.954  25.645  25.229  1.00  0.00     0.006 A 
ENDBRANCH  63  84
BRANCH  75  92
ATOM     92  C   UNL A   1      42.563  30.383  33.871  1.00  0.00     0.057 A 
ATOM     93  C   UNL A   1      41.472  29.696  34.409  1.00  0.00     0.134 A 
ATOM     94  C   UNL A   1      42.630  31.756  34.219  1.00  0.00     0.134 A 
ATOM     95  F   UNL A   1      41.218  28.424  34.070  1.00  0.00    -0.206 F 
ATOM     96  C   UNL A   1      40.560  30.306  35.289  1.00  0.00     0.040 A 
ATOM     97  C   UNL A   1      41.705  32.385  35.055  1.00  0.00     0.040 A 
ATOM     98  F   UNL A   1      43.601  32.564  33.772  1.00  0.00    -0.206 F 
ATOM     99  C   UNL A   1      40.675  31.653  35.614  1.00  0.00     0.006 A 
ENDBRANCH  75  92
ENDBRANCH  49  50
ENDBRANCH  42  44
ENDBRANCH  41  42
ENDBRANCH  40  41
ENDBRANCH  39  40
ENDBRANCH  38  39
ENDBRANCH   1  38
TORSDOF 17
ENDMDL
