MODEL 1
REMARK VINA RESULT:     -13.1      0.000      0.000
REMARK SMILES CS(=O)(=O)c1ccc(C2=NN(c3ccc(C(=O)OCCOCCOC(=O)c4ccc(-c5c6nc(c(-c7c(F)cccc7F)c7ccc([nH]7)c(-c7c(F)cccc7F)c7nc(c(-c8c(F)cccc8F)c8ccc5[nH]8)C=C7)C=C6)cc4)cc3)[C@H](c3ccccc3)C2)cc1
REMARK SMILES IDX 20 1 19 2 18 3 16 4 17 5 15 6 12 7 13 8 82 9 14 10 81 11
REMARK SMILES IDX 11 12 9 13 10 14 90 15 83 16 8 17 5 18 6 19 92 20 7 21 91 22
REMARK SMILES IDX 2 23 1 24 3 25 4 26 84 27 85 28 89 29 86 30 88 31 87 32
REMARK SMILES IDX 21 33 22 34 23 35 24 36 25 37 26 38 27 39 28 40 80 41 29 42
REMARK SMILES IDX 79 43 30 44 31 45 32 46 73 47 33 48 78 49 72 50 74 51 34 52
REMARK SMILES IDX 77 53 71 54 70 55 35 57 61 58 44 59 60 60 45 61 48 62 59 63
REMARK SMILES IDX 75 64 46 65 47 66 58 68 76 69 49 70 36 71 37 72 42 73 38 74
REMARK SMILES IDX 39 75 41 76 43 77 40 78 62 79 63 80 68 81 64 82 65 83 67 84
REMARK SMILES IDX 69 85 66 86 50 87 51 88 56 89 52 90 53 91 55 92 57 93 54 94
REMARK H PARENT 74 56 48 67
REMARK Flexibility Score: inf
ROOT
ATOM      1  C   UNL A   1      41.910  21.447  26.103  1.00  0.00     0.202 C 
ENDROOT
BRANCH   1   2
ATOM      2  C   UNL A   1      40.659  20.651  26.485  1.00  0.00     0.261 C 
BRANCH   2   3
ATOM      3  O   UNL A   1      39.515  21.114  25.748  1.00  0.00    -0.460 OA
BRANCH   3   4
ATOM      4  C   UNL A   1      38.994  22.291  26.168  1.00  0.00     0.338 C 
ATOM      5  O   UNL A   1      39.603  23.210  26.697  1.00  0.00    -0.246 OA
BRANCH   4   6
ATOM      6  C   UNL A   1      37.560  22.387  25.799  1.00  0.00     0.060 A 
ATOM      7  C   UNL A   1      34.912  22.553  24.871  1.00  0.00     0.060 A 
ATOM      8  C   UNL A   1      35.715  21.462  24.523  1.00  0.00     0.029 A 
ATOM      9  C   UNL A   1      35.416  23.500  25.775  1.00  0.00     0.029 A 
ATOM     10  C   UNL A   1      37.034  21.384  24.974  1.00  0.00     0.018 A 
ATOM     11  C   UNL A   1      36.734  23.426  26.236  1.00  0.00     0.018 A 
BRANCH   7  12
ATOM     12  N   UNL A   1      33.693  22.795  24.218  1.00  0.00    -0.257 N 
ATOM     13  C   UNL A   1      32.081  24.178  23.967  1.00  0.00     0.071 C 
ATOM     14  N   UNL A   1      33.370  24.074  23.867  1.00  0.00    -0.176 NA
ATOM     15  C   UNL A   1      31.360  22.985  24.524  1.00  0.00     0.091 C 
ATOM     16  C   UNL A   1      32.533  22.016  24.702  1.00  0.00     0.144 C 
BRANCH  13  17
ATOM     17  C   UNL A   1      31.335  25.372  23.535  1.00  0.00    -0.002 A 
ATOM     18  C   UNL A   1      29.969  27.709  22.890  1.00  0.00     0.067 A 
ATOM     19  C   UNL A   1      29.503  26.904  23.935  1.00  0.00     0.021 A 
ATOM     20  C   UNL A   1      31.102  27.342  22.155  1.00  0.00     0.021 A 
ATOM     21  C   UNL A   1      30.180  25.723  24.243  1.00  0.00     0.011 A 
ATOM     22  C   UNL A   1      31.795  26.174  22.486  1.00  0.00     0.011 A 
BRANCH  18  23
ATOM     23  S   UNL A   1      29.148  29.244  22.522  1.00  0.00     0.175 S 
ATOM     24  C   UNL A   1      29.659  30.374  23.788  1.00  0.00     0.163 C 
ATOM     25  O   UNL A   1      27.724  29.022  22.695  1.00  0.00    -0.224 OA
ATOM     26  O   UNL A   1      29.685  29.702  21.256  1.00  0.00    -0.224 OA
ENDBRANCH  18  23
ENDBRANCH  13  17
BRANCH  16  27
ATOM     27  C   UNL A   1      32.454  20.667  24.002  1.00  0.00    -0.023 A 
ATOM     28  C   UNL A   1      32.143  20.516  22.644  1.00  0.00     0.006 A 
ATOM     29  C   UNL A   1      32.792  19.510  24.733  1.00  0.00     0.006 A 
ATOM     30  C   UNL A   1      32.163  19.252  22.044  1.00  0.00     0.000 A 
ATOM     31  C   UNL A   1      32.849  18.257  24.125  1.00  0.00     0.000 A 
ATOM     32  C   UNL A   1      32.528  18.127  22.779  1.00  0.00     0.000 A 
ENDBRANCH  16  27
ENDBRANCH   7  12
ENDBRANCH   4   6
ENDBRANCH   3   4
ENDBRANCH   2   3
ENDBRANCH   1   2
BRANCH   1  33
ATOM     33  O   UNL A   1      42.905  20.735  25.367  1.00  0.00    -0.374 OA
BRANCH  33  34
ATOM     34  C   UNL A   1      44.212  21.310  25.311  1.00  0.00     0.202 C 
BRANCH  34  35
ATOM     35  C   UNL A   1      44.424  22.419  24.275  1.00  0.00     0.261 C 
BRANCH  35  36
ATOM     36  O   UNL A   1      43.657  23.598  24.577  1.00  0.00    -0.460 OA
BRANCH  36  37
ATOM     37  C   UNL A   1      44.380  24.643  25.040  1.00  0.00     0.338 C 
ATOM     38  O   UNL A   1      45.492  24.998  24.674  1.00  0.00    -0.246 OA
BRANCH  37  39
ATOM     39  C   UNL A   1      43.569  25.446  25.973  1.00  0.00     0.060 A 
ATOM     40  C   UNL A   1      43.855  26.814  26.066  1.00  0.00     0.016 A 
ATOM     41  C   UNL A   1      42.603  24.866  26.797  1.00  0.00     0.016 A 
ATOM     42  C   UNL A   1      43.213  27.599  27.020  1.00  0.00     0.010 A 
ATOM     43  C   UNL A   1      41.963  25.654  27.761  1.00  0.00     0.010 A 
ATOM     44  C   UNL A   1      42.291  27.016  27.899  1.00  0.00    -0.014 A 
BRANCH  44  45
ATOM     45  C   UNL A   1      41.782  27.800  29.051  1.00  0.00     0.031 A 
ATOM     46  C   UNL A   1      42.491  27.698  30.374  1.00  0.00     0.074 A 
ATOM     47  C   UNL A   1      40.722  28.615  28.915  1.00  0.00     0.049 A 
ATOM     48  N   UNL A   1      42.199  28.261  31.519  1.00  0.00    -0.248 NA
ATOM     49  C   UNL A   1      43.693  26.847  30.412  1.00  0.00     0.031 C 
ATOM     50  C   UNL A   1      39.974  28.831  27.678  1.00  0.00     0.029 A 
ATOM     51  N   UNL A   1      40.086  29.410  29.836  1.00  0.00    -0.354 N 
ATOM     52  C   UNL A   1      43.175  27.832  32.410  1.00  0.00     0.074 A 
ATOM     53  C   UNL A   1      44.050  26.938  31.684  1.00  0.00     0.031 C 
ATOM     54  C   UNL A   1      38.972  29.692  27.920  1.00  0.00     0.029 A 
ATOM     55  C   UNL A   1      38.989  30.065  29.333  1.00  0.00     0.049 A 
ATOM     56  H   UNL A   1      40.389  29.501  30.769  1.00  0.00     0.167 HD
ATOM     57  C   UNL A   1      43.332  28.164  33.714  1.00  0.00     0.037 A 
ATOM     58  C   UNL A   1      38.091  30.856  29.950  1.00  0.00     0.037 A 
ATOM     59  C   UNL A   1      42.463  29.053  34.437  1.00  0.00     0.049 A 
ATOM     60  C   UNL A   1      38.248  31.150  31.419  1.00  0.00     0.074 A 
ATOM     61  C   UNL A   1      42.548  29.457  35.759  1.00  0.00     0.029 A 
ATOM     62  N   UNL A   1      41.349  29.676  33.898  1.00  0.00    -0.354 N 
ATOM     63  N   UNL A   1      39.185  30.756  32.247  1.00  0.00    -0.248 NA
ATOM     64  C   UNL A   1      37.222  32.003  32.038  1.00  0.00     0.031 C 
ATOM     65  C   UNL A   1      41.459  30.290  36.031  1.00  0.00     0.029 A 
ATOM     66  C   UNL A   1      40.724  30.444  34.868  1.00  0.00     0.049 A 
ATOM     67  H   UNL A   1      41.045  29.586  32.967  1.00  0.00     0.167 HD
ATOM     68  C   UNL A   1      38.880  31.335  33.473  1.00  0.00     0.074 A 
ATOM     69  C   UNL A   1      37.677  32.118  33.278  1.00  0.00     0.031 C 
ATOM     70  C   UNL A   1      39.536  31.229  34.654  1.00  0.00     0.037 A 
BRANCH  57  71
ATOM     71  C   UNL A   1      44.484  27.545  34.451  1.00  0.00     0.057 A 
ATOM     72  C   UNL A   1      45.699  28.222  34.622  1.00  0.00     0.134 A 
ATOM     73  C   UNL A   1      44.360  26.280  35.037  1.00  0.00     0.134 A 
ATOM     74  F   UNL A   1      45.885  29.432  34.074  1.00  0.00    -0.206 F 
ATOM     75  C   UNL A   1      46.754  27.655  35.338  1.00  0.00     0.040 A 
ATOM     76  C   UNL A   1      45.399  25.712  35.775  1.00  0.00     0.040 A 
ATOM     77  F   UNL A   1      43.222  25.580  34.914  1.00  0.00    -0.206 F 
ATOM     78  C   UNL A   1      46.603  26.400  35.924  1.00  0.00     0.006 A 
ENDBRANCH  57  71
BRANCH  58  79
ATOM     79  C   UNL A   1      36.944  31.418  29.192  1.00  0.00     0.057 A 
ATOM     80  C   UNL A   1      35.838  30.628  28.856  1.00  0.00     0.134 A 
ATOM     81  C   UNL A   1      36.946  32.746  28.749  1.00  0.00     0.134 A 
ATOM     82  F   UNL A   1      35.790  29.341  29.230  1.00  0.00    -0.206 F 
ATOM     83  C   UNL A   1      34.788  31.132  28.087  1.00  0.00     0.040 A 
ATOM     84  C   UNL A   1      35.891  33.270  28.002  1.00  0.00     0.040 A 
ATOM     85  F   UNL A   1      37.977  33.555  29.037  1.00  0.00    -0.206 F 
ATOM     86  C   UNL A   1      34.811  32.458  27.661  1.00  0.00     0.006 A 
ENDBRANCH  58  79
BRANCH  70  87
ATOM     87  C   UNL A   1      38.994  32.009  35.817  1.00  0.00     0.057 A 
ATOM     88  C   UNL A   1      38.157  31.423  36.775  1.00  0.00     0.134 A 
ATOM     89  C   UNL A   1      39.348  33.352  36.000  1.00  0.00     0.134 A 
ATOM     90  F   UNL A   1      37.771  30.145  36.651  1.00  0.00    -0.206 F 
ATOM     91  C   UNL A   1      37.675  32.152  37.863  1.00  0.00     0.040 A 
ATOM     92  C   UNL A   1      38.892  34.084  37.098  1.00  0.00     0.040 A 
ATOM     93  F   UNL A   1      40.154  33.969  35.124  1.00  0.00    -0.206 F 
ATOM     94  C   UNL A   1      38.048  33.485  38.030  1.00  0.00     0.006 A 
ENDBRANCH  70  87
ENDBRANCH  44  45
ENDBRANCH  37  39
ENDBRANCH  36  37
ENDBRANCH  35  36
ENDBRANCH  34  35
ENDBRANCH  33  34
ENDBRANCH   1  33
TORSDOF 18
ENDMDL
MODEL 2
REMARK VINA RESULT:     -13.0      0.932      1.863
REMARK SMILES CS(=O)(=O)c1ccc(C2=NN(c3ccc(C(=O)OCCOCCOC(=O)c4ccc(-c5c6nc(c(-c7c(F)cccc7F)c7ccc([nH]7)c(-c7c(F)cccc7F)c7nc(c(-c8c(F)cccc8F)c8ccc5[nH]8)C=C7)C=C6)cc4)cc3)[C@H](c3ccccc3)C2)cc1
REMARK SMILES IDX 20 1 19 2 18 3 16 4 17 5 15 6 12 7 13 8 82 9 14 10 81 11
REMARK SMILES IDX 11 12 9 13 10 14 90 15 83 16 8 17 5 18 6 19 92 20 7 21 91 22
REMARK SMILES IDX 2 23 1 24 3 25 4 26 84 27 85 28 89 29 86 30 88 31 87 32
REMARK SMILES IDX 21 33 22 34 23 35 24 36 25 37 26 38 27 39 28 40 80 41 29 42
REMARK SMILES IDX 79 43 30 44 31 45 32 46 73 47 33 48 78 49 72 50 74 51 34 52
REMARK SMILES IDX 77 53 71 54 70 55 35 57 61 58 44 59 60 60 45 61 48 62 59 63
REMARK SMILES IDX 75 64 46 65 47 66 58 68 76 69 49 70 36 71 37 72 42 73 38 74
REMARK SMILES IDX 39 75 41 76 43 77 40 78 62 79 63 80 68 81 64 82 65 83 67 84
REMARK SMILES IDX 69 85 66 86 50 87 51 88 56 89 52 90 53 91 55 92 57 93 54 94
REMARK H PARENT 74 56 48 67
REMARK Flexibility Score: inf
ROOT
ATOM      1  C   UNL A   1      41.870  19.495  26.294  1.00  0.00     0.202 C 
ENDROOT
BRANCH   1   2
ATOM      2  C   UNL A   1      40.772  20.248  27.052  1.00  0.00     0.261 C 
BRANCH   2   3
ATOM      3  O   UNL A   1      39.864  20.882  26.138  1.00  0.00    -0.460 OA
BRANCH   3   4
ATOM      4  C   UNL A   1      39.470  22.131  26.484  1.00  0.00     0.338 C 
ATOM      5  O   UNL A   1      40.086  22.920  27.185  1.00  0.00    -0.246 OA
BRANCH   4   6
ATOM      6  C   UNL A   1      38.203  22.486  25.798  1.00  0.00     0.060 A 
ATOM      7  C   UNL A   1      35.707  23.188  24.713  1.00  0.00     0.060 A 
ATOM      8  C   UNL A   1      36.365  24.056  25.591  1.00  0.00     0.029 A 
ATOM      9  C   UNL A   1      36.364  22.019  24.302  1.00  0.00     0.029 A 
ATOM     10  C   UNL A   1      37.600  23.703  26.139  1.00  0.00     0.018 A 
ATOM     11  C   UNL A   1      37.603  21.661  24.842  1.00  0.00     0.018 A 
BRANCH   7  12
ATOM     12  N   UNL A   1      34.361  23.387  24.369  1.00  0.00    -0.257 N 
ATOM     13  C   UNL A   1      32.715  24.752  24.435  1.00  0.00     0.071 C 
ATOM     14  N   UNL A   1      33.941  24.639  24.024  1.00  0.00    -0.176 NA
ATOM     15  C   UNL A   1      32.175  23.601  25.233  1.00  0.00     0.091 C 
ATOM     16  C   UNL A   1      33.370  22.645  25.179  1.00  0.00     0.144 C 
BRANCH  13  17
ATOM     17  C   UNL A   1      31.866  25.914  24.122  1.00  0.00    -0.002 A 
ATOM     18  C   UNL A   1      30.315  28.088  23.343  1.00  0.00     0.067 A 
ATOM     19  C   UNL A   1      31.706  28.157  23.224  1.00  0.00     0.021 A 
ATOM     20  C   UNL A   1      29.696  26.946  23.865  1.00  0.00     0.021 A 
ATOM     21  C   UNL A   1      32.483  27.072  23.634  1.00  0.00     0.011 A 
ATOM     22  C   UNL A   1      30.475  25.850  24.246  1.00  0.00     0.011 A 
BRANCH  18  23
ATOM     23  S   UNL A   1      29.310  29.442  22.775  1.00  0.00     0.175 S 
ATOM     24  C   UNL A   1      27.638  28.857  22.844  1.00  0.00     0.163 C 
ATOM     25  O   UNL A   1      29.631  29.658  21.376  1.00  0.00    -0.224 OA
ATOM     26  O   UNL A   1      29.464  30.504  23.749  1.00  0.00    -0.224 OA
ENDBRANCH  18  23
ENDBRANCH  13  17
BRANCH  16  27
ATOM     27  C   UNL A   1      33.141  21.251  24.613  1.00  0.00    -0.023 A 
ATOM     28  C   UNL A   1      33.469  20.073  25.297  1.00  0.00     0.006 A 
ATOM     29  C   UNL A   1      32.489  21.131  23.369  1.00  0.00     0.006 A 
ATOM     30  C   UNL A   1      33.161  18.822  24.752  1.00  0.00     0.000 A 
ATOM     31  C   UNL A   1      32.148  19.884  22.845  1.00  0.00     0.000 A 
ATOM     32  C   UNL A   1      32.491  18.727  23.536  1.00  0.00     0.000 A 
ENDBRANCH  16  27
ENDBRANCH   7  12
ENDBRANCH   4   6
ENDBRANCH   3   4
ENDBRANCH   2   3
ENDBRANCH   1   2
BRANCH   1  33
ATOM     33  O   UNL A   1      42.595  20.253  25.326  1.00  0.00    -0.374 OA
BRANCH  33  34
ATOM     34  C   UNL A   1      43.220  21.457  25.774  1.00  0.00     0.202 C 
BRANCH  34  35
ATOM     35  C   UNL A   1      43.558  22.491  24.693  1.00  0.00     0.261 C 
BRANCH  35  36
ATOM     36  O   UNL A   1      43.140  23.817  25.062  1.00  0.00    -0.460 OA
BRANCH  36  37
ATOM     37  C   UNL A   1      44.149  24.684  25.308  1.00  0.00     0.338 C 
ATOM     38  O   UNL A   1      45.097  24.947  24.580  1.00  0.00    -0.246 OA
BRANCH  37  39
ATOM     39  C   UNL A   1      43.882  25.432  26.550  1.00  0.00     0.060 A 
ATOM     40  C   UNL A   1      42.967  24.879  27.454  1.00  0.00     0.016 A 
ATOM     41  C   UNL A   1      44.451  26.684  26.793  1.00  0.00     0.016 A 
ATOM     42  C   UNL A   1      42.577  25.598  28.581  1.00  0.00     0.010 A 
ATOM     43  C   UNL A   1      44.052  27.409  27.921  1.00  0.00     0.010 A 
ATOM     44  C   UNL A   1      43.087  26.883  28.802  1.00  0.00    -0.014 A 
BRANCH  44  45
ATOM     45  C   UNL A   1      42.503  27.730  29.871  1.00  0.00     0.031 A 
ATOM     46  C   UNL A   1      43.153  27.744  31.227  1.00  0.00     0.074 A 
ATOM     47  C   UNL A   1      41.428  28.499  29.630  1.00  0.00     0.049 A 
ATOM     48  N   UNL A   1      42.792  28.377  32.314  1.00  0.00    -0.248 NA
ATOM     49  C   UNL A   1      44.375  26.936  31.379  1.00  0.00     0.031 C 
ATOM     50  C   UNL A   1      40.733  28.604  28.348  1.00  0.00     0.029 A 
ATOM     51  N   UNL A   1      40.728  29.337  30.461  1.00  0.00    -0.354 N 
ATOM     52  C   UNL A   1      43.737  28.043  33.277  1.00  0.00     0.074 A 
ATOM     53  C   UNL A   1      44.670  27.128  32.656  1.00  0.00     0.031 C 
ATOM     54  C   UNL A   1      39.696  29.448  28.483  1.00  0.00     0.029 A 
ATOM     55  C   UNL A   1      39.638  29.920  29.865  1.00  0.00     0.049 A 
ATOM     56  H   UNL A   1      40.984  29.504  31.398  1.00  0.00     0.167 HD
ATOM     57  C   UNL A   1      43.825  28.471  34.559  1.00  0.00     0.037 A 
ATOM     58  C   UNL A   1      38.690  30.725  30.383  1.00  0.00     0.037 A 
ATOM     59  C   UNL A   1      42.899  29.382  35.177  1.00  0.00     0.049 A 
ATOM     60  C   UNL A   1      38.771  31.127  31.833  1.00  0.00     0.074 A 
ATOM     61  C   UNL A   1      42.910  29.880  36.469  1.00  0.00     0.029 A 
ATOM     62  N   UNL A   1      41.793  29.929  34.546  1.00  0.00    -0.354 N 
ATOM     63  N   UNL A   1      39.679  30.822  32.727  1.00  0.00    -0.248 NA
ATOM     64  C   UNL A   1      37.693  31.988  32.343  1.00  0.00     0.031 C 
ATOM     65  C   UNL A   1      41.787  30.696  36.632  1.00  0.00     0.029 A 
ATOM     66  C   UNL A   1      41.103  30.744  35.429  1.00  0.00     0.049 A 
ATOM     67  H   UNL A   1      41.536  29.764  33.611  1.00  0.00     0.167 HD
ATOM     68  C   UNL A   1      39.301  31.476  33.893  1.00  0.00     0.074 A 
ATOM     69  C   UNL A   1      38.087  32.204  33.590  1.00  0.00     0.031 C 
ATOM     70  C   UNL A   1      39.904  31.474  35.107  1.00  0.00     0.037 A 
BRANCH  57  71
ATOM     71  C   UNL A   1      44.959  27.943  35.389  1.00  0.00     0.057 A 
ATOM     72  C   UNL A   1      44.833  26.775  36.152  1.00  0.00     0.134 A 
ATOM     73  C   UNL A   1      46.204  28.582  35.385  1.00  0.00     0.134 A 
ATOM     74  F   UNL A   1      43.661  26.123  36.207  1.00  0.00    -0.206 F 
ATOM     75  C   UNL A   1      45.901  26.272  36.895  1.00  0.00     0.040 A 
ATOM     76  C   UNL A   1      47.286  28.076  36.105  1.00  0.00     0.040 A 
ATOM     77  F   UNL A   1      46.393  29.703  34.672  1.00  0.00    -0.206 F 
ATOM     78  C   UNL A   1      47.135  26.917  36.866  1.00  0.00     0.006 A 
ENDBRANCH  57  71
BRANCH  58  79
ATOM     79  C   UNL A   1      37.564  31.195  29.536  1.00  0.00     0.057 A 
ATOM     80  C   UNL A   1      36.472  30.366  29.252  1.00  0.00     0.134 A 
ATOM     81  C   UNL A   1      37.573  32.470  28.958  1.00  0.00     0.134 A 
ATOM     82  F   UNL A   1      36.419  29.124  29.757  1.00  0.00    -0.206 F 
ATOM     83  C   UNL A   1      35.443  30.778  28.404  1.00  0.00     0.040 A 
ATOM     84  C   UNL A   1      36.538  32.904  28.129  1.00  0.00     0.040 A 
ATOM     85  F   UNL A   1      38.591  33.312  29.190  1.00  0.00    -0.206 F 
ATOM     86  C   UNL A   1      35.473  32.053  27.842  1.00  0.00     0.006 A 
ENDBRANCH  58  79
BRANCH  70  87
ATOM     87  C   UNL A   1      39.287  32.317  36.186  1.00  0.00     0.057 A 
ATOM     88  C   UNL A   1      39.627  33.665  36.356  1.00  0.00     0.134 A 
ATOM     89  C   UNL A   1      38.311  31.782  37.037  1.00  0.00     0.134 A 
ATOM     90  F   UNL A   1      40.563  34.233  35.582  1.00  0.00    -0.206 F 
ATOM     91  C   UNL A   1      39.034  34.445  37.350  1.00  0.00     0.040 A 
ATOM     92  C   UNL A   1      37.693  32.559  38.017  1.00  0.00     0.040 A 
ATOM     93  F   UNL A   1      37.934  30.501  36.920  1.00  0.00    -0.206 F 
ATOM     94  C   UNL A   1      38.058  33.894  38.179  1.00  0.00     0.006 A 
ENDBRANCH  70  87
ENDBRANCH  44  45
ENDBRANCH  37  39
ENDBRANCH  36  37
ENDBRANCH  35  36
ENDBRANCH  34  35
ENDBRANCH  33  34
ENDBRANCH   1  33
TORSDOF 18
ENDMDL
MODEL 3
REMARK VINA RESULT:     -12.9      3.877      9.216
REMARK SMILES CS(=O)(=O)c1ccc(C2=NN(c3ccc(C(=O)OCCOCCOC(=O)c4ccc(-c5c6nc(c(-c7c(F)cccc7F)c7ccc([nH]7)c(-c7c(F)cccc7F)c7nc(c(-c8c(F)cccc8F)c8ccc5[nH]8)C=C7)C=C6)cc4)cc3)[C@H](c3ccccc3)C2)cc1
REMARK SMILES IDX 20 1 19 2 18 3 16 4 17 5 15 6 12 7 13 8 82 9 14 10 81 11
REMARK SMILES IDX 11 12 9 13 10 14 90 15 83 16 8 17 5 18 6 19 92 20 7 21 91 22
REMARK SMILES IDX 2 23 1 24 3 25 4 26 84 27 85 28 89 29 86 30 88 31 87 32
REMARK SMILES IDX 21 33 22 34 23 35 24 36 25 37 26 38 27 39 28 40 80 41 29 42
REMARK SMILES IDX 79 43 30 44 31 45 32 46 73 47 33 48 78 49 72 50 74 51 34 52
REMARK SMILES IDX 77 53 71 54 70 55 35 57 61 58 44 59 60 60 45 61 48 62 59 63
REMARK SMILES IDX 75 64 46 65 47 66 58 68 76 69 49 70 36 71 37 72 42 73 38 74
REMARK SMILES IDX 39 75 41 76 43 77 40 78 62 79 63 80 68 81 64 82 65 83 67 84
REMARK SMILES IDX 69 85 66 86 50 87 51 88 56 89 52 90 53 91 55 92 57 93 54 94
REMARK H PARENT 74 56 48 67
REMARK Flexibility Score: inf
ROOT
ATOM      1  C   UNL A   1      35.043  33.459  28.867  1.00  0.00     0.202 C 
ENDROOT
BRANCH   1   2
ATOM      2  C   UNL A   1      35.694  32.374  28.004  1.00  0.00     0.261 C 
BRANCH   2   3
ATOM      3  O   UNL A   1      34.700  31.486  27.467  1.00  0.00    -0.460 OA
BRANCH   3   4
ATOM      4  C   UNL A   1      34.870  30.176  27.767  1.00  0.00     0.338 C 
ATOM      5  O   UNL A   1      35.563  29.720  28.665  1.00  0.00    -0.246 OA
BRANCH   4   6
ATOM      6  C   UNL A   1      33.999  29.329  26.915  1.00  0.00     0.060 A 
ATOM      7  C   UNL A   1      32.345  27.568  25.481  1.00  0.00     0.060 A 
ATOM      8  C   UNL A   1      31.950  28.043  26.736  1.00  0.00     0.029 A 
ATOM      9  C   UNL A   1      33.523  28.070  24.909  1.00  0.00     0.029 A 
ATOM     10  C   UNL A   1      32.776  28.909  27.454  1.00  0.00     0.018 A 
ATOM     11  C   UNL A   1      34.353  28.943  25.619  1.00  0.00     0.018 A 
BRANCH   7  12
ATOM     12  N   UNL A   1      31.677  26.496  24.867  1.00  0.00    -0.257 N 
ATOM     13  C   UNL A   1      31.865  24.488  24.154  1.00  0.00     0.071 C 
ATOM     14  N   UNL A   1      32.009  25.219  25.216  1.00  0.00    -0.176 NA
ATOM     15  C   UNL A   1      31.519  25.218  22.889  1.00  0.00     0.091 C 
ATOM     16  C   UNL A   1      31.399  26.649  23.422  1.00  0.00     0.144 C 
BRANCH  13  17
ATOM     17  C   UNL A   1      31.991  23.021  24.164  1.00  0.00    -0.002 A 
ATOM     18  C   UNL A   1      32.413  20.271  24.114  1.00  0.00     0.067 A 
ATOM     19  C   UNL A   1      32.388  20.987  22.913  1.00  0.00     0.021 A 
ATOM     20  C   UNL A   1      32.211  20.920  25.338  1.00  0.00     0.021 A 
ATOM     21  C   UNL A   1      32.157  22.363  22.940  1.00  0.00     0.011 A 
ATOM     22  C   UNL A   1      32.010  22.303  25.364  1.00  0.00     0.011 A 
BRANCH  18  23
ATOM     23  S   UNL A   1      32.759  18.526  24.098  1.00  0.00     0.175 S 
ATOM     24  C   UNL A   1      32.411  17.986  22.446  1.00  0.00     0.163 C 
ATOM     25  O   UNL A   1      31.791  17.888  24.970  1.00  0.00    -0.224 OA
ATOM     26  O   UNL A   1      34.183  18.389  24.333  1.00  0.00    -0.224 OA
ENDBRANCH  18  23
ENDBRANCH  13  17
BRANCH  16  27
ATOM     27  C   UNL A   1      30.086  27.385  23.197  1.00  0.00    -0.023 A 
ATOM     28  C   UNL A   1      28.851  26.932  23.679  1.00  0.00     0.006 A 
ATOM     29  C   UNL A   1      30.119  28.631  22.539  1.00  0.00     0.006 A 
ATOM     30  C   UNL A   1      27.692  27.696  23.503  1.00  0.00     0.000 A 
ATOM     31  C   UNL A   1      28.971  29.409  22.398  1.00  0.00     0.000 A 
ATOM     32  C   UNL A   1      27.754  28.937  22.876  1.00  0.00     0.000 A 
ENDBRANCH  16  27
ENDBRANCH   7  12
ENDBRANCH   4   6
ENDBRANCH   3   4
ENDBRANCH   2   3
ENDBRANCH   1   2
BRANCH   1  33
ATOM     33  O   UNL A   1      34.551  34.603  28.169  1.00  0.00    -0.374 OA
BRANCH  33  34
ATOM     34  C   UNL A   1      33.192  34.976  28.401  1.00  0.00     0.202 C 
BRANCH  34  35
ATOM     35  C   UNL A   1      32.932  35.885  29.608  1.00  0.00     0.261 C 
BRANCH  35  36
ATOM     36  O   UNL A   1      32.458  35.149  30.749  1.00  0.00    -0.460 OA
BRANCH  36  37
ATOM     37  C   UNL A   1      32.743  35.712  31.947  1.00  0.00     0.338 C 
ATOM     38  O   UNL A   1      32.103  36.573  32.535  1.00  0.00    -0.246 OA
BRANCH  37  39
ATOM     39  C   UNL A   1      33.886  35.021  32.571  1.00  0.00     0.060 A 
ATOM     40  C   UNL A   1      35.143  35.632  32.471  1.00  0.00     0.016 A 
ATOM     41  C   UNL A   1      33.752  33.768  33.172  1.00  0.00     0.016 A 
ATOM     42  C   UNL A   1      36.280  34.969  32.926  1.00  0.00     0.010 A 
ATOM     43  C   UNL A   1      34.896  33.100  33.622  1.00  0.00     0.010 A 
ATOM     44  C   UNL A   1      36.169  33.683  33.469  1.00  0.00    -0.014 A 
BRANCH  44  45
ATOM     45  C   UNL A   1      37.395  32.894  33.743  1.00  0.00     0.031 A 
ATOM     46  C   UNL A   1      38.168  33.160  35.005  1.00  0.00     0.074 A 
ATOM     47  C   UNL A   1      37.799  31.933  32.894  1.00  0.00     0.049 A 
ATOM     48  N   UNL A   1      39.283  32.620  35.426  1.00  0.00    -0.248 NA
ATOM     49  C   UNL A   1      37.608  34.172  35.917  1.00  0.00     0.031 C 
ATOM     50  C   UNL A   1      37.115  31.553  31.659  1.00  0.00     0.029 A 
ATOM     51  N   UNL A   1      38.892  31.104  32.943  1.00  0.00    -0.354 N 
ATOM     52  C   UNL A   1      39.559  33.225  36.646  1.00  0.00     0.074 A 
ATOM     53  C   UNL A   1      38.513  34.196  36.885  1.00  0.00     0.031 C 
ATOM     54  C   UNL A   1      37.812  30.572  31.060  1.00  0.00     0.029 A 
ATOM     55  C   UNL A   1      39.004  30.277  31.853  1.00  0.00     0.049 A 
ATOM     56  H   UNL A   1      39.534  31.102  33.691  1.00  0.00     0.167 HD
ATOM     57  C   UNL A   1      40.586  32.985  37.495  1.00  0.00     0.037 A 
ATOM     58  C   UNL A   1      39.972  29.399  31.524  1.00  0.00     0.037 A 
ATOM     59  C   UNL A   1      41.627  32.020  37.260  1.00  0.00     0.049 A 
ATOM     60  C   UNL A   1      41.142  29.204  32.452  1.00  0.00     0.074 A 
ATOM     61  C   UNL A   1      42.705  31.699  38.067  1.00  0.00     0.029 A 
ATOM     62  N   UNL A   1      41.719  31.221  36.131  1.00  0.00    -0.354 N 
ATOM     63  N   UNL A   1      41.382  29.767  33.612  1.00  0.00    -0.248 NA
ATOM     64  C   UNL A   1      42.175  28.248  32.025  1.00  0.00     0.031 C 
ATOM     65  C   UNL A   1      43.473  30.735  37.406  1.00  0.00     0.029 A 
ATOM     66  C   UNL A   1      42.849  30.422  36.211  1.00  0.00     0.049 A 
ATOM     67  H   UNL A   1      41.079  31.220  35.384  1.00  0.00     0.167 HD
ATOM     68  C   UNL A   1      42.573  29.213  34.065  1.00  0.00     0.074 A 
ATOM     69  C   UNL A   1      43.001  28.261  33.062  1.00  0.00     0.031 C 
ATOM     70  C   UNL A   1      43.253  29.469  35.210  1.00  0.00     0.037 A 
BRANCH  57  71
ATOM     71  C   UNL A   1      40.645  33.795  38.757  1.00  0.00     0.057 A 
ATOM     72  C   UNL A   1      41.416  34.960  38.851  1.00  0.00     0.134 A 
ATOM     73  C   UNL A   1      39.883  33.431  39.874  1.00  0.00     0.134 A 
ATOM     74  F   UNL A   1      42.179  35.354  37.820  1.00  0.00    -0.206 F 
ATOM     75  C   UNL A   1      41.440  35.726  40.018  1.00  0.00     0.040 A 
ATOM     76  C   UNL A   1      39.880  34.202  41.037  1.00  0.00     0.040 A 
ATOM     77  F   UNL A   1      39.118  32.329  39.849  1.00  0.00    -0.206 F 
ATOM     78  C   UNL A   1      40.663  35.353  41.112  1.00  0.00     0.006 A 
ENDBRANCH  57  71
BRANCH  58  79
ATOM     79  C   UNL A   1      39.894  28.645  30.247  1.00  0.00     0.057 A 
ATOM     80  C   UNL A   1      40.520  29.115  29.086  1.00  0.00     0.134 A 
ATOM     81  C   UNL A   1      39.157  27.459  30.147  1.00  0.00     0.134 A 
ATOM     82  F   UNL A   1      41.219  30.260  29.113  1.00  0.00    -0.206 F 
ATOM     83  C   UNL A   1      40.396  28.446  27.868  1.00  0.00     0.040 A 
ATOM     84  C   UNL A   1      39.047  26.766  28.941  1.00  0.00     0.040 A 
ATOM     85  F   UNL A   1      38.533  26.957  31.223  1.00  0.00    -0.206 F 
ATOM     86  C   UNL A   1      39.660  27.266  27.794  1.00  0.00     0.006 A 
ENDBRANCH  58  79
BRANCH  70  87
ATOM     87  C   UNL A   1      44.505  28.680  35.460  1.00  0.00     0.057 A 
ATOM     88  C   UNL A   1      45.763  29.139  35.050  1.00  0.00     0.134 A 
ATOM     89  C   UNL A   1      44.454  27.466  36.157  1.00  0.00     0.134 A 
ATOM     90  F   UNL A   1      45.879  30.288  34.368  1.00  0.00    -0.206 F 
ATOM     91  C   UNL A   1      46.924  28.406  35.305  1.00  0.00     0.040 A 
ATOM     92  C   UNL A   1      45.610  26.737  36.440  1.00  0.00     0.040 A 
ATOM     93  F   UNL A   1      43.282  26.976  36.586  1.00  0.00    -0.206 F 
ATOM     94  C   UNL A   1      46.850  27.205  36.008  1.00  0.00     0.006 A 
ENDBRANCH  70  87
ENDBRANCH  44  45
ENDBRANCH  37  39
ENDBRANCH  36  37
ENDBRANCH  35  36
ENDBRANCH  34  35
ENDBRANCH  33  34
ENDBRANCH   1  33
TORSDOF 18
ENDMDL
