MODEL 1
REMARK VINA RESULT:     -10.2      0.000      0.000
REMARK SMILES CS(=O)(=O)NCC[NH2+]Cc1ccc(C(=O)OCCOCCOC(=O)c2ccc(-c3c4nc(c(-c5c(F)cccc5F)c5ccc([nH]5)c(-c5c(F)cccc5F)c5nc(c(-c6c(F)cccc6F)c6ccc3[nH]6)C=C5)C=C4)cc2)cn1
REMARK SMILES IDX 17 1 16 2 14 3 15 4 13 5 10 6 11 7 80 8 12 9 79 10 9 11 8 12
REMARK SMILES IDX 7 15 6 16 5 17 2 19 1 20 3 21 4 22 18 23 19 24 20 25 21 26
REMARK SMILES IDX 22 27 23 28 24 29 25 30 26 31 78 32 27 33 77 34 28 35 29 36
REMARK SMILES IDX 30 37 71 38 31 39 76 40 70 41 72 42 32 43 75 44 69 45 68 46
REMARK SMILES IDX 33 48 59 49 42 50 58 51 43 52 46 53 57 54 73 55 44 56 45 57
REMARK SMILES IDX 56 59 74 60 47 61 34 62 35 63 40 64 36 65 37 66 39 67 41 68
REMARK SMILES IDX 38 69 60 70 61 71 66 72 62 73 63 74 65 75 67 76 64 77 48 78
REMARK SMILES IDX 49 79 54 80 50 81 51 82 53 83 55 84 52 85
REMARK H PARENT 8 13 8 14 5 18 72 47 46 58
REMARK Flexibility Score: inf
ROOT
ATOM      1  C   UNL A   1      43.988  19.494  25.534  1.00  0.00     0.261 C 
ENDROOT
BRANCH   1   2
ATOM      2  O   UNL A   1      42.659  20.008  25.361  1.00  0.00    -0.460 OA
BRANCH   2   3
ATOM      3  C   UNL A   1      41.775  19.631  26.322  1.00  0.00     0.339 C 
ATOM      4  O   UNL A   1      42.014  19.018  27.342  1.00  0.00    -0.246 OA
BRANCH   3   5
ATOM      5  C   UNL A   1      40.454  20.203  26.020  1.00  0.00     0.078 A 
ATOM      6  C   UNL A   1      38.031  21.437  25.563  1.00  0.00     0.094 A 
ATOM      7  C   UNL A   1      38.198  20.091  25.227  1.00  0.00     0.031 A 
ATOM      8  N   UNL A   1      39.034  22.158  26.128  1.00  0.00    -0.254 NA
ATOM      9  C   UNL A   1      39.433  19.477  25.420  1.00  0.00     0.019 A 
ATOM     10  C   UNL A   1      40.210  21.524  26.360  1.00  0.00     0.127 A 
BRANCH   6  11
ATOM     11  C   UNL A   1      36.700  22.151  25.360  1.00  0.00     0.317 C 
BRANCH  11  12
ATOM     12  N   UNL A   1      35.852  22.309  26.558  1.00  0.00    -0.340 N 
ATOM     13  H   UNL A   1      35.962  21.483  27.146  1.00  0.00     0.346 HD
ATOM     14  H   UNL A   1      36.154  23.159  27.036  1.00  0.00     0.346 HD
BRANCH  12  15
ATOM     15  C   UNL A   1      34.433  22.468  26.238  1.00  0.00     0.277 C 
BRANCH  15  16
ATOM     16  C   UNL A   1      33.528  21.428  26.914  1.00  0.00     0.159 C 
BRANCH  16  17
ATOM     17  N   UNL A   1      32.533  20.789  26.024  1.00  0.00    -0.210 NA
ATOM     18  H   UNL A   1      31.789  20.447  26.632  1.00  0.00     0.141 HD
BRANCH  17  19
ATOM     19  S   UNL A   1      32.921  19.517  25.005  1.00  0.00     0.208 S 
ATOM     20  C   UNL A   1      32.293  20.033  23.420  1.00  0.00     0.176 C 
ATOM     21  O   UNL A   1      32.181  18.355  25.440  1.00  0.00    -0.213 OA
ATOM     22  O   UNL A   1      34.364  19.484  24.939  1.00  0.00    -0.213 OA
ENDBRANCH  17  19
ENDBRANCH  16  17
ENDBRANCH  15  16
ENDBRANCH  12  15
ENDBRANCH  11  12
ENDBRANCH   6  11
ENDBRANCH   3   5
ENDBRANCH   2   3
ENDBRANCH   1   2
BRANCH   1  23
ATOM     23  C   UNL A   1      45.008  20.227  24.657  1.00  0.00     0.202 C 
BRANCH  23  24
ATOM     24  O   UNL A   1      46.102  20.851  25.325  1.00  0.00    -0.374 OA
BRANCH  24  25
ATOM     25  C   UNL A   1      45.969  22.238  25.643  1.00  0.00     0.202 C 
BRANCH  25  26
ATOM     26  C   UNL A   1      45.715  23.199  24.474  1.00  0.00     0.261 C 
BRANCH  26  27
ATOM     27  O   UNL A   1      44.898  24.319  24.857  1.00  0.00    -0.460 OA
BRANCH  27  28
ATOM     28  C   UNL A   1      43.571  24.054  24.918  1.00  0.00     0.338 C 
ATOM     29  O   UNL A   1      42.975  23.114  24.423  1.00  0.00    -0.246 OA
BRANCH  28  30
ATOM     30  C   UNL A   1      42.926  24.993  25.856  1.00  0.00     0.060 A 
ATOM     31  C   UNL A   1      43.509  26.258  26.010  1.00  0.00     0.016 A 
ATOM     32  C   UNL A   1      41.819  24.622  26.619  1.00  0.00     0.016 A 
ATOM     33  C   UNL A   1      43.012  27.142  26.964  1.00  0.00     0.010 A 
ATOM     34  C   UNL A   1      41.325  25.508  27.579  1.00  0.00     0.010 A 
ATOM     35  C   UNL A   1      41.940  26.759  27.780  1.00  0.00    -0.014 A 
BRANCH  35  36
ATOM     36  C   UNL A   1      41.538  27.616  28.921  1.00  0.00     0.031 A 
ATOM     37  C   UNL A   1      42.306  27.529  30.210  1.00  0.00     0.074 A 
ATOM     38  C   UNL A   1      40.509  28.472  28.803  1.00  0.00     0.049 A 
ATOM     39  N   UNL A   1      42.091  28.139  31.348  1.00  0.00    -0.248 NA
ATOM     40  C   UNL A   1      43.471  26.630  30.219  1.00  0.00     0.031 C 
ATOM     41  C   UNL A   1      39.714  28.675  27.593  1.00  0.00     0.029 A 
ATOM     42  N   UNL A   1      39.951  29.325  29.722  1.00  0.00    -0.354 N 
ATOM     43  C   UNL A   1      43.085  27.691  32.210  1.00  0.00     0.074 A 
ATOM     44  C   UNL A   1      43.882  26.733  31.474  1.00  0.00     0.031 C 
ATOM     45  C   UNL A   1      38.761  29.589  27.848  1.00  0.00     0.029 A 
ATOM     46  C   UNL A   1      38.856  30.003  29.245  1.00  0.00     0.049 A 
ATOM     47  H   UNL A   1      40.301  29.440  30.635  1.00  0.00     0.167 HD
ATOM     48  C   UNL A   1      43.314  28.052  33.495  1.00  0.00     0.037 A 
ATOM     49  C   UNL A   1      38.011  30.842  29.875  1.00  0.00     0.037 A 
ATOM     50  C   UNL A   1      42.516  29.006  34.222  1.00  0.00     0.049 A 
ATOM     51  C   UNL A   1      38.242  31.170  31.327  1.00  0.00     0.074 A 
ATOM     52  C   UNL A   1      42.680  29.455  35.520  1.00  0.00     0.029 A 
ATOM     53  N   UNL A   1      41.397  29.650  33.714  1.00  0.00    -0.354 N 
ATOM     54  N   UNL A   1      39.196  30.761  32.127  1.00  0.00    -0.248 NA
ATOM     55  C   UNL A   1      37.278  32.079  31.962  1.00  0.00     0.031 C 
ATOM     56  C   UNL A   1      41.625  30.323  35.819  1.00  0.00     0.029 A 
ATOM     57  C   UNL A   1      40.843  30.469  34.684  1.00  0.00     0.049 A 
ATOM     58  H   UNL A   1      41.049  29.541  32.800  1.00  0.00     0.167 HD
ATOM     59  C   UNL A   1      38.969  31.388  33.347  1.00  0.00     0.074 A 
ATOM     60  C   UNL A   1      37.792  32.214  33.176  1.00  0.00     0.031 C 
ATOM     61  C   UNL A   1      39.674  31.292  34.501  1.00  0.00     0.037 A 
BRANCH  48  62
ATOM     62  C   UNL A   1      44.459  27.391  34.209  1.00  0.00     0.057 A 
ATOM     63  C   UNL A   1      45.739  27.959  34.251  1.00  0.00     0.134 A 
ATOM     64  C   UNL A   1      44.267  26.186  34.899  1.00  0.00     0.134 A 
ATOM     65  F   UNL A   1      45.995  29.105  33.602  1.00  0.00    -0.206 F 
ATOM     66  C   UNL A   1      46.791  27.340  34.929  1.00  0.00     0.040 A 
ATOM     67  C   UNL A   1      45.303  25.573  35.605  1.00  0.00     0.040 A 
ATOM     68  F   UNL A   1      43.064  25.590  34.906  1.00  0.00    -0.206 F 
ATOM     69  C   UNL A   1      46.571  26.148  35.616  1.00  0.00     0.006 A 
ENDBRANCH  48  62
BRANCH  49  70
ATOM     70  C   UNL A   1      36.856  31.424  29.143  1.00  0.00     0.057 A 
ATOM     71  C   UNL A   1      35.718  30.661  28.858  1.00  0.00     0.134 A 
ATOM     72  C   UNL A   1      36.872  32.750  28.692  1.00  0.00     0.134 A 
ATOM     73  F   UNL A   1      35.652  29.378  29.243  1.00  0.00    -0.206 F 
ATOM     74  C   UNL A   1      34.647  31.187  28.134  1.00  0.00     0.040 A 
ATOM     75  C   UNL A   1      35.796  33.298  27.993  1.00  0.00     0.040 A 
ATOM     76  F   UNL A   1      37.931  33.536  28.935  1.00  0.00    -0.206 F 
ATOM     77  C   UNL A   1      34.683  32.513  27.704  1.00  0.00     0.006 A 
ENDBRANCH  49  70
BRANCH  61  78
ATOM     78  C   UNL A   1      39.221  32.136  35.660  1.00  0.00     0.057 A 
ATOM     79  C   UNL A   1      38.364  31.642  36.652  1.00  0.00     0.134 A 
ATOM     80  C   UNL A   1      39.684  33.451  35.804  1.00  0.00     0.134 A 
ATOM     81  F   UNL A   1      37.874  30.396  36.569  1.00  0.00    -0.206 F 
ATOM     82  C   UNL A   1      37.962  32.434  37.730  1.00  0.00     0.040 A 
ATOM     83  C   UNL A   1      39.315  34.241  36.894  1.00  0.00     0.040 A 
ATOM     84  F   UNL A   1      40.516  33.984  34.897  1.00  0.00    -0.206 F 
ATOM     85  C   UNL A   1      38.445  33.735  37.857  1.00  0.00     0.006 A 
ENDBRANCH  61  78
ENDBRANCH  35  36
ENDBRANCH  28  30
ENDBRANCH  27  28
ENDBRANCH  26  27
ENDBRANCH  25  26
ENDBRANCH  24  25
ENDBRANCH  23  24
ENDBRANCH   1  23
TORSDOF 20
ENDMDL
MODEL 2
REMARK VINA RESULT:     -10.2      1.435      2.753
REMARK SMILES CS(=O)(=O)NCC[NH2+]Cc1ccc(C(=O)OCCOCCOC(=O)c2ccc(-c3c4nc(c(-c5c(F)cccc5F)c5ccc([nH]5)c(-c5c(F)cccc5F)c5nc(c(-c6c(F)cccc6F)c6ccc3[nH]6)C=C5)C=C4)cc2)cn1
REMARK SMILES IDX 17 1 16 2 14 3 15 4 13 5 10 6 11 7 80 8 12 9 79 10 9 11 8 12
REMARK SMILES IDX 7 15 6 16 5 17 2 19 1 20 3 21 4 22 18 23 19 24 20 25 21 26
REMARK SMILES IDX 22 27 23 28 24 29 25 30 26 31 78 32 27 33 77 34 28 35 29 36
REMARK SMILES IDX 30 37 71 38 31 39 76 40 70 41 72 42 32 43 75 44 69 45 68 46
REMARK SMILES IDX 33 48 59 49 42 50 58 51 43 52 46 53 57 54 73 55 44 56 45 57
REMARK SMILES IDX 56 59 74 60 47 61 34 62 35 63 40 64 36 65 37 66 39 67 41 68
REMARK SMILES IDX 38 69 60 70 61 71 66 72 62 73 63 74 65 75 67 76 64 77 48 78
REMARK SMILES IDX 49 79 54 80 50 81 51 82 53 83 55 84 52 85
REMARK H PARENT 8 13 8 14 5 18 72 47 46 58
REMARK Flexibility Score: inf
ROOT
ATOM      1  C   UNL A   1      40.057  21.888  27.150  1.00  0.00     0.261 C 
ENDROOT
BRANCH   1   2
ATOM      2  O   UNL A   1      39.195  22.091  26.020  1.00  0.00    -0.460 OA
BRANCH   2   3
ATOM      3  C   UNL A   1      38.397  23.187  26.104  1.00  0.00     0.339 C 
ATOM      4  O   UNL A   1      38.674  24.262  26.596  1.00  0.00    -0.246 OA
BRANCH   3   5
ATOM      5  C   UNL A   1      37.147  22.937  25.371  1.00  0.00     0.078 A 
ATOM      6  C   UNL A   1      34.726  22.395  24.169  1.00  0.00     0.094 A 
ATOM      7  C   UNL A   1      35.831  22.731  23.383  1.00  0.00     0.031 A 
ATOM      8  N   UNL A   1      34.816  22.311  25.522  1.00  0.00    -0.254 NA
ATOM      9  C   UNL A   1      37.044  23.045  23.990  1.00  0.00     0.019 A 
ATOM     10  C   UNL A   1      36.021  22.564  26.089  1.00  0.00     0.127 A 
BRANCH   6  11
ATOM     11  C   UNL A   1      33.377  22.054  23.547  1.00  0.00     0.317 C 
BRANCH  11  12
ATOM     12  N   UNL A   1      32.463  21.237  24.369  1.00  0.00    -0.340 N 
ATOM     13  H   UNL A   1      32.652  21.429  25.353  1.00  0.00     0.346 HD
ATOM     14  H   UNL A   1      31.509  21.490  24.109  1.00  0.00     0.346 HD
BRANCH  12  15
ATOM     15  C   UNL A   1      32.614  19.800  24.137  1.00  0.00     0.277 C 
BRANCH  15  16
ATOM     16  C   UNL A   1      33.370  19.071  25.257  1.00  0.00     0.159 C 
BRANCH  16  17
ATOM     17  N   UNL A   1      34.386  18.097  24.797  1.00  0.00    -0.210 NA
ATOM     18  H   UNL A   1      34.860  18.535  24.007  1.00  0.00     0.141 HD
BRANCH  17  19
ATOM     19  S   UNL A   1      33.988  16.548  24.299  1.00  0.00     0.208 S 
ATOM     20  C   UNL A   1      32.495  16.181  25.199  1.00  0.00     0.176 C 
ATOM     21  O   UNL A   1      35.031  15.654  24.747  1.00  0.00    -0.213 OA
ATOM     22  O   UNL A   1      33.664  16.650  22.895  1.00  0.00    -0.213 OA
ENDBRANCH  17  19
ENDBRANCH  16  17
ENDBRANCH  15  16
ENDBRANCH  12  15
ENDBRANCH  11  12
ENDBRANCH   6  11
ENDBRANCH   3   5
ENDBRANCH   2   3
ENDBRANCH   1   2
BRANCH   1  23
ATOM     23  C   UNL A   1      41.231  20.960  26.820  1.00  0.00     0.202 C 
BRANCH  23  24
ATOM     24  O   UNL A   1      41.953  21.234  25.622  1.00  0.00    -0.374 OA
BRANCH  24  25
ATOM     25  C   UNL A   1      43.358  21.461  25.743  1.00  0.00     0.202 C 
BRANCH  25  26
ATOM     26  C   UNL A   1      44.031  22.272  24.627  1.00  0.00     0.261 C 
BRANCH  26  27
ATOM     27  O   UNL A   1      43.501  23.605  24.528  1.00  0.00    -0.460 OA
BRANCH  27  28
ATOM     28  C   UNL A   1      44.310  24.573  25.021  1.00  0.00     0.338 C 
ATOM     29  O   UNL A   1      45.441  24.851  24.665  1.00  0.00    -0.246 OA
BRANCH  28  30
ATOM     30  C   UNL A   1      43.551  25.411  25.968  1.00  0.00     0.060 A 
ATOM     31  C   UNL A   1      43.879  26.771  26.038  1.00  0.00     0.016 A 
ATOM     32  C   UNL A   1      42.588  24.866  26.819  1.00  0.00     0.016 A 
ATOM     33  C   UNL A   1      43.276  27.585  26.993  1.00  0.00     0.010 A 
ATOM     34  C   UNL A   1      41.988  25.684  27.780  1.00  0.00     0.010 A 
ATOM     35  C   UNL A   1      42.353  27.038  27.895  1.00  0.00    -0.014 A 
BRANCH  35  36
ATOM     36  C   UNL A   1      41.860  27.853  29.031  1.00  0.00     0.031 A 
ATOM     37  C   UNL A   1      42.584  27.791  30.347  1.00  0.00     0.074 A 
ATOM     38  C   UNL A   1      40.788  28.650  28.886  1.00  0.00     0.049 A 
ATOM     39  N   UNL A   1      42.292  28.370  31.484  1.00  0.00    -0.248 NA
ATOM     40  C   UNL A   1      43.799  26.961  30.389  1.00  0.00     0.031 C 
ATOM     41  C   UNL A   1      40.027  28.825  27.650  1.00  0.00     0.029 A 
ATOM     42  N   UNL A   1      40.147  29.454  29.794  1.00  0.00    -0.354 N 
ATOM     43  C   UNL A   1      43.278  27.968  32.377  1.00  0.00     0.074 A 
ATOM     44  C   UNL A   1      44.157  27.070  31.659  1.00  0.00     0.031 C 
ATOM     45  C   UNL A   1      39.014  29.678  27.880  1.00  0.00     0.029 A 
ATOM     46  C   UNL A   1      39.033  30.075  29.285  1.00  0.00     0.049 A 
ATOM     47  H   UNL A   1      40.456  29.576  30.721  1.00  0.00     0.167 HD
ATOM     48  C   UNL A   1      43.438  28.322  33.674  1.00  0.00     0.037 A 
ATOM     49  C   UNL A   1      38.117  30.854  29.894  1.00  0.00     0.037 A 
ATOM     50  C   UNL A   1      42.559  29.217  34.382  1.00  0.00     0.049 A 
ATOM     51  C   UNL A   1      38.275  31.172  31.358  1.00  0.00     0.074 A 
ATOM     52  C   UNL A   1      42.649  29.655  35.691  1.00  0.00     0.029 A 
ATOM     53  N   UNL A   1      41.424  29.802  33.842  1.00  0.00    -0.354 N 
ATOM     54  N   UNL A   1      39.222  30.808  32.187  1.00  0.00    -0.248 NA
ATOM     55  C   UNL A   1      37.237  32.015  31.968  1.00  0.00     0.031 C 
ATOM     56  C   UNL A   1      41.534  30.456  35.962  1.00  0.00     0.029 A 
ATOM     57  C   UNL A   1      40.787  30.573  34.801  1.00  0.00     0.049 A 
ATOM     58  H   UNL A   1      41.117  29.687  32.913  1.00  0.00     0.167 HD
ATOM     59  C   UNL A   1      38.914  31.401  33.406  1.00  0.00     0.074 A 
ATOM     60  C   UNL A   1      37.697  32.161  33.202  1.00  0.00     0.031 C 
ATOM     61  C   UNL A   1      39.579  31.329  34.584  1.00  0.00     0.037 A 
BRANCH  48  62
ATOM     62  C   UNL A   1      44.593  27.718  34.422  1.00  0.00     0.057 A 
ATOM     63  C   UNL A   1      44.486  26.494  35.096  1.00  0.00     0.134 A 
ATOM     64  C   UNL A   1      45.842  28.354  34.436  1.00  0.00     0.134 A 
ATOM     65  F   UNL A   1      43.316  25.839  35.133  1.00  0.00    -0.206 F 
ATOM     66  C   UNL A   1      45.571  25.938  35.777  1.00  0.00     0.040 A 
ATOM     67  C   UNL A   1      46.941  27.794  35.088  1.00  0.00     0.040 A 
ATOM     68  F   UNL A   1      46.016  29.525  33.806  1.00  0.00    -0.206 F 
ATOM     69  C   UNL A   1      46.805  26.585  35.767  1.00  0.00     0.006 A 
ENDBRANCH  48  62
BRANCH  49  70
ATOM     70  C   UNL A   1      36.958  31.379  29.126  1.00  0.00     0.057 A 
ATOM     71  C   UNL A   1      36.909  32.713  28.705  1.00  0.00     0.134 A 
ATOM     72  C   UNL A   1      35.863  30.564  28.812  1.00  0.00     0.134 A 
ATOM     73  F   UNL A   1      37.917  33.549  28.995  1.00  0.00    -0.206 F 
ATOM     74  C   UNL A   1      35.806  33.223  28.020  1.00  0.00     0.040 A 
ATOM     75  C   UNL A   1      34.766  31.053  28.102  1.00  0.00     0.040 A 
ATOM     76  F   UNL A   1      35.849  29.274  29.182  1.00  0.00    -0.206 F 
ATOM     77  C   UNL A   1      34.732  32.390  27.712  1.00  0.00     0.006 A 
ENDBRANCH  49  70
BRANCH  61  78
ATOM     78  C   UNL A   1      39.036  32.128  35.736  1.00  0.00     0.057 A 
ATOM     79  C   UNL A   1      39.267  33.503  35.864  1.00  0.00     0.134 A 
ATOM     80  C   UNL A   1      38.236  31.515  36.710  1.00  0.00     0.134 A 
ATOM     81  F   UNL A   1      40.034  34.150  34.975  1.00  0.00    -0.206 F 
ATOM     82  C   UNL A   1      38.745  34.235  36.934  1.00  0.00     0.040 A 
ATOM     83  C   UNL A   1      37.681  32.241  37.765  1.00  0.00     0.040 A 
ATOM     84  F   UNL A   1      37.965  30.203  36.643  1.00  0.00    -0.206 F 
ATOM     85  C   UNL A   1      37.943  33.604  37.883  1.00  0.00     0.006 A 
ENDBRANCH  61  78
ENDBRANCH  35  36
ENDBRANCH  28  30
ENDBRANCH  27  28
ENDBRANCH  26  27
ENDBRANCH  25  26
ENDBRANCH  24  25
ENDBRANCH  23  24
ENDBRANCH   1  23
TORSDOF 20
ENDMDL
MODEL 3
REMARK VINA RESULT:     -10.1      5.661     10.971
REMARK SMILES CS(=O)(=O)NCC[NH2+]Cc1ccc(C(=O)OCCOCCOC(=O)c2ccc(-c3c4nc(c(-c5c(F)cccc5F)c5ccc([nH]5)c(-c5c(F)cccc5F)c5nc(c(-c6c(F)cccc6F)c6ccc3[nH]6)C=C5)C=C4)cc2)cn1
REMARK SMILES IDX 17 1 16 2 14 3 15 4 13 5 10 6 11 7 80 8 12 9 79 10 9 11 8 12
REMARK SMILES IDX 7 15 6 16 5 17 2 19 1 20 3 21 4 22 18 23 19 24 20 25 21 26
REMARK SMILES IDX 22 27 23 28 24 29 25 30 26 31 78 32 27 33 77 34 28 35 29 36
REMARK SMILES IDX 30 37 71 38 31 39 76 40 70 41 72 42 32 43 75 44 69 45 68 46
REMARK SMILES IDX 33 48 59 49 42 50 58 51 43 52 46 53 57 54 73 55 44 56 45 57
REMARK SMILES IDX 56 59 74 60 47 61 34 62 35 63 40 64 36 65 37 66 39 67 41 68
REMARK SMILES IDX 38 69 60 70 61 71 66 72 62 73 63 74 65 75 67 76 64 77 48 78
REMARK SMILES IDX 49 79 54 80 50 81 51 82 53 83 55 84 52 85
REMARK H PARENT 8 13 8 14 5 18 72 47 46 58
REMARK Flexibility Score: inf
ROOT
ATOM      1  C   UNL A   1      33.560  35.456  28.665  1.00  0.00     0.261 C 
ENDROOT
BRANCH   1   2
ATOM      2  O   UNL A   1      33.488  34.088  28.236  1.00  0.00    -0.460 OA
BRANCH   2   3
ATOM      3  C   UNL A   1      34.663  33.409  28.301  1.00  0.00     0.339 C 
ATOM      4  O   UNL A   1      35.727  33.820  28.717  1.00  0.00    -0.246 OA
BRANCH   3   5
ATOM      5  C   UNL A   1      34.439  32.010  27.911  1.00  0.00     0.078 A 
ATOM      6  C   UNL A   1      33.820  29.420  27.195  1.00  0.00     0.094 A 
ATOM      7  C   UNL A   1      35.141  29.757  27.504  1.00  0.00     0.031 A 
ATOM      8  N   UNL A   1      32.820  30.337  27.253  1.00  0.00    -0.254 NA
ATOM      9  C   UNL A   1      35.462  31.073  27.827  1.00  0.00     0.019 A 
ATOM     10  C   UNL A   1      33.146  31.600  27.625  1.00  0.00     0.127 A 
BRANCH   6  11
ATOM     11  C   UNL A   1      33.426  27.994  26.827  1.00  0.00     0.317 C 
BRANCH  11  12
ATOM     12  N   UNL A   1      32.006  27.638  27.014  1.00  0.00    -0.340 N 
ATOM     13  H   UNL A   1      31.953  26.814  27.613  1.00  0.00     0.346 HD
ATOM     14  H   UNL A   1      31.541  28.443  27.435  1.00  0.00     0.346 HD
BRANCH  12  15
ATOM     15  C   UNL A   1      31.319  27.343  25.756  1.00  0.00     0.277 C 
BRANCH  15  16
ATOM     16  C   UNL A   1      30.776  25.910  25.670  1.00  0.00     0.159 C 
BRANCH  16  17
ATOM     17  N   UNL A   1      31.106  25.044  26.825  1.00  0.00    -0.210 NA
ATOM     18  H   UNL A   1      32.038  25.322  27.130  1.00  0.00     0.141 HD
BRANCH  17  19
ATOM     19  S   UNL A   1      31.131  23.372  26.719  1.00  0.00     0.208 S 
ATOM     20  C   UNL A   1      29.500  22.886  27.244  1.00  0.00     0.176 C 
ATOM     21  O   UNL A   1      32.093  22.879  27.678  1.00  0.00    -0.213 OA
ATOM     22  O   UNL A   1      31.274  23.063  25.315  1.00  0.00    -0.213 OA
ENDBRANCH  17  19
ENDBRANCH  16  17
ENDBRANCH  15  16
ENDBRANCH  12  15
ENDBRANCH  11  12
ENDBRANCH   6  11
ENDBRANCH   3   5
ENDBRANCH   2   3
ENDBRANCH   1   2
BRANCH   1  23
ATOM     23  C   UNL A   1      33.022  35.644  30.087  1.00  0.00     0.202 C 
BRANCH  23  24
ATOM     24  O   UNL A   1      33.201  34.558  30.993  1.00  0.00    -0.374 OA
BRANCH  24  25
ATOM     25  C   UNL A   1      34.208  34.703  31.996  1.00  0.00     0.202 C 
BRANCH  25  26
ATOM     26  C   UNL A   1      34.382  33.539  32.980  1.00  0.00     0.261 C 
BRANCH  26  27
ATOM     27  O   UNL A   1      35.189  32.481  32.435  1.00  0.00    -0.460 OA
BRANCH  27  28
ATOM     28  C   UNL A   1      36.267  32.149  33.185  1.00  0.00     0.338 C 
ATOM     29  O   UNL A   1      36.398  32.261  34.391  1.00  0.00    -0.246 OA
BRANCH  28  30
ATOM     30  C   UNL A   1      37.247  31.434  32.346  1.00  0.00     0.060 A 
ATOM     31  C   UNL A   1      38.205  30.645  32.997  1.00  0.00     0.016 A 
ATOM     32  C   UNL A   1      37.272  31.585  30.959  1.00  0.00     0.016 A 
ATOM     33  C   UNL A   1      39.223  30.040  32.265  1.00  0.00     0.010 A 
ATOM     34  C   UNL A   1      38.298  30.981  30.227  1.00  0.00     0.010 A 
ATOM     35  C   UNL A   1      39.297  30.235  30.879  1.00  0.00    -0.014 A 
BRANCH  35  36
ATOM     36  C   UNL A   1      40.483  29.756  30.129  1.00  0.00     0.031 A 
ATOM     37  C   UNL A   1      41.626  30.702  29.883  1.00  0.00     0.074 A 
ATOM     38  C   UNL A   1      40.546  28.489  29.687  1.00  0.00     0.049 A 
ATOM     39  N   UNL A   1      42.728  30.514  29.203  1.00  0.00    -0.248 NA
ATOM     40  C   UNL A   1      41.508  32.042  30.480  1.00  0.00     0.031 C 
ATOM     41  C   UNL A   1      39.521  27.469  29.898  1.00  0.00     0.029 A 
ATOM     42  N   UNL A   1      41.515  27.848  28.956  1.00  0.00    -0.354 N 
ATOM     43  C   UNL A   1      43.429  31.711  29.280  1.00  0.00     0.074 A 
ATOM     44  C   UNL A   1      42.613  32.629  30.046  1.00  0.00     0.031 C 
ATOM     45  C   UNL A   1      39.911  26.330  29.300  1.00  0.00     0.029 A 
ATOM     46  C   UNL A   1      41.192  26.553  28.633  1.00  0.00     0.049 A 
ATOM     47  H   UNL A   1      42.362  28.275  28.689  1.00  0.00     0.167 HD
ATOM     48  C   UNL A   1      44.645  32.012  28.767  1.00  0.00     0.037 A 
ATOM     49  C   UNL A   1      41.844  25.660  27.864  1.00  0.00     0.037 A 
ATOM     50  C   UNL A   1      45.453  31.093  28.007  1.00  0.00     0.049 A 
ATOM     51  C   UNL A   1      43.160  26.045  27.240  1.00  0.00     0.074 A 
ATOM     52  C   UNL A   1      46.708  31.296  27.462  1.00  0.00     0.029 A 
ATOM     53  N   UNL A   1      45.077  29.800  27.675  1.00  0.00    -0.354 N 
ATOM     54  N   UNL A   1      43.826  27.169  27.339  1.00  0.00    -0.248 NA
ATOM     55  C   UNL A   1      43.816  25.033  26.400  1.00  0.00     0.031 C 
ATOM     56  C   UNL A   1      47.066  30.148  26.748  1.00  0.00     0.029 A 
ATOM     57  C   UNL A   1      46.064  29.204  26.906  1.00  0.00     0.049 A 
ATOM     58  H   UNL A   1      44.235  29.368  27.946  1.00  0.00     0.167 HD
ATOM     59  C   UNL A   1      44.992  26.990  26.604  1.00  0.00     0.074 A 
ATOM     60  C   UNL A   1      44.947  25.642  26.076  1.00  0.00     0.031 C 
ATOM     61  C   UNL A   1      46.010  27.859  26.391  1.00  0.00     0.037 A 
BRANCH  48  62
ATOM     62  C   UNL A   1      45.167  33.404  28.987  1.00  0.00     0.057 A 
ATOM     63  C   UNL A   1      45.906  33.752  30.124  1.00  0.00     0.134 A 
ATOM     64  C   UNL A   1      44.958  34.402  28.025  1.00  0.00     0.134 A 
ATOM     65  F   UNL A   1      46.133  32.849  31.090  1.00  0.00    -0.206 F 
ATOM     66  C   UNL A   1      46.396  35.047  30.310  1.00  0.00     0.040 A 
ATOM     67  C   UNL A   1      45.467  35.691  28.185  1.00  0.00     0.040 A 
ATOM     68  F   UNL A   1      44.263  34.136  26.908  1.00  0.00    -0.206 F 
ATOM     69  C   UNL A   1      46.184  36.018  29.333  1.00  0.00     0.006 A 
ENDBRANCH  48  62
BRANCH  49  70
ATOM     70  C   UNL A   1      41.258  24.316  27.626  1.00  0.00     0.057 A 
ATOM     71  C   UNL A   1      41.749  23.182  28.284  1.00  0.00     0.134 A 
ATOM     72  C   UNL A   1      40.207  24.128  26.719  1.00  0.00     0.134 A 
ATOM     73  F   UNL A   1      42.769  23.292  29.148  1.00  0.00    -0.206 F 
ATOM     74  C   UNL A   1      41.232  21.910  28.036  1.00  0.00     0.040 A 
ATOM     75  C   UNL A   1      39.660  22.867  26.482  1.00  0.00     0.040 A 
ATOM     76  F   UNL A   1      39.688  25.174  26.058  1.00  0.00    -0.206 F 
ATOM     77  C   UNL A   1      40.180  21.751  27.135  1.00  0.00     0.006 A 
ENDBRANCH  49  70
BRANCH  61  78
ATOM     78  C   UNL A   1      47.184  27.368  25.589  1.00  0.00     0.057 A 
ATOM     79  C   UNL A   1      47.281  27.576  24.207  1.00  0.00     0.134 A 
ATOM     80  C   UNL A   1      48.249  26.710  26.219  1.00  0.00     0.134 A 
ATOM     81  F   UNL A   1      46.292  28.187  23.539  1.00  0.00    -0.206 F 
ATOM     82  C   UNL A   1      48.384  27.125  23.478  1.00  0.00     0.040 A 
ATOM     83  C   UNL A   1      49.370  26.284  25.506  1.00  0.00     0.040 A 
ATOM     84  F   UNL A   1      48.226  26.487  27.542  1.00  0.00    -0.206 F 
ATOM     85  C   UNL A   1      49.436  26.484  24.129  1.00  0.00     0.006 A 
ENDBRANCH  61  78
ENDBRANCH  35  36
ENDBRANCH  28  30
ENDBRANCH  27  28
ENDBRANCH  26  27
ENDBRANCH  25  26
ENDBRANCH  24  25
ENDBRANCH  23  24
ENDBRANCH   1  23
TORSDOF 20
ENDMDL
