MODEL 1
REMARK VINA RESULT:     -12.2      0.000      0.000
REMARK SMILES C[C@H](C(=O)OCCOCCOC(=O)c1ccc(-c2c3nc(c(-c4c(F)cccc4F)c4ccc([nH]4)c(-c4c(F)cccc4F)c4nc(c(-c5c(F)cccc5F)c5ccc2[nH]5)C=C4)C=C3)cc1)c1ccc2c(c1)[nH]c1ccc(Cl)cc12
REMARK SMILES IDX 9 1 8 2 7 3 6 4 5 5 3 6 4 7 2 8 1 9 68 10 69 11 73 12 70 13
REMARK SMILES IDX 72 14 71 15 74 16 81 17 75 18 80 20 76 21 78 22 77 23 79 24
REMARK SMILES IDX 10 25 11 26 12 27 13 28 14 29 15 30 67 31 16 32 66 33 17 34
REMARK SMILES IDX 18 35 19 36 60 37 20 38 65 39 59 40 61 41 21 42 64 43 58 44
REMARK SMILES IDX 57 45 22 47 48 48 31 49 47 50 32 51 35 52 46 53 62 54 33 55
REMARK SMILES IDX 34 56 45 58 63 59 36 60 23 61 24 62 29 63 25 64 26 65 28 66
REMARK SMILES IDX 30 67 27 68 49 69 50 70 55 71 51 72 52 73 54 74 56 75 53 76
REMARK SMILES IDX 37 77 38 78 43 79 39 80 40 81 42 82 44 83 41 84
REMARK H PARENT 74 19 61 46 35 57
REMARK Flexibility Score: inf
ROOT
ATOM      1  C   UNL A   1      45.830  22.134  25.382  1.00  0.00     0.202 C 
ENDROOT
BRANCH   1   2
ATOM      2  O   UNL A   1      46.103  20.735  25.383  1.00  0.00    -0.374 OA
BRANCH   2   3
ATOM      3  C   UNL A   1      45.587  19.978  24.285  1.00  0.00     0.202 C 
BRANCH   3   4
ATOM      4  C   UNL A   1      44.474  18.988  24.639  1.00  0.00     0.261 C 
BRANCH   4   5
ATOM      5  O   UNL A   1      43.254  19.685  24.962  1.00  0.00    -0.463 OA
BRANCH   5   6
ATOM      6  C   UNL A   1      42.417  19.050  25.824  1.00  0.00     0.313 C 
ATOM      7  O   UNL A   1      42.337  17.829  25.925  1.00  0.00    -0.252 OA
BRANCH   6   8
ATOM      8  C   UNL A   1      41.628  19.986  26.737  1.00  0.00     0.126 C 
ATOM      9  C   UNL A   1      42.521  21.172  27.116  1.00  0.00     0.025 C 
BRANCH   8  10
ATOM     10  C   UNL A   1      40.256  20.440  26.248  1.00  0.00    -0.032 A 
ATOM     11  C   UNL A   1      39.454  19.552  25.517  1.00  0.00     0.005 A 
ATOM     12  C   UNL A   1      39.756  21.719  26.539  1.00  0.00     0.031 A 
ATOM     13  C   UNL A   1      38.171  19.913  25.075  1.00  0.00     0.011 A 
ATOM     14  C   UNL A   1      38.499  22.085  26.043  1.00  0.00     0.047 A 
ATOM     15  C   UNL A   1      37.688  21.211  25.329  1.00  0.00     0.007 A 
ATOM     16  N   UNL A   1      37.831  23.285  26.128  1.00  0.00    -0.355 N 
ATOM     17  C   UNL A   1      36.486  21.917  25.000  1.00  0.00     0.009 A 
ATOM     18  C   UNL A   1      36.635  23.228  25.454  1.00  0.00     0.047 A 
ATOM     19  H   UNL A   1      38.166  24.077  26.607  1.00  0.00     0.167 HD
ATOM     20  C   UNL A   1      35.297  21.567  24.327  1.00  0.00     0.031 A 
ATOM     21  C   UNL A   1      35.687  24.230  25.211  1.00  0.00     0.028 A 
ATOM     22  C   UNL A   1      34.332  22.552  24.102  1.00  0.00     0.041 A 
ATOM     23  C   UNL A   1      34.530  23.867  24.517  1.00  0.00     0.022 A 
ATOM     24  Cl  UNL A   1      32.871  22.132  23.290  1.00  0.00    -0.084 Cl
ENDBRANCH   8  10
ENDBRANCH   6   8
ENDBRANCH   5   6
ENDBRANCH   4   5
ENDBRANCH   3   4
ENDBRANCH   2   3
ENDBRANCH   1   2
BRANCH   1  25
ATOM     25  C   UNL A   1      44.968  22.627  24.212  1.00  0.00     0.261 C 
BRANCH  25  26
ATOM     26  O   UNL A   1      44.029  23.641  24.625  1.00  0.00    -0.460 OA
BRANCH  26  27
ATOM     27  C   UNL A   1      44.592  24.810  25.011  1.00  0.00     0.338 C 
ATOM     28  O   UNL A   1      45.645  25.288  24.606  1.00  0.00    -0.246 OA
BRANCH  27  29
ATOM     29  C   UNL A   1      43.696  25.559  25.911  1.00  0.00     0.060 A 
ATOM     30  C   UNL A   1      43.903  26.939  26.022  1.00  0.00     0.016 A 
ATOM     31  C   UNL A   1      42.741  24.926  26.710  1.00  0.00     0.016 A 
ATOM     32  C   UNL A   1      43.203  27.677  26.974  1.00  0.00     0.010 A 
ATOM     33  C   UNL A   1      42.040  25.668  27.669  1.00  0.00     0.010 A 
ATOM     34  C   UNL A   1      42.301  27.038  27.834  1.00  0.00    -0.014 A 
BRANCH  34  35
ATOM     35  C   UNL A   1      41.757  27.781  28.997  1.00  0.00     0.031 A 
ATOM     36  C   UNL A   1      42.467  27.693  30.320  1.00  0.00     0.074 A 
ATOM     37  C   UNL A   1      40.673  28.567  28.868  1.00  0.00     0.049 A 
ATOM     38  N   UNL A   1      42.189  28.285  31.454  1.00  0.00    -0.248 NA
ATOM     39  C   UNL A   1      43.652  26.821  30.372  1.00  0.00     0.031 C 
ATOM     40  C   UNL A   1      39.912  28.761  27.636  1.00  0.00     0.029 A 
ATOM     41  N   UNL A   1      40.028  29.352  29.791  1.00  0.00    -0.354 N 
ATOM     42  C   UNL A   1      43.162  27.860  32.351  1.00  0.00     0.074 A 
ATOM     43  C   UNL A   1      44.019  26.936  31.640  1.00  0.00     0.031 C 
ATOM     44  C   UNL A   1      38.899  29.611  27.879  1.00  0.00     0.029 A 
ATOM     45  C   UNL A   1      38.929  30.002  29.288  1.00  0.00     0.049 A 
ATOM     46  H   UNL A   1      40.327  29.440  30.725  1.00  0.00     0.167 HD
ATOM     47  C   UNL A   1      43.334  28.217  33.646  1.00  0.00     0.037 A 
ATOM     48  C   UNL A   1      38.043  30.813  29.897  1.00  0.00     0.037 A 
ATOM     49  C   UNL A   1      42.486  29.137  34.355  1.00  0.00     0.049 A 
ATOM     50  C   UNL A   1      38.219  31.142  31.356  1.00  0.00     0.074 A 
ATOM     51  C   UNL A   1      42.600  29.586  35.660  1.00  0.00     0.029 A 
ATOM     52  N   UNL A   1      41.358  29.743  33.822  1.00  0.00    -0.354 N 
ATOM     53  N   UNL A   1      39.168  30.772  32.181  1.00  0.00    -0.248 NA
ATOM     54  C   UNL A   1      37.199  32.008  31.967  1.00  0.00     0.031 C 
ATOM     55  C   UNL A   1      41.515  30.427  35.930  1.00  0.00     0.029 A 
ATOM     56  C   UNL A   1      40.751  30.538  34.780  1.00  0.00     0.049 A 
ATOM     57  H   UNL A   1      41.036  29.624  32.899  1.00  0.00     0.167 HD
ATOM     58  C   UNL A   1      38.876  31.379  33.396  1.00  0.00     0.074 A 
ATOM     59  C   UNL A   1      37.668  32.151  33.199  1.00  0.00     0.031 C 
ATOM     60  C   UNL A   1      39.551  31.306  34.569  1.00  0.00     0.037 A 
BRANCH  47  61
ATOM     61  C   UNL A   1      44.478  27.593  34.388  1.00  0.00     0.057 A 
ATOM     62  C   UNL A   1      45.738  28.202  34.450  1.00  0.00     0.134 A 
ATOM     63  C   UNL A   1      44.306  26.388  35.080  1.00  0.00     0.134 A 
ATOM     64  F   UNL A   1      45.971  29.350  33.797  1.00  0.00    -0.206 F 
ATOM     65  C   UNL A   1      46.793  27.622  35.159  1.00  0.00     0.040 A 
ATOM     66  C   UNL A   1      45.346  25.811  35.811  1.00  0.00     0.040 A 
ATOM     67  F   UNL A   1      43.123  25.757  35.065  1.00  0.00    -0.206 F 
ATOM     68  C   UNL A   1      46.597  26.427  35.848  1.00  0.00     0.006 A 
ENDBRANCH  47  61
BRANCH  48  69
ATOM     69  C   UNL A   1      36.902  31.373  29.132  1.00  0.00     0.057 A 
ATOM     70  C   UNL A   1      36.907  32.700  28.688  1.00  0.00     0.134 A 
ATOM     71  C   UNL A   1      35.770  30.601  28.847  1.00  0.00     0.134 A 
ATOM     72  F   UNL A   1      37.954  33.495  28.952  1.00  0.00    -0.206 F 
ATOM     73  C   UNL A   1      35.823  33.244  27.999  1.00  0.00     0.040 A 
ATOM     74  C   UNL A   1      34.687  31.125  28.140  1.00  0.00     0.040 A 
ATOM     75  F   UNL A   1      35.704  29.323  29.248  1.00  0.00    -0.206 F 
ATOM     76  C   UNL A   1      34.710  32.452  27.719  1.00  0.00     0.006 A 
ENDBRANCH  48  69
BRANCH  60  77
ATOM     77  C   UNL A   1      39.019  32.106  35.722  1.00  0.00     0.057 A 
ATOM     78  C   UNL A   1      38.212  31.530  36.711  1.00  0.00     0.134 A 
ATOM     79  C   UNL A   1      39.352  33.459  35.865  1.00  0.00     0.134 A 
ATOM     80  F   UNL A   1      37.847  30.242  36.626  1.00  0.00    -0.206 F 
ATOM     81  C   UNL A   1      37.738  32.277  37.791  1.00  0.00     0.040 A 
ATOM     82  C   UNL A   1      38.904  34.210  36.953  1.00  0.00     0.040 A 
ATOM     83  F   UNL A   1      40.129  34.069  34.957  1.00  0.00    -0.206 F 
ATOM     84  C   UNL A   1      38.091  33.619  37.917  1.00  0.00     0.006 A 
ENDBRANCH  60  77
ENDBRANCH  34  35
ENDBRANCH  27  29
ENDBRANCH  26  27
ENDBRANCH  25  26
ENDBRANCH   1  25
TORSDOF 15
ENDMDL
MODEL 2
REMARK VINA RESULT:     -11.2      2.005      3.305
REMARK SMILES C[C@H](C(=O)OCCOCCOC(=O)c1ccc(-c2c3nc(c(-c4c(F)cccc4F)c4ccc([nH]4)c(-c4c(F)cccc4F)c4nc(c(-c5c(F)cccc5F)c5ccc2[nH]5)C=C4)C=C3)cc1)c1ccc2c(c1)[nH]c1ccc(Cl)cc12
REMARK SMILES IDX 9 1 8 2 7 3 6 4 5 5 3 6 4 7 2 8 1 9 68 10 69 11 73 12 70 13
REMARK SMILES IDX 72 14 71 15 74 16 81 17 75 18 80 20 76 21 78 22 77 23 79 24
REMARK SMILES IDX 10 25 11 26 12 27 13 28 14 29 15 30 67 31 16 32 66 33 17 34
REMARK SMILES IDX 18 35 19 36 60 37 20 38 65 39 59 40 61 41 21 42 64 43 58 44
REMARK SMILES IDX 57 45 22 47 48 48 31 49 47 50 32 51 35 52 46 53 62 54 33 55
REMARK SMILES IDX 34 56 45 58 63 59 36 60 23 61 24 62 29 63 25 64 26 65 28 66
REMARK SMILES IDX 30 67 27 68 49 69 50 70 55 71 51 72 52 73 54 74 56 75 53 76
REMARK SMILES IDX 37 77 38 78 43 79 39 80 40 81 42 82 44 83 41 84
REMARK H PARENT 74 19 61 46 35 57
REMARK Flexibility Score: inf
ROOT
ATOM      1  C   UNL A   1      42.977  20.427  25.821  1.00  0.00     0.202 C 
ENDROOT
BRANCH   1   2
ATOM      2  O   UNL A   1      42.005  20.854  26.773  1.00  0.00    -0.374 OA
BRANCH   2   3
ATOM      3  C   UNL A   1      40.647  20.494  26.510  1.00  0.00     0.202 C 
BRANCH   3   4
ATOM      4  C   UNL A   1      39.691  21.669  26.286  1.00  0.00     0.261 C 
BRANCH   4   5
ATOM      5  O   UNL A   1      38.594  21.281  25.435  1.00  0.00    -0.463 OA
BRANCH   5   6
ATOM      6  C   UNL A   1      37.539  22.137  25.396  1.00  0.00     0.313 C 
ATOM      7  O   UNL A   1      37.540  23.248  25.920  1.00  0.00    -0.252 OA
BRANCH   6   8
ATOM      8  C   UNL A   1      36.360  21.643  24.563  1.00  0.00     0.126 C 
ATOM      9  C   UNL A   1      35.904  20.287  25.112  1.00  0.00     0.025 C 
BRANCH   8  10
ATOM     10  C   UNL A   1      35.189  22.603  24.376  1.00  0.00    -0.032 A 
ATOM     11  C   UNL A   1      35.227  23.543  23.335  1.00  0.00     0.005 A 
ATOM     12  C   UNL A   1      34.053  22.551  25.199  1.00  0.00     0.031 A 
ATOM     13  C   UNL A   1      34.159  24.424  23.102  1.00  0.00     0.011 A 
ATOM     14  C   UNL A   1      33.022  23.474  24.991  1.00  0.00     0.047 A 
ATOM     15  C   UNL A   1      33.040  24.402  23.956  1.00  0.00     0.007 A 
ATOM     16  N   UNL A   1      31.858  23.672  25.697  1.00  0.00    -0.355 N 
ATOM     17  C   UNL A   1      31.828  25.160  24.043  1.00  0.00     0.009 A 
ATOM     18  C   UNL A   1      31.144  24.726  25.179  1.00  0.00     0.047 A 
ATOM     19  H   UNL A   1      31.576  23.131  26.470  1.00  0.00     0.167 HD
ATOM     20  C   UNL A   1      31.267  26.201  23.274  1.00  0.00     0.031 A 
ATOM     21  C   UNL A   1      29.961  25.323  25.631  1.00  0.00     0.028 A 
ATOM     22  C   UNL A   1      30.071  26.788  23.700  1.00  0.00     0.041 A 
ATOM     23  C   UNL A   1      29.438  26.373  24.869  1.00  0.00     0.022 A 
ATOM     24  Cl  UNL A   1      29.372  28.054  22.763  1.00  0.00    -0.084 Cl
ENDBRANCH   8  10
ENDBRANCH   6   8
ENDBRANCH   5   6
ENDBRANCH   4   5
ENDBRANCH   3   4
ENDBRANCH   2   3
ENDBRANCH   1   2
BRANCH   1  25
ATOM     25  C   UNL A   1      43.925  21.527  25.323  1.00  0.00     0.261 C 
BRANCH  25  26
ATOM     26  O   UNL A   1      43.206  22.668  24.815  1.00  0.00    -0.460 OA
BRANCH  26  27
ATOM     27  C   UNL A   1      43.866  23.846  24.918  1.00  0.00     0.338 C 
ATOM     28  O   UNL A   1      44.868  24.184  24.300  1.00  0.00    -0.246 OA
BRANCH  27  29
ATOM     29  C   UNL A   1      43.139  24.787  25.791  1.00  0.00     0.060 A 
ATOM     30  C   UNL A   1      43.715  26.046  25.998  1.00  0.00     0.016 A 
ATOM     31  C   UNL A   1      41.977  24.425  26.475  1.00  0.00     0.016 A 
ATOM     32  C   UNL A   1      43.168  26.919  26.936  1.00  0.00     0.010 A 
ATOM     33  C   UNL A   1      41.430  25.301  27.420  1.00  0.00     0.010 A 
ATOM     34  C   UNL A   1      42.049  26.534  27.686  1.00  0.00    -0.014 A 
BRANCH  34  35
ATOM     35  C   UNL A   1      41.634  27.359  28.846  1.00  0.00     0.031 A 
ATOM     36  C   UNL A   1      42.415  27.265  30.129  1.00  0.00     0.074 A 
ATOM     37  C   UNL A   1      40.607  28.221  28.747  1.00  0.00     0.049 A 
ATOM     38  N   UNL A   1      42.251  27.919  31.252  1.00  0.00    -0.248 NA
ATOM     39  C   UNL A   1      43.532  26.308  30.149  1.00  0.00     0.031 C 
ATOM     40  C   UNL A   1      39.789  28.427  27.554  1.00  0.00     0.029 A 
ATOM     41  N   UNL A   1      40.079  29.087  29.672  1.00  0.00    -0.354 N 
ATOM     42  C   UNL A   1      43.242  27.455  32.108  1.00  0.00     0.074 A 
ATOM     43  C   UNL A   1      43.983  26.441  31.388  1.00  0.00     0.031 C 
ATOM     44  C   UNL A   1      38.859  29.361  27.820  1.00  0.00     0.029 A 
ATOM     45  C   UNL A   1      39.004  29.801  29.207  1.00  0.00     0.049 A 
ATOM     46  H   UNL A   1      40.439  29.187  30.583  1.00  0.00     0.167 HD
ATOM     47  C   UNL A   1      43.518  27.845  33.374  1.00  0.00     0.037 A 
ATOM     48  C   UNL A   1      38.219  30.700  29.832  1.00  0.00     0.037 A 
ATOM     49  C   UNL A   1      42.786  28.854  34.092  1.00  0.00     0.049 A 
ATOM     50  C   UNL A   1      38.507  31.069  31.263  1.00  0.00     0.074 A 
ATOM     51  C   UNL A   1      43.013  29.341  35.369  1.00  0.00     0.029 A 
ATOM     52  N   UNL A   1      41.676  29.524  33.600  1.00  0.00    -0.354 N 
ATOM     53  N   UNL A   1      39.474  30.658  32.046  1.00  0.00    -0.248 NA
ATOM     54  C   UNL A   1      37.594  32.033  31.895  1.00  0.00     0.031 C 
ATOM     55  C   UNL A   1      42.011  30.272  35.666  1.00  0.00     0.029 A 
ATOM     56  C   UNL A   1      41.190  30.399  34.557  1.00  0.00     0.049 A 
ATOM     57  H   UNL A   1      41.292  29.396  32.703  1.00  0.00     0.167 HD
ATOM     58  C   UNL A   1      39.303  31.330  33.250  1.00  0.00     0.074 A 
ATOM     59  C   UNL A   1      38.146  32.186  33.091  1.00  0.00     0.031 C 
ATOM     60  C   UNL A   1      40.040  31.249  34.385  1.00  0.00     0.037 A 
BRANCH  47  61
ATOM     61  C   UNL A   1      44.656  27.163  34.075  1.00  0.00     0.057 A 
ATOM     62  C   UNL A   1      45.958  27.678  34.045  1.00  0.00     0.134 A 
ATOM     63  C   UNL A   1      44.438  25.997  34.820  1.00  0.00     0.134 A 
ATOM     64  F   UNL A   1      46.235  28.783  33.337  1.00  0.00    -0.206 F 
ATOM     65  C   UNL A   1      47.008  27.046  34.715  1.00  0.00     0.040 A 
ATOM     66  C   UNL A   1      45.474  25.369  35.513  1.00  0.00     0.040 A 
ATOM     67  F   UNL A   1      43.213  25.455  34.894  1.00  0.00    -0.206 F 
ATOM     68  C   UNL A   1      46.765  25.892  35.457  1.00  0.00     0.006 A 
ENDBRANCH  47  61
BRANCH  48  69
ATOM     69  C   UNL A   1      37.079  31.318  29.111  1.00  0.00     0.057 A 
ATOM     70  C   UNL A   1      37.148  32.630  28.632  1.00  0.00     0.134 A 
ATOM     71  C   UNL A   1      35.885  30.616  28.904  1.00  0.00     0.134 A 
ATOM     72  F   UNL A   1      38.257  33.360  28.823  1.00  0.00    -0.206 F 
ATOM     73  C   UNL A   1      36.067  33.230  27.985  1.00  0.00     0.040 A 
ATOM     74  C   UNL A   1      34.803  31.195  28.239  1.00  0.00     0.040 A 
ATOM     75  F   UNL A   1      35.756  29.355  29.341  1.00  0.00    -0.206 F 
ATOM     76  C   UNL A   1      34.891  32.509  27.783  1.00  0.00     0.006 A 
ENDBRANCH  48  69
BRANCH  60  77
ATOM     77  C   UNL A   1      39.640  32.130  35.532  1.00  0.00     0.057 A 
ATOM     78  C   UNL A   1      40.154  33.423  35.684  1.00  0.00     0.134 A 
ATOM     79  C   UNL A   1      38.697  31.693  36.471  1.00  0.00     0.134 A 
ATOM     80  F   UNL A   1      41.069  33.896  34.825  1.00  0.00    -0.206 F 
ATOM     81  C   UNL A   1      39.762  34.244  36.742  1.00  0.00     0.040 A 
ATOM     82  C   UNL A   1      38.278  32.514  37.520  1.00  0.00     0.040 A 
ATOM     83  F   UNL A   1      38.158  30.468  36.378  1.00  0.00    -0.206 F 
ATOM     84  C   UNL A   1      38.815  33.791  37.660  1.00  0.00     0.006 A 
ENDBRANCH  60  77
ENDBRANCH  34  35
ENDBRANCH  27  29
ENDBRANCH  26  27
ENDBRANCH  25  26
ENDBRANCH   1  25
TORSDOF 15
ENDMDL
MODEL 3
REMARK VINA RESULT:     -11.2      4.930      7.976
REMARK SMILES C[C@H](C(=O)OCCOCCOC(=O)c1ccc(-c2c3nc(c(-c4c(F)cccc4F)c4ccc([nH]4)c(-c4c(F)cccc4F)c4nc(c(-c5c(F)cccc5F)c5ccc2[nH]5)C=C4)C=C3)cc1)c1ccc2c(c1)[nH]c1ccc(Cl)cc12
REMARK SMILES IDX 9 1 8 2 7 3 6 4 5 5 3 6 4 7 2 8 1 9 68 10 69 11 73 12 70 13
REMARK SMILES IDX 72 14 71 15 74 16 81 17 75 18 80 20 76 21 78 22 77 23 79 24
REMARK SMILES IDX 10 25 11 26 12 27 13 28 14 29 15 30 67 31 16 32 66 33 17 34
REMARK SMILES IDX 18 35 19 36 60 37 20 38 65 39 59 40 61 41 21 42 64 43 58 44
REMARK SMILES IDX 57 45 22 47 48 48 31 49 47 50 32 51 35 52 46 53 62 54 33 55
REMARK SMILES IDX 34 56 45 58 63 59 36 60 23 61 24 62 29 63 25 64 26 65 28 66
REMARK SMILES IDX 30 67 27 68 49 69 50 70 55 71 51 72 52 73 54 74 56 75 53 76
REMARK SMILES IDX 37 77 38 78 43 79 39 80 40 81 42 82 44 83 41 84
REMARK H PARENT 74 19 61 46 35 57
REMARK Flexibility Score: inf
ROOT
ATOM      1  C   UNL A   1      35.877  20.617  25.166  1.00  0.00     0.202 C 
ENDROOT
BRANCH   1   2
ATOM      2  O   UNL A   1      34.867  19.690  24.774  1.00  0.00    -0.374 OA
BRANCH   2   3
ATOM      3  C   UNL A   1      33.541  20.205  24.631  1.00  0.00     0.202 C 
BRANCH   3   4
ATOM      4  C   UNL A   1      32.996  20.955  25.850  1.00  0.00     0.261 C 
BRANCH   4   5
ATOM      5  O   UNL A   1      32.618  22.300  25.496  1.00  0.00    -0.463 OA
BRANCH   5   6
ATOM      6  C   UNL A   1      32.594  23.199  26.515  1.00  0.00     0.313 C 
ATOM      7  O   UNL A   1      32.120  22.964  27.623  1.00  0.00    -0.252 OA
BRANCH   6   8
ATOM      8  C   UNL A   1      33.289  24.521  26.202  1.00  0.00     0.126 C 
ATOM      9  C   UNL A   1      34.609  24.225  25.482  1.00  0.00     0.025 C 
BRANCH   8  10
ATOM     10  C   UNL A   1      32.470  25.583  25.474  1.00  0.00    -0.032 A 
ATOM     11  C   UNL A   1      33.082  26.785  25.092  1.00  0.00     0.005 A 
ATOM     12  C   UNL A   1      31.121  25.375  25.143  1.00  0.00     0.031 A 
ATOM     13  C   UNL A   1      32.379  27.777  24.390  1.00  0.00     0.011 A 
ATOM     14  C   UNL A   1      30.417  26.396  24.494  1.00  0.00     0.047 A 
ATOM     15  C   UNL A   1      31.014  27.587  24.098  1.00  0.00     0.007 A 
ATOM     16  N   UNL A   1      29.092  26.463  24.134  1.00  0.00    -0.355 N 
ATOM     17  C   UNL A   1      30.005  28.377  23.459  1.00  0.00     0.009 A 
ATOM     18  C   UNL A   1      28.802  27.677  23.557  1.00  0.00     0.047 A 
ATOM     19  H   UNL A   1      28.439  25.739  24.271  1.00  0.00     0.167 HD
ATOM     20  C   UNL A   1      30.000  29.642  22.834  1.00  0.00     0.031 A 
ATOM     21  C   UNL A   1      27.577  28.202  23.126  1.00  0.00     0.028 A 
ATOM     22  C   UNL A   1      28.788  30.165  22.375  1.00  0.00     0.041 A 
ATOM     23  C   UNL A   1      27.592  29.469  22.536  1.00  0.00     0.022 A 
ATOM     24  Cl  UNL A   1      28.773  31.705  21.602  1.00  0.00    -0.084 Cl
ENDBRANCH   8  10
ENDBRANCH   6   8
ENDBRANCH   5   6
ENDBRANCH   4   5
ENDBRANCH   3   4
ENDBRANCH   2   3
ENDBRANCH   1   2
BRANCH   1  25
ATOM     25  C   UNL A   1      37.319  20.128  24.975  1.00  0.00     0.261 C 
BRANCH  25  26
ATOM     26  O   UNL A   1      38.273  21.202  25.098  1.00  0.00    -0.460 OA
BRANCH  26  27
ATOM     27  C   UNL A   1      39.281  20.966  25.970  1.00  0.00     0.338 C 
ATOM     28  O   UNL A   1      39.886  19.912  26.127  1.00  0.00    -0.246 OA
BRANCH  27  29
ATOM     29  C   UNL A   1      39.699  22.208  26.647  1.00  0.00     0.060 A 
ATOM     30  C   UNL A   1      39.038  23.389  26.288  1.00  0.00     0.016 A 
ATOM     31  C   UNL A   1      40.775  22.248  27.536  1.00  0.00     0.016 A 
ATOM     32  C   UNL A   1      39.492  24.617  26.765  1.00  0.00     0.010 A 
ATOM     33  C   UNL A   1      41.232  23.482  28.013  1.00  0.00     0.010 A 
ATOM     34  C   UNL A   1      40.620  24.675  27.594  1.00  0.00    -0.014 A 
BRANCH  34  35
ATOM     35  C   UNL A   1      41.238  25.991  27.887  1.00  0.00     0.031 A 
ATOM     36  C   UNL A   1      42.631  26.273  27.393  1.00  0.00     0.074 A 
ATOM     37  C   UNL A   1      40.552  26.945  28.541  1.00  0.00     0.049 A 
ATOM     38  N   UNL A   1      43.347  27.363  27.503  1.00  0.00    -0.248 NA
ATOM     39  C   UNL A   1      43.306  25.180  26.674  1.00  0.00     0.031 C 
ATOM     40  C   UNL A   1      39.189  26.808  29.047  1.00  0.00     0.029 A 
ATOM     41  N   UNL A   1      40.915  28.222  28.888  1.00  0.00    -0.354 N 
ATOM     42  C   UNL A   1      44.553  27.088  26.869  1.00  0.00     0.074 A 
ATOM     43  C   UNL A   1      44.486  25.720  26.405  1.00  0.00     0.031 C 
ATOM     44  C   UNL A   1      38.828  27.958  29.643  1.00  0.00     0.029 A 
ATOM     45  C   UNL A   1      39.943  28.902  29.579  1.00  0.00     0.049 A 
ATOM     46  H   UNL A   1      41.790  28.614  28.662  1.00  0.00     0.167 HD
ATOM     47  C   UNL A   1      45.616  27.906  26.680  1.00  0.00     0.037 A 
ATOM     48  C   UNL A   1      39.956  30.141  30.107  1.00  0.00     0.037 A 
ATOM     49  C   UNL A   1      45.686  29.268  27.138  1.00  0.00     0.049 A 
ATOM     50  C   UNL A   1      41.176  31.007  29.940  1.00  0.00     0.074 A 
ATOM     51  C   UNL A   1      46.709  30.185  26.964  1.00  0.00     0.029 A 
ATOM     52  N   UNL A   1      44.697  29.906  27.870  1.00  0.00    -0.354 N 
ATOM     53  N   UNL A   1      42.291  30.754  29.300  1.00  0.00    -0.248 NA
ATOM     54  C   UNL A   1      41.135  32.337  30.568  1.00  0.00     0.031 C 
ATOM     55  C   UNL A   1      46.357  31.363  27.632  1.00  0.00     0.029 A 
ATOM     56  C   UNL A   1      45.097  31.195  28.181  1.00  0.00     0.049 A 
ATOM     57  H   UNL A   1      43.838  29.502  28.131  1.00  0.00     0.167 HD
ATOM     58  C   UNL A   1      43.072  31.897  29.424  1.00  0.00     0.074 A 
ATOM     59  C   UNL A   1      42.298  32.851  30.190  1.00  0.00     0.031 C 
ATOM     60  C   UNL A   1      44.315  32.136  28.942  1.00  0.00     0.037 A 
BRANCH  47  61
ATOM     61  C   UNL A   1      46.803  27.340  25.958  1.00  0.00     0.057 A 
ATOM     62  C   UNL A   1      47.788  26.599  26.624  1.00  0.00     0.134 A 
ATOM     63  C   UNL A   1      46.943  27.508  24.575  1.00  0.00     0.134 A 
ATOM     64  F   UNL A   1      47.719  26.414  27.951  1.00  0.00    -0.206 F 
ATOM     65  C   UNL A   1      48.881  26.061  25.941  1.00  0.00     0.040 A 
ATOM     66  C   UNL A   1      48.019  26.956  23.878  1.00  0.00     0.040 A 
ATOM     67  F   UNL A   1      46.033  28.203  23.878  1.00  0.00    -0.206 F 
ATOM     68  C   UNL A   1      48.995  26.233  24.563  1.00  0.00     0.006 A 
ENDBRANCH  47  61
BRANCH  48  69
ATOM     69  C   UNL A   1      38.773  30.643  30.850  1.00  0.00     0.057 A 
ATOM     70  C   UNL A   1      38.607  30.379  32.214  1.00  0.00     0.134 A 
ATOM     71  C   UNL A   1      37.771  31.379  30.208  1.00  0.00     0.134 A 
ATOM     72  F   UNL A   1      39.522  29.657  32.878  1.00  0.00    -0.206 F 
ATOM     73  C   UNL A   1      37.481  30.817  32.911  1.00  0.00     0.040 A 
ATOM     74  C   UNL A   1      36.650  31.843  30.897  1.00  0.00     0.040 A 
ATOM     75  F   UNL A   1      37.872  31.663  28.901  1.00  0.00    -0.206 F 
ATOM     76  C   UNL A   1      36.500  31.556  32.251  1.00  0.00     0.006 A 
ENDBRANCH  48  69
BRANCH  60  77
ATOM     77  C   UNL A   1      44.906  33.492  29.200  1.00  0.00     0.057 A 
ATOM     78  C   UNL A   1      45.725  33.742  30.308  1.00  0.00     0.134 A 
ATOM     79  C   UNL A   1      44.685  34.547  28.306  1.00  0.00     0.134 A 
ATOM     80  F   UNL A   1      45.966  32.776  31.207  1.00  0.00    -0.206 F 
ATOM     81  C   UNL A   1      46.287  35.000  30.529  1.00  0.00     0.040 A 
ATOM     82  C   UNL A   1      45.261  35.803  28.504  1.00  0.00     0.040 A 
ATOM     83  F   UNL A   1      43.917  34.372  27.220  1.00  0.00    -0.206 F 
ATOM     84  C   UNL A   1      46.061  36.033  29.621  1.00  0.00     0.006 A 
ENDBRANCH  60  77
ENDBRANCH  34  35
ENDBRANCH  27  29
ENDBRANCH  26  27
ENDBRANCH  25  26
ENDBRANCH   1  25
TORSDOF 15
ENDMDL
