MODEL 1
REMARK VINA RESULT:     -10.1      0.000      0.000
REMARK SMILES CC[C@H]1CC[C@](O)([C@H](F)C(=O)OCCOCCOC(=O)c2ccc(-c3c4nc(c(-c5c(F)cccc5F)c5ccc([nH]5)c(-c5c(F)cccc5F)c5nc(c(-c6c(F)cccc6F)c6ccc3[nH]6)C=C5)C=C4)cc2)CC1
REMARK SMILES IDX 15 1 14 2 13 3 12 4 10 5 11 6 8 7 9 8 6 9 3 10 4 11 76 12
REMARK SMILES IDX 5 13 75 14 2 15 1 16 7 17 16 19 17 20 18 21 19 22 20 23
REMARK SMILES IDX 21 24 22 25 74 26 23 27 73 28 24 29 25 30 26 31 67 32 27 33
REMARK SMILES IDX 72 34 66 35 68 36 28 37 71 38 65 39 64 40 29 42 55 43 38 44
REMARK SMILES IDX 54 45 39 46 42 47 53 48 69 49 40 50 41 51 52 53 70 54 43 55
REMARK SMILES IDX 30 56 31 57 36 58 32 59 33 60 35 61 37 62 34 63 56 64 57 65
REMARK SMILES IDX 62 66 58 67 59 68 61 69 63 70 60 71 44 72 45 73 50 74 46 75
REMARK SMILES IDX 47 76 49 77 51 78 48 79
REMARK H PARENT 7 18 68 41 42 52
REMARK Flexibility Score: inf
ROOT
ATOM      1  O   UNL A   1      42.170  21.191  27.384  1.00  0.00    -0.374 OA
ENDROOT
BRANCH   1   2
ATOM      2  C   UNL A   1      40.752  21.250  27.454  1.00  0.00     0.202 C 
BRANCH   2   3
ATOM      3  C   UNL A   1      39.991  21.445  26.144  1.00  0.00     0.261 C 
BRANCH   3   4
ATOM      4  O   UNL A   1      38.580  21.665  26.309  1.00  0.00    -0.461 OA
BRANCH   4   5
ATOM      5  C   UNL A   1      38.095  22.843  25.811  1.00  0.00     0.343 C 
ATOM      6  O   UNL A   1      38.481  23.953  26.159  1.00  0.00    -0.249 OA
BRANCH   5   7
ATOM      7  C   UNL A   1      37.018  22.614  24.770  1.00  0.00     0.307 C 
ATOM      8  F   UNL A   1      37.344  21.563  23.946  1.00  0.00    -0.232 F 
BRANCH   7   9
ATOM      9  C   UNL A   1      35.581  22.380  25.312  1.00  0.00     0.107 C 
ATOM     10  C   UNL A   1      33.624  24.483  24.299  1.00  0.00    -0.011 C 
ATOM     11  C   UNL A   1      33.950  23.226  23.472  1.00  0.00     0.006 C 
ATOM     12  C   UNL A   1      34.612  24.752  25.444  1.00  0.00     0.006 C 
ATOM     13  C   UNL A   1      34.519  22.044  24.253  1.00  0.00     0.039 C 
ATOM     14  C   UNL A   1      35.067  23.517  26.207  1.00  0.00     0.039 C 
BRANCH  10  15
ATOM     15  C   UNL A   1      32.153  24.465  24.756  1.00  0.00    -0.000 C 
ATOM     16  C   UNL A   1      31.943  25.084  26.132  1.00  0.00     0.004 C 
ENDBRANCH  10  15
BRANCH   9  17
ATOM     17  O   UNL A   1      35.682  21.194  26.144  1.00  0.00    -0.386 OA
ATOM     18  H   UNL A   1      35.516  20.405  25.605  1.00  0.00     0.211 HD
ENDBRANCH   9  17
ENDBRANCH   7   9
ENDBRANCH   5   7
ENDBRANCH   4   5
ENDBRANCH   3   4
ENDBRANCH   2   3
ENDBRANCH   1   2
BRANCH   1  19
ATOM     19  C   UNL A   1      42.772  20.887  26.129  1.00  0.00     0.202 C 
BRANCH  19  20
ATOM     20  C   UNL A   1      43.800  21.880  25.571  1.00  0.00     0.261 C 
BRANCH  20  21
ATOM     21  O   UNL A   1      43.218  22.981  24.849  1.00  0.00    -0.460 OA
BRANCH  21  22
ATOM     22  C   UNL A   1      43.868  24.159  24.996  1.00  0.00     0.338 C 
ATOM     23  O   UNL A   1      44.940  24.482  24.503  1.00  0.00    -0.246 OA
BRANCH  22  24
ATOM     24  C   UNL A   1      43.061  25.120  25.767  1.00  0.00     0.060 A 
ATOM     25  C   UNL A   1      43.518  26.441  25.856  1.00  0.00     0.016 A 
ATOM     26  C   UNL A   1      41.988  24.685  26.546  1.00  0.00     0.016 A 
ATOM     27  C   UNL A   1      42.940  27.318  26.774  1.00  0.00     0.010 A 
ATOM     28  C   UNL A   1      41.417  25.563  27.473  1.00  0.00     0.010 A 
ATOM     29  C   UNL A   1      41.921  26.867  27.622  1.00  0.00    -0.014 A 
BRANCH  29  30
ATOM     30  C   UNL A   1      41.502  27.701  28.777  1.00  0.00     0.031 A 
ATOM     31  C   UNL A   1      42.270  27.598  30.067  1.00  0.00     0.074 A 
ATOM     32  C   UNL A   1      40.466  28.551  28.676  1.00  0.00     0.049 A 
ATOM     33  N   UNL A   1      42.046  28.184  31.216  1.00  0.00    -0.248 NA
ATOM     34  C   UNL A   1      43.448  26.716  30.061  1.00  0.00     0.031 C 
ATOM     35  C   UNL A   1      39.673  28.779  27.471  1.00  0.00     0.029 A 
ATOM     36  N   UNL A   1      39.901  29.379  29.615  1.00  0.00    -0.354 N 
ATOM     37  C   UNL A   1      43.051  27.743  32.067  1.00  0.00     0.074 A 
ATOM     38  C   UNL A   1      43.872  26.820  31.312  1.00  0.00     0.031 C 
ATOM     39  C   UNL A   1      38.710  29.676  27.748  1.00  0.00     0.029 A 
ATOM     40  C   UNL A   1      38.804  30.062  29.154  1.00  0.00     0.049 A 
ATOM     41  H   UNL A   1      40.251  29.472  30.530  1.00  0.00     0.167 HD
ATOM     42  C   UNL A   1      43.274  28.078  33.361  1.00  0.00     0.037 A 
ATOM     43  C   UNL A   1      37.956  30.884  29.804  1.00  0.00     0.037 A 
ATOM     44  C   UNL A   1      42.459  28.992  34.116  1.00  0.00     0.049 A 
ATOM     45  C   UNL A   1      38.179  31.179  31.263  1.00  0.00     0.074 A 
ATOM     46  C   UNL A   1      42.610  29.399  35.430  1.00  0.00     0.029 A 
ATOM     47  N   UNL A   1      41.338  29.637  33.622  1.00  0.00    -0.354 N 
ATOM     48  N   UNL A   1      39.137  30.764  32.056  1.00  0.00    -0.248 NA
ATOM     49  C   UNL A   1      37.199  32.059  31.919  1.00  0.00     0.031 C 
ATOM     50  C   UNL A   1      41.556  30.264  35.743  1.00  0.00     0.029 A 
ATOM     51  C   UNL A   1      40.773  30.425  34.612  1.00  0.00     0.049 A 
ATOM     52  H   UNL A   1      40.993  29.550  32.705  1.00  0.00     0.167 HD
ATOM     53  C   UNL A   1      38.891  31.349  33.291  1.00  0.00     0.074 A 
ATOM     54  C   UNL A   1      37.698  32.156  33.143  1.00  0.00     0.031 C 
ATOM     55  C   UNL A   1      39.592  31.231  34.445  1.00  0.00     0.037 A 
BRANCH  42  56
ATOM     56  C   UNL A   1      44.440  27.434  34.048  1.00  0.00     0.057 A 
ATOM     57  C   UNL A   1      44.328  26.187  34.676  1.00  0.00     0.134 A 
ATOM     58  C   UNL A   1      45.697  28.051  34.051  1.00  0.00     0.134 A 
ATOM     59  F   UNL A   1      43.148  25.551  34.718  1.00  0.00    -0.206 F 
ATOM     60  C   UNL A   1      45.424  25.584  35.298  1.00  0.00     0.040 A 
ATOM     61  C   UNL A   1      46.804  27.448  34.651  1.00  0.00     0.040 A 
ATOM     62  F   UNL A   1      45.872  29.244  33.463  1.00  0.00    -0.206 F 
ATOM     63  C   UNL A   1      46.667  26.212  35.281  1.00  0.00     0.006 A 
ENDBRANCH  42  56
BRANCH  43  64
ATOM     64  C   UNL A   1      36.801  31.475  29.087  1.00  0.00     0.057 A 
ATOM     65  C   UNL A   1      35.675  30.707  28.768  1.00  0.00     0.134 A 
ATOM     66  C   UNL A   1      36.807  32.814  28.678  1.00  0.00     0.134 A 
ATOM     67  F   UNL A   1      35.623  29.411  29.111  1.00  0.00    -0.206 F 
ATOM     68  C   UNL A   1      34.602  31.245  28.055  1.00  0.00     0.040 A 
ATOM     69  C   UNL A   1      35.732  33.371  27.984  1.00  0.00     0.040 A 
ATOM     70  F   UNL A   1      37.858  33.601  28.952  1.00  0.00    -0.206 F 
ATOM     71  C   UNL A   1      34.629  32.583  27.664  1.00  0.00     0.006 A 
ENDBRANCH  43  64
BRANCH  55  72
ATOM     72  C   UNL A   1      39.111  32.018  35.627  1.00  0.00     0.057 A 
ATOM     73  C   UNL A   1      38.297  31.445  36.612  1.00  0.00     0.134 A 
ATOM     74  C   UNL A   1      39.505  33.349  35.805  1.00  0.00     0.134 A 
ATOM     75  F   UNL A   1      37.875  30.177  36.493  1.00  0.00    -0.206 F 
ATOM     76  C   UNL A   1      37.877  32.177  37.726  1.00  0.00     0.040 A 
ATOM     77  C   UNL A   1      39.110  34.084  36.924  1.00  0.00     0.040 A 
ATOM     78  F   UNL A   1      40.291  33.953  34.901  1.00  0.00    -0.206 F 
ATOM     79  C   UNL A   1      38.290  33.497  37.886  1.00  0.00     0.006 A 
ENDBRANCH  55  72
ENDBRANCH  29  30
ENDBRANCH  22  24
ENDBRANCH  21  22
ENDBRANCH  20  21
ENDBRANCH  19  20
ENDBRANCH   1  19
TORSDOF 17
ENDMDL
MODEL 2
REMARK VINA RESULT:     -10.1      0.529      1.526
REMARK SMILES CC[C@H]1CC[C@](O)([C@H](F)C(=O)OCCOCCOC(=O)c2ccc(-c3c4nc(c(-c5c(F)cccc5F)c5ccc([nH]5)c(-c5c(F)cccc5F)c5nc(c(-c6c(F)cccc6F)c6ccc3[nH]6)C=C5)C=C4)cc2)CC1
REMARK SMILES IDX 15 1 14 2 13 3 12 4 10 5 11 6 8 7 9 8 6 9 3 10 4 11 76 12
REMARK SMILES IDX 5 13 75 14 2 15 1 16 7 17 16 19 17 20 18 21 19 22 20 23
REMARK SMILES IDX 21 24 22 25 74 26 23 27 73 28 24 29 25 30 26 31 67 32 27 33
REMARK SMILES IDX 72 34 66 35 68 36 28 37 71 38 65 39 64 40 29 42 55 43 38 44
REMARK SMILES IDX 54 45 39 46 42 47 53 48 69 49 40 50 41 51 52 53 70 54 43 55
REMARK SMILES IDX 30 56 31 57 36 58 32 59 33 60 35 61 37 62 34 63 56 64 57 65
REMARK SMILES IDX 62 66 58 67 59 68 61 69 63 70 60 71 44 72 45 73 50 74 46 75
REMARK SMILES IDX 47 76 49 77 51 78 48 79
REMARK H PARENT 7 18 68 41 42 52
REMARK Flexibility Score: inf
ROOT
ATOM      1  O   UNL A   1      41.677  20.928  27.333  1.00  0.00    -0.374 OA
ENDROOT
BRANCH   1   2
ATOM      2  C   UNL A   1      40.531  21.766  27.350  1.00  0.00     0.202 C 
BRANCH   2   3
ATOM      3  C   UNL A   1      39.673  21.812  26.087  1.00  0.00     0.261 C 
BRANCH   3   4
ATOM      4  O   UNL A   1      38.374  21.214  26.232  1.00  0.00    -0.461 OA
BRANCH   4   5
ATOM      5  C   UNL A   1      37.708  20.937  25.070  1.00  0.00     0.343 C 
ATOM      6  O   UNL A   1      37.766  19.867  24.477  1.00  0.00    -0.249 OA
BRANCH   5   7
ATOM      7  C   UNL A   1      36.882  22.116  24.600  1.00  0.00     0.307 C 
ATOM      8  F   UNL A   1      36.857  22.186  23.227  1.00  0.00    -0.232 F 
BRANCH   7   9
ATOM      9  C   UNL A   1      35.418  22.176  25.117  1.00  0.00     0.107 C 
ATOM     10  C   UNL A   1      33.841  24.433  23.815  1.00  0.00    -0.011 C 
ATOM     11  C   UNL A   1      33.972  23.054  23.143  1.00  0.00     0.006 C 
ATOM     12  C   UNL A   1      34.841  24.671  24.955  1.00  0.00     0.006 C 
ATOM     13  C   UNL A   1      34.332  21.893  24.067  1.00  0.00     0.039 C 
ATOM     14  C   UNL A   1      35.081  23.474  25.864  1.00  0.00     0.039 C 
BRANCH  10  15
ATOM     15  C   UNL A   1      32.379  24.699  24.222  1.00  0.00    -0.000 C 
ATOM     16  C   UNL A   1      31.419  24.719  23.038  1.00  0.00     0.004 C 
ENDBRANCH  10  15
BRANCH   9  17
ATOM     17  O   UNL A   1      35.314  21.091  26.077  1.00  0.00    -0.386 OA
ATOM     18  H   UNL A   1      35.617  21.397  26.945  1.00  0.00     0.211 HD
ENDBRANCH   9  17
ENDBRANCH   7   9
ENDBRANCH   5   7
ENDBRANCH   4   5
ENDBRANCH   3   4
ENDBRANCH   2   3
ENDBRANCH   1   2
BRANCH   1  19
ATOM     19  C   UNL A   1      42.339  20.715  26.090  1.00  0.00     0.202 C 
BRANCH  19  20
ATOM     20  C   UNL A   1      43.403  21.735  25.663  1.00  0.00     0.261 C 
BRANCH  20  21
ATOM     21  O   UNL A   1      42.884  22.833  24.889  1.00  0.00    -0.460 OA
BRANCH  21  22
ATOM     22  C   UNL A   1      43.611  23.973  24.969  1.00  0.00     0.338 C 
ATOM     23  O   UNL A   1      44.683  24.209  24.429  1.00  0.00    -0.246 OA
BRANCH  22  24
ATOM     24  C   UNL A   1      42.893  25.010  25.728  1.00  0.00     0.060 A 
ATOM     25  C   UNL A   1      43.527  26.246  25.917  1.00  0.00     0.016 A 
ATOM     26  C   UNL A   1      41.712  24.707  26.406  1.00  0.00     0.016 A 
ATOM     27  C   UNL A   1      43.011  27.161  26.834  1.00  0.00     0.010 A 
ATOM     28  C   UNL A   1      41.203  25.622  27.334  1.00  0.00     0.010 A 
ATOM     29  C   UNL A   1      41.875  26.832  27.584  1.00  0.00    -0.014 A 
BRANCH  29  30
ATOM     30  C   UNL A   1      41.492  27.672  28.746  1.00  0.00     0.031 A 
ATOM     31  C   UNL A   1      42.274  27.546  30.026  1.00  0.00     0.074 A 
ATOM     32  C   UNL A   1      40.476  28.548  28.661  1.00  0.00     0.049 A 
ATOM     33  N   UNL A   1      42.080  28.134  31.179  1.00  0.00    -0.248 NA
ATOM     34  C   UNL A   1      43.430  26.636  30.002  1.00  0.00     0.031 C 
ATOM     35  C   UNL A   1      39.673  28.798  27.468  1.00  0.00     0.029 A 
ATOM     36  N   UNL A   1      39.944  29.385  29.610  1.00  0.00    -0.354 N 
ATOM     37  C   UNL A   1      43.085  27.665  32.016  1.00  0.00     0.074 A 
ATOM     38  C   UNL A   1      43.873  26.725  31.247  1.00  0.00     0.031 C 
ATOM     39  C   UNL A   1      38.736  29.718  27.760  1.00  0.00     0.029 A 
ATOM     40  C   UNL A   1      38.858  30.096  29.166  1.00  0.00     0.049 A 
ATOM     41  H   UNL A   1      40.308  29.467  30.521  1.00  0.00     0.167 HD
ATOM     42  C   UNL A   1      43.333  27.990  33.307  1.00  0.00     0.037 A 
ATOM     43  C   UNL A   1      38.040  30.937  29.830  1.00  0.00     0.037 A 
ATOM     44  C   UNL A   1      42.551  28.922  34.075  1.00  0.00     0.049 A 
ATOM     45  C   UNL A   1      38.289  31.223  31.286  1.00  0.00     0.074 A 
ATOM     46  C   UNL A   1      42.730  29.321  35.389  1.00  0.00     0.029 A 
ATOM     47  N   UNL A   1      41.439  29.596  33.599  1.00  0.00    -0.354 N 
ATOM     48  N   UNL A   1      39.246  30.781  32.065  1.00  0.00    -0.248 NA
ATOM     49  C   UNL A   1      37.339  32.123  31.958  1.00  0.00     0.031 C 
ATOM     50  C   UNL A   1      41.701  30.210  35.718  1.00  0.00     0.029 A 
ATOM     51  C   UNL A   1      40.907  30.394  34.598  1.00  0.00     0.049 A 
ATOM     52  H   UNL A   1      41.080  29.520  32.686  1.00  0.00     0.167 HD
ATOM     53  C   UNL A   1      39.031  31.369  33.306  1.00  0.00     0.074 A 
ATOM     54  C   UNL A   1      37.857  32.205  33.175  1.00  0.00     0.031 C 
ATOM     55  C   UNL A   1      39.744  31.229  34.449  1.00  0.00     0.037 A 
BRANCH  42  56
ATOM     56  C   UNL A   1      44.492  27.316  33.977  1.00  0.00     0.057 A 
ATOM     57  C   UNL A   1      45.772  27.886  33.984  1.00  0.00     0.134 A 
ATOM     58  C   UNL A   1      44.319  26.102  34.654  1.00  0.00     0.134 A 
ATOM     59  F   UNL A   1      46.005  29.040  33.343  1.00  0.00    -0.206 F 
ATOM     60  C   UNL A   1      46.843  27.262  34.627  1.00  0.00     0.040 A 
ATOM     61  C   UNL A   1      45.377  25.480  35.318  1.00  0.00     0.040 A 
ATOM     62  F   UNL A   1      43.117  25.508  34.689  1.00  0.00    -0.206 F 
ATOM     63  C   UNL A   1      46.646  26.059  35.302  1.00  0.00     0.006 A 
ENDBRANCH  42  56
BRANCH  43  64
ATOM     64  C   UNL A   1      36.890  31.559  29.129  1.00  0.00     0.057 A 
ATOM     65  C   UNL A   1      35.720  30.835  28.873  1.00  0.00     0.134 A 
ATOM     66  C   UNL A   1      36.944  32.882  28.676  1.00  0.00     0.134 A 
ATOM     67  F   UNL A   1      35.619  29.555  29.260  1.00  0.00    -0.206 F 
ATOM     68  C   UNL A   1      34.650  31.399  28.175  1.00  0.00     0.040 A 
ATOM     69  C   UNL A   1      35.873  33.466  27.997  1.00  0.00     0.040 A 
ATOM     70  F   UNL A   1      38.038  33.627  28.890  1.00  0.00    -0.206 F 
ATOM     71  C   UNL A   1      34.725  32.721  27.739  1.00  0.00     0.006 A 
ENDBRANCH  43  64
BRANCH  55  72
ATOM     72  C   UNL A   1      39.298  32.024  35.640  1.00  0.00     0.057 A 
ATOM     73  C   UNL A   1      39.731  33.338  35.854  1.00  0.00     0.134 A 
ATOM     74  C   UNL A   1      38.389  31.483  36.557  1.00  0.00     0.134 A 
ATOM     75  F   UNL A   1      40.612  33.909  35.018  1.00  0.00    -0.206 F 
ATOM     76  C   UNL A   1      39.287  34.081  36.950  1.00  0.00     0.040 A 
ATOM     77  C   UNL A   1      37.922  32.223  37.644  1.00  0.00     0.040 A 
ATOM     78  F   UNL A   1      37.930  30.232  36.404  1.00  0.00    -0.206 F 
ATOM     79  C   UNL A   1      38.375  33.526  37.845  1.00  0.00     0.006 A 
ENDBRANCH  55  72
ENDBRANCH  29  30
ENDBRANCH  22  24
ENDBRANCH  21  22
ENDBRANCH  20  21
ENDBRANCH  19  20
ENDBRANCH   1  19
TORSDOF 17
ENDMDL
MODEL 3
REMARK VINA RESULT:     -10.0      4.675      9.938
REMARK SMILES CC[C@H]1CC[C@](O)([C@H](F)C(=O)OCCOCCOC(=O)c2ccc(-c3c4nc(c(-c5c(F)cccc5F)c5ccc([nH]5)c(-c5c(F)cccc5F)c5nc(c(-c6c(F)cccc6F)c6ccc3[nH]6)C=C5)C=C4)cc2)CC1
REMARK SMILES IDX 15 1 14 2 13 3 12 4 10 5 11 6 8 7 9 8 6 9 3 10 4 11 76 12
REMARK SMILES IDX 5 13 75 14 2 15 1 16 7 17 16 19 17 20 18 21 19 22 20 23
REMARK SMILES IDX 21 24 22 25 74 26 23 27 73 28 24 29 25 30 26 31 67 32 27 33
REMARK SMILES IDX 72 34 66 35 68 36 28 37 71 38 65 39 64 40 29 42 55 43 38 44
REMARK SMILES IDX 54 45 39 46 42 47 53 48 69 49 40 50 41 51 52 53 70 54 43 55
REMARK SMILES IDX 30 56 31 57 36 58 32 59 33 60 35 61 37 62 34 63 56 64 57 65
REMARK SMILES IDX 62 66 58 67 59 68 61 69 63 70 60 71 44 72 45 73 50 74 46 75
REMARK SMILES IDX 47 76 49 77 51 78 48 79
REMARK H PARENT 7 18 68 41 42 52
REMARK Flexibility Score: inf
ROOT
ATOM      1  O   UNL A   1      33.891  34.533  28.961  1.00  0.00    -0.374 OA
ENDROOT
BRANCH   1   2
ATOM      2  C   UNL A   1      33.379  33.454  28.192  1.00  0.00     0.202 C 
BRANCH   2   3
ATOM      3  C   UNL A   1      34.249  32.205  28.065  1.00  0.00     0.261 C 
BRANCH   3   4
ATOM      4  O   UNL A   1      33.533  31.026  27.659  1.00  0.00    -0.461 OA
BRANCH   4   5
ATOM      5  C   UNL A   1      34.300  29.933  27.362  1.00  0.00     0.343 C 
ATOM      6  O   UNL A   1      35.521  29.946  27.276  1.00  0.00    -0.249 OA
BRANCH   5   7
ATOM      7  C   UNL A   1      33.454  28.694  27.151  1.00  0.00     0.307 C 
ATOM      8  F   UNL A   1      32.303  28.747  27.902  1.00  0.00    -0.232 F 
BRANCH   7   9
ATOM      9  C   UNL A   1      33.061  28.375  25.682  1.00  0.00     0.107 C 
ATOM     10  C   UNL A   1      31.814  25.609  25.411  1.00  0.00    -0.011 C 
ATOM     11  C   UNL A   1      30.968  26.837  25.793  1.00  0.00     0.006 C 
ATOM     12  C   UNL A   1      33.328  25.826  25.545  1.00  0.00     0.006 C 
ATOM     13  C   UNL A   1      31.557  28.195  25.421  1.00  0.00     0.039 C 
ATOM     14  C   UNL A   1      33.829  27.187  25.084  1.00  0.00     0.039 C 
BRANCH  10  15
ATOM     15  C   UNL A   1      31.396  25.074  24.027  1.00  0.00    -0.000 C 
ATOM     16  C   UNL A   1      29.969  25.446  23.644  1.00  0.00     0.004 C 
ENDBRANCH  10  15
BRANCH   9  17
ATOM     17  O   UNL A   1      33.444  29.555  24.927  1.00  0.00    -0.386 OA
ATOM     18  H   UNL A   1      33.555  30.304  25.531  1.00  0.00     0.211 HD
ENDBRANCH   9  17
ENDBRANCH   7   9
ENDBRANCH   5   7
ENDBRANCH   4   5
ENDBRANCH   3   4
ENDBRANCH   2   3
ENDBRANCH   1   2
BRANCH   1  19
ATOM     19  C   UNL A   1      34.850  34.245  29.975  1.00  0.00     0.202 C 
BRANCH  19  20
ATOM     20  C   UNL A   1      34.327  33.876  31.368  1.00  0.00     0.261 C 
BRANCH  20  21
ATOM     21  O   UNL A   1      34.530  32.496  31.724  1.00  0.00    -0.460 OA
BRANCH  21  22
ATOM     22  C   UNL A   1      35.615  32.267  32.501  1.00  0.00     0.338 C 
ATOM     23  O   UNL A   1      35.810  32.666  33.641  1.00  0.00    -0.246 OA
BRANCH  22  24
ATOM     24  C   UNL A   1      36.554  31.342  31.845  1.00  0.00     0.060 A 
ATOM     25  C   UNL A   1      37.549  30.746  32.630  1.00  0.00     0.016 A 
ATOM     26  C   UNL A   1      36.578  31.219  30.455  1.00  0.00     0.016 A 
ATOM     27  C   UNL A   1      38.609  30.074  32.022  1.00  0.00     0.010 A 
ATOM     28  C   UNL A   1      37.648  30.555  29.846  1.00  0.00     0.010 A 
ATOM     29  C   UNL A   1      38.690  30.020  30.624  1.00  0.00    -0.014 A 
BRANCH  29  30
ATOM     30  C   UNL A   1      39.943  29.558  29.977  1.00  0.00     0.031 A 
ATOM     31  C   UNL A   1      41.080  30.531  29.813  1.00  0.00     0.074 A 
ATOM     32  C   UNL A   1      40.078  28.289  29.558  1.00  0.00     0.049 A 
ATOM     33  N   UNL A   1      42.238  30.364  29.227  1.00  0.00    -0.248 NA
ATOM     34  C   UNL A   1      40.884  31.872  30.387  1.00  0.00     0.031 C 
ATOM     35  C   UNL A   1      39.072  27.239  29.701  1.00  0.00     0.029 A 
ATOM     36  N   UNL A   1      41.123  27.672  28.916  1.00  0.00    -0.354 N 
ATOM     37  C   UNL A   1      42.906  31.574  29.359  1.00  0.00     0.074 A 
ATOM     38  C   UNL A   1      42.017  32.476  30.059  1.00  0.00     0.031 C 
ATOM     39  C   UNL A   1      39.543  26.108  29.147  1.00  0.00     0.029 A 
ATOM     40  C   UNL A   1      40.868  26.364  28.586  1.00  0.00     0.049 A 
ATOM     41  H   UNL A   1      41.973  28.124  28.712  1.00  0.00     0.167 HD
ATOM     42  C   UNL A   1      44.151  31.905  28.940  1.00  0.00     0.037 A 
ATOM     43  C   UNL A   1      41.612  25.483  27.888  1.00  0.00     0.037 A 
ATOM     44  C   UNL A   1      45.038  31.013  28.242  1.00  0.00     0.049 A 
ATOM     45  C   UNL A   1      42.960  25.899  27.364  1.00  0.00     0.074 A 
ATOM     46  C   UNL A   1      46.321  31.256  27.783  1.00  0.00     0.029 A 
ATOM     47  N   UNL A   1      44.730  29.707  27.899  1.00  0.00    -0.354 N 
ATOM     48  N   UNL A   1      43.586  27.043  27.502  1.00  0.00    -0.248 NA
ATOM     49  C   UNL A   1      43.705  24.900  26.583  1.00  0.00     0.031 C 
ATOM     50  C   UNL A   1      46.775  30.106  27.128  1.00  0.00     0.029 A 
ATOM     51  C   UNL A   1      45.790  29.136  27.215  1.00  0.00     0.049 A 
ATOM     52  H   UNL A   1      43.883  29.252  28.109  1.00  0.00     0.167 HD
ATOM     53  C   UNL A   1      44.804  26.892  26.852  1.00  0.00     0.074 A 
ATOM     54  C   UNL A   1      44.834  25.544  26.324  1.00  0.00     0.031 C 
ATOM     55  C   UNL A   1      45.809  27.790  26.706  1.00  0.00     0.037 A 
BRANCH  42  56
ATOM     56  C   UNL A   1      44.621  33.302  29.211  1.00  0.00     0.057 A 
ATOM     57  C   UNL A   1      45.331  33.628  30.374  1.00  0.00     0.134 A 
ATOM     58  C   UNL A   1      44.394  34.326  28.283  1.00  0.00     0.134 A 
ATOM     59  F   UNL A   1      45.569  32.695  31.308  1.00  0.00    -0.206 F 
ATOM     60  C   UNL A   1      45.782  34.928  30.611  1.00  0.00     0.040 A 
ATOM     61  C   UNL A   1      44.859  35.624  28.499  1.00  0.00     0.040 A 
ATOM     62  F   UNL A   1      43.724  34.078  27.147  1.00  0.00    -0.206 F 
ATOM     63  C   UNL A   1      45.552  35.929  29.669  1.00  0.00     0.006 A 
ENDBRANCH  42  56
BRANCH  43  64
ATOM     64  C   UNL A   1      41.091  24.120  27.623  1.00  0.00     0.057 A 
ATOM     65  C   UNL A   1      41.606  23.005  28.294  1.00  0.00     0.134 A 
ATOM     66  C   UNL A   1      40.088  23.897  26.673  1.00  0.00     0.134 A 
ATOM     67  F   UNL A   1      42.587  23.153  29.196  1.00  0.00    -0.206 F 
ATOM     68  C   UNL A   1      41.152  21.713  28.018  1.00  0.00     0.040 A 
ATOM     69  C   UNL A   1      39.609  22.613  26.404  1.00  0.00     0.040 A 
ATOM     70  F   UNL A   1      39.555  24.925  25.995  1.00  0.00    -0.206 F 
ATOM     71  C   UNL A   1      40.147  21.517  27.073  1.00  0.00     0.006 A 
ENDBRANCH  43  64
BRANCH  55  72
ATOM     72  C   UNL A   1      47.039  27.335  25.979  1.00  0.00     0.057 A 
ATOM     73  C   UNL A   1      47.199  27.534  24.603  1.00  0.00     0.134 A 
ATOM     74  C   UNL A   1      48.095  26.733  26.674  1.00  0.00     0.134 A 
ATOM     75  F   UNL A   1      46.218  28.094  23.879  1.00  0.00    -0.206 F 
ATOM     76  C   UNL A   1      48.361  27.134  23.939  1.00  0.00     0.040 A 
ATOM     77  C   UNL A   1      49.270  26.348  26.026  1.00  0.00     0.040 A 
ATOM     78  F   UNL A   1      48.007  26.521  27.996  1.00  0.00    -0.206 F 
ATOM     79  C   UNL A   1      49.402  26.545  24.653  1.00  0.00     0.006 A 
ENDBRANCH  55  72
ENDBRANCH  29  30
ENDBRANCH  22  24
ENDBRANCH  21  22
ENDBRANCH  20  21
ENDBRANCH  19  20
ENDBRANCH   1  19
TORSDOF 17
ENDMDL
