MODEL 1
REMARK VINA RESULT:     -12.8      0.000      0.000
REMARK SMILES Cc1cc(/C=C2/C(=O)NC(=S)N=C2OCCOCCOC(=O)c2ccc(-c3c4nc(c(-c5c(F)cccc5F)c5ccc([nH]5)c(-c5c(F)cccc5F)c5nc(c(-c6c(F)cccc6F)c6ccc3[nH]6)C=C5)C=C4)cc2)c(C)n1-c1cccc(C(=O)[O-])c1
REMARK SMILES IDX 17 1 16 2 15 3 14 4 13 5 5 6 6 7 7 8 8 9 9 10 12 11 10 12
REMARK SMILES IDX 11 14 4 15 1 16 2 17 3 18 79 19 77 20 78 21 80 22 81 23
REMARK SMILES IDX 88 24 82 25 84 26 83 27 85 28 86 29 87 30 18 31 19 32 20 33
REMARK SMILES IDX 21 34 22 35 23 36 24 37 76 38 25 39 75 40 26 41 27 42 28 43
REMARK SMILES IDX 69 44 29 45 74 46 68 47 70 48 30 49 73 50 67 51 66 52 31 54
REMARK SMILES IDX 57 55 40 56 56 57 41 58 44 59 55 60 71 61 42 62 43 63 54 65
REMARK SMILES IDX 72 66 45 67 32 68 33 69 38 70 34 71 35 72 37 73 39 74 36 75
REMARK SMILES IDX 58 76 59 77 64 78 60 79 61 80 63 81 65 82 62 83 46 84 47 85
REMARK SMILES IDX 52 86 48 87 49 88 51 89 53 90 50 91
REMARK H PARENT 9 13 70 53 44 64
REMARK Flexibility Score: inf
ROOT
ATOM      1  O   UNL A   1      34.921  22.838  25.593  1.00  0.00    -0.374 OA
ENDROOT
BRANCH   1   2
ATOM      2  C   UNL A   1      34.252  22.443  26.798  1.00  0.00     0.202 C 
BRANCH   2   3
ATOM      3  C   UNL A   1      33.645  21.010  26.937  1.00  0.00     0.260 C 
BRANCH   3   4
ATOM      4  O   UNL A   1      32.485  20.763  26.107  1.00  0.00    -0.475 OA
BRANCH   4   5
ATOM      5  C   UNL A   1      32.569  19.749  25.231  1.00  0.00     0.229 C 
ATOM      6  C   UNL A   1      32.076  21.300  23.176  1.00  0.00     0.029 C 
ATOM      7  C   UNL A   1      32.332  20.126  23.813  1.00  0.00     0.103 C 
ATOM      8  C   UNL A   1      32.322  18.920  22.909  1.00  0.00     0.262 C 
ATOM      9  O   UNL A   1      32.133  18.966  21.697  1.00  0.00    -0.269 OA
ATOM     10  N   UNL A   1      32.513  17.712  23.523  1.00  0.00    -0.297 N 
ATOM     11  N   UNL A   1      32.779  18.561  25.681  1.00  0.00    -0.184 NA
ATOM     12  C   UNL A   1      32.741  17.494  24.849  1.00  0.00     0.203 C 
ATOM     13  H   UNL A   1      32.483  16.916  22.945  1.00  0.00     0.172 HD
ATOM     14  S   UNL A   1      32.921  15.914  25.377  1.00  0.00    -0.038 S 
BRANCH   6  15
ATOM     15  C   UNL A   1      31.939  22.691  23.547  1.00  0.00    -0.003 A 
ATOM     16  C   UNL A   1      31.033  25.459  25.930  1.00  0.00     0.065 C 
ATOM     17  C   UNL A   1      31.434  24.537  24.840  1.00  0.00     0.020 A 
ATOM     18  C   UNL A   1      31.285  23.154  24.738  1.00  0.00     0.031 A 
ATOM     19  N   UNL A   1      31.993  24.946  23.655  1.00  0.00    -0.318 N 
ATOM     20  C   UNL A   1      32.564  23.826  23.081  1.00  0.00     0.027 A 
ATOM     21  C   UNL A   1      33.733  24.054  22.234  1.00  0.00     0.065 C 
BRANCH  19  22
ATOM     22  C   UNL A   1      32.256  26.243  23.126  1.00  0.00     0.046 A 
ATOM     23  C   UNL A   1      33.497  26.814  23.475  1.00  0.00     0.026 A 
ATOM     24  C   UNL A   1      31.189  27.059  22.733  1.00  0.00     0.036 A 
ATOM     25  C   UNL A   1      33.664  28.197  23.477  1.00  0.00     0.003 A 
ATOM     26  C   UNL A   1      31.368  28.452  22.731  1.00  0.00    -0.001 A 
ATOM     27  C   UNL A   1      32.597  29.015  23.117  1.00  0.00     0.010 A 
BRANCH  26  28
ATOM     28  C   UNL A   1      30.262  29.394  22.423  1.00  0.00     0.072 C 
ATOM     29  O   UNL A   1      29.880  29.707  21.321  1.00  0.00    -0.545 OA
ATOM     30  O   UNL A   1      29.677  29.882  23.534  1.00  0.00    -0.545 OA
ENDBRANCH  26  28
ENDBRANCH  19  22
ENDBRANCH   6  15
ENDBRANCH   4   5
ENDBRANCH   3   4
ENDBRANCH   2   3
ENDBRANCH   1   2
BRANCH   1  31
ATOM     31  C   UNL A   1      35.481  21.905  24.639  1.00  0.00     0.202 C 
BRANCH  31  32
ATOM     32  C   UNL A   1      36.661  20.908  25.063  1.00  0.00     0.261 C 
BRANCH  32  33
ATOM     33  O   UNL A   1      38.122  21.116  24.702  1.00  0.00    -0.460 OA
BRANCH  33  34
ATOM     34  C   UNL A   1      39.033  21.154  25.755  1.00  0.00     0.338 C 
ATOM     35  O   UNL A   1      39.518  20.098  26.169  1.00  0.00    -0.246 OA
BRANCH  34  36
ATOM     36  C   UNL A   1      39.486  22.498  26.495  1.00  0.00     0.060 A 
ATOM     37  C   UNL A   1      38.685  23.617  26.273  1.00  0.00     0.016 A 
ATOM     38  C   UNL A   1      40.609  22.854  27.280  1.00  0.00     0.016 A 
ATOM     39  C   UNL A   1      38.981  24.950  26.792  1.00  0.00     0.010 A 
ATOM     40  C   UNL A   1      40.883  24.260  27.857  1.00  0.00     0.010 A 
ATOM     41  C   UNL A   1      40.060  25.389  27.652  1.00  0.00    -0.014 A 
BRANCH  41  42
ATOM     42  C   UNL A   1      39.987  26.963  28.377  1.00  0.00     0.031 A 
ATOM     43  C   UNL A   1      41.045  27.699  27.645  1.00  0.00     0.074 A 
ATOM     44  C   UNL A   1      39.537  27.805  29.447  1.00  0.00     0.049 A 
ATOM     45  N   UNL A   1      42.251  27.463  28.036  1.00  0.00    -0.248 NA
ATOM     46  C   UNL A   1      40.950  28.328  26.332  1.00  0.00     0.031 C 
ATOM     47  C   UNL A   1      38.709  27.466  30.626  1.00  0.00     0.029 A 
ATOM     48  N   UNL A   1      39.798  29.218  29.801  1.00  0.00    -0.354 N 
ATOM     49  C   UNL A   1      43.103  27.815  27.029  1.00  0.00     0.074 A 
ATOM     50  C   UNL A   1      42.255  28.422  26.014  1.00  0.00     0.031 C 
ATOM     51  C   UNL A   1      38.410  28.555  31.410  1.00  0.00     0.029 A 
ATOM     52  C   UNL A   1      39.060  29.788  30.941  1.00  0.00     0.049 A 
ATOM     53  H   UNL A   1      40.443  29.759  29.291  1.00  0.00     0.167 HD
ATOM     54  C   UNL A   1      44.384  28.012  27.434  1.00  0.00     0.037 A 
ATOM     55  C   UNL A   1      39.053  31.070  31.554  1.00  0.00     0.037 A 
ATOM     56  C   UNL A   1      44.463  29.346  27.968  1.00  0.00     0.049 A 
ATOM     57  C   UNL A   1      40.416  31.586  31.401  1.00  0.00     0.074 A 
ATOM     58  C   UNL A   1      43.941  30.532  27.485  1.00  0.00     0.029 A 
ATOM     59  N   UNL A   1      44.561  29.473  29.337  1.00  0.00    -0.354 N 
ATOM     60  N   UNL A   1      41.378  31.159  32.160  1.00  0.00    -0.248 NA
ATOM     61  C   UNL A   1      40.751  32.714  30.539  1.00  0.00     0.031 C 
ATOM     62  C   UNL A   1      43.236  31.061  28.584  1.00  0.00     0.029 A 
ATOM     63  C   UNL A   1      43.696  30.460  29.750  1.00  0.00     0.049 A 
ATOM     64  H   UNL A   1      45.151  28.946  29.921  1.00  0.00     0.167 HD
ATOM     65  C   UNL A   1      42.483  31.536  31.474  1.00  0.00     0.074 A 
ATOM     66  C   UNL A   1      42.078  32.689  30.688  1.00  0.00     0.031 C 
ATOM     67  C   UNL A   1      43.316  30.524  31.137  1.00  0.00     0.037 A 
BRANCH  54  68
ATOM     68  C   UNL A   1      44.921  26.773  28.149  1.00  0.00     0.057 A 
ATOM     69  C   UNL A   1      45.917  26.021  27.523  1.00  0.00     0.134 A 
ATOM     70  C   UNL A   1      44.354  26.197  29.312  1.00  0.00     0.134 A 
ATOM     71  F   UNL A   1      46.560  26.512  26.454  1.00  0.00    -0.206 F 
ATOM     72  C   UNL A   1      46.261  24.735  27.967  1.00  0.00     0.040 A 
ATOM     73  C   UNL A   1      44.623  24.886  29.709  1.00  0.00     0.040 A 
ATOM     74  F   UNL A   1      43.506  26.883  30.094  1.00  0.00    -0.206 F 
ATOM     75  C   UNL A   1      45.577  24.146  29.029  1.00  0.00     0.006 A 
ENDBRANCH  54  68
BRANCH  55  76
ATOM     76  C   UNL A   1      38.333  32.095  32.562  1.00  0.00     0.057 A 
ATOM     77  C   UNL A   1      37.348  33.066  32.120  1.00  0.00     0.134 A 
ATOM     78  C   UNL A   1      38.224  31.854  33.939  1.00  0.00     0.134 A 
ATOM     79  F   UNL A   1      37.289  33.488  30.849  1.00  0.00    -0.206 F 
ATOM     80  C   UNL A   1      36.319  33.623  32.923  1.00  0.00     0.040 A 
ATOM     81  C   UNL A   1      37.208  32.441  34.766  1.00  0.00     0.040 A 
ATOM     82  F   UNL A   1      39.042  30.977  34.532  1.00  0.00    -0.206 F 
ATOM     83  C   UNL A   1      36.229  33.292  34.256  1.00  0.00     0.006 A 
ENDBRANCH  55  76
BRANCH  67  84
ATOM     84  C   UNL A   1      43.601  29.481  32.205  1.00  0.00     0.057 A 
ATOM     85  C   UNL A   1      42.779  28.395  32.586  1.00  0.00     0.134 A 
ATOM     86  C   UNL A   1      44.758  29.651  32.975  1.00  0.00     0.134 A 
ATOM     87  F   UNL A   1      41.696  28.028  31.888  1.00  0.00    -0.206 F 
ATOM     88  C   UNL A   1      43.049  27.607  33.716  1.00  0.00     0.040 A 
ATOM     89  C   UNL A   1      45.066  28.838  34.070  1.00  0.00     0.040 A 
ATOM     90  F   UNL A   1      45.629  30.626  32.670  1.00  0.00    -0.206 F 
ATOM     91  C   UNL A   1      44.196  27.829  34.463  1.00  0.00     0.006 A 
ENDBRANCH  67  84
ENDBRANCH  41  42
ENDBRANCH  34  36
ENDBRANCH  33  34
ENDBRANCH  32  33
ENDBRANCH  31  32
ENDBRANCH   1  31
TORSDOF 16
ENDMDL
MODEL 2
REMARK VINA RESULT:     -12.8      3.072      8.306
REMARK SMILES Cc1cc(/C=C2/C(=O)NC(=S)N=C2OCCOCCOC(=O)c2ccc(-c3c4nc(c(-c5c(F)cccc5F)c5ccc([nH]5)c(-c5c(F)cccc5F)c5nc(c(-c6c(F)cccc6F)c6ccc3[nH]6)C=C5)C=C4)cc2)c(C)n1-c1cccc(C(=O)[O-])c1
REMARK SMILES IDX 17 1 16 2 15 3 14 4 13 5 5 6 6 7 7 8 8 9 9 10 12 11 10 12
REMARK SMILES IDX 11 14 4 15 1 16 2 17 3 18 79 19 77 20 78 21 80 22 81 23
REMARK SMILES IDX 88 24 82 25 84 26 83 27 85 28 86 29 87 30 18 31 19 32 20 33
REMARK SMILES IDX 21 34 22 35 23 36 24 37 76 38 25 39 75 40 26 41 27 42 28 43
REMARK SMILES IDX 69 44 29 45 74 46 68 47 70 48 30 49 73 50 67 51 66 52 31 54
REMARK SMILES IDX 57 55 40 56 56 57 41 58 44 59 55 60 71 61 42 62 43 63 54 65
REMARK SMILES IDX 72 66 45 67 32 68 33 69 38 70 34 71 35 72 37 73 39 74 36 75
REMARK SMILES IDX 58 76 59 77 64 78 60 79 61 80 63 81 65 82 62 83 46 84 47 85
REMARK SMILES IDX 52 86 48 87 49 88 51 89 53 90 50 91
REMARK H PARENT 9 13 70 53 44 64
REMARK Flexibility Score: inf
ROOT
ATOM      1  O   UNL A   1      32.784  27.763  26.936  1.00  0.00    -0.374 OA
ENDROOT
BRANCH   1   2
ATOM      2  C   UNL A   1      33.784  27.438  25.961  1.00  0.00     0.202 C 
BRANCH   2   3
ATOM      3  C   UNL A   1      33.680  27.987  24.502  1.00  0.00     0.260 C 
BRANCH   3   4
ATOM      4  O   UNL A   1      32.883  27.176  23.607  1.00  0.00    -0.475 OA
BRANCH   4   5
ATOM      5  C   UNL A   1      31.587  27.505  23.480  1.00  0.00     0.229 C 
ATOM      6  C   UNL A   1      30.775  25.362  24.753  1.00  0.00     0.029 C 
ATOM      7  C   UNL A   1      30.634  26.529  24.067  1.00  0.00     0.103 C 
ATOM      8  C   UNL A   1      29.203  26.903  23.779  1.00  0.00     0.262 C 
ATOM      9  O   UNL A   1      28.230  26.250  24.144  1.00  0.00    -0.269 OA
ATOM     10  N   UNL A   1      29.020  28.038  23.036  1.00  0.00    -0.297 N 
ATOM     11  N   UNL A   1      31.284  28.572  22.826  1.00  0.00    -0.184 NA
ATOM     12  C   UNL A   1      29.990  28.871  22.562  1.00  0.00     0.203 C 
ATOM     13  H   UNL A   1      28.090  28.278  22.820  1.00  0.00     0.172 HD
ATOM     14  S   UNL A   1      29.525  30.196  21.647  1.00  0.00    -0.038 S 
BRANCH   6  15
ATOM     15  C   UNL A   1      31.871  24.555  25.242  1.00  0.00    -0.003 A 
ATOM     16  C   UNL A   1      33.468  22.193  27.697  1.00  0.00     0.065 C 
ATOM     17  C   UNL A   1      33.044  23.125  26.625  1.00  0.00     0.020 A 
ATOM     18  C   UNL A   1      31.894  23.908  26.523  1.00  0.00     0.031 A 
ATOM     19  N   UNL A   1      33.806  23.428  25.524  1.00  0.00    -0.318 N 
ATOM     20  C   UNL A   1      32.954  24.000  24.600  1.00  0.00     0.027 A 
ATOM     21  C   UNL A   1      33.296  23.805  23.192  1.00  0.00     0.065 C 
BRANCH  19  22
ATOM     22  C   UNL A   1      35.129  23.049  25.151  1.00  0.00     0.046 A 
ATOM     23  C   UNL A   1      35.282  21.735  24.662  1.00  0.00     0.026 A 
ATOM     24  C   UNL A   1      36.223  23.733  25.693  1.00  0.00     0.036 A 
ATOM     25  C   UNL A   1      36.510  21.085  24.753  1.00  0.00     0.003 A 
ATOM     26  C   UNL A   1      37.460  23.071  25.775  1.00  0.00    -0.001 A 
ATOM     27  C   UNL A   1      37.595  21.749  25.321  1.00  0.00     0.010 A 
BRANCH  26  28
ATOM     28  C   UNL A   1      38.646  23.686  26.424  1.00  0.00     0.072 C 
ATOM     29  O   UNL A   1      38.859  24.869  26.542  1.00  0.00    -0.545 OA
ATOM     30  O   UNL A   1      39.501  22.766  26.911  1.00  0.00    -0.545 OA
ENDBRANCH  26  28
ENDBRANCH  19  22
ENDBRANCH   6  15
ENDBRANCH   4   5
ENDBRANCH   3   4
ENDBRANCH   2   3
ENDBRANCH   1   2
BRANCH   1  31
ATOM     31  C   UNL A   1      31.720  28.718  26.711  1.00  0.00     0.202 C 
BRANCH  31  32
ATOM     32  C   UNL A   1      31.847  30.225  27.236  1.00  0.00     0.261 C 
BRANCH  32  33
ATOM     33  O   UNL A   1      32.818  31.246  26.669  1.00  0.00    -0.460 OA
BRANCH  33  34
ATOM     34  C   UNL A   1      33.689  31.857  27.569  1.00  0.00     0.338 C 
ATOM     35  O   UNL A   1      33.308  32.852  28.192  1.00  0.00    -0.246 OA
BRANCH  34  36
ATOM     36  C   UNL A   1      35.186  31.363  27.838  1.00  0.00     0.060 A 
ATOM     37  C   UNL A   1      35.474  30.053  27.459  1.00  0.00     0.016 A 
ATOM     38  C   UNL A   1      36.307  31.939  28.481  1.00  0.00     0.016 A 
ATOM     39  C   UNL A   1      36.756  29.396  27.698  1.00  0.00     0.010 A 
ATOM     40  C   UNL A   1      37.670  31.244  28.687  1.00  0.00     0.010 A 
ATOM     41  C   UNL A   1      37.971  29.924  28.283  1.00  0.00    -0.014 A 
BRANCH  41  42
ATOM     42  C   UNL A   1      39.445  29.020  28.150  1.00  0.00     0.031 A 
ATOM     43  C   UNL A   1      39.756  28.709  29.565  1.00  0.00     0.074 A 
ATOM     44  C   UNL A   1      40.572  28.612  27.361  1.00  0.00     0.049 A 
ATOM     45  N   UNL A   1      40.288  29.673  30.237  1.00  0.00    -0.248 NA
ATOM     46  C   UNL A   1      39.204  27.637  30.387  1.00  0.00     0.031 C 
ATOM     47  C   UNL A   1      40.901  28.935  25.955  1.00  0.00     0.029 A 
ATOM     48  N   UNL A   1      41.798  27.845  27.670  1.00  0.00    -0.354 N 
ATOM     49  C   UNL A   1      40.096  29.425  31.566  1.00  0.00     0.074 A 
ATOM     50  C   UNL A   1      39.482  28.106  31.617  1.00  0.00     0.031 C 
ATOM     51  C   UNL A   1      42.035  28.301  25.504  1.00  0.00     0.029 A 
ATOM     52  C   UNL A   1      42.704  27.520  26.555  1.00  0.00     0.049 A 
ATOM     53  H   UNL A   1      42.001  27.560  28.590  1.00  0.00     0.167 HD
ATOM     54  C   UNL A   1      40.935  30.111  32.382  1.00  0.00     0.037 A 
ATOM     55  C   UNL A   1      43.938  26.820  26.474  1.00  0.00     0.037 A 
ATOM     56  C   UNL A   1      42.176  29.384  32.426  1.00  0.00     0.049 A 
ATOM     57  C   UNL A   1      44.618  27.076  27.748  1.00  0.00     0.074 A 
ATOM     58  C   UNL A   1      42.410  28.027  32.553  1.00  0.00     0.029 A 
ATOM     59  N   UNL A   1      43.246  29.918  31.740  1.00  0.00    -0.354 N 
ATOM     60  N   UNL A   1      45.204  28.212  27.973  1.00  0.00    -0.248 NA
ATOM     61  C   UNL A   1      44.841  26.045  28.755  1.00  0.00     0.031 C 
ATOM     62  C   UNL A   1      43.273  27.733  31.479  1.00  0.00     0.029 A 
ATOM     63  C   UNL A   1      43.864  28.912  31.036  1.00  0.00     0.049 A 
ATOM     64  H   UNL A   1      43.521  30.863  31.752  1.00  0.00     0.167 HD
ATOM     65  C   UNL A   1      45.337  28.212  29.321  1.00  0.00     0.074 A 
ATOM     66  C   UNL A   1      45.378  26.812  29.707  1.00  0.00     0.031 C 
ATOM     67  C   UNL A   1      44.745  29.253  29.950  1.00  0.00     0.037 A 
BRANCH  54  68
ATOM     68  C   UNL A   1      40.835  31.614  32.122  1.00  0.00     0.057 A 
ATOM     69  C   UNL A   1      40.266  32.424  33.105  1.00  0.00     0.134 A 
ATOM     70  C   UNL A   1      41.086  32.240  30.877  1.00  0.00     0.134 A 
ATOM     71  F   UNL A   1      40.051  31.940  34.337  1.00  0.00    -0.206 F 
ATOM     72  C   UNL A   1      39.880  33.747  32.841  1.00  0.00     0.040 A 
ATOM     73  C   UNL A   1      40.628  33.524  30.575  1.00  0.00     0.040 A 
ATOM     74  F   UNL A   1      41.773  31.621  29.904  1.00  0.00    -0.206 F 
ATOM     75  C   UNL A   1      40.014  34.282  31.560  1.00  0.00     0.006 A 
ENDBRANCH  54  68
BRANCH  55  76
ATOM     76  C   UNL A   1      45.046  26.112  25.549  1.00  0.00     0.057 A 
ATOM     77  C   UNL A   1      46.173  26.833  24.985  1.00  0.00     0.134 A 
ATOM     78  C   UNL A   1      45.293  24.733  25.582  1.00  0.00     0.134 A 
ATOM     79  F   UNL A   1      46.149  28.162  24.812  1.00  0.00    -0.206 F 
ATOM     80  C   UNL A   1      47.421  26.263  24.624  1.00  0.00     0.040 A 
ATOM     81  C   UNL A   1      46.540  24.143  25.184  1.00  0.00     0.040 A 
ATOM     82  F   UNL A   1      44.372  23.899  26.078  1.00  0.00    -0.206 F 
ATOM     83  C   UNL A   1      47.620  24.906  24.744  1.00  0.00     0.006 A 
ENDBRANCH  55  76
BRANCH  67  84
ATOM     84  C   UNL A   1      44.929  30.628  29.331  1.00  0.00     0.057 A 
ATOM     85  C   UNL A   1      44.235  31.173  28.225  1.00  0.00     0.134 A 
ATOM     86  C   UNL A   1      45.964  31.426  29.835  1.00  0.00     0.134 A 
ATOM     87  F   UNL A   1      43.151  30.591  27.693  1.00  0.00    -0.206 F 
ATOM     88  C   UNL A   1      44.618  32.377  27.613  1.00  0.00     0.040 A 
ATOM     89  C   UNL A   1      46.320  32.654  29.268  1.00  0.00     0.040 A 
ATOM     90  F   UNL A   1      46.658  31.022  30.910  1.00  0.00    -0.206 F 
ATOM     91  C   UNL A   1      45.666  33.121  28.135  1.00  0.00     0.006 A 
ENDBRANCH  67  84
ENDBRANCH  41  42
ENDBRANCH  34  36
ENDBRANCH  33  34
ENDBRANCH  32  33
ENDBRANCH  31  32
ENDBRANCH   1  31
TORSDOF 16
ENDMDL
MODEL 3
REMARK VINA RESULT:     -12.8      1.691      2.130
REMARK SMILES Cc1cc(/C=C2/C(=O)NC(=S)N=C2OCCOCCOC(=O)c2ccc(-c3c4nc(c(-c5c(F)cccc5F)c5ccc([nH]5)c(-c5c(F)cccc5F)c5nc(c(-c6c(F)cccc6F)c6ccc3[nH]6)C=C5)C=C4)cc2)c(C)n1-c1cccc(C(=O)[O-])c1
REMARK SMILES IDX 17 1 16 2 15 3 14 4 13 5 5 6 6 7 7 8 8 9 9 10 12 11 10 12
REMARK SMILES IDX 11 14 4 15 1 16 2 17 3 18 79 19 77 20 78 21 80 22 81 23
REMARK SMILES IDX 88 24 82 25 84 26 83 27 85 28 86 29 87 30 18 31 19 32 20 33
REMARK SMILES IDX 21 34 22 35 23 36 24 37 76 38 25 39 75 40 26 41 27 42 28 43
REMARK SMILES IDX 69 44 29 45 74 46 68 47 70 48 30 49 73 50 67 51 66 52 31 54
REMARK SMILES IDX 57 55 40 56 56 57 41 58 44 59 55 60 71 61 42 62 43 63 54 65
REMARK SMILES IDX 72 66 45 67 32 68 33 69 38 70 34 71 35 72 37 73 39 74 36 75
REMARK SMILES IDX 58 76 59 77 64 78 60 79 61 80 63 81 65 82 62 83 46 84 47 85
REMARK SMILES IDX 52 86 48 87 49 88 51 89 53 90 50 91
REMARK H PARENT 9 13 70 53 44 64
REMARK Flexibility Score: inf
ROOT
ATOM      1  O   UNL A   1      35.308  22.741  25.337  1.00  0.00    -0.374 OA
ENDROOT
BRANCH   1   2
ATOM      2  C   UNL A   1      34.292  22.519  26.324  1.00  0.00     0.202 C 
BRANCH   2   3
ATOM      3  C   UNL A   1      33.738  21.081  26.585  1.00  0.00     0.260 C 
BRANCH   3   4
ATOM      4  O   UNL A   1      32.557  20.742  25.820  1.00  0.00    -0.475 OA
BRANCH   4   5
ATOM      5  C   UNL A   1      32.596  19.599  25.115  1.00  0.00     0.229 C 
ATOM      6  C   UNL A   1      32.518  20.854  22.815  1.00  0.00     0.029 C 
ATOM      7  C   UNL A   1      32.554  19.774  23.641  1.00  0.00     0.103 C 
ATOM      8  C   UNL A   1      32.479  18.450  22.924  1.00  0.00     0.262 C 
ATOM      9  O   UNL A   1      32.420  18.325  21.705  1.00  0.00    -0.269 OA
ATOM     10  N   UNL A   1      32.449  17.339  23.724  1.00  0.00    -0.297 N 
ATOM     11  N   UNL A   1      32.603  18.481  25.754  1.00  0.00    -0.184 NA
ATOM     12  C   UNL A   1      32.511  17.308  25.085  1.00  0.00     0.203 C 
ATOM     13  H   UNL A   1      32.374  16.470  23.267  1.00  0.00     0.172 HD
ATOM     14  S   UNL A   1      32.431  15.820  25.852  1.00  0.00    -0.038 S 
BRANCH   6  15
ATOM     15  C   UNL A   1      32.527  22.293  22.964  1.00  0.00    -0.003 A 
ATOM     16  C   UNL A   1      33.213  25.790  21.758  1.00  0.00     0.065 C 
ATOM     17  C   UNL A   1      32.880  24.512  22.431  1.00  0.00     0.020 A 
ATOM     18  C   UNL A   1      33.160  23.200  22.049  1.00  0.00     0.031 A 
ATOM     19  N   UNL A   1      32.257  24.426  23.652  1.00  0.00    -0.318 N 
ATOM     20  C   UNL A   1      31.785  23.132  23.763  1.00  0.00     0.027 A 
ATOM     21  C   UNL A   1      30.581  22.947  24.571  1.00  0.00     0.065 C 
BRANCH  19  22
ATOM     22  C   UNL A   1      31.858  25.425  24.587  1.00  0.00     0.046 A 
ATOM     23  C   UNL A   1      30.640  26.080  24.311  1.00  0.00     0.026 A 
ATOM     24  C   UNL A   1      32.820  26.036  25.399  1.00  0.00     0.036 A 
ATOM     25  C   UNL A   1      30.397  27.359  24.805  1.00  0.00     0.003 A 
ATOM     26  C   UNL A   1      32.564  27.324  25.898  1.00  0.00    -0.001 A 
ATOM     27  C   UNL A   1      31.364  27.985  25.587  1.00  0.00     0.010 A 
BRANCH  26  28
ATOM     28  C   UNL A   1      33.569  28.084  26.685  1.00  0.00     0.072 C 
ATOM     29  O   UNL A   1      34.766  28.043  26.537  1.00  0.00    -0.545 OA
ATOM     30  O   UNL A   1      33.001  28.878  27.613  1.00  0.00    -0.545 OA
ENDBRANCH  26  28
ENDBRANCH  19  22
ENDBRANCH   6  15
ENDBRANCH   4   5
ENDBRANCH   3   4
ENDBRANCH   2   3
ENDBRANCH   1   2
BRANCH   1  31
ATOM     31  C   UNL A   1      36.009  21.678  24.649  1.00  0.00     0.202 C 
BRANCH  31  32
ATOM     32  C   UNL A   1      37.278  20.966  25.318  1.00  0.00     0.261 C 
BRANCH  32  33
ATOM     33  O   UNL A   1      38.713  21.424  25.121  1.00  0.00    -0.460 OA
BRANCH  33  34
ATOM     34  C   UNL A   1      39.484  21.595  26.270  1.00  0.00     0.338 C 
ATOM     35  O   UNL A   1      39.976  20.605  26.816  1.00  0.00    -0.246 OA
BRANCH  34  36
ATOM     36  C   UNL A   1      39.761  23.013  26.956  1.00  0.00     0.060 A 
ATOM     37  C   UNL A   1      38.877  24.037  26.619  1.00  0.00     0.016 A 
ATOM     38  C   UNL A   1      40.791  23.515  27.786  1.00  0.00     0.016 A 
ATOM     39  C   UNL A   1      39.014  25.418  27.076  1.00  0.00     0.010 A 
ATOM     40  C   UNL A   1      40.896  24.969  28.295  1.00  0.00     0.010 A 
ATOM     41  C   UNL A   1      39.989  26.003  27.974  1.00  0.00    -0.014 A 
BRANCH  41  42
ATOM     42  C   UNL A   1      39.723  27.599  28.599  1.00  0.00     0.031 A 
ATOM     43  C   UNL A   1      40.941  28.318  28.160  1.00  0.00     0.074 A 
ATOM     44  C   UNL A   1      38.999  28.471  29.477  1.00  0.00     0.049 A 
ATOM     45  N   UNL A   1      41.994  28.104  28.872  1.00  0.00    -0.248 NA
ATOM     46  C   UNL A   1      41.210  28.905  26.850  1.00  0.00     0.031 C 
ATOM     47  C   UNL A   1      37.880  28.164  30.396  1.00  0.00     0.029 A 
ATOM     48  N   UNL A   1      39.156  29.897  29.843  1.00  0.00    -0.354 N 
ATOM     49  C   UNL A   1      43.090  28.431  28.125  1.00  0.00     0.074 A 
ATOM     50  C   UNL A   1      42.551  28.998  26.897  1.00  0.00     0.031 C 
ATOM     51  C   UNL A   1      37.380  29.276  31.033  1.00  0.00     0.029 A 
ATOM     52  C   UNL A   1      38.136  30.497  30.718  1.00  0.00     0.049 A 
ATOM     53  H   UNL A   1      39.917  30.426  29.510  1.00  0.00     0.167 HD
ATOM     54  C   UNL A   1      44.212  28.650  28.857  1.00  0.00     0.037 A 
ATOM     55  C   UNL A   1      37.963  31.799  31.263  1.00  0.00     0.037 A 
ATOM     56  C   UNL A   1      44.144  30.001  29.348  1.00  0.00     0.049 A 
ATOM     57  C   UNL A   1      39.318  32.319  31.471  1.00  0.00     0.074 A 
ATOM     58  C   UNL A   1      43.776  31.166  28.702  1.00  0.00     0.029 A 
ATOM     59  N   UNL A   1      43.865  30.173  30.687  1.00  0.00    -0.354 N 
ATOM     60  N   UNL A   1      40.035  31.924  32.477  1.00  0.00    -0.248 NA
ATOM     61  C   UNL A   1      39.876  33.422  30.697  1.00  0.00     0.031 C 
ATOM     62  C   UNL A   1      42.798  31.725  29.549  1.00  0.00     0.029 A 
ATOM     63  C   UNL A   1      42.922  31.165  30.816  1.00  0.00     0.049 A 
ATOM     64  H   UNL A   1      44.273  29.669  31.427  1.00  0.00     0.167 HD
ATOM     65  C   UNL A   1      41.286  32.287  32.107  1.00  0.00     0.074 A 
ATOM     66  C   UNL A   1      41.113  33.411  31.203  1.00  0.00     0.031 C 
ATOM     67  C   UNL A   1      42.178  31.271  32.043  1.00  0.00     0.037 A 
BRANCH  54  68
ATOM     68  C   UNL A   1      44.532  27.438  29.732  1.00  0.00     0.057 A 
ATOM     69  C   UNL A   1      44.600  26.181  29.130  1.00  0.00     0.134 A 
ATOM     70  C   UNL A   1      44.567  27.447  31.148  1.00  0.00     0.134 A 
ATOM     71  F   UNL A   1      44.640  26.074  27.794  1.00  0.00    -0.206 F 
ATOM     72  C   UNL A   1      44.606  24.999  29.886  1.00  0.00     0.040 A 
ATOM     73  C   UNL A   1      44.483  26.279  31.908  1.00  0.00     0.040 A 
ATOM     74  F   UNL A   1      44.670  28.590  31.842  1.00  0.00    -0.206 F 
ATOM     75  C   UNL A   1      44.495  25.046  31.275  1.00  0.00     0.006 A 
ENDBRANCH  54  68
BRANCH  55  76
ATOM     76  C   UNL A   1      36.997  32.849  32.003  1.00  0.00     0.057 A 
ATOM     77  C   UNL A   1      36.183  33.808  31.278  1.00  0.00     0.134 A 
ATOM     78  C   UNL A   1      36.505  32.646  33.300  1.00  0.00     0.134 A 
ATOM     79  F   UNL A   1      36.485  34.195  30.031  1.00  0.00    -0.206 F 
ATOM     80  C   UNL A   1      34.973  34.386  31.745  1.00  0.00     0.040 A 
ATOM     81  C   UNL A   1      35.303  33.254  33.794  1.00  0.00     0.040 A 
ATOM     82  F   UNL A   1      37.118  31.786  34.121  1.00  0.00    -0.206 F 
ATOM     83  C   UNL A   1      34.512  34.091  33.008  1.00  0.00     0.006 A 
ENDBRANCH  55  76
BRANCH  67  84
ATOM     84  C   UNL A   1      42.159  30.265  33.182  1.00  0.00     0.057 A 
ATOM     85  C   UNL A   1      41.602  28.966  33.171  1.00  0.00     0.134 A 
ATOM     86  C   UNL A   1      42.661  30.688  34.420  1.00  0.00     0.134 A 
ATOM     87  F   UNL A   1      41.179  28.369  32.048  1.00  0.00    -0.206 F 
ATOM     88  C   UNL A   1      41.468  28.194  34.336  1.00  0.00     0.040 A 
ATOM     89  C   UNL A   1      42.582  29.906  35.576  1.00  0.00     0.040 A 
ATOM     90  F   UNL A   1      43.250  31.889  34.529  1.00  0.00    -0.206 F 
ATOM     91  C   UNL A   1      41.957  28.665  35.545  1.00  0.00     0.006 A 
ENDBRANCH  67  84
ENDBRANCH  41  42
ENDBRANCH  34  36
ENDBRANCH  33  34
ENDBRANCH  32  33
ENDBRANCH  31  32
ENDBRANCH   1  31
TORSDOF 16
ENDMDL
