MODEL 1
REMARK VINA RESULT:     -12.4      0.000      0.000
REMARK SMILES CC1CCN(S(=O)(=O)N2CCC[C@H](c3cccc(C(=O)OCCOCCOC(=O)c4ccc(-c5c6nc(c(-c7c(F)cccc7F)c7ccc([nH]7)c(-c7c(F)cccc7F)c7nc(c(-c8c(F)cccc8F)c8ccc5[nH]8)C=C7)C=C6)cc4)c3)C2)CC1
REMARK SMILES IDX 23 1 22 2 21 3 19 4 20 5 18 6 14 7 15 8 84 9 16 10 17 11
REMARK SMILES IDX 13 12 9 13 10 14 85 15 11 16 12 17 6 18 7 19 8 20 5 21 1 22
REMARK SMILES IDX 2 23 3 24 87 25 4 26 86 27 24 28 25 29 26 30 27 31 28 32
REMARK SMILES IDX 29 33 30 34 31 35 83 36 32 37 82 38 33 39 34 40 35 41 76 42
REMARK SMILES IDX 36 43 81 44 75 45 77 46 37 47 80 48 74 49 73 50 38 52 64 53
REMARK SMILES IDX 47 54 63 55 48 56 51 57 62 58 78 59 49 60 50 61 61 63 79 64
REMARK SMILES IDX 52 65 39 66 40 67 45 68 41 69 42 70 44 71 46 72 43 73 65 74
REMARK SMILES IDX 66 75 71 76 67 77 68 78 70 79 72 80 69 81 53 82 54 83 59 84
REMARK SMILES IDX 55 85 56 86 58 87 60 88 57 89
REMARK H PARENT 77 51 51 62
REMARK Flexibility Score: inf
ROOT
ATOM      1  C   UNL A   1      43.429  19.707  25.606  1.00  0.00     0.202 C 
ENDROOT
BRANCH   1   2
ATOM      2  C   UNL A   1      41.928  19.553  25.873  1.00  0.00     0.261 C 
BRANCH   2   3
ATOM      3  O   UNL A   1      41.246  20.810  25.762  1.00  0.00    -0.460 OA
BRANCH   3   4
ATOM      4  C   UNL A   1      40.508  21.159  26.846  1.00  0.00     0.338 C 
ATOM      5  O   UNL A   1      40.773  20.935  28.015  1.00  0.00    -0.246 OA
BRANCH   4   6
ATOM      6  C   UNL A   1      39.394  22.037  26.418  1.00  0.00     0.060 A 
ATOM      7  C   UNL A   1      37.329  22.436  25.176  1.00  0.00    -0.043 A 
ATOM      8  C   UNL A   1      37.374  23.772  25.610  1.00  0.00     0.004 A 
ATOM      9  C   UNL A   1      38.386  21.589  25.557  1.00  0.00     0.019 A 
ATOM     10  C   UNL A   1      38.405  24.234  26.432  1.00  0.00     0.001 A 
ATOM     11  C   UNL A   1      39.405  23.364  26.852  1.00  0.00     0.016 A 
BRANCH   7  12
ATOM     12  C   UNL A   1      36.210  21.887  24.295  1.00  0.00     0.034 C 
ATOM     13  N   UNL A   1      34.277  23.356  24.904  1.00  0.00    -0.188 NA
ATOM     14  C   UNL A   1      33.578  22.291  25.642  1.00  0.00     0.103 C 
ATOM     15  C   UNL A   1      35.165  22.908  23.803  1.00  0.00     0.111 C 
ATOM     16  C   UNL A   1      34.572  21.231  26.109  1.00  0.00     0.017 C 
ATOM     17  C   UNL A   1      35.427  20.725  24.949  1.00  0.00     0.011 C 
BRANCH  13  18
ATOM     18  S   UNL A   1      33.520  24.848  24.788  1.00  0.00     0.281 S 
ATOM     19  O   UNL A   1      34.070  25.535  23.646  1.00  0.00    -0.195 OA
ATOM     20  O   UNL A   1      33.558  25.469  26.096  1.00  0.00    -0.195 OA
BRANCH  18  21
ATOM     21  N   UNL A   1      31.891  24.466  24.482  1.00  0.00    -0.189 NA
ATOM     22  C   UNL A   1      30.437  28.418  23.837  1.00  0.00     0.008 C 
ATOM     23  C   UNL A   1      30.325  26.900  23.974  1.00  0.00    -0.012 C 
ATOM     24  C   UNL A   1      30.704  26.459  25.403  1.00  0.00     0.020 C 
ATOM     25  C   UNL A   1      31.163  26.210  22.887  1.00  0.00     0.020 C 
ATOM     26  C   UNL A   1      30.955  24.955  25.541  1.00  0.00     0.104 C 
ATOM     27  C   UNL A   1      31.279  24.721  23.163  1.00  0.00     0.104 C 
ENDBRANCH  18  21
ENDBRANCH  13  18
ENDBRANCH   7  12
ENDBRANCH   4   6
ENDBRANCH   3   4
ENDBRANCH   2   3
ENDBRANCH   1   2
BRANCH   1  28
ATOM     28  O   UNL A   1      43.951  21.032  25.513  1.00  0.00    -0.374 OA
BRANCH  28  29
ATOM     29  C   UNL A   1      44.861  21.313  24.450  1.00  0.00     0.202 C 
BRANCH  29  30
ATOM     30  C   UNL A   1      44.890  22.741  23.890  1.00  0.00     0.261 C 
BRANCH  30  31
ATOM     31  O   UNL A   1      44.026  23.639  24.606  1.00  0.00    -0.460 OA
BRANCH  31  32
ATOM     32  C   UNL A   1      44.644  24.759  25.051  1.00  0.00     0.338 C 
ATOM     33  O   UNL A   1      45.694  25.234  24.653  1.00  0.00    -0.246 OA
BRANCH  32  34
ATOM     34  C   UNL A   1      43.778  25.474  26.005  1.00  0.00     0.060 A 
ATOM     35  C   UNL A   1      44.052  26.830  26.217  1.00  0.00     0.016 A 
ATOM     36  C   UNL A   1      42.786  24.825  26.742  1.00  0.00     0.016 A 
ATOM     37  C   UNL A   1      43.381  27.527  27.215  1.00  0.00     0.010 A 
ATOM     38  C   UNL A   1      42.109  25.530  27.746  1.00  0.00     0.010 A 
ATOM     39  C   UNL A   1      42.433  26.872  28.013  1.00  0.00    -0.014 A 
BRANCH  39  40
ATOM     40  C   UNL A   1      41.880  27.589  29.189  1.00  0.00     0.031 A 
ATOM     41  C   UNL A   1      42.586  27.507  30.516  1.00  0.00     0.074 A 
ATOM     42  C   UNL A   1      40.801  28.379  29.048  1.00  0.00     0.049 A 
ATOM     43  N   UNL A   1      42.315  28.125  31.638  1.00  0.00    -0.248 NA
ATOM     44  C   UNL A   1      43.751  26.612  30.589  1.00  0.00     0.031 C 
ATOM     45  C   UNL A   1      40.044  28.557  27.808  1.00  0.00     0.029 A 
ATOM     46  N   UNL A   1      40.164  29.192  29.951  1.00  0.00    -0.354 N 
ATOM     47  C   UNL A   1      43.274  27.696  32.548  1.00  0.00     0.074 A 
ATOM     48  C   UNL A   1      44.105  26.732  31.859  1.00  0.00     0.031 C 
ATOM     49  C   UNL A   1      39.055  29.440  28.025  1.00  0.00     0.029 A 
ATOM     50  C   UNL A   1      39.090  29.865  29.422  1.00  0.00     0.049 A 
ATOM     51  H   UNL A   1      40.451  29.285  30.888  1.00  0.00     0.167 HD
ATOM     52  C   UNL A   1      43.454  28.082  33.834  1.00  0.00     0.037 A 
ATOM     53  C   UNL A   1      38.229  30.722  30.002  1.00  0.00     0.037 A 
ATOM     54  C   UNL A   1      42.623  29.041  34.517  1.00  0.00     0.049 A 
ATOM     55  C   UNL A   1      38.419  31.092  31.448  1.00  0.00     0.074 A 
ATOM     56  C   UNL A   1      42.740  29.517  35.812  1.00  0.00     0.029 A 
ATOM     57  N   UNL A   1      41.514  29.664  33.964  1.00  0.00    -0.354 N 
ATOM     58  N   UNL A   1      39.355  30.712  32.285  1.00  0.00    -0.248 NA
ATOM     59  C   UNL A   1      37.437  32.019  32.026  1.00  0.00     0.031 C 
ATOM     60  C   UNL A   1      41.666  30.379  36.062  1.00  0.00     0.029 A 
ATOM     61  C   UNL A   1      40.917  30.493  34.902  1.00  0.00     0.049 A 
ATOM     62  H   UNL A   1      41.196  29.536  33.042  1.00  0.00     0.167 HD
ATOM     63  C   UNL A   1      39.088  31.371  33.480  1.00  0.00     0.074 A 
ATOM     64  C   UNL A   1      37.920  32.196  33.246  1.00  0.00     0.031 C 
ATOM     65  C   UNL A   1      39.747  31.299  34.663  1.00  0.00     0.037 A 
BRANCH  52  66
ATOM     66  C   UNL A   1      44.582  27.445  34.599  1.00  0.00     0.057 A 
ATOM     67  C   UNL A   1      45.859  28.018  34.656  1.00  0.00     0.134 A 
ATOM     68  C   UNL A   1      44.375  26.264  35.322  1.00  0.00     0.134 A 
ATOM     69  F   UNL A   1      46.131  29.143  33.978  1.00  0.00    -0.206 F 
ATOM     70  C   UNL A   1      46.896  27.424  35.381  1.00  0.00     0.040 A 
ATOM     71  C   UNL A   1      45.394  25.677  36.075  1.00  0.00     0.040 A 
ATOM     72  F   UNL A   1      43.175  25.663  35.318  1.00  0.00    -0.206 F 
ATOM     73  C   UNL A   1      46.661  26.255  36.101  1.00  0.00     0.006 A 
ENDBRANCH  52  66
BRANCH  53  74
ATOM     74  C   UNL A   1      37.103  31.290  29.215  1.00  0.00     0.057 A 
ATOM     75  C   UNL A   1      37.140  32.602  28.731  1.00  0.00     0.134 A 
ATOM     76  C   UNL A   1      35.953  30.537  28.949  1.00  0.00     0.134 A 
ATOM     77  F   UNL A   1      38.206  33.381  28.972  1.00  0.00    -0.206 F 
ATOM     78  C   UNL A   1      36.066  33.154  28.030  1.00  0.00     0.040 A 
ATOM     79  C   UNL A   1      34.884  31.065  28.223  1.00  0.00     0.040 A 
ATOM     80  F   UNL A   1      35.855  29.271  29.382  1.00  0.00    -0.206 F 
ATOM     81  C   UNL A   1      34.936  32.381  27.769  1.00  0.00     0.006 A 
ENDBRANCH  53  74
BRANCH  65  82
ATOM     82  C   UNL A   1      39.226  32.154  35.787  1.00  0.00     0.057 A 
ATOM     83  C   UNL A   1      38.293  31.674  36.715  1.00  0.00     0.134 A 
ATOM     84  C   UNL A   1      39.662  33.477  35.939  1.00  0.00     0.134 A 
ATOM     85  F   UNL A   1      37.825  30.419  36.622  1.00  0.00    -0.206 F 
ATOM     86  C   UNL A   1      37.778  32.490  37.724  1.00  0.00     0.040 A 
ATOM     87  C   UNL A   1      39.181  34.292  36.965  1.00  0.00     0.040 A 
ATOM     88  F   UNL A   1      40.563  34.000  35.095  1.00  0.00    -0.206 F 
ATOM     89  C   UNL A   1      38.225  33.803  37.853  1.00  0.00     0.006 A 
ENDBRANCH  65  82
ENDBRANCH  39  40
ENDBRANCH  32  34
ENDBRANCH  31  32
ENDBRANCH  30  31
ENDBRANCH  29  30
ENDBRANCH  28  29
ENDBRANCH   1  28
TORSDOF 17
ENDMDL
MODEL 2
REMARK VINA RESULT:     -11.9      4.529     10.270
REMARK SMILES CC1CCN(S(=O)(=O)N2CCC[C@H](c3cccc(C(=O)OCCOCCOC(=O)c4ccc(-c5c6nc(c(-c7c(F)cccc7F)c7ccc([nH]7)c(-c7c(F)cccc7F)c7nc(c(-c8c(F)cccc8F)c8ccc5[nH]8)C=C7)C=C6)cc4)c3)C2)CC1
REMARK SMILES IDX 23 1 22 2 21 3 19 4 20 5 18 6 14 7 15 8 84 9 16 10 17 11
REMARK SMILES IDX 13 12 9 13 10 14 85 15 11 16 12 17 6 18 7 19 8 20 5 21 1 22
REMARK SMILES IDX 2 23 3 24 87 25 4 26 86 27 24 28 25 29 26 30 27 31 28 32
REMARK SMILES IDX 29 33 30 34 31 35 83 36 32 37 82 38 33 39 34 40 35 41 76 42
REMARK SMILES IDX 36 43 81 44 75 45 77 46 37 47 80 48 74 49 73 50 38 52 64 53
REMARK SMILES IDX 47 54 63 55 48 56 51 57 62 58 78 59 49 60 50 61 61 63 79 64
REMARK SMILES IDX 52 65 39 66 40 67 45 68 41 69 42 70 44 71 46 72 43 73 65 74
REMARK SMILES IDX 66 75 71 76 67 77 68 78 70 79 72 80 69 81 53 82 54 83 59 84
REMARK SMILES IDX 55 85 56 86 58 87 60 88 57 89
REMARK H PARENT 77 51 51 62
REMARK Flexibility Score: inf
ROOT
ATOM      1  C   UNL A   1      33.653  35.237  30.001  1.00  0.00     0.202 C 
ENDROOT
BRANCH   1   2
ATOM      2  C   UNL A   1      33.379  34.390  28.754  1.00  0.00     0.261 C 
BRANCH   2   3
ATOM      3  O   UNL A   1      33.880  33.055  28.910  1.00  0.00    -0.460 OA
BRANCH   3   4
ATOM      4  C   UNL A   1      34.784  32.669  27.973  1.00  0.00     0.338 C 
ATOM      5  O   UNL A   1      35.752  33.300  27.587  1.00  0.00    -0.246 OA
BRANCH   4   6
ATOM      6  C   UNL A   1      34.531  31.257  27.603  1.00  0.00     0.060 A 
ATOM      7  C   UNL A   1      33.057  29.468  26.831  1.00  0.00    -0.043 A 
ATOM      8  C   UNL A   1      34.129  28.572  26.989  1.00  0.00     0.004 A 
ATOM      9  C   UNL A   1      33.269  30.812  27.193  1.00  0.00     0.019 A 
ATOM     10  C   UNL A   1      35.376  29.006  27.442  1.00  0.00     0.001 A 
ATOM     11  C   UNL A   1      35.585  30.350  27.731  1.00  0.00     0.016 A 
BRANCH   7  12
ATOM     12  C   UNL A   1      31.685  29.039  26.320  1.00  0.00     0.034 C 
ATOM     13  N   UNL A   1      32.193  26.874  25.171  1.00  0.00    -0.188 NA
ATOM     14  C   UNL A   1      31.998  27.435  23.823  1.00  0.00     0.103 C 
ATOM     15  C   UNL A   1      31.422  27.522  26.261  1.00  0.00     0.111 C 
ATOM     16  C   UNL A   1      32.203  28.947  23.845  1.00  0.00     0.017 C 
ATOM     17  C   UNL A   1      31.345  29.607  24.922  1.00  0.00     0.011 C 
BRANCH  13  18
ATOM     18  S   UNL A   1      32.564  25.243  25.290  1.00  0.00     0.281 S 
ATOM     19  O   UNL A   1      31.525  24.503  24.619  1.00  0.00    -0.195 OA
ATOM     20  O   UNL A   1      32.880  24.957  26.674  1.00  0.00    -0.195 OA
BRANCH  18  21
ATOM     21  N   UNL A   1      34.018  25.083  24.421  1.00  0.00    -0.189 NA
ATOM     22  C   UNL A   1      34.438  20.852  24.685  1.00  0.00     0.008 C 
ATOM     23  C   UNL A   1      34.853  22.268  24.290  1.00  0.00    -0.012 C 
ATOM     24  C   UNL A   1      35.090  23.131  25.547  1.00  0.00     0.020 C 
ATOM     25  C   UNL A   1      33.817  22.873  23.330  1.00  0.00     0.020 C 
ATOM     26  C   UNL A   1      35.169  24.633  25.262  1.00  0.00     0.104 C 
ATOM     27  C   UNL A   1      34.067  24.358  23.135  1.00  0.00     0.104 C 
ENDBRANCH  18  21
ENDBRANCH  13  18
ENDBRANCH   7  12
ENDBRANCH   4   6
ENDBRANCH   3   4
ENDBRANCH   2   3
ENDBRANCH   1   2
BRANCH   1  28
ATOM     28  O   UNL A   1      34.468  34.666  31.023  1.00  0.00    -0.374 OA
BRANCH  28  29
ATOM     29  C   UNL A   1      33.853  34.381  32.280  1.00  0.00     0.202 C 
BRANCH  29  30
ATOM     30  C   UNL A   1      34.699  33.677  33.348  1.00  0.00     0.261 C 
BRANCH  30  31
ATOM     31  O   UNL A   1      35.301  32.461  32.872  1.00  0.00    -0.460 OA
BRANCH  31  32
ATOM     32  C   UNL A   1      36.484  32.165  33.461  1.00  0.00     0.338 C 
ATOM     33  O   UNL A   1      36.782  32.301  34.635  1.00  0.00    -0.246 OA
BRANCH  32  34
ATOM     34  C   UNL A   1      37.365  31.465  32.510  1.00  0.00     0.060 A 
ATOM     35  C   UNL A   1      38.443  30.754  33.050  1.00  0.00     0.016 A 
ATOM     36  C   UNL A   1      37.204  31.571  31.127  1.00  0.00     0.016 A 
ATOM     37  C   UNL A   1      39.402  30.202  32.210  1.00  0.00     0.010 A 
ATOM     38  C   UNL A   1      38.171  31.012  30.282  1.00  0.00     0.010 A 
ATOM     39  C   UNL A   1      39.295  30.361  30.821  1.00  0.00    -0.014 A 
BRANCH  39  40
ATOM     40  C   UNL A   1      40.431  29.931  29.968  1.00  0.00     0.031 A 
ATOM     41  C   UNL A   1      41.571  30.878  29.704  1.00  0.00     0.074 A 
ATOM     42  C   UNL A   1      40.483  28.669  29.505  1.00  0.00     0.049 A 
ATOM     43  N   UNL A   1      42.691  30.667  29.060  1.00  0.00    -0.248 NA
ATOM     44  C   UNL A   1      41.430  32.242  30.236  1.00  0.00     0.031 C 
ATOM     45  C   UNL A   1      39.451  27.653  29.712  1.00  0.00     0.029 A 
ATOM     46  N   UNL A   1      41.451  28.023  28.778  1.00  0.00    -0.354 N 
ATOM     47  C   UNL A   1      43.388  31.868  29.111  1.00  0.00     0.074 A 
ATOM     48  C   UNL A   1      42.546  32.815  29.809  1.00  0.00     0.031 C 
ATOM     49  C   UNL A   1      39.849  26.504  29.141  1.00  0.00     0.029 A 
ATOM     50  C   UNL A   1      41.148  26.712  28.503  1.00  0.00     0.049 A 
ATOM     51  H   UNL A   1      42.284  28.457  28.484  1.00  0.00     0.167 HD
ATOM     52  C   UNL A   1      44.624  32.152  28.633  1.00  0.00     0.037 A 
ATOM     53  C   UNL A   1      41.837  25.786  27.810  1.00  0.00     0.037 A 
ATOM     54  C   UNL A   1      45.460  31.207  27.937  1.00  0.00     0.049 A 
ATOM     55  C   UNL A   1      43.184  26.144  27.242  1.00  0.00     0.074 A 
ATOM     56  C   UNL A   1      46.738  31.390  27.436  1.00  0.00     0.029 A 
ATOM     57  N   UNL A   1      45.098  29.902  27.632  1.00  0.00    -0.354 N 
ATOM     58  N   UNL A   1      43.850  27.269  27.333  1.00  0.00    -0.248 NA
ATOM     59  C   UNL A   1      43.878  25.094  26.483  1.00  0.00     0.031 C 
ATOM     60  C   UNL A   1      47.124  30.218  26.775  1.00  0.00     0.029 A 
ATOM     61  C   UNL A   1      46.114  29.281  26.922  1.00  0.00     0.049 A 
ATOM     62  H   UNL A   1      44.246  29.480  27.884  1.00  0.00     0.167 HD
ATOM     63  C   UNL A   1      45.050  27.057  26.664  1.00  0.00     0.074 A 
ATOM     64  C   UNL A   1      45.029  25.685  26.200  1.00  0.00     0.031 C 
ATOM     65  C   UNL A   1      46.076  27.919  26.452  1.00  0.00     0.037 A 
BRANCH  52  66
ATOM     66  C   UNL A   1      45.140  33.551  28.824  1.00  0.00     0.057 A 
ATOM     67  C   UNL A   1      45.901  33.918  29.942  1.00  0.00     0.134 A 
ATOM     68  C   UNL A   1      44.904  34.536  27.856  1.00  0.00     0.134 A 
ATOM     69  F   UNL A   1      46.155  33.029  30.914  1.00  0.00    -0.206 F 
ATOM     70  C   UNL A   1      46.386  35.219  30.102  1.00  0.00     0.040 A 
ATOM     71  C   UNL A   1      45.409  35.831  27.991  1.00  0.00     0.040 A 
ATOM     72  F   UNL A   1      44.188  34.254  26.757  1.00  0.00    -0.206 F 
ATOM     73  C   UNL A   1      46.147  36.177  29.119  1.00  0.00     0.006 A 
ENDBRANCH  52  66
BRANCH  53  74
ATOM     74  C   UNL A   1      41.264  24.430  27.610  1.00  0.00     0.057 A 
ATOM     75  C   UNL A   1      40.225  24.203  26.702  1.00  0.00     0.134 A 
ATOM     76  C   UNL A   1      41.731  23.331  28.342  1.00  0.00     0.134 A 
ATOM     77  F   UNL A   1      39.719  25.219  25.986  1.00  0.00    -0.206 F 
ATOM     78  C   UNL A   1      39.654  22.939  26.544  1.00  0.00     0.040 A 
ATOM     79  C   UNL A   1      41.191  22.056  28.173  1.00  0.00     0.040 A 
ATOM     80  F   UNL A   1      42.728  23.480  29.227  1.00  0.00    -0.206 F 
ATOM     81  C   UNL A   1      40.142  21.859  27.278  1.00  0.00     0.006 A 
ENDBRANCH  53  74
BRANCH  65  82
ATOM     82  C   UNL A   1      47.267  27.389  25.699  1.00  0.00     0.057 A 
ATOM     83  C   UNL A   1      48.301  26.692  26.339  1.00  0.00     0.134 A 
ATOM     84  C   UNL A   1      47.382  27.583  24.316  1.00  0.00     0.134 A 
ATOM     85  F   UNL A   1      48.259  26.480  27.663  1.00  0.00    -0.206 F 
ATOM     86  C   UNL A   1      49.425  26.248  25.641  1.00  0.00     0.040 A 
ATOM     87  C   UNL A   1      48.485  27.113  23.601  1.00  0.00     0.040 A 
ATOM     88  F   UNL A   1      46.425  28.230  23.635  1.00  0.00    -0.206 F 
ATOM     89  C   UNL A   1      49.518  26.455  24.266  1.00  0.00     0.006 A 
ENDBRANCH  65  82
ENDBRANCH  39  40
ENDBRANCH  32  34
ENDBRANCH  31  32
ENDBRANCH  30  31
ENDBRANCH  29  30
ENDBRANCH  28  29
ENDBRANCH   1  28
TORSDOF 17
ENDMDL
MODEL 3
REMARK VINA RESULT:     -11.8      1.194      1.927
REMARK SMILES CC1CCN(S(=O)(=O)N2CCC[C@H](c3cccc(C(=O)OCCOCCOC(=O)c4ccc(-c5c6nc(c(-c7c(F)cccc7F)c7ccc([nH]7)c(-c7c(F)cccc7F)c7nc(c(-c8c(F)cccc8F)c8ccc5[nH]8)C=C7)C=C6)cc4)c3)C2)CC1
REMARK SMILES IDX 23 1 22 2 21 3 19 4 20 5 18 6 14 7 15 8 84 9 16 10 17 11
REMARK SMILES IDX 13 12 9 13 10 14 85 15 11 16 12 17 6 18 7 19 8 20 5 21 1 22
REMARK SMILES IDX 2 23 3 24 87 25 4 26 86 27 24 28 25 29 26 30 27 31 28 32
REMARK SMILES IDX 29 33 30 34 31 35 83 36 32 37 82 38 33 39 34 40 35 41 76 42
REMARK SMILES IDX 36 43 81 44 75 45 77 46 37 47 80 48 74 49 73 50 38 52 64 53
REMARK SMILES IDX 47 54 63 55 48 56 51 57 62 58 78 59 49 60 50 61 61 63 79 64
REMARK SMILES IDX 52 65 39 66 40 67 45 68 41 69 42 70 44 71 46 72 43 73 65 74
REMARK SMILES IDX 66 75 71 76 67 77 68 78 70 79 72 80 69 81 53 82 54 83 59 84
REMARK SMILES IDX 55 85 56 86 58 87 60 88 57 89
REMARK H PARENT 77 51 51 62
REMARK Flexibility Score: inf
ROOT
ATOM      1  C   UNL A   1      41.416  20.817  26.429  1.00  0.00     0.202 C 
ENDROOT
BRANCH   1   2
ATOM      2  C   UNL A   1      40.018  20.242  26.181  1.00  0.00     0.261 C 
BRANCH   2   3
ATOM      3  O   UNL A   1      39.120  21.247  25.691  1.00  0.00    -0.460 OA
BRANCH   3   4
ATOM      4  C   UNL A   1      37.979  20.772  25.129  1.00  0.00     0.338 C 
ATOM      5  O   UNL A   1      37.732  19.613  24.844  1.00  0.00    -0.246 OA
BRANCH   4   6
ATOM      6  C   UNL A   1      36.972  21.857  25.073  1.00  0.00     0.060 A 
ATOM      7  C   UNL A   1      34.845  22.777  24.300  1.00  0.00    -0.043 A 
ATOM      8  C   UNL A   1      35.164  23.971  24.970  1.00  0.00     0.004 A 
ATOM      9  C   UNL A   1      35.794  21.739  24.325  1.00  0.00     0.019 A 
ATOM     10  C   UNL A   1      36.360  24.107  25.679  1.00  0.00     0.001 A 
ATOM     11  C   UNL A   1      37.256  23.047  25.747  1.00  0.00     0.016 A 
BRANCH   7  12
ATOM     12  C   UNL A   1      33.541  22.580  23.532  1.00  0.00     0.034 C 
ATOM     13  N   UNL A   1      31.923  23.953  24.860  1.00  0.00    -0.188 NA
ATOM     14  C   UNL A   1      31.228  22.775  25.408  1.00  0.00     0.103 C 
ATOM     15  C   UNL A   1      32.562  23.770  23.533  1.00  0.00     0.111 C 
ATOM     16  C   UNL A   1      32.150  21.558  25.382  1.00  0.00     0.017 C 
ATOM     17  C   UNL A   1      32.740  21.339  23.991  1.00  0.00     0.011 C 
BRANCH  13  18
ATOM     18  S   UNL A   1      31.343  25.467  25.286  1.00  0.00     0.281 S 
ATOM     19  O   UNL A   1      31.556  25.639  26.701  1.00  0.00    -0.195 OA
ATOM     20  O   UNL A   1      30.013  25.607  24.730  1.00  0.00    -0.195 OA
BRANCH  18  21
ATOM     21  N   UNL A   1      32.339  26.550  24.433  1.00  0.00    -0.189 NA
ATOM     22  C   UNL A   1      31.781  29.981  26.896  1.00  0.00     0.008 C 
ATOM     23  C   UNL A   1      32.328  29.201  25.702  1.00  0.00    -0.012 C 
ATOM     24  C   UNL A   1      31.174  28.728  24.792  1.00  0.00     0.020 C 
ATOM     25  C   UNL A   1      33.223  28.051  26.188  1.00  0.00     0.020 C 
ATOM     26  C   UNL A   1      31.585  27.661  23.775  1.00  0.00     0.104 C 
ATOM     27  C   UNL A   1      33.561  27.112  25.044  1.00  0.00     0.104 C 
ENDBRANCH  18  21
ENDBRANCH  13  18
ENDBRANCH   7  12
ENDBRANCH   4   6
ENDBRANCH   3   4
ENDBRANCH   2   3
ENDBRANCH   1   2
BRANCH   1  28
ATOM     28  O   UNL A   1      42.342  20.796  25.344  1.00  0.00    -0.374 OA
BRANCH  28  29
ATOM     29  C   UNL A   1      43.734  20.740  25.660  1.00  0.00     0.202 C 
BRANCH  29  30
ATOM     30  C   UNL A   1      44.537  22.045  25.594  1.00  0.00     0.261 C 
BRANCH  30  31
ATOM     31  O   UNL A   1      43.785  23.135  25.033  1.00  0.00    -0.460 OA
BRANCH  31  32
ATOM     32  C   UNL A   1      44.363  24.347  25.204  1.00  0.00     0.338 C 
ATOM     33  O   UNL A   1      45.323  24.802  24.605  1.00  0.00    -0.246 OA
BRANCH  32  34
ATOM     34  C   UNL A   1      43.559  25.171  26.124  1.00  0.00     0.060 A 
ATOM     35  C   UNL A   1      44.039  26.454  26.410  1.00  0.00     0.016 A 
ATOM     36  C   UNL A   1      42.420  24.677  26.763  1.00  0.00     0.016 A 
ATOM     37  C   UNL A   1      43.419  27.225  27.387  1.00  0.00     0.010 A 
ATOM     38  C   UNL A   1      41.796  25.458  27.745  1.00  0.00     0.010 A 
ATOM     39  C   UNL A   1      42.318  26.717  28.090  1.00  0.00    -0.014 A 
BRANCH  39  40
ATOM     40  C   UNL A   1      41.805  27.483  29.253  1.00  0.00     0.031 A 
ATOM     41  C   UNL A   1      42.533  27.424  30.569  1.00  0.00     0.074 A 
ATOM     42  C   UNL A   1      40.743  28.295  29.107  1.00  0.00     0.049 A 
ATOM     43  N   UNL A   1      42.298  28.082  31.676  1.00  0.00    -0.248 NA
ATOM     44  C   UNL A   1      43.677  26.502  30.648  1.00  0.00     0.031 C 
ATOM     45  C   UNL A   1      39.968  28.455  27.877  1.00  0.00     0.029 A 
ATOM     46  N   UNL A   1      40.143  29.151  29.996  1.00  0.00    -0.354 N 
ATOM     47  C   UNL A   1      43.264  27.656  32.581  1.00  0.00     0.074 A 
ATOM     48  C   UNL A   1      44.058  26.652  31.908  1.00  0.00     0.031 C 
ATOM     49  C   UNL A   1      39.005  29.368  28.083  1.00  0.00     0.029 A 
ATOM     50  C   UNL A   1      39.077  29.834  29.466  1.00  0.00     0.049 A 
ATOM     51  H   UNL A   1      40.450  29.265  30.925  1.00  0.00     0.167 HD
ATOM     52  C   UNL A   1      43.478  28.076  33.852  1.00  0.00     0.037 A 
ATOM     53  C   UNL A   1      38.248  30.730  30.035  1.00  0.00     0.037 A 
ATOM     54  C   UNL A   1      42.684  29.076  34.520  1.00  0.00     0.049 A 
ATOM     55  C   UNL A   1      38.474  31.138  31.466  1.00  0.00     0.074 A 
ATOM     56  C   UNL A   1      42.836  29.588  35.797  1.00  0.00     0.029 A 
ATOM     57  N   UNL A   1      41.579  29.709  33.968  1.00  0.00    -0.354 N 
ATOM     58  N   UNL A   1      39.415  30.760  32.297  1.00  0.00    -0.248 NA
ATOM     59  C   UNL A   1      37.526  32.107  32.032  1.00  0.00     0.031 C 
ATOM     60  C   UNL A   1      41.788  30.484  36.040  1.00  0.00     0.029 A 
ATOM     61  C   UNL A   1      41.021  30.581  34.891  1.00  0.00     0.049 A 
ATOM     62  H   UNL A   1      41.241  29.562  33.056  1.00  0.00     0.167 HD
ATOM     63  C   UNL A   1      39.187  31.462  33.475  1.00  0.00     0.074 A 
ATOM     64  C   UNL A   1      38.036  32.309  33.237  1.00  0.00     0.031 C 
ATOM     65  C   UNL A   1      39.866  31.409  34.648  1.00  0.00     0.037 A 
BRANCH  52  66
ATOM     66  C   UNL A   1      44.604  27.435  34.616  1.00  0.00     0.057 A 
ATOM     67  C   UNL A   1      44.428  26.255  35.351  1.00  0.00     0.134 A 
ATOM     68  C   UNL A   1      45.891  27.986  34.582  1.00  0.00     0.134 A 
ATOM     69  F   UNL A   1      43.219  25.680  35.435  1.00  0.00    -0.206 F 
ATOM     70  C   UNL A   1      45.485  25.662  36.046  1.00  0.00     0.040 A 
ATOM     71  C   UNL A   1      46.962  27.386  35.248  1.00  0.00     0.040 A 
ATOM     72  F   UNL A   1      46.133  29.112  33.893  1.00  0.00    -0.206 F 
ATOM     73  C   UNL A   1      46.758  26.224  35.987  1.00  0.00     0.006 A 
ENDBRANCH  52  66
BRANCH  53  74
ATOM     74  C   UNL A   1      37.122  31.301  29.252  1.00  0.00     0.057 A 
ATOM     75  C   UNL A   1      37.178  32.600  28.734  1.00  0.00     0.134 A 
ATOM     76  C   UNL A   1      35.952  30.567  29.022  1.00  0.00     0.134 A 
ATOM     77  F   UNL A   1      38.263  33.362  28.939  1.00  0.00    -0.206 F 
ATOM     78  C   UNL A   1      36.105  33.157  28.036  1.00  0.00     0.040 A 
ATOM     79  C   UNL A   1      34.883  31.099  28.299  1.00  0.00     0.040 A 
ATOM     80  F   UNL A   1      35.835  29.315  29.488  1.00  0.00    -0.206 F 
ATOM     81  C   UNL A   1      34.955  32.402  27.812  1.00  0.00     0.006 A 
ENDBRANCH  53  74
BRANCH  65  82
ATOM     82  C   UNL A   1      39.388  32.310  35.754  1.00  0.00     0.057 A 
ATOM     83  C   UNL A   1      38.439  31.891  36.697  1.00  0.00     0.134 A 
ATOM     84  C   UNL A   1      39.881  33.617  35.875  1.00  0.00     0.134 A 
ATOM     85  F   UNL A   1      37.917  30.657  36.633  1.00  0.00    -0.206 F 
ATOM     86  C   UNL A   1      37.964  32.751  37.689  1.00  0.00     0.040 A 
ATOM     87  C   UNL A   1      39.440  34.474  36.885  1.00  0.00     0.040 A 
ATOM     88  F   UNL A   1      40.800  34.082  35.017  1.00  0.00    -0.206 F 
ATOM     89  C   UNL A   1      38.468  34.047  37.787  1.00  0.00     0.006 A 
ENDBRANCH  65  82
ENDBRANCH  39  40
ENDBRANCH  32  34
ENDBRANCH  31  32
ENDBRANCH  30  31
ENDBRANCH  29  30
ENDBRANCH  28  29
ENDBRANCH   1  28
TORSDOF 17
ENDMDL
