MODEL 1
REMARK VINA RESULT:     -11.7      0.000      0.000
REMARK SMILES CC(=O)[NH+]1CCC2(CC1)C[C@H](C(=O)OCCOCCOC(=O)c1ccc(-c3c4nc(c(-c5c(F)cccc5F)c5ccc([nH]5)c(-c5c(F)cccc5F)c5nc(c(-c6c(F)cccc6F)c6ccc3[nH]6)C=C5)C=C4)cc1)[N@H+](Cc1ncc[nH]1)C2
REMARK SMILES IDX 17 1 16 2 15 3 14 4 12 5 13 6 11 7 4 8 5 9 9 10 6 12 8 13
REMARK SMILES IDX 7 14 10 15 84 16 77 17 2 19 1 20 3 21 78 22 79 23 80 24
REMARK SMILES IDX 83 25 81 26 82 27 18 29 19 30 20 31 21 32 22 33 23 34 24 35
REMARK SMILES IDX 76 36 25 37 75 38 26 39 27 40 28 41 69 42 29 43 74 44 68 45
REMARK SMILES IDX 70 46 30 47 73 48 67 49 66 50 31 52 57 53 40 54 56 55 41 56
REMARK SMILES IDX 44 57 55 58 71 59 42 60 43 61 54 63 72 64 45 65 32 66 33 67
REMARK SMILES IDX 38 68 34 69 35 70 37 71 39 72 36 73 58 74 59 75 64 76 60 77
REMARK SMILES IDX 61 78 63 79 65 80 62 81 46 82 47 83 52 84 48 85 49 86 51 87
REMARK SMILES IDX 53 88 50 89
REMARK H PARENT 4 11 77 18 83 28 70 51 44 62
REMARK Flexibility Score: inf
ROOT
ATOM      1  O   UNL A   1      34.552  21.804  24.231  1.00  0.00    -0.374 OA
ENDROOT
BRANCH   1   2
ATOM      2  C   UNL A   1      33.132  21.750  24.358  1.00  0.00     0.202 C 
BRANCH   2   3
ATOM      3  C   UNL A   1      32.319  22.916  23.781  1.00  0.00     0.261 C 
BRANCH   3   4
ATOM      4  O   UNL A   1      32.752  23.368  22.478  1.00  0.00    -0.459 OA
BRANCH   4   5
ATOM      5  C   UNL A   1      33.004  24.705  22.378  1.00  0.00     0.365 C 
ATOM      6  O   UNL A   1      33.684  25.198  21.479  1.00  0.00    -0.245 OA
BRANCH   5   7
ATOM      7  C   UNL A   1      32.537  25.543  23.565  1.00  0.00     0.296 C 
ATOM      8  N   UNL A   1      33.180  29.752  26.869  1.00  0.00    -0.272 N 
ATOM      9  C   UNL A   1      32.778  29.951  25.498  1.00  0.00     0.270 C 
ATOM     10  C   UNL A   1      32.839  28.444  27.435  1.00  0.00     0.270 C 
ATOM     11  H   UNL A   1      32.834  30.673  26.880  1.00  0.00     0.356 HD
ATOM     12  C   UNL A   1      33.462  28.867  24.680  1.00  0.00     0.075 C 
ATOM     13  C   UNL A   1      33.310  27.278  26.552  1.00  0.00     0.075 C 
ATOM     14  C   UNL A   1      32.964  27.456  25.048  1.00  0.00     0.036 C 
ATOM     15  C   UNL A   1      33.661  26.367  24.200  1.00  0.00     0.091 C 
ATOM     16  C   UNL A   1      31.461  27.243  24.724  1.00  0.00     0.270 C 
ATOM     17  N   UNL A   1      31.373  26.452  23.483  1.00  0.00    -0.316 N 
ATOM     18  H   UNL A   1      30.530  25.883  23.400  1.00  0.00     0.349 HD
BRANCH   8  19
ATOM     19  C   UNL A   1      33.926  30.763  27.449  1.00  0.00     0.308 C 
ATOM     20  C   UNL A   1      35.392  30.512  27.641  1.00  0.00     0.164 C 
ATOM     21  O   UNL A   1      33.457  31.879  27.683  1.00  0.00    -0.231 OA
ENDBRANCH   8  19
BRANCH  17  22
ATOM     22  C   UNL A   1      31.098  27.220  22.260  1.00  0.00     0.339 C 
BRANCH  22  23
ATOM     23  C   UNL A   1      30.200  28.422  22.324  1.00  0.00     0.161 A 
ATOM     24  N   UNL A   1      28.952  28.479  22.754  1.00  0.00    -0.236 NA
ATOM     25  N   UNL A   1      30.615  29.681  21.942  1.00  0.00    -0.344 N 
ATOM     26  C   UNL A   1      28.543  29.782  22.609  1.00  0.00     0.131 A 
ATOM     27  C   UNL A   1      29.564  30.546  22.103  1.00  0.00     0.104 A 
ATOM     28  H   UNL A   1      31.511  29.918  21.610  1.00  0.00     0.167 HD
ENDBRANCH  22  23
ENDBRANCH  17  22
ENDBRANCH   5   7
ENDBRANCH   4   5
ENDBRANCH   3   4
ENDBRANCH   2   3
ENDBRANCH   1   2
BRANCH   1  29
ATOM     29  C   UNL A   1      35.300  21.364  25.365  1.00  0.00     0.202 C 
BRANCH  29  30
ATOM     30  C   UNL A   1      36.656  20.719  25.053  1.00  0.00     0.261 C 
BRANCH  30  31
ATOM     31  O   UNL A   1      37.718  21.685  25.071  1.00  0.00    -0.460 OA
BRANCH  31  32
ATOM     32  C   UNL A   1      38.778  21.319  25.820  1.00  0.00     0.338 C 
ATOM     33  O   UNL A   1      39.332  20.228  25.858  1.00  0.00    -0.246 OA
BRANCH  32  34
ATOM     34  C   UNL A   1      39.338  22.500  26.483  1.00  0.00     0.060 A 
ATOM     35  C   UNL A   1      38.772  23.736  26.151  1.00  0.00     0.016 A 
ATOM     36  C   UNL A   1      40.428  22.413  27.351  1.00  0.00     0.016 A 
ATOM     37  C   UNL A   1      39.337  24.904  26.642  1.00  0.00     0.010 A 
ATOM     38  C   UNL A   1      40.996  23.591  27.842  1.00  0.00     0.010 A 
ATOM     39  C   UNL A   1      40.476  24.839  27.457  1.00  0.00    -0.014 A 
BRANCH  39  40
ATOM     40  C   UNL A   1      41.174  26.099  27.795  1.00  0.00     0.031 A 
ATOM     41  C   UNL A   1      42.579  26.310  27.306  1.00  0.00     0.074 A 
ATOM     42  C   UNL A   1      40.524  27.064  28.469  1.00  0.00     0.049 A 
ATOM     43  N   UNL A   1      43.360  27.347  27.458  1.00  0.00    -0.248 NA
ATOM     44  C   UNL A   1      43.186  25.208  26.540  1.00  0.00     0.031 C 
ATOM     45  C   UNL A   1      39.149  26.969  28.959  1.00  0.00     0.029 A 
ATOM     46  N   UNL A   1      40.934  28.314  28.853  1.00  0.00    -0.354 N 
ATOM     47  C   UNL A   1      44.547  27.023  26.814  1.00  0.00     0.074 A 
ATOM     48  C   UNL A   1      44.398  25.683  26.292  1.00  0.00     0.031 C 
ATOM     49  C   UNL A   1      38.830  28.114  29.585  1.00  0.00     0.029 A 
ATOM     50  C   UNL A   1      39.987  29.005  29.568  1.00  0.00     0.049 A 
ATOM     51  H   UNL A   1      41.822  28.681  28.637  1.00  0.00     0.167 HD
ATOM     52  C   UNL A   1      45.657  27.783  26.667  1.00  0.00     0.037 A 
ATOM     53  C   UNL A   1      40.061  30.211  30.163  1.00  0.00     0.037 A 
ATOM     54  C   UNL A   1      45.786  29.122  27.179  1.00  0.00     0.049 A 
ATOM     55  C   UNL A   1      41.332  31.007  30.032  1.00  0.00     0.074 A 
ATOM     56  C   UNL A   1      46.850  29.995  27.047  1.00  0.00     0.029 A 
ATOM     57  N   UNL A   1      44.821  29.775  27.933  1.00  0.00    -0.354 N 
ATOM     58  N   UNL A   1      42.429  30.713  29.377  1.00  0.00    -0.248 NA
ATOM     59  C   UNL A   1      41.375  32.305  30.723  1.00  0.00     0.031 C 
ATOM     60  C   UNL A   1      46.558  31.151  27.776  1.00  0.00     0.029 A 
ATOM     61  C   UNL A   1      45.286  31.023  28.311  1.00  0.00     0.049 A 
ATOM     62  H   UNL A   1      43.938  29.406  28.164  1.00  0.00     0.167 HD
ATOM     63  C   UNL A   1      43.285  31.793  29.562  1.00  0.00     0.074 A 
ATOM     64  C   UNL A   1      42.567  32.760  30.366  1.00  0.00     0.031 C 
ATOM     65  C   UNL A   1      44.552  31.968  29.114  1.00  0.00     0.037 A 
BRANCH  52  66
ATOM     66  C   UNL A   1      46.832  27.187  25.951  1.00  0.00     0.057 A 
ATOM     67  C   UNL A   1      47.052  27.389  24.582  1.00  0.00     0.134 A 
ATOM     68  C   UNL A   1      47.798  26.461  26.660  1.00  0.00     0.134 A 
ATOM     69  F   UNL A   1      46.161  28.064  23.842  1.00  0.00    -0.206 F 
ATOM     70  C   UNL A   1      48.188  26.885  23.944  1.00  0.00     0.040 A 
ATOM     71  C   UNL A   1      48.949  25.973  26.039  1.00  0.00     0.040 A 
ATOM     72  F   UNL A   1      47.649  26.233  27.974  1.00  0.00    -0.206 F 
ATOM     73  C   UNL A   1      49.145  26.185  24.677  1.00  0.00     0.006 A 
ENDBRANCH  52  66
BRANCH  53  74
ATOM     74  C   UNL A   1      38.921  30.719  30.969  1.00  0.00     0.057 A 
ATOM     75  C   UNL A   1      38.735  30.334  32.302  1.00  0.00     0.134 A 
ATOM     76  C   UNL A   1      37.963  31.572  30.408  1.00  0.00     0.134 A 
ATOM     77  F   UNL A   1      39.605  29.502  32.893  1.00  0.00    -0.206 F 
ATOM     78  C   UNL A   1      37.624  30.755  33.037  1.00  0.00     0.040 A 
ATOM     79  C   UNL A   1      36.866  32.027  31.139  1.00  0.00     0.040 A 
ATOM     80  F   UNL A   1      38.082  31.982  29.137  1.00  0.00    -0.206 F 
ATOM     81  C   UNL A   1      36.687  31.607  32.455  1.00  0.00     0.006 A 
ENDBRANCH  53  74
BRANCH  65  82
ATOM     82  C   UNL A   1      45.234  33.257  29.473  1.00  0.00     0.057 A 
ATOM     83  C   UNL A   1      46.028  33.374  30.620  1.00  0.00     0.134 A 
ATOM     84  C   UNL A   1      45.125  34.379  28.643  1.00  0.00     0.134 A 
ATOM     85  F   UNL A   1      46.163  32.338  31.463  1.00  0.00    -0.206 F 
ATOM     86  C   UNL A   1      46.671  34.570  30.942  1.00  0.00     0.040 A 
ATOM     87  C   UNL A   1      45.788  35.570  28.938  1.00  0.00     0.040 A 
ATOM     88  F   UNL A   1      44.388  34.330  27.523  1.00  0.00    -0.206 F 
ATOM     89  C   UNL A   1      46.558  35.670  30.095  1.00  0.00     0.006 A 
ENDBRANCH  65  82
ENDBRANCH  39  40
ENDBRANCH  32  34
ENDBRANCH  31  32
ENDBRANCH  30  31
ENDBRANCH  29  30
ENDBRANCH   1  29
TORSDOF 17
ENDMDL
MODEL 2
REMARK VINA RESULT:     -11.5      0.371      6.144
REMARK SMILES CC(=O)[NH+]1CCC2(CC1)C[C@H](C(=O)OCCOCCOC(=O)c1ccc(-c3c4nc(c(-c5c(F)cccc5F)c5ccc([nH]5)c(-c5c(F)cccc5F)c5nc(c(-c6c(F)cccc6F)c6ccc3[nH]6)C=C5)C=C4)cc1)[N@H+](Cc1ncc[nH]1)C2
REMARK SMILES IDX 17 1 16 2 15 3 14 4 12 5 13 6 11 7 4 8 5 9 9 10 6 12 8 13
REMARK SMILES IDX 7 14 10 15 84 16 77 17 2 19 1 20 3 21 78 22 79 23 80 24
REMARK SMILES IDX 83 25 81 26 82 27 18 29 19 30 20 31 21 32 22 33 23 34 24 35
REMARK SMILES IDX 76 36 25 37 75 38 26 39 27 40 28 41 69 42 29 43 74 44 68 45
REMARK SMILES IDX 70 46 30 47 73 48 67 49 66 50 31 52 57 53 40 54 56 55 41 56
REMARK SMILES IDX 44 57 55 58 71 59 42 60 43 61 54 63 72 64 45 65 32 66 33 67
REMARK SMILES IDX 38 68 34 69 35 70 37 71 39 72 36 73 58 74 59 75 64 76 60 77
REMARK SMILES IDX 61 78 63 79 65 80 62 81 46 82 47 83 52 84 48 85 49 86 51 87
REMARK SMILES IDX 53 88 50 89
REMARK H PARENT 4 11 77 18 83 28 70 51 44 62
REMARK Flexibility Score: inf
ROOT
ATOM      1  O   UNL A   1      34.246  22.195  24.618  1.00  0.00    -0.374 OA
ENDROOT
BRANCH   1   2
ATOM      2  C   UNL A   1      33.053  21.931  23.881  1.00  0.00     0.202 C 
BRANCH   2   3
ATOM      3  C   UNL A   1      32.899  22.597  22.509  1.00  0.00     0.261 C 
BRANCH   3   4
ATOM      4  O   UNL A   1      33.842  23.659  22.242  1.00  0.00    -0.459 OA
BRANCH   4   5
ATOM      5  C   UNL A   1      33.293  24.891  22.039  1.00  0.00     0.365 C 
ATOM      6  O   UNL A   1      33.311  25.467  20.953  1.00  0.00    -0.245 OA
BRANCH   5   7
ATOM      7  C   UNL A   1      32.805  25.599  23.300  1.00  0.00     0.296 C 
ATOM      8  N   UNL A   1      33.117  29.694  26.791  1.00  0.00    -0.272 N 
ATOM      9  C   UNL A   1      32.591  29.900  25.463  1.00  0.00     0.270 C 
ATOM     10  C   UNL A   1      32.997  28.325  27.303  1.00  0.00     0.270 C 
ATOM     11  H   UNL A   1      32.652  30.557  26.878  1.00  0.00     0.356 HD
ATOM     12  C   UNL A   1      33.354  28.962  24.541  1.00  0.00     0.075 C 
ATOM     13  C   UNL A   1      33.555  27.279  26.324  1.00  0.00     0.075 C 
ATOM     14  C   UNL A   1      33.078  27.480  24.859  1.00  0.00     0.036 C 
ATOM     15  C   UNL A   1      33.852  26.538  23.907  1.00  0.00     0.091 C 
ATOM     16  C   UNL A   1      31.598  27.077  24.624  1.00  0.00     0.270 C 
ATOM     17  N   UNL A   1      31.526  26.340  23.348  1.00  0.00    -0.316 N 
ATOM     18  H   UNL A   1      30.764  25.665  23.289  1.00  0.00     0.349 HD
BRANCH   8  19
ATOM     19  C   UNL A   1      33.760  30.769  27.378  1.00  0.00     0.308 C 
ATOM     20  C   UNL A   1      35.245  30.665  27.559  1.00  0.00     0.164 C 
ATOM     21  O   UNL A   1      33.183  31.829  27.626  1.00  0.00    -0.231 OA
ENDBRANCH   8  19
BRANCH  17  22
ATOM     22  C   UNL A   1      31.062  27.121  22.192  1.00  0.00     0.339 C 
BRANCH  22  23
ATOM     23  C   UNL A   1      30.192  28.325  22.411  1.00  0.00     0.161 A 
ATOM     24  N   UNL A   1      28.967  28.362  22.905  1.00  0.00    -0.236 NA
ATOM     25  N   UNL A   1      30.613  29.608  22.126  1.00  0.00    -0.344 N 
ATOM     26  C   UNL A   1      28.577  29.678  22.900  1.00  0.00     0.131 A 
ATOM     27  C   UNL A   1      29.588  30.470  22.418  1.00  0.00     0.104 A 
ATOM     28  H   UNL A   1      31.497  29.861  21.774  1.00  0.00     0.167 HD
ENDBRANCH  22  23
ENDBRANCH  17  22
ENDBRANCH   5   7
ENDBRANCH   4   5
ENDBRANCH   3   4
ENDBRANCH   2   3
ENDBRANCH   1   2
BRANCH   1  29
ATOM     29  C   UNL A   1      35.189  21.126  24.691  1.00  0.00     0.202 C 
BRANCH  29  30
ATOM     30  C   UNL A   1      36.277  21.276  25.760  1.00  0.00     0.261 C 
BRANCH  30  31
ATOM     31  O   UNL A   1      37.485  21.827  25.212  1.00  0.00    -0.460 OA
BRANCH  31  32
ATOM     32  C   UNL A   1      38.604  21.444  25.859  1.00  0.00     0.338 C 
ATOM     33  O   UNL A   1      39.148  20.347  25.840  1.00  0.00    -0.246 OA
BRANCH  32  34
ATOM     34  C   UNL A   1      39.235  22.614  26.477  1.00  0.00     0.060 A 
ATOM     35  C   UNL A   1      38.747  23.868  26.093  1.00  0.00     0.016 A 
ATOM     36  C   UNL A   1      40.316  22.495  27.353  1.00  0.00     0.016 A 
ATOM     37  C   UNL A   1      39.383  25.018  26.540  1.00  0.00     0.010 A 
ATOM     38  C   UNL A   1      40.955  23.654  27.798  1.00  0.00     0.010 A 
ATOM     39  C   UNL A   1      40.513  24.915  27.362  1.00  0.00    -0.014 A 
BRANCH  39  40
ATOM     40  C   UNL A   1      41.288  26.142  27.652  1.00  0.00     0.031 A 
ATOM     41  C   UNL A   1      40.646  27.240  28.453  1.00  0.00     0.074 A 
ATOM     42  C   UNL A   1      42.571  26.232  27.260  1.00  0.00     0.049 A 
ATOM     43  N   UNL A   1      41.151  28.379  28.848  1.00  0.00    -0.248 NA
ATOM     44  C   UNL A   1      39.250  27.025  28.870  1.00  0.00     0.031 C 
ATOM     45  C   UNL A   1      43.295  25.209  26.506  1.00  0.00     0.029 A 
ATOM     46  N   UNL A   1      43.493  27.228  27.447  1.00  0.00    -0.354 N 
ATOM     47  C   UNL A   1      40.138  29.017  29.552  1.00  0.00     0.074 A 
ATOM     48  C   UNL A   1      38.979  28.154  29.509  1.00  0.00     0.031 C 
ATOM     49  C   UNL A   1      44.550  25.633  26.290  1.00  0.00     0.029 A 
ATOM     50  C   UNL A   1      44.706  26.969  26.859  1.00  0.00     0.049 A 
ATOM     51  H   UNL A   1      43.303  28.051  27.953  1.00  0.00     0.167 HD
ATOM     52  C   UNL A   1      40.180  30.214  30.182  1.00  0.00     0.037 A 
ATOM     53  C   UNL A   1      45.808  27.739  26.772  1.00  0.00     0.037 A 
ATOM     54  C   UNL A   1      41.347  31.055  30.229  1.00  0.00     0.049 A 
ATOM     55  C   UNL A   1      45.802  29.091  27.433  1.00  0.00     0.074 A 
ATOM     56  C   UNL A   1      41.508  32.266  30.879  1.00  0.00     0.029 A 
ATOM     57  N   UNL A   1      42.546  30.779  29.589  1.00  0.00    -0.354 N 
ATOM     58  N   UNL A   1      44.857  29.662  28.140  1.00  0.00    -0.248 NA
ATOM     59  C   UNL A   1      47.017  29.906  27.285  1.00  0.00     0.031 C 
ATOM     60  C   UNL A   1      42.783  32.754  30.578  1.00  0.00     0.029 A 
ATOM     61  C   UNL A   1      43.438  31.819  29.792  1.00  0.00     0.049 A 
ATOM     62  H   UNL A   1      42.735  29.965  29.069  1.00  0.00     0.167 HD
ATOM     63  C   UNL A   1      45.368  30.893  28.535  1.00  0.00     0.074 A 
ATOM     64  C   UNL A   1      46.716  30.972  28.013  1.00  0.00     0.031 C 
ATOM     65  C   UNL A   1      44.775  31.875  29.258  1.00  0.00     0.037 A 
BRANCH  52  66
ATOM     66  C   UNL A   1      38.931  30.704  30.851  1.00  0.00     0.057 A 
ATOM     67  C   UNL A   1      37.968  31.461  30.169  1.00  0.00     0.134 A 
ATOM     68  C   UNL A   1      38.652  30.349  32.177  1.00  0.00     0.134 A 
ATOM     69  F   UNL A   1      38.177  31.846  28.902  1.00  0.00    -0.206 F 
ATOM     70  C   UNL A   1      36.777  31.852  30.786  1.00  0.00     0.040 A 
ATOM     71  C   UNL A   1      37.455  30.712  32.796  1.00  0.00     0.040 A 
ATOM     72  F   UNL A   1      39.531  29.624  32.886  1.00  0.00    -0.206 F 
ATOM     73  C   UNL A   1      36.514  31.467  32.100  1.00  0.00     0.006 A 
ENDBRANCH  52  66
BRANCH  53  74
ATOM     74  C   UNL A   1      46.986  27.273  25.996  1.00  0.00     0.057 A 
ATOM     75  C   UNL A   1      47.097  27.502  24.620  1.00  0.00     0.134 A 
ATOM     76  C   UNL A   1      48.015  26.547  26.610  1.00  0.00     0.134 A 
ATOM     77  F   UNL A   1      46.137  28.173  23.967  1.00  0.00    -0.206 F 
ATOM     78  C   UNL A   1      48.171  27.002  23.878  1.00  0.00     0.040 A 
ATOM     79  C   UNL A   1      49.108  26.069  25.889  1.00  0.00     0.040 A 
ATOM     80  F   UNL A   1      47.973  26.295  27.927  1.00  0.00    -0.206 F 
ATOM     81  C   UNL A   1      49.182  26.285  24.515  1.00  0.00     0.006 A 
ENDBRANCH  53  74
BRANCH  65  82
ATOM     82  C   UNL A   1      45.586  33.107  29.536  1.00  0.00     0.057 A 
ATOM     83  C   UNL A   1      45.540  34.224  28.692  1.00  0.00     0.134 A 
ATOM     84  C   UNL A   1      46.391  33.191  30.678  1.00  0.00     0.134 A 
ATOM     85  F   UNL A   1      44.797  34.202  27.575  1.00  0.00    -0.206 F 
ATOM     86  C   UNL A   1      46.285  35.372  28.962  1.00  0.00     0.040 A 
ATOM     87  C   UNL A   1      47.116  34.345  30.976  1.00  0.00     0.040 A 
ATOM     88  F   UNL A   1      46.471  32.161  31.534  1.00  0.00    -0.206 F 
ATOM     89  C   UNL A   1      47.070  35.437  30.112  1.00  0.00     0.006 A 
ENDBRANCH  65  82
ENDBRANCH  39  40
ENDBRANCH  32  34
ENDBRANCH  31  32
ENDBRANCH  30  31
ENDBRANCH  29  30
ENDBRANCH   1  29
TORSDOF 17
ENDMDL
MODEL 3
REMARK VINA RESULT:     -11.3      4.080      7.927
REMARK SMILES CC(=O)[NH+]1CCC2(CC1)C[C@H](C(=O)OCCOCCOC(=O)c1ccc(-c3c4nc(c(-c5c(F)cccc5F)c5ccc([nH]5)c(-c5c(F)cccc5F)c5nc(c(-c6c(F)cccc6F)c6ccc3[nH]6)C=C5)C=C4)cc1)[N@H+](Cc1ncc[nH]1)C2
REMARK SMILES IDX 17 1 16 2 15 3 14 4 12 5 13 6 11 7 4 8 5 9 9 10 6 12 8 13
REMARK SMILES IDX 7 14 10 15 84 16 77 17 2 19 1 20 3 21 78 22 79 23 80 24
REMARK SMILES IDX 83 25 81 26 82 27 18 29 19 30 20 31 21 32 22 33 23 34 24 35
REMARK SMILES IDX 76 36 25 37 75 38 26 39 27 40 28 41 69 42 29 43 74 44 68 45
REMARK SMILES IDX 70 46 30 47 73 48 67 49 66 50 31 52 57 53 40 54 56 55 41 56
REMARK SMILES IDX 44 57 55 58 71 59 42 60 43 61 54 63 72 64 45 65 32 66 33 67
REMARK SMILES IDX 38 68 34 69 35 70 37 71 39 72 36 73 58 74 59 75 64 76 60 77
REMARK SMILES IDX 61 78 63 79 65 80 62 81 46 82 47 83 52 84 48 85 49 86 51 87
REMARK SMILES IDX 53 88 50 89
REMARK H PARENT 4 11 77 18 83 28 70 51 44 62
REMARK Flexibility Score: inf
ROOT
ATOM      1  O   UNL A   1      31.992  30.654  27.063  1.00  0.00    -0.374 OA
ENDROOT
BRANCH   1   2
ATOM      2  C   UNL A   1      31.712  29.555  26.199  1.00  0.00     0.202 C 
BRANCH   2   3
ATOM      3  C   UNL A   1      32.838  28.545  25.940  1.00  0.00     0.261 C 
BRANCH   3   4
ATOM      4  O   UNL A   1      32.854  27.414  26.840  1.00  0.00    -0.459 OA
BRANCH   4   5
ATOM      5  C   UNL A   1      32.056  26.369  26.479  1.00  0.00     0.365 C 
ATOM      6  O   UNL A   1      30.870  26.285  26.796  1.00  0.00    -0.245 OA
BRANCH   5   7
ATOM      7  C   UNL A   1      32.776  25.207  25.802  1.00  0.00     0.296 C 
ATOM      8  N   UNL A   1      33.229  19.934  24.778  1.00  0.00    -0.272 N 
ATOM      9  C   UNL A   1      32.159  20.706  24.194  1.00  0.00     0.270 C 
ATOM     10  C   UNL A   1      34.429  20.700  25.132  1.00  0.00     0.270 C 
ATOM     11  H   UNL A   1      32.917  19.348  24.053  1.00  0.00     0.356 HD
ATOM     12  C   UNL A   1      31.781  21.770  25.212  1.00  0.00     0.075 C 
ATOM     13  C   UNL A   1      34.108  21.932  25.992  1.00  0.00     0.075 C 
ATOM     14  C   UNL A   1      32.921  22.778  25.454  1.00  0.00     0.036 C 
ATOM     15  C   UNL A   1      32.518  23.859  26.483  1.00  0.00     0.091 C 
ATOM     16  C   UNL A   1      33.270  23.609  24.191  1.00  0.00     0.270 C 
ATOM     17  N   UNL A   1      32.671  24.948  24.350  1.00  0.00    -0.316 N 
ATOM     18  H   UNL A   1      33.162  25.694  23.857  1.00  0.00     0.349 HD
BRANCH   8  19
ATOM     19  C   UNL A   1      32.965  18.601  25.033  1.00  0.00     0.308 C 
ATOM     20  C   UNL A   1      33.400  17.604  24.001  1.00  0.00     0.164 C 
ATOM     21  O   UNL A   1      32.516  18.211  26.114  1.00  0.00    -0.231 OA
ENDBRANCH   8  19
BRANCH  17  22
ATOM     22  C   UNL A   1      31.406  25.165  23.633  1.00  0.00     0.339 C 
BRANCH  22  23
ATOM     23  C   UNL A   1      30.981  26.561  23.283  1.00  0.00     0.161 A 
ATOM     24  N   UNL A   1      31.558  27.396  22.436  1.00  0.00    -0.236 NA
ATOM     25  N   UNL A   1      29.857  27.153  23.821  1.00  0.00    -0.344 N 
ATOM     26  C   UNL A   1      30.821  28.555  22.460  1.00  0.00     0.131 A 
ATOM     27  C   UNL A   1      29.758  28.424  23.317  1.00  0.00     0.104 A 
ATOM     28  H   UNL A   1      29.233  26.735  24.458  1.00  0.00     0.167 HD
ENDBRANCH  22  23
ENDBRANCH  17  22
ENDBRANCH   5   7
ENDBRANCH   4   5
ENDBRANCH   3   4
ENDBRANCH   2   3
ENDBRANCH   1   2
BRANCH   1  29
ATOM     29  C   UNL A   1      31.503  31.927  26.639  1.00  0.00     0.202 C 
BRANCH  29  30
ATOM     30  C   UNL A   1      32.447  33.111  26.875  1.00  0.00     0.261 C 
BRANCH  30  31
ATOM     31  O   UNL A   1      32.153  33.784  28.110  1.00  0.00    -0.460 OA
BRANCH  31  32
ATOM     32  C   UNL A   1      33.134  34.609  28.529  1.00  0.00     0.338 C 
ATOM     33  O   UNL A   1      33.070  35.815  28.727  1.00  0.00    -0.246 OA
BRANCH  32  34
ATOM     34  C   UNL A   1      34.301  33.816  28.925  1.00  0.00     0.060 A 
ATOM     35  C   UNL A   1      34.057  32.681  29.704  1.00  0.00     0.016 A 
ATOM     36  C   UNL A   1      35.603  34.205  28.602  1.00  0.00     0.016 A 
ATOM     37  C   UNL A   1      35.123  31.958  30.220  1.00  0.00     0.010 A 
ATOM     38  C   UNL A   1      36.675  33.477  29.124  1.00  0.00     0.010 A 
ATOM     39  C   UNL A   1      36.437  32.377  29.965  1.00  0.00    -0.014 A 
BRANCH  39  40
ATOM     40  C   UNL A   1      37.541  31.713  30.693  1.00  0.00     0.031 A 
ATOM     41  C   UNL A   1      38.350  30.659  29.990  1.00  0.00     0.074 A 
ATOM     42  C   UNL A   1      37.854  32.108  31.939  1.00  0.00     0.049 A 
ATOM     43  N   UNL A   1      39.377  29.979  30.426  1.00  0.00    -0.248 NA
ATOM     44  C   UNL A   1      37.953  30.330  28.611  1.00  0.00     0.031 C 
ATOM     45  C   UNL A   1      37.151  33.144  32.695  1.00  0.00     0.029 A 
ATOM     46  N   UNL A   1      38.845  31.686  32.786  1.00  0.00    -0.354 N 
ATOM     47  C   UNL A   1      39.745  29.139  29.382  1.00  0.00     0.074 A 
ATOM     48  C   UNL A   1      38.816  29.374  28.299  1.00  0.00     0.031 C 
ATOM     49  C   UNL A   1      37.732  33.275  33.899  1.00  0.00     0.029 A 
ATOM     50  C   UNL A   1      38.823  32.310  34.009  1.00  0.00     0.049 A 
ATOM     51  H   UNL A   1      39.509  31.002  32.541  1.00  0.00     0.167 HD
ATOM     52  C   UNL A   1      40.771  28.259  29.335  1.00  0.00     0.037 A 
ATOM     53  C   UNL A   1      39.583  32.102  35.101  1.00  0.00     0.037 A 
ATOM     54  C   UNL A   1      41.697  28.048  30.416  1.00  0.00     0.049 A 
ATOM     55  C   UNL A   1      40.680  31.072  35.036  1.00  0.00     0.074 A 
ATOM     56  C   UNL A   1      42.799  27.212  30.454  1.00  0.00     0.029 A 
ATOM     57  N   UNL A   1      41.620  28.668  31.654  1.00  0.00    -0.354 N 
ATOM     58  N   UNL A   1      41.051  30.322  34.026  1.00  0.00    -0.248 NA
ATOM     59  C   UNL A   1      41.464  30.861  36.261  1.00  0.00     0.031 C 
ATOM     60  C   UNL A   1      43.350  27.277  31.737  1.00  0.00     0.029 A 
ATOM     61  C   UNL A   1      42.629  28.199  32.479  1.00  0.00     0.049 A 
ATOM     62  H   UNL A   1      40.948  29.341  31.909  1.00  0.00     0.167 HD
ATOM     63  C   UNL A   1      42.120  29.564  34.488  1.00  0.00     0.074 A 
ATOM     64  C   UNL A   1      42.356  29.967  35.860  1.00  0.00     0.031 C 
ATOM     65  C   UNL A   1      42.840  28.614  33.842  1.00  0.00     0.037 A 
BRANCH  52  66
ATOM     66  C   UNL A   1      40.940  27.437  28.092  1.00  0.00     0.057 A 
ATOM     67  C   UNL A   1      40.301  26.202  27.922  1.00  0.00     0.134 A 
ATOM     68  C   UNL A   1      41.695  27.926  27.018  1.00  0.00     0.134 A 
ATOM     69  F   UNL A   1      39.573  25.670  28.915  1.00  0.00    -0.206 F 
ATOM     70  C   UNL A   1      40.413  25.481  26.731  1.00  0.00     0.040 A 
ATOM     71  C   UNL A   1      41.795  27.227  25.814  1.00  0.00     0.040 A 
ATOM     72  F   UNL A   1      42.332  29.104  27.114  1.00  0.00    -0.206 F 
ATOM     73  C   UNL A   1      41.153  25.999  25.669  1.00  0.00     0.006 A 
ENDBRANCH  52  66
BRANCH  53  74
ATOM     74  C   UNL A   1      39.309  32.847  36.357  1.00  0.00     0.057 A 
ATOM     75  C   UNL A   1      38.410  32.365  37.316  1.00  0.00     0.134 A 
ATOM     76  C   UNL A   1      39.912  34.086  36.608  1.00  0.00     0.134 A 
ATOM     77  F   UNL A   1      37.784  31.195  37.126  1.00  0.00    -0.206 F 
ATOM     78  C   UNL A   1      38.099  33.100  38.462  1.00  0.00     0.040 A 
ATOM     79  C   UNL A   1      39.636  34.816  37.763  1.00  0.00     0.040 A 
ATOM     80  F   UNL A   1      40.785  34.604  35.732  1.00  0.00    -0.206 F 
ATOM     81  C   UNL A   1      38.716  34.329  38.689  1.00  0.00     0.006 A 
ENDBRANCH  53  74
BRANCH  65  82
ATOM     82  C   UNL A   1      43.954  27.960  34.606  1.00  0.00     0.057 A 
ATOM     83  C   UNL A   1      43.764  26.759  35.301  1.00  0.00     0.134 A 
ATOM     84  C   UNL A   1      45.239  28.516  34.615  1.00  0.00     0.134 A 
ATOM     85  F   UNL A   1      42.553  26.181  35.341  1.00  0.00    -0.206 F 
ATOM     86  C   UNL A   1      44.806  26.148  35.998  1.00  0.00     0.040 A 
ATOM     87  C   UNL A   1      46.297  27.898  35.282  1.00  0.00     0.040 A 
ATOM     88  F   UNL A   1      45.492  29.659  33.960  1.00  0.00    -0.206 F 
ATOM     89  C   UNL A   1      46.079  26.713  35.983  1.00  0.00     0.006 A 
ENDBRANCH  65  82
ENDBRANCH  39  40
ENDBRANCH  32  34
ENDBRANCH  31  32
ENDBRANCH  30  31
ENDBRANCH  29  30
ENDBRANCH   1  29
TORSDOF 17
ENDMDL
