MODEL 1
REMARK VINA RESULT:      -9.5      0.000      0.000
REMARK SMILES CCCC#C[C@](C)(O)C[NH2+][C@H](C)C(=O)OCCOCCOC(=O)c1ccc(-c2c3nc(c(-c4c(F)cccc4F)c4ccc([nH]4)c(-c4c(F)cccc4F)c4nc(c(-c5c(F)cccc5F)c5ccc2[nH]5)C=C4)C=C3)cc1
REMARK SMILES IDX 16 1 15 2 13 3 14 4 11 5 12 6 10 7 9 10 6 11 7 12 5 13 4 14
REMARK SMILES IDX 3 15 2 16 1 17 8 18 17 20 18 21 19 22 20 23 21 24 22 25
REMARK SMILES IDX 23 26 24 27 25 28 77 29 26 30 76 31 27 32 28 33 29 34 70 35
REMARK SMILES IDX 30 36 75 37 69 38 71 39 31 40 74 41 68 42 67 43 32 45 58 46
REMARK SMILES IDX 41 47 57 48 42 49 45 50 56 51 72 52 43 53 44 54 55 56 73 57
REMARK SMILES IDX 46 58 33 59 34 60 39 61 35 62 36 63 38 64 40 65 37 66 59 67
REMARK SMILES IDX 60 68 65 69 61 70 62 71 64 72 66 73 63 74 47 75 48 76 53 77
REMARK SMILES IDX 49 78 50 79 52 80 54 81 51 82
REMARK H PARENT 10 8 10 9 8 19 71 44 45 55
REMARK Flexibility Score: inf
ROOT
ATOM      1  C   UNL A   1      39.998  20.961  26.533  1.00  0.00     0.261 C 
ENDROOT
BRANCH   1   2
ATOM      2  O   UNL A   1      39.214  21.478  25.456  1.00  0.00    -0.459 OA
BRANCH   2   3
ATOM      3  C   UNL A   1      38.026  20.837  25.222  1.00  0.00     0.364 C 
ATOM      4  O   UNL A   1      37.918  19.672  24.858  1.00  0.00    -0.245 OA
BRANCH   3   5
ATOM      5  C   UNL A   1      36.842  21.813  25.359  1.00  0.00     0.290 C 
ATOM      6  C   UNL A   1      36.508  22.561  24.068  1.00  0.00     0.088 C 
BRANCH   5   7
ATOM      7  N   UNL A   1      35.672  21.142  25.962  1.00  0.00    -0.332 N 
ATOM      8  H   UNL A   1      36.009  20.430  26.611  1.00  0.00     0.347 HD
ATOM      9  H   UNL A   1      35.123  21.866  26.425  1.00  0.00     0.347 HD
BRANCH   7  10
ATOM     10  C   UNL A   1      34.783  20.493  24.984  1.00  0.00     0.310 C 
BRANCH  10  11
ATOM     11  C   UNL A   1      33.281  20.831  25.158  1.00  0.00     0.171 C 
ATOM     12  C   UNL A   1      32.519  20.726  23.836  1.00  0.00     0.063 C 
BRANCH  11  13
ATOM     13  C   UNL A   1      33.193  22.216  25.655  1.00  0.00    -0.063 C 
ATOM     14  C   UNL A   1      33.014  23.363  25.968  1.00  0.00    -0.100 C 
BRANCH  14  15
ATOM     15  C   UNL A   1      32.779  24.791  26.189  1.00  0.00     0.089 C 
BRANCH  15  16
ATOM     16  C   UNL A   1      33.956  25.612  25.668  1.00  0.00     0.010 C 
ATOM     17  C   UNL A   1      34.074  25.558  24.148  1.00  0.00     0.005 C 
ENDBRANCH  15  16
ENDBRANCH  14  15
ENDBRANCH  11  13
BRANCH  11  18
ATOM     18  O   UNL A   1      32.714  19.940  26.118  1.00  0.00    -0.372 OA
ATOM     19  H   UNL A   1      32.855  19.025  25.832  1.00  0.00     0.212 HD
ENDBRANCH  11  18
ENDBRANCH  10  11
ENDBRANCH   7  10
ENDBRANCH   5   7
ENDBRANCH   3   5
ENDBRANCH   2   3
ENDBRANCH   1   2
BRANCH   1  20
ATOM     20  C   UNL A   1      40.833  19.750  26.123  1.00  0.00     0.202 C 
BRANCH  20  21
ATOM     21  O   UNL A   1      42.240  19.902  25.998  1.00  0.00    -0.374 OA
BRANCH  21  22
ATOM     22  C   UNL A   1      42.820  21.191  26.171  1.00  0.00     0.202 C 
BRANCH  22  23
ATOM     23  C   UNL A   1      43.592  21.837  25.011  1.00  0.00     0.261 C 
BRANCH  23  24
ATOM     24  O   UNL A   1      43.095  23.118  24.584  1.00  0.00    -0.460 OA
BRANCH  24  25
ATOM     25  C   UNL A   1      43.864  24.162  24.982  1.00  0.00     0.338 C 
ATOM     26  O   UNL A   1      45.002  24.420  24.623  1.00  0.00    -0.246 OA
BRANCH  25  27
ATOM     27  C   UNL A   1      43.104  25.094  25.831  1.00  0.00     0.060 A 
ATOM     28  C   UNL A   1      43.567  26.413  25.924  1.00  0.00     0.016 A 
ATOM     29  C   UNL A   1      42.075  24.642  26.657  1.00  0.00     0.016 A 
ATOM     30  C   UNL A   1      43.046  27.269  26.891  1.00  0.00     0.010 A 
ATOM     31  C   UNL A   1      41.549  25.509  27.623  1.00  0.00     0.010 A 
ATOM     32  C   UNL A   1      42.060  26.812  27.776  1.00  0.00    -0.014 A 
BRANCH  32  33
ATOM     33  C   UNL A   1      41.652  27.656  28.929  1.00  0.00     0.031 A 
ATOM     34  C   UNL A   1      42.375  27.532  30.237  1.00  0.00     0.074 A 
ATOM     35  C   UNL A   1      40.665  28.563  28.807  1.00  0.00     0.049 A 
ATOM     36  N   UNL A   1      42.135  28.136  31.373  1.00  0.00    -0.248 NA
ATOM     37  C   UNL A   1      43.532  26.625  30.268  1.00  0.00     0.031 C 
ATOM     38  C   UNL A   1      39.967  28.871  27.567  1.00  0.00     0.029 A 
ATOM     39  N   UNL A   1      40.068  29.380  29.737  1.00  0.00    -0.354 N 
ATOM     40  C   UNL A   1      43.117  27.697  32.248  1.00  0.00     0.074 A 
ATOM     41  C   UNL A   1      43.922  26.732  31.530  1.00  0.00     0.031 C 
ATOM     42  C   UNL A   1      38.997  29.762  27.818  1.00  0.00     0.029 A 
ATOM     43  C   UNL A   1      38.987  30.066  29.241  1.00  0.00     0.049 A 
ATOM     44  H   UNL A   1      40.385  29.465  30.665  1.00  0.00     0.167 HD
ATOM     45  C   UNL A   1      43.340  28.085  33.526  1.00  0.00     0.037 A 
ATOM     46  C   UNL A   1      38.069  30.834  29.856  1.00  0.00     0.037 A 
ATOM     47  C   UNL A   1      42.528  29.040  34.236  1.00  0.00     0.049 A 
ATOM     48  C   UNL A   1      38.241  31.131  31.316  1.00  0.00     0.074 A 
ATOM     49  C   UNL A   1      42.682  29.509  35.530  1.00  0.00     0.029 A 
ATOM     50  N   UNL A   1      41.398  29.662  33.721  1.00  0.00    -0.354 N 
ATOM     51  N   UNL A   1      39.187  30.730  32.128  1.00  0.00    -0.248 NA
ATOM     52  C   UNL A   1      37.248  32.017  31.935  1.00  0.00     0.031 C 
ATOM     53  C   UNL A   1      41.608  30.354  35.821  1.00  0.00     0.029 A 
ATOM     54  C   UNL A   1      40.824  30.477  34.685  1.00  0.00     0.049 A 
ATOM     55  H   UNL A   1      41.056  29.542  32.807  1.00  0.00     0.167 HD
ATOM     56  C   UNL A   1      38.936  31.356  33.341  1.00  0.00     0.074 A 
ATOM     57  C   UNL A   1      37.749  32.165  33.153  1.00  0.00     0.031 C 
ATOM     58  C   UNL A   1      39.640  31.278  34.497  1.00  0.00     0.037 A 
BRANCH  45  59
ATOM     59  C   UNL A   1      44.493  27.449  34.248  1.00  0.00     0.057 A 
ATOM     60  C   UNL A   1      44.371  26.218  34.908  1.00  0.00     0.134 A 
ATOM     61  C   UNL A   1      45.750  28.064  34.261  1.00  0.00     0.134 A 
ATOM     62  F   UNL A   1      43.191  25.579  34.945  1.00  0.00    -0.206 F 
ATOM     63  C   UNL A   1      45.450  25.638  35.578  1.00  0.00     0.040 A 
ATOM     64  C   UNL A   1      46.845  27.479  34.900  1.00  0.00     0.040 A 
ATOM     65  F   UNL A   1      45.940  29.240  33.645  1.00  0.00    -0.206 F 
ATOM     66  C   UNL A   1      46.693  26.266  35.569  1.00  0.00     0.006 A 
ENDBRANCH  45  59
BRANCH  46  67
ATOM     67  C   UNL A   1      36.912  31.372  29.096  1.00  0.00     0.057 A 
ATOM     68  C   UNL A   1      36.878  32.700  28.659  1.00  0.00     0.134 A 
ATOM     69  C   UNL A   1      35.798  30.572  28.805  1.00  0.00     0.134 A 
ATOM     70  F   UNL A   1      37.909  33.520  28.915  1.00  0.00    -0.206 F 
ATOM     71  C   UNL A   1      35.772  33.223  27.989  1.00  0.00     0.040 A 
ATOM     72  C   UNL A   1      34.695  31.074  28.113  1.00  0.00     0.040 A 
ATOM     73  F   UNL A   1      35.769  29.286  29.185  1.00  0.00    -0.206 F 
ATOM     74  C   UNL A   1      34.675  32.408  27.713  1.00  0.00     0.006 A 
ENDBRANCH  46  67
BRANCH  58  75
ATOM     75  C   UNL A   1      39.171  32.132  35.640  1.00  0.00     0.057 A 
ATOM     76  C   UNL A   1      39.530  33.480  35.762  1.00  0.00     0.134 A 
ATOM     77  C   UNL A   1      38.330  31.598  36.626  1.00  0.00     0.134 A 
ATOM     78  F   UNL A   1      40.345  34.052  34.862  1.00  0.00    -0.206 F 
ATOM     79  C   UNL A   1      39.098  34.256  36.839  1.00  0.00     0.040 A 
ATOM     80  C   UNL A   1      37.861  32.373  37.686  1.00  0.00     0.040 A 
ATOM     81  F   UNL A   1      37.941  30.315  36.567  1.00  0.00    -0.206 F 
ATOM     82  C   UNL A   1      38.254  33.703  37.801  1.00  0.00     0.006 A 
ENDBRANCH  58  75
ENDBRANCH  32  33
ENDBRANCH  25  27
ENDBRANCH  24  25
ENDBRANCH  23  24
ENDBRANCH  22  23
ENDBRANCH  21  22
ENDBRANCH  20  21
ENDBRANCH   1  20
TORSDOF 21
ENDMDL
MODEL 2
REMARK VINA RESULT:      -9.2      3.845      6.507
REMARK SMILES CCCC#C[C@](C)(O)C[NH2+][C@H](C)C(=O)OCCOCCOC(=O)c1ccc(-c2c3nc(c(-c4c(F)cccc4F)c4ccc([nH]4)c(-c4c(F)cccc4F)c4nc(c(-c5c(F)cccc5F)c5ccc2[nH]5)C=C4)C=C3)cc1
REMARK SMILES IDX 16 1 15 2 13 3 14 4 11 5 12 6 10 7 9 10 6 11 7 12 5 13 4 14
REMARK SMILES IDX 3 15 2 16 1 17 8 18 17 20 18 21 19 22 20 23 21 24 22 25
REMARK SMILES IDX 23 26 24 27 25 28 77 29 26 30 76 31 27 32 28 33 29 34 70 35
REMARK SMILES IDX 30 36 75 37 69 38 71 39 31 40 74 41 68 42 67 43 32 45 58 46
REMARK SMILES IDX 41 47 57 48 42 49 45 50 56 51 72 52 43 53 44 54 55 56 73 57
REMARK SMILES IDX 46 58 33 59 34 60 39 61 35 62 36 63 38 64 40 65 37 66 59 67
REMARK SMILES IDX 60 68 65 69 61 70 62 71 64 72 66 73 63 74 47 75 48 76 53 77
REMARK SMILES IDX 49 78 50 79 52 80 54 81 51 82
REMARK H PARENT 10 8 10 9 8 19 71 44 45 55
REMARK Flexibility Score: inf
ROOT
ATOM      1  C   UNL A   1      33.415  22.955  26.564  1.00  0.00     0.261 C 
ENDROOT
BRANCH   1   2
ATOM      2  O   UNL A   1      34.132  24.151  26.248  1.00  0.00    -0.459 OA
BRANCH   2   3
ATOM      3  C   UNL A   1      33.585  24.931  25.264  1.00  0.00     0.364 C 
ATOM      4  O   UNL A   1      32.562  25.595  25.385  1.00  0.00    -0.245 OA
BRANCH   3   5
ATOM      5  C   UNL A   1      34.358  24.766  23.943  1.00  0.00     0.290 C 
ATOM      6  C   UNL A   1      35.717  24.085  24.105  1.00  0.00     0.088 C 
BRANCH   5   7
ATOM      7  N   UNL A   1      33.509  24.134  22.911  1.00  0.00    -0.332 N 
ATOM      8  H   UNL A   1      32.539  24.397  23.088  1.00  0.00     0.347 HD
ATOM      9  H   UNL A   1      33.847  24.465  22.007  1.00  0.00     0.347 HD
BRANCH   7  10
ATOM     10  C   UNL A   1      33.592  22.664  22.884  1.00  0.00     0.310 C 
BRANCH  10  11
ATOM     11  C   UNL A   1      32.222  21.941  22.926  1.00  0.00     0.171 C 
ATOM     12  C   UNL A   1      31.135  22.822  23.545  1.00  0.00     0.063 C 
BRANCH  11  13
ATOM     13  C   UNL A   1      32.386  20.730  23.749  1.00  0.00    -0.063 C 
ATOM     14  C   UNL A   1      32.549  19.673  24.299  1.00  0.00    -0.100 C 
BRANCH  14  15
ATOM     15  C   UNL A   1      32.666  18.319  24.844  1.00  0.00     0.089 C 
BRANCH  15  16
ATOM     16  C   UNL A   1      32.919  17.314  23.724  1.00  0.00     0.010 C 
ATOM     17  C   UNL A   1      34.401  17.007  23.542  1.00  0.00     0.005 C 
ENDBRANCH  15  16
ENDBRANCH  14  15
ENDBRANCH  11  13
BRANCH  11  18
ATOM     18  O   UNL A   1      31.852  21.573  21.598  1.00  0.00    -0.372 OA
ATOM     19  H   UNL A   1      32.634  21.600  21.026  1.00  0.00     0.212 HD
ENDBRANCH  11  18
ENDBRANCH  10  11
ENDBRANCH   7  10
ENDBRANCH   5   7
ENDBRANCH   3   5
ENDBRANCH   2   3
ENDBRANCH   1   2
BRANCH   1  20
ATOM     20  C   UNL A   1      34.337  21.808  26.974  1.00  0.00     0.202 C 
BRANCH  20  21
ATOM     21  O   UNL A   1      35.588  21.671  26.315  1.00  0.00    -0.374 OA
BRANCH  21  22
ATOM     22  C   UNL A   1      35.769  20.618  25.373  1.00  0.00     0.202 C 
BRANCH  22  23
ATOM     23  C   UNL A   1      37.190  20.199  24.967  1.00  0.00     0.261 C 
BRANCH  23  24
ATOM     24  O   UNL A   1      38.172  21.249  25.009  1.00  0.00    -0.460 OA
BRANCH  24  25
ATOM     25  C   UNL A   1      39.161  21.035  25.914  1.00  0.00     0.338 C 
ATOM     26  O   UNL A   1      39.772  19.997  26.107  1.00  0.00    -0.246 OA
BRANCH  25  27
ATOM     27  C   UNL A   1      39.552  22.286  26.583  1.00  0.00     0.060 A 
ATOM     28  C   UNL A   1      38.935  23.470  26.160  1.00  0.00     0.016 A 
ATOM     29  C   UNL A   1      40.627  22.324  27.471  1.00  0.00     0.016 A 
ATOM     30  C   UNL A   1      39.432  24.703  26.573  1.00  0.00     0.010 A 
ATOM     31  C   UNL A   1      41.120  23.566  27.890  1.00  0.00     0.010 A 
ATOM     32  C   UNL A   1      40.554  24.763  27.409  1.00  0.00    -0.014 A 
BRANCH  32  33
ATOM     33  C   UNL A   1      41.203  26.072  27.685  1.00  0.00     0.031 A 
ATOM     34  C   UNL A   1      42.629  26.298  27.278  1.00  0.00     0.074 A 
ATOM     35  C   UNL A   1      40.517  27.076  28.262  1.00  0.00     0.049 A 
ATOM     36  N   UNL A   1      43.387  27.345  27.478  1.00  0.00    -0.248 NA
ATOM     37  C   UNL A   1      43.280  25.213  26.529  1.00  0.00     0.031 C 
ATOM     38  C   UNL A   1      39.100  27.032  28.594  1.00  0.00     0.029 A 
ATOM     39  N   UNL A   1      40.919  28.321  28.683  1.00  0.00    -0.354 N 
ATOM     40  C   UNL A   1      44.599  27.054  26.869  1.00  0.00     0.074 A 
ATOM     41  C   UNL A   1      44.494  25.710  26.341  1.00  0.00     0.031 C 
ATOM     42  C   UNL A   1      38.761  28.168  29.222  1.00  0.00     0.029 A 
ATOM     43  C   UNL A   1      39.942  29.005  29.362  1.00  0.00     0.049 A 
ATOM     44  H   UNL A   1      41.819  28.684  28.516  1.00  0.00     0.167 HD
ATOM     45  C   UNL A   1      45.688  27.848  26.741  1.00  0.00     0.037 A 
ATOM     46  C   UNL A   1      39.985  30.163  30.045  1.00  0.00     0.037 A 
ATOM     47  C   UNL A   1      45.787  29.182  27.277  1.00  0.00     0.049 A 
ATOM     48  C   UNL A   1      41.254  30.964  30.025  1.00  0.00     0.074 A 
ATOM     49  C   UNL A   1      46.844  30.070  27.187  1.00  0.00     0.029 A 
ATOM     50  N   UNL A   1      44.798  29.815  28.019  1.00  0.00    -0.354 N 
ATOM     51  N   UNL A   1      42.386  30.690  29.426  1.00  0.00    -0.248 NA
ATOM     52  C   UNL A   1      41.242  32.247  30.738  1.00  0.00     0.031 C 
ATOM     53  C   UNL A   1      46.527  31.208  27.934  1.00  0.00     0.029 A 
ATOM     54  C   UNL A   1      45.240  31.065  28.426  1.00  0.00     0.049 A 
ATOM     55  H   UNL A   1      43.916  29.433  28.225  1.00  0.00     0.167 HD
ATOM     56  C   UNL A   1      43.204  31.790  29.641  1.00  0.00     0.074 A 
ATOM     57  C   UNL A   1      42.434  32.734  30.426  1.00  0.00     0.031 C 
ATOM     58  C   UNL A   1      44.472  32.001  29.211  1.00  0.00     0.037 A 
BRANCH  45  59
ATOM     59  C   UNL A   1      46.874  27.278  26.017  1.00  0.00     0.057 A 
ATOM     60  C   UNL A   1      47.079  27.483  24.645  1.00  0.00     0.134 A 
ATOM     61  C   UNL A   1      47.839  26.535  26.707  1.00  0.00     0.134 A 
ATOM     62  F   UNL A   1      46.188  28.176  23.919  1.00  0.00    -0.206 F 
ATOM     63  C   UNL A   1      48.184  26.944  23.983  1.00  0.00     0.040 A 
ATOM     64  C   UNL A   1      48.964  26.018  26.063  1.00  0.00     0.040 A 
ATOM     65  F   UNL A   1      47.708  26.303  28.022  1.00  0.00    -0.206 F 
ATOM     66  C   UNL A   1      49.133  26.216  24.694  1.00  0.00     0.006 A 
ENDBRANCH  45  59
BRANCH  46  67
ATOM     67  C   UNL A   1      38.796  30.633  30.801  1.00  0.00     0.057 A 
ATOM     68  C   UNL A   1      37.860  31.500  30.227  1.00  0.00     0.134 A 
ATOM     69  C   UNL A   1      38.576  30.239  32.128  1.00  0.00     0.134 A 
ATOM     70  F   UNL A   1      38.019  31.922  28.964  1.00  0.00    -0.206 F 
ATOM     71  C   UNL A   1      36.768  31.983  30.950  1.00  0.00     0.040 A 
ATOM     72  C   UNL A   1      37.475  30.694  32.855  1.00  0.00     0.040 A 
ATOM     73  F   UNL A   1      39.428  29.400  32.737  1.00  0.00    -0.206 F 
ATOM     74  C   UNL A   1      36.573  31.578  32.269  1.00  0.00     0.006 A 
ENDBRANCH  46  67
BRANCH  58  75
ATOM     75  C   UNL A   1      45.091  33.330  29.537  1.00  0.00     0.057 A 
ATOM     76  C   UNL A   1      45.883  33.525  30.676  1.00  0.00     0.134 A 
ATOM     77  C   UNL A   1      44.906  34.427  28.686  1.00  0.00     0.134 A 
ATOM     78  F   UNL A   1      46.089  32.522  31.543  1.00  0.00    -0.206 F 
ATOM     79  C   UNL A   1      46.439  34.770  30.973  1.00  0.00     0.040 A 
ATOM     80  C   UNL A   1      45.487  35.666  28.952  1.00  0.00     0.040 A 
ATOM     81  F   UNL A   1      44.165  34.309  27.573  1.00  0.00    -0.206 F 
ATOM     82  C   UNL A   1      46.248  35.844  30.105  1.00  0.00     0.006 A 
ENDBRANCH  58  75
ENDBRANCH  32  33
ENDBRANCH  25  27
ENDBRANCH  24  25
ENDBRANCH  23  24
ENDBRANCH  22  23
ENDBRANCH  21  22
ENDBRANCH  20  21
ENDBRANCH   1  20
TORSDOF 21
ENDMDL
MODEL 3
REMARK VINA RESULT:      -9.1      3.814      8.539
REMARK SMILES CCCC#C[C@](C)(O)C[NH2+][C@H](C)C(=O)OCCOCCOC(=O)c1ccc(-c2c3nc(c(-c4c(F)cccc4F)c4ccc([nH]4)c(-c4c(F)cccc4F)c4nc(c(-c5c(F)cccc5F)c5ccc2[nH]5)C=C4)C=C3)cc1
REMARK SMILES IDX 16 1 15 2 13 3 14 4 11 5 12 6 10 7 9 10 6 11 7 12 5 13 4 14
REMARK SMILES IDX 3 15 2 16 1 17 8 18 17 20 18 21 19 22 20 23 21 24 22 25
REMARK SMILES IDX 23 26 24 27 25 28 77 29 26 30 76 31 27 32 28 33 29 34 70 35
REMARK SMILES IDX 30 36 75 37 69 38 71 39 31 40 74 41 68 42 67 43 32 45 58 46
REMARK SMILES IDX 41 47 57 48 42 49 45 50 56 51 72 52 43 53 44 54 55 56 73 57
REMARK SMILES IDX 46 58 33 59 34 60 39 61 35 62 36 63 38 64 40 65 37 66 59 67
REMARK SMILES IDX 60 68 65 69 61 70 62 71 64 72 66 73 63 74 47 75 48 76 53 77
REMARK SMILES IDX 49 78 50 79 52 80 54 81 51 82
REMARK H PARENT 10 8 10 9 8 19 71 44 45 55
REMARK Flexibility Score: inf
ROOT
ATOM      1  C   UNL A   1      33.770  29.370  27.140  1.00  0.00     0.261 C 
ENDROOT
BRANCH   1   2
ATOM      2  O   UNL A   1      32.772  28.459  27.607  1.00  0.00    -0.459 OA
BRANCH   2   3
ATOM      3  C   UNL A   1      32.326  27.543  26.691  1.00  0.00     0.364 C 
ATOM      4  O   UNL A   1      31.429  26.733  26.890  1.00  0.00    -0.245 OA
BRANCH   3   5
ATOM      5  C   UNL A   1      33.188  27.582  25.415  1.00  0.00     0.290 C 
ATOM      6  C   UNL A   1      33.883  26.258  25.100  1.00  0.00     0.088 C 
BRANCH   5   7
ATOM      7  N   UNL A   1      32.418  28.122  24.275  1.00  0.00    -0.332 N 
ATOM      8  H   UNL A   1      31.429  28.117  24.524  1.00  0.00     0.347 HD
ATOM      9  H   UNL A   1      32.774  29.062  24.097  1.00  0.00     0.347 HD
BRANCH   7  10
ATOM     10  C   UNL A   1      32.585  27.361  23.026  1.00  0.00     0.310 C 
BRANCH  10  11
ATOM     11  C   UNL A   1      31.276  26.747  22.467  1.00  0.00     0.171 C 
ATOM     12  C   UNL A   1      30.041  27.508  22.952  1.00  0.00     0.063 C 
BRANCH  11  13
ATOM     13  C   UNL A   1      31.202  25.355  22.944  1.00  0.00    -0.063 C 
ATOM     14  C   UNL A   1      31.133  24.273  23.464  1.00  0.00    -0.100 C 
BRANCH  14  15
ATOM     15  C   UNL A   1      31.152  23.014  24.211  1.00  0.00     0.089 C 
BRANCH  15  16
ATOM     16  C   UNL A   1      32.133  22.032  23.576  1.00  0.00     0.010 C 
ATOM     17  C   UNL A   1      33.400  22.719  23.076  1.00  0.00     0.005 C 
ENDBRANCH  15  16
ENDBRANCH  14  15
ENDBRANCH  11  13
BRANCH  11  18
ATOM     18  O   UNL A   1      31.329  26.764  21.041  1.00  0.00    -0.372 OA
ATOM     19  H   UNL A   1      31.761  27.579  20.744  1.00  0.00     0.212 HD
ENDBRANCH  11  18
ENDBRANCH  10  11
ENDBRANCH   7  10
ENDBRANCH   5   7
ENDBRANCH   3   5
ENDBRANCH   2   3
ENDBRANCH   1   2
BRANCH   1  20
ATOM     20  C   UNL A   1      33.350  30.830  27.292  1.00  0.00     0.202 C 
BRANCH  20  21
ATOM     21  O   UNL A   1      32.058  31.217  26.847  1.00  0.00    -0.374 OA
BRANCH  21  22
ATOM     22  C   UNL A   1      31.656  32.577  26.971  1.00  0.00     0.202 C 
BRANCH  22  23
ATOM     23  C   UNL A   1      32.704  33.653  27.296  1.00  0.00     0.261 C 
BRANCH  23  24
ATOM     24  O   UNL A   1      32.378  34.509  28.404  1.00  0.00    -0.460 OA
BRANCH  24  25
ATOM     25  C   UNL A   1      33.463  35.054  29.010  1.00  0.00     0.338 C 
ATOM     26  O   UNL A   1      33.566  36.184  29.460  1.00  0.00    -0.246 OA
BRANCH  25  27
ATOM     27  C   UNL A   1      34.520  34.051  29.218  1.00  0.00     0.060 A 
ATOM     28  C   UNL A   1      34.242  32.984  30.081  1.00  0.00     0.016 A 
ATOM     29  C   UNL A   1      35.810  34.250  28.727  1.00  0.00     0.016 A 
ATOM     30  C   UNL A   1      35.269  32.147  30.510  1.00  0.00     0.010 A 
ATOM     31  C   UNL A   1      36.839  33.402  29.155  1.00  0.00     0.010 A 
ATOM     32  C   UNL A   1      36.583  32.373  30.083  1.00  0.00    -0.014 A 
BRANCH  32  33
ATOM     33  C   UNL A   1      37.703  31.610  30.695  1.00  0.00     0.031 A 
ATOM     34  C   UNL A   1      38.155  31.937  32.087  1.00  0.00     0.074 A 
ATOM     35  C   UNL A   1      38.294  30.599  30.033  1.00  0.00     0.049 A 
ATOM     36  N   UNL A   1      39.145  31.427  32.774  1.00  0.00    -0.248 NA
ATOM     37  C   UNL A   1      37.380  32.957  32.810  1.00  0.00     0.031 C 
ATOM     38  C   UNL A   1      37.874  30.099  28.731  1.00  0.00     0.029 A 
ATOM     39  N   UNL A   1      39.380  29.820  30.353  1.00  0.00    -0.354 N 
ATOM     40  C   UNL A   1      39.104  32.050  34.013  1.00  0.00     0.074 A 
ATOM     41  C   UNL A   1      38.027  33.017  33.964  1.00  0.00     0.031 C 
ATOM     42  C   UNL A   1      38.725  29.142  28.332  1.00  0.00     0.029 A 
ATOM     43  C   UNL A   1      39.764  28.981  29.337  1.00  0.00     0.049 A 
ATOM     44  H   UNL A   1      39.836  29.861  31.225  1.00  0.00     0.167 HD
ATOM     45  C   UNL A   1      39.879  31.815  35.098  1.00  0.00     0.037 A 
ATOM     46  C   UNL A   1      40.843  28.188  29.206  1.00  0.00     0.037 A 
ATOM     47  C   UNL A   1      40.954  30.856  35.134  1.00  0.00     0.049 A 
ATOM     48  C   UNL A   1      41.785  28.056  30.366  1.00  0.00     0.074 A 
ATOM     49  C   UNL A   1      41.787  30.537  36.193  1.00  0.00     0.029 A 
ATOM     50  N   UNL A   1      41.358  30.073  34.061  1.00  0.00    -0.354 N 
ATOM     51  N   UNL A   1      41.724  28.631  31.541  1.00  0.00    -0.248 NA
ATOM     52  C   UNL A   1      42.919  27.138  30.200  1.00  0.00     0.031 C 
ATOM     53  C   UNL A   1      42.739  29.619  35.740  1.00  0.00     0.029 A 
ATOM     54  C   UNL A   1      42.453  29.304  34.422  1.00  0.00     0.049 A 
ATOM     55  H   UNL A   1      40.929  30.067  33.176  1.00  0.00     0.167 HD
ATOM     56  C   UNL A   1      42.777  28.106  32.275  1.00  0.00     0.074 A 
ATOM     57  C   UNL A   1      43.459  27.164  31.411  1.00  0.00     0.031 C 
ATOM     58  C   UNL A   1      43.132  28.370  33.557  1.00  0.00     0.037 A 
BRANCH  45  59
ATOM     59  C   UNL A   1      39.609  32.635  36.327  1.00  0.00     0.057 A 
ATOM     60  C   UNL A   1      38.640  32.267  37.271  1.00  0.00     0.134 A 
ATOM     61  C   UNL A   1      40.347  33.797  36.582  1.00  0.00     0.134 A 
ATOM     62  F   UNL A   1      37.889  31.170  37.083  1.00  0.00    -0.206 F 
ATOM     63  C   UNL A   1      38.396  33.040  38.407  1.00  0.00     0.040 A 
ATOM     64  C   UNL A   1      40.135  34.562  37.730  1.00  0.00     0.040 A 
ATOM     65  F   UNL A   1      41.292  34.207  35.723  1.00  0.00    -0.206 F 
ATOM     66  C   UNL A   1      39.150  34.188  38.642  1.00  0.00     0.006 A 
ENDBRANCH  45  59
BRANCH  46  67
ATOM     67  C   UNL A   1      41.088  27.461  27.934  1.00  0.00     0.057 A 
ATOM     68  C   UNL A   1      41.803  28.046  26.883  1.00  0.00     0.134 A 
ATOM     69  C   UNL A   1      40.594  26.166  27.730  1.00  0.00     0.134 A 
ATOM     70  F   UNL A   1      42.293  29.288  27.011  1.00  0.00    -0.206 F 
ATOM     71  C   UNL A   1      41.992  27.386  25.668  1.00  0.00     0.040 A 
ATOM     72  C   UNL A   1      40.797  25.483  26.530  1.00  0.00     0.040 A 
ATOM     73  F   UNL A   1      39.909  25.540  28.701  1.00  0.00    -0.206 F 
ATOM     74  C   UNL A   1      41.488  26.098  25.490  1.00  0.00     0.006 A 
ENDBRANCH  46  67
BRANCH  58  75
ATOM     75  C   UNL A   1      44.285  27.590  34.120  1.00  0.00     0.057 A 
ATOM     76  C   UNL A   1      44.120  26.327  34.702  1.00  0.00     0.134 A 
ATOM     77  C   UNL A   1      45.587  28.106  34.061  1.00  0.00     0.134 A 
ATOM     78  F   UNL A   1      42.900  25.779  34.806  1.00  0.00    -0.206 F 
ATOM     79  C   UNL A   1      45.200  25.622  35.235  1.00  0.00     0.040 A 
ATOM     80  C   UNL A   1      46.679  27.395  34.556  1.00  0.00     0.040 A 
ATOM     81  F   UNL A   1      45.819  29.308  33.510  1.00  0.00    -0.206 F 
ATOM     82  C   UNL A   1      46.486  26.153  35.155  1.00  0.00     0.006 A 
ENDBRANCH  58  75
ENDBRANCH  32  33
ENDBRANCH  25  27
ENDBRANCH  24  25
ENDBRANCH  23  24
ENDBRANCH  22  23
ENDBRANCH  21  22
ENDBRANCH  20  21
ENDBRANCH   1  20
TORSDOF 21
ENDMDL
