MODEL 1
REMARK VINA RESULT:     -11.3      0.000      0.000
REMARK SMILES N#Cc1ccc(/C=C/C(=O)N[C@H]2C=C[C@H](C(=O)OCCOCCOC(=O)c3ccc(-c4c5nc(c(-c6c(F)cccc6F)c6ccc([nH]6)c(-c6c(F)cccc6F)c6nc(c(-c7c(F)cccc7F)c7ccc4[nH]7)C=C6)C=C5)cc3)C2)cc1
REMARK SMILES IDX 20 1 19 2 18 3 16 4 17 5 15 6 12 7 13 8 81 9 14 10 11 11
REMARK SMILES IDX 9 12 10 13 8 15 7 16 6 17 3 18 4 19 83 20 5 21 82 22 2 23
REMARK SMILES IDX 1 24 21 25 22 26 23 27 24 28 25 29 26 30 27 31 28 32 80 33
REMARK SMILES IDX 29 34 79 35 30 36 31 37 32 38 73 39 33 40 78 41 72 42 74 43
REMARK SMILES IDX 34 44 77 45 71 46 70 47 35 49 61 50 44 51 60 52 45 53 48 54
REMARK SMILES IDX 59 55 75 56 46 57 47 58 58 60 76 61 49 62 36 63 37 64 42 65
REMARK SMILES IDX 38 66 39 67 41 68 43 69 40 70 62 71 63 72 68 73 64 74 65 75
REMARK SMILES IDX 67 76 69 77 66 78 50 79 51 80 56 81 52 82 53 83 55 84 57 85
REMARK SMILES IDX 54 86
REMARK H PARENT 11 14 74 48 48 59
REMARK Flexibility Score: inf
ROOT
ATOM      1  C   UNL A   1      33.997  22.964  27.236  1.00  0.00     0.202 C 
ENDROOT
BRANCH   1   2
ATOM      2  C   UNL A   1      32.534  22.605  27.529  1.00  0.00     0.261 C 
BRANCH   2   3
ATOM      3  O   UNL A   1      31.688  23.764  27.616  1.00  0.00    -0.463 OA
BRANCH   3   4
ATOM      4  C   UNL A   1      30.524  23.698  26.907  1.00  0.00     0.312 C 
ATOM      5  O   UNL A   1      29.656  22.849  27.075  1.00  0.00    -0.252 OA
BRANCH   4   6
ATOM      6  C   UNL A   1      30.366  24.925  26.002  1.00  0.00     0.124 C 
ATOM      7  C   UNL A   1      32.129  24.583  24.395  1.00  0.00     0.106 C 
ATOM      8  C   UNL A   1      32.414  25.800  25.213  1.00  0.00    -0.006 C 
ATOM      9  C   UNL A   1      30.610  24.508  24.547  1.00  0.00     0.048 C 
ATOM     10  C   UNL A   1      31.470  25.939  26.161  1.00  0.00    -0.014 C 
BRANCH   7  11
ATOM     11  N   UNL A   1      32.542  24.638  23.026  1.00  0.00    -0.346 N 
ATOM     12  C   UNL A   1      33.039  23.646  22.230  1.00  0.00     0.244 C 
ATOM     13  O   UNL A   1      33.286  23.918  21.053  1.00  0.00    -0.270 OA
ATOM     14  H   UNL A   1      32.454  25.519  22.595  1.00  0.00     0.164 HD
BRANCH  12  15
ATOM     15  C   UNL A   1      33.245  22.220  22.667  1.00  0.00     0.072 C 
ATOM     16  C   UNL A   1      32.358  21.326  23.130  1.00  0.00     0.014 C 
BRANCH  16  17
ATOM     17  C   UNL A   1      32.537  19.911  23.507  1.00  0.00    -0.025 A 
ATOM     18  C   UNL A   1      32.876  17.279  24.471  1.00  0.00     0.052 A 
ATOM     19  C   UNL A   1      32.688  17.519  23.105  1.00  0.00     0.020 A 
ATOM     20  C   UNL A   1      32.911  18.352  25.356  1.00  0.00     0.020 A 
ATOM     21  C   UNL A   1      32.519  18.830  22.624  1.00  0.00     0.009 A 
ATOM     22  C   UNL A   1      32.752  19.651  24.873  1.00  0.00     0.009 A 
BRANCH  18  23
ATOM     23  C   UNL A   1      33.030  15.944  24.974  1.00  0.00     0.099 C 
ATOM     24  N   UNL A   1      33.177  14.866  25.373  1.00  0.00    -0.192 NA
ENDBRANCH  18  23
ENDBRANCH  16  17
ENDBRANCH  12  15
ENDBRANCH   7  11
ENDBRANCH   4   6
ENDBRANCH   3   4
ENDBRANCH   2   3
ENDBRANCH   1   2
BRANCH   1  25
ATOM     25  O   UNL A   1      34.603  22.499  26.035  1.00  0.00    -0.374 OA
BRANCH  25  26
ATOM     26  C   UNL A   1      35.561  21.453  26.114  1.00  0.00     0.202 C 
BRANCH  26  27
ATOM     27  C   UNL A   1      36.350  21.026  24.869  1.00  0.00     0.261 C 
BRANCH  27  28
ATOM     28  O   UNL A   1      37.619  21.678  24.733  1.00  0.00    -0.460 OA
BRANCH  28  29
ATOM     29  C   UNL A   1      38.553  21.246  25.617  1.00  0.00     0.338 C 
ATOM     30  O   UNL A   1      38.960  20.108  25.770  1.00  0.00    -0.246 OA
BRANCH  29  31
ATOM     31  C   UNL A   1      39.178  22.404  26.275  1.00  0.00     0.060 A 
ATOM     32  C   UNL A   1      38.579  23.659  26.104  1.00  0.00     0.016 A 
ATOM     33  C   UNL A   1      40.377  22.272  26.974  1.00  0.00     0.016 A 
ATOM     34  C   UNL A   1      39.198  24.800  26.602  1.00  0.00     0.010 A 
ATOM     35  C   UNL A   1      41.003  23.420  27.463  1.00  0.00     0.010 A 
ATOM     36  C   UNL A   1      40.434  24.689  27.250  1.00  0.00    -0.014 A 
BRANCH  36  37
ATOM     37  C   UNL A   1      41.197  25.913  27.584  1.00  0.00     0.031 A 
ATOM     38  C   UNL A   1      40.538  26.989  28.399  1.00  0.00     0.074 A 
ATOM     39  C   UNL A   1      42.471  26.051  27.179  1.00  0.00     0.049 A 
ATOM     40  N   UNL A   1      41.002  28.154  28.767  1.00  0.00    -0.248 NA
ATOM     41  C   UNL A   1      39.164  26.716  28.848  1.00  0.00     0.031 C 
ATOM     42  C   UNL A   1      43.230  25.054  26.427  1.00  0.00     0.029 A 
ATOM     43  N   UNL A   1      43.345  27.094  27.343  1.00  0.00    -0.354 N 
ATOM     44  C   UNL A   1      39.972  28.762  29.475  1.00  0.00     0.074 A 
ATOM     45  C   UNL A   1      38.848  27.853  29.449  1.00  0.00     0.031 C 
ATOM     46  C   UNL A   1      44.465  25.531  26.201  1.00  0.00     0.029 A 
ATOM     47  C   UNL A   1      44.565  26.882  26.750  1.00  0.00     0.049 A 
ATOM     48  H   UNL A   1      43.121  27.914  27.837  1.00  0.00     0.167 HD
ATOM     49  C   UNL A   1      39.969  29.968  30.094  1.00  0.00     0.037 A 
ATOM     50  C   UNL A   1      45.632  27.695  26.649  1.00  0.00     0.037 A 
ATOM     51  C   UNL A   1      41.093  30.869  30.105  1.00  0.00     0.049 A 
ATOM     52  C   UNL A   1      45.572  29.068  27.264  1.00  0.00     0.074 A 
ATOM     53  C   UNL A   1      41.205  32.101  30.725  1.00  0.00     0.029 A 
ATOM     54  N   UNL A   1      42.294  30.646  29.444  1.00  0.00    -0.354 N 
ATOM     55  N   UNL A   1      44.610  29.625  27.959  1.00  0.00    -0.248 NA
ATOM     56  C   UNL A   1      46.752  29.924  27.078  1.00  0.00     0.031 C 
ATOM     57  C   UNL A   1      42.439  32.657  30.374  1.00  0.00     0.029 A 
ATOM     58  C   UNL A   1      43.133  31.736  29.605  1.00  0.00     0.049 A 
ATOM     59  H   UNL A   1      42.516  29.831  28.937  1.00  0.00     0.167 HD
ATOM     60  C   UNL A   1      45.082  30.880  28.327  1.00  0.00     0.074 A 
ATOM     61  C   UNL A   1      46.419  30.996  27.783  1.00  0.00     0.031 C 
ATOM     62  C   UNL A   1      44.465  31.844  29.057  1.00  0.00     0.037 A 
BRANCH  49  63
ATOM     63  C   UNL A   1      38.689  30.396  30.759  1.00  0.00     0.057 A 
ATOM     64  C   UNL A   1      37.690  31.107  30.079  1.00  0.00     0.134 A 
ATOM     65  C   UNL A   1      38.460  30.102  32.110  1.00  0.00     0.134 A 
ATOM     66  F   UNL A   1      37.845  31.432  28.786  1.00  0.00    -0.206 F 
ATOM     67  C   UNL A   1      36.538  31.554  30.730  1.00  0.00     0.040 A 
ATOM     68  C   UNL A   1      37.294  30.509  32.760  1.00  0.00     0.040 A 
ATOM     69  F   UNL A   1      39.366  29.416  32.823  1.00  0.00    -0.206 F 
ATOM     70  C   UNL A   1      36.336  31.252  32.075  1.00  0.00     0.006 A 
ENDBRANCH  49  63
BRANCH  50  71
ATOM     71  C   UNL A   1      46.857  27.224  25.955  1.00  0.00     0.057 A 
ATOM     72  C   UNL A   1      47.039  27.454  24.587  1.00  0.00     0.134 A 
ATOM     73  C   UNL A   1      47.873  26.542  26.636  1.00  0.00     0.134 A 
ATOM     74  F   UNL A   1      46.091  28.086  23.878  1.00  0.00    -0.206 F 
ATOM     75  C   UNL A   1      48.179  27.014  23.917  1.00  0.00     0.040 A 
ATOM     76  C   UNL A   1      49.032  26.120  25.984  1.00  0.00     0.040 A 
ATOM     77  F   UNL A   1      47.763  26.295  27.950  1.00  0.00    -0.206 F 
ATOM     78  C   UNL A   1      49.185  26.350  24.618  1.00  0.00     0.006 A 
ENDBRANCH  50  71
BRANCH  62  79
ATOM     79  C   UNL A   1      45.247  33.095  29.351  1.00  0.00     0.057 A 
ATOM     80  C   UNL A   1      45.176  34.232  28.537  1.00  0.00     0.134 A 
ATOM     81  C   UNL A   1      46.059  33.171  30.492  1.00  0.00     0.134 A 
ATOM     82  F   UNL A   1      44.427  34.226  27.423  1.00  0.00    -0.206 F 
ATOM     83  C   UNL A   1      45.905  35.387  28.829  1.00  0.00     0.040 A 
ATOM     84  C   UNL A   1      46.765  34.332  30.813  1.00  0.00     0.040 A 
ATOM     85  F   UNL A   1      46.167  32.124  31.324  1.00  0.00    -0.206 F 
ATOM     86  C   UNL A   1      46.696  35.442  29.975  1.00  0.00     0.006 A 
ENDBRANCH  62  79
ENDBRANCH  36  37
ENDBRANCH  29  31
ENDBRANCH  28  29
ENDBRANCH  27  28
ENDBRANCH  26  27
ENDBRANCH  25  26
ENDBRANCH   1  25
TORSDOF 18
ENDMDL
MODEL 2
REMARK VINA RESULT:     -11.2      4.209      7.360
REMARK SMILES N#Cc1ccc(/C=C/C(=O)N[C@H]2C=C[C@H](C(=O)OCCOCCOC(=O)c3ccc(-c4c5nc(c(-c6c(F)cccc6F)c6ccc([nH]6)c(-c6c(F)cccc6F)c6nc(c(-c7c(F)cccc7F)c7ccc4[nH]7)C=C6)C=C5)cc3)C2)cc1
REMARK SMILES IDX 20 1 19 2 18 3 16 4 17 5 15 6 12 7 13 8 81 9 14 10 11 11
REMARK SMILES IDX 9 12 10 13 8 15 7 16 6 17 3 18 4 19 83 20 5 21 82 22 2 23
REMARK SMILES IDX 1 24 21 25 22 26 23 27 24 28 25 29 26 30 27 31 28 32 80 33
REMARK SMILES IDX 29 34 79 35 30 36 31 37 32 38 73 39 33 40 78 41 72 42 74 43
REMARK SMILES IDX 34 44 77 45 71 46 70 47 35 49 61 50 44 51 60 52 45 53 48 54
REMARK SMILES IDX 59 55 75 56 46 57 47 58 58 60 76 61 49 62 36 63 37 64 42 65
REMARK SMILES IDX 38 66 39 67 41 68 43 69 40 70 62 71 63 72 68 73 64 74 65 75
REMARK SMILES IDX 67 76 69 77 66 78 50 79 51 80 56 81 52 82 53 83 55 84 57 85
REMARK SMILES IDX 54 86
REMARK H PARENT 11 14 74 48 48 59
REMARK Flexibility Score: inf
ROOT
ATOM      1  C   UNL A   1      33.201  30.300  26.608  1.00  0.00     0.202 C 
ENDROOT
BRANCH   1   2
ATOM      2  C   UNL A   1      33.408  28.790  26.424  1.00  0.00     0.261 C 
BRANCH   2   3
ATOM      3  O   UNL A   1      32.293  28.155  25.776  1.00  0.00    -0.463 OA
BRANCH   3   4
ATOM      4  C   UNL A   1      31.831  27.020  26.377  1.00  0.00     0.312 C 
ATOM      5  O   UNL A   1      30.728  26.911  26.901  1.00  0.00    -0.252 OA
BRANCH   4   6
ATOM      6  C   UNL A   1      32.798  25.852  26.152  1.00  0.00     0.124 C 
ATOM      7  C   UNL A   1      31.967  24.913  24.094  1.00  0.00     0.106 C 
ATOM      8  C   UNL A   1      31.782  23.938  25.210  1.00  0.00    -0.006 C 
ATOM      9  C   UNL A   1      33.118  25.749  24.656  1.00  0.00     0.048 C 
ATOM     10  C   UNL A   1      32.171  24.498  26.369  1.00  0.00    -0.014 C 
BRANCH   7  11
ATOM     11  N   UNL A   1      32.273  24.350  22.815  1.00  0.00    -0.346 N 
ATOM     12  C   UNL A   1      33.448  23.827  22.356  1.00  0.00     0.244 C 
ATOM     13  O   UNL A   1      33.463  23.351  21.218  1.00  0.00    -0.270 OA
ATOM     14  H   UNL A   1      31.527  24.338  22.171  1.00  0.00     0.164 HD
BRANCH  12  15
ATOM     15  C   UNL A   1      34.713  23.726  23.165  1.00  0.00     0.072 C 
ATOM     16  C   UNL A   1      35.130  22.753  23.990  1.00  0.00     0.014 C 
BRANCH  16  17
ATOM     17  C   UNL A   1      36.392  22.617  24.742  1.00  0.00    -0.025 A 
ATOM     18  C   UNL A   1      38.830  22.123  26.078  1.00  0.00     0.052 A 
ATOM     19  C   UNL A   1      38.218  23.379  26.153  1.00  0.00     0.020 A 
ATOM     20  C   UNL A   1      38.220  21.107  25.350  1.00  0.00     0.020 A 
ATOM     21  C   UNL A   1      37.004  23.626  25.488  1.00  0.00     0.009 A 
ATOM     22  C   UNL A   1      37.011  21.353  24.699  1.00  0.00     0.009 A 
BRANCH  18  23
ATOM     23  C   UNL A   1      40.079  21.868  26.738  1.00  0.00     0.099 C 
ATOM     24  N   UNL A   1      41.076  21.646  27.285  1.00  0.00    -0.192 NA
ENDBRANCH  18  23
ENDBRANCH  16  17
ENDBRANCH  12  15
ENDBRANCH   7  11
ENDBRANCH   4   6
ENDBRANCH   3   4
ENDBRANCH   2   3
ENDBRANCH   1   2
BRANCH   1  25
ATOM     25  O   UNL A   1      31.987  30.774  27.178  1.00  0.00    -0.374 OA
BRANCH  25  26
ATOM     26  C   UNL A   1      31.399  31.955  26.649  1.00  0.00     0.202 C 
BRANCH  26  27
ATOM     27  C   UNL A   1      32.104  33.309  26.803  1.00  0.00     0.261 C 
BRANCH  27  28
ATOM     28  O   UNL A   1      32.210  33.759  28.160  1.00  0.00    -0.460 OA
BRANCH  28  29
ATOM     29  C   UNL A   1      33.296  34.536  28.395  1.00  0.00     0.338 C 
ATOM     30  O   UNL A   1      33.331  35.750  28.502  1.00  0.00    -0.246 OA
BRANCH  29  31
ATOM     31  C   UNL A   1      34.453  33.682  28.704  1.00  0.00     0.060 A 
ATOM     32  C   UNL A   1      34.208  32.420  29.262  1.00  0.00     0.016 A 
ATOM     33  C   UNL A   1      35.756  34.146  28.527  1.00  0.00     0.016 A 
ATOM     34  C   UNL A   1      35.269  31.627  29.683  1.00  0.00     0.010 A 
ATOM     35  C   UNL A   1      36.819  33.353  28.962  1.00  0.00     0.010 A 
ATOM     36  C   UNL A   1      36.579  32.107  29.572  1.00  0.00    -0.014 A 
BRANCH  36  37
ATOM     37  C   UNL A   1      37.688  31.368  30.215  1.00  0.00     0.031 A 
ATOM     38  C   UNL A   1      37.982  31.607  31.669  1.00  0.00     0.074 A 
ATOM     39  C   UNL A   1      38.411  30.480  29.513  1.00  0.00     0.049 A 
ATOM     40  N   UNL A   1      38.928  31.104  32.418  1.00  0.00    -0.248 NA
ATOM     41  C   UNL A   1      37.094  32.550  32.367  1.00  0.00     0.031 C 
ATOM     42  C   UNL A   1      38.186  30.129  28.111  1.00  0.00     0.029 A 
ATOM     43  N   UNL A   1      39.486  29.716  29.888  1.00  0.00    -0.354 N 
ATOM     44  C   UNL A   1      38.762  31.683  33.671  1.00  0.00     0.074 A 
ATOM     45  C   UNL A   1      37.651  32.603  33.567  1.00  0.00     0.031 C 
ATOM     46  C   UNL A   1      39.094  29.209  27.745  1.00  0.00     0.029 A 
ATOM     47  C   UNL A   1      39.988  28.944  28.870  1.00  0.00     0.049 A 
ATOM     48  H   UNL A   1      39.861  29.722  30.797  1.00  0.00     0.167 HD
ATOM     49  C   UNL A   1      39.471  31.461  34.805  1.00  0.00     0.037 A 
ATOM     50  C   UNL A   1      41.059  28.130  28.849  1.00  0.00     0.037 A 
ATOM     51  C   UNL A   1      40.582  30.549  34.894  1.00  0.00     0.049 A 
ATOM     52  C   UNL A   1      41.889  27.972  30.095  1.00  0.00     0.074 A 
ATOM     53  C   UNL A   1      41.350  30.230  35.999  1.00  0.00     0.029 A 
ATOM     54  N   UNL A   1      41.100  29.826  33.827  1.00  0.00    -0.354 N 
ATOM     55  N   UNL A   1      41.710  28.495  31.283  1.00  0.00    -0.248 NA
ATOM     56  C   UNL A   1      43.072  27.106  29.992  1.00  0.00     0.031 C 
ATOM     57  C   UNL A   1      42.380  29.378  35.585  1.00  0.00     0.029 A 
ATOM     58  C   UNL A   1      42.204  29.098  34.240  1.00  0.00     0.049 A 
ATOM     59  H   UNL A   1      40.735  29.830  32.912  1.00  0.00     0.167 HD
ATOM     60  C   UNL A   1      42.732  27.993  32.081  1.00  0.00     0.074 A 
ATOM     61  C   UNL A   1      43.522  27.117  31.239  1.00  0.00     0.031 C 
ATOM     62  C   UNL A   1      42.987  28.229  33.392  1.00  0.00     0.037 A 
BRANCH  49  63
ATOM     63  C   UNL A   1      39.093  32.265  36.019  1.00  0.00     0.057 A 
ATOM     64  C   UNL A   1      39.589  33.556  36.251  1.00  0.00     0.134 A 
ATOM     65  C   UNL A   1      38.228  31.729  36.983  1.00  0.00     0.134 A 
ATOM     66  F   UNL A   1      40.429  34.130  35.375  1.00  0.00    -0.206 F 
ATOM     67  C   UNL A   1      39.280  34.262  37.416  1.00  0.00     0.040 A 
ATOM     68  C   UNL A   1      37.881  32.441  38.133  1.00  0.00     0.040 A 
ATOM     69  F   UNL A   1      37.705  30.504  36.825  1.00  0.00    -0.206 F 
ATOM     70  C   UNL A   1      38.420  33.704  38.360  1.00  0.00     0.006 A 
ENDBRANCH  49  63
BRANCH  50  71
ATOM     71  C   UNL A   1      41.397  27.386  27.610  1.00  0.00     0.057 A 
ATOM     72  C   UNL A   1      42.182  27.973  26.612  1.00  0.00     0.134 A 
ATOM     73  C   UNL A   1      40.951  26.076  27.393  1.00  0.00     0.134 A 
ATOM     74  F   UNL A   1      42.622  29.233  26.754  1.00  0.00    -0.206 F 
ATOM     75  C   UNL A   1      42.504  27.292  25.438  1.00  0.00     0.040 A 
ATOM     76  C   UNL A   1      41.289  25.372  26.236  1.00  0.00     0.040 A 
ATOM     77  F   UNL A   1      40.200  25.453  28.313  1.00  0.00    -0.206 F 
ATOM     78  C   UNL A   1      42.062  25.983  25.251  1.00  0.00     0.006 A 
ENDBRANCH  50  71
BRANCH  62  79
ATOM     79  C   UNL A   1      44.143  27.495  34.015  1.00  0.00     0.057 A 
ATOM     80  C   UNL A   1      45.435  28.035  34.064  1.00  0.00     0.134 A 
ATOM     81  C   UNL A   1      43.948  26.239  34.608  1.00  0.00     0.134 A 
ATOM     82  F   UNL A   1      45.695  29.227  33.507  1.00  0.00    -0.206 F 
ATOM     83  C   UNL A   1      46.495  27.340  34.652  1.00  0.00     0.040 A 
ATOM     84  C   UNL A   1      44.993  25.552  35.229  1.00  0.00     0.040 A 
ATOM     85  F   UNL A   1      42.736  25.665  34.608  1.00  0.00    -0.206 F 
ATOM     86  C   UNL A   1      46.273  26.099  35.245  1.00  0.00     0.006 A 
ENDBRANCH  62  79
ENDBRANCH  36  37
ENDBRANCH  29  31
ENDBRANCH  28  29
ENDBRANCH  27  28
ENDBRANCH  26  27
ENDBRANCH  25  26
ENDBRANCH   1  25
TORSDOF 18
ENDMDL
MODEL 3
REMARK VINA RESULT:     -11.1      3.859      8.185
REMARK SMILES N#Cc1ccc(/C=C/C(=O)N[C@H]2C=C[C@H](C(=O)OCCOCCOC(=O)c3ccc(-c4c5nc(c(-c6c(F)cccc6F)c6ccc([nH]6)c(-c6c(F)cccc6F)c6nc(c(-c7c(F)cccc7F)c7ccc4[nH]7)C=C6)C=C5)cc3)C2)cc1
REMARK SMILES IDX 20 1 19 2 18 3 16 4 17 5 15 6 12 7 13 8 81 9 14 10 11 11
REMARK SMILES IDX 9 12 10 13 8 15 7 16 6 17 3 18 4 19 83 20 5 21 82 22 2 23
REMARK SMILES IDX 1 24 21 25 22 26 23 27 24 28 25 29 26 30 27 31 28 32 80 33
REMARK SMILES IDX 29 34 79 35 30 36 31 37 32 38 73 39 33 40 78 41 72 42 74 43
REMARK SMILES IDX 34 44 77 45 71 46 70 47 35 49 61 50 44 51 60 52 45 53 48 54
REMARK SMILES IDX 59 55 75 56 46 57 47 58 58 60 76 61 49 62 36 63 37 64 42 65
REMARK SMILES IDX 38 66 39 67 41 68 43 69 40 70 62 71 63 72 68 73 64 74 65 75
REMARK SMILES IDX 67 76 69 77 66 78 50 79 51 80 56 81 52 82 53 83 55 84 57 85
REMARK SMILES IDX 54 86
REMARK H PARENT 11 14 74 48 48 59
REMARK Flexibility Score: inf
ROOT
ATOM      1  C   UNL A   1      40.569  20.790  26.458  1.00  0.00     0.202 C 
ENDROOT
BRANCH   1   2
ATOM      2  C   UNL A   1      39.878  22.106  26.838  1.00  0.00     0.261 C 
BRANCH   2   3
ATOM      3  O   UNL A   1      38.667  22.328  26.095  1.00  0.00    -0.463 OA
BRANCH   3   4
ATOM      4  C   UNL A   1      38.139  23.583  26.191  1.00  0.00     0.312 C 
ATOM      5  O   UNL A   1      38.755  24.567  26.587  1.00  0.00    -0.252 OA
BRANCH   4   6
ATOM      6  C   UNL A   1      36.739  23.634  25.571  1.00  0.00     0.124 C 
ATOM      7  C   UNL A   1      36.287  21.299  25.180  1.00  0.00     0.106 C 
ATOM      8  C   UNL A   1      36.384  22.024  23.878  1.00  0.00    -0.006 C 
ATOM      9  C   UNL A   1      35.912  22.458  26.105  1.00  0.00     0.048 C 
ATOM     10  C   UNL A   1      36.717  23.309  24.099  1.00  0.00    -0.014 C 
BRANCH   7  11
ATOM     11  N   UNL A   1      35.339  20.228  25.232  1.00  0.00    -0.346 N 
ATOM     12  C   UNL A   1      34.029  20.212  24.851  1.00  0.00     0.244 C 
ATOM     13  O   UNL A   1      33.412  19.148  24.946  1.00  0.00    -0.270 OA
ATOM     14  H   UNL A   1      35.683  19.379  25.595  1.00  0.00     0.164 HD
BRANCH  12  15
ATOM     15  C   UNL A   1      33.295  21.384  24.256  1.00  0.00     0.072 C 
ATOM     16  C   UNL A   1      32.835  22.499  24.845  1.00  0.00     0.014 C 
BRANCH  16  17
ATOM     17  C   UNL A   1      32.166  23.678  24.264  1.00  0.00    -0.025 A 
ATOM     18  C   UNL A   1      31.097  26.068  23.208  1.00  0.00     0.052 A 
ATOM     19  C   UNL A   1      30.406  24.859  23.076  1.00  0.00     0.020 A 
ATOM     20  C   UNL A   1      32.315  26.091  23.880  1.00  0.00     0.020 A 
ATOM     21  C   UNL A   1      30.938  23.668  23.601  1.00  0.00     0.009 A 
ATOM     22  C   UNL A   1      32.835  24.909  24.408  1.00  0.00     0.009 A 
BRANCH  18  23
ATOM     23  C   UNL A   1      30.572  27.286  22.658  1.00  0.00     0.099 C 
ATOM     24  N   UNL A   1      30.136  28.256  22.199  1.00  0.00    -0.192 NA
ENDBRANCH  18  23
ENDBRANCH  16  17
ENDBRANCH  12  15
ENDBRANCH   7  11
ENDBRANCH   4   6
ENDBRANCH   3   4
ENDBRANCH   2   3
ENDBRANCH   1   2
BRANCH   1  25
ATOM     25  O   UNL A   1      41.665  20.814  25.550  1.00  0.00    -0.374 OA
BRANCH  25  26
ATOM     26  C   UNL A   1      42.985  20.868  26.075  1.00  0.00     0.202 C 
BRANCH  26  27
ATOM     27  C   UNL A   1      43.967  21.947  25.599  1.00  0.00     0.261 C 
BRANCH  27  28
ATOM     28  O   UNL A   1      43.333  23.096  25.022  1.00  0.00    -0.460 OA
BRANCH  28  29
ATOM     29  C   UNL A   1      44.033  24.246  25.185  1.00  0.00     0.338 C 
ATOM     30  O   UNL A   1      45.029  24.600  24.578  1.00  0.00    -0.246 OA
BRANCH  29  31
ATOM     31  C   UNL A   1      43.305  25.139  26.099  1.00  0.00     0.060 A 
ATOM     32  C   UNL A   1      43.711  26.479  26.169  1.00  0.00     0.016 A 
ATOM     33  C   UNL A   1      42.301  24.650  26.933  1.00  0.00     0.016 A 
ATOM     34  C   UNL A   1      43.136  27.332  27.104  1.00  0.00     0.010 A 
ATOM     35  C   UNL A   1      41.734  25.505  27.880  1.00  0.00     0.010 A 
ATOM     36  C   UNL A   1      42.173  26.838  27.991  1.00  0.00    -0.014 A 
BRANCH  36  37
ATOM     37  C   UNL A   1      41.722  27.677  29.125  1.00  0.00     0.031 A 
ATOM     38  C   UNL A   1      42.472  27.617  30.425  1.00  0.00     0.074 A 
ATOM     39  C   UNL A   1      40.665  28.495  28.987  1.00  0.00     0.049 A 
ATOM     40  N   UNL A   1      42.226  28.228  31.554  1.00  0.00    -0.248 NA
ATOM     41  C   UNL A   1      43.651  26.738  30.456  1.00  0.00     0.031 C 
ATOM     42  C   UNL A   1      39.892  28.675  27.759  1.00  0.00     0.029 A 
ATOM     43  N   UNL A   1      40.062  29.325  29.895  1.00  0.00    -0.354 N 
ATOM     44  C   UNL A   1      43.209  27.795  32.437  1.00  0.00     0.074 A 
ATOM     45  C   UNL A   1      44.027  26.840  31.722  1.00  0.00     0.031 C 
ATOM     46  C   UNL A   1      38.916  29.569  27.990  1.00  0.00     0.029 A 
ATOM     47  C   UNL A   1      38.971  29.987  29.390  1.00  0.00     0.049 A 
ATOM     48  H   UNL A   1      40.379  29.436  30.819  1.00  0.00     0.167 HD
ATOM     49  C   UNL A   1      43.411  28.166  33.725  1.00  0.00     0.037 A 
ATOM     50  C   UNL A   1      38.106  30.821  29.995  1.00  0.00     0.037 A 
ATOM     51  C   UNL A   1      42.583  29.111  34.429  1.00  0.00     0.049 A 
ATOM     52  C   UNL A   1      38.295  31.145  31.453  1.00  0.00     0.074 A 
ATOM     53  C   UNL A   1      42.716  29.577  35.724  1.00  0.00     0.029 A 
ATOM     54  N   UNL A   1      41.450  29.719  33.902  1.00  0.00    -0.354 N 
ATOM     55  N   UNL A   1      39.242  30.760  32.273  1.00  0.00    -0.248 NA
ATOM     56  C   UNL A   1      37.290  32.024  32.067  1.00  0.00     0.031 C 
ATOM     57  C   UNL A   1      41.622  30.402  36.007  1.00  0.00     0.029 A 
ATOM     58  C   UNL A   1      40.852  30.519  34.861  1.00  0.00     0.049 A 
ATOM     59  H   UNL A   1      41.122  29.598  32.981  1.00  0.00     0.167 HD
ATOM     60  C   UNL A   1      38.971  31.378  33.489  1.00  0.00     0.074 A 
ATOM     61  C   UNL A   1      37.774  32.170  33.293  1.00  0.00     0.031 C 
ATOM     62  C   UNL A   1      39.657  31.303  34.657  1.00  0.00     0.037 A 
BRANCH  49  63
ATOM     63  C   UNL A   1      44.540  27.500  34.463  1.00  0.00     0.057 A 
ATOM     64  C   UNL A   1      45.810  28.083  34.580  1.00  0.00     0.134 A 
ATOM     65  C   UNL A   1      44.355  26.244  35.055  1.00  0.00     0.134 A 
ATOM     66  F   UNL A   1      46.062  29.281  34.030  1.00  0.00    -0.206 F 
ATOM     67  C   UNL A   1      46.865  27.421  35.212  1.00  0.00     0.040 A 
ATOM     68  C   UNL A   1      45.392  25.589  35.724  1.00  0.00     0.040 A 
ATOM     69  F   UNL A   1      43.165  25.628  34.994  1.00  0.00    -0.206 F 
ATOM     70  C   UNL A   1      46.655  26.170  35.789  1.00  0.00     0.006 A 
ENDBRANCH  49  63
BRANCH  50  71
ATOM     71  C   UNL A   1      36.994  31.424  29.219  1.00  0.00     0.057 A 
ATOM     72  C   UNL A   1      35.844  30.685  28.921  1.00  0.00     0.134 A 
ATOM     73  C   UNL A   1      37.048  32.746  28.761  1.00  0.00     0.134 A 
ATOM     74  F   UNL A   1      35.743  29.407  29.316  1.00  0.00    -0.206 F 
ATOM     75  C   UNL A   1      34.792  31.233  28.187  1.00  0.00     0.040 A 
ATOM     76  C   UNL A   1      35.992  33.316  28.050  1.00  0.00     0.040 A 
ATOM     77  F   UNL A   1      38.120  33.510  29.018  1.00  0.00    -0.206 F 
ATOM     78  C   UNL A   1      34.862  32.557  27.755  1.00  0.00     0.006 A 
ENDBRANCH  50  71
BRANCH  62  79
ATOM     79  C   UNL A   1      39.157  32.136  35.807  1.00  0.00     0.057 A 
ATOM     80  C   UNL A   1      39.516  33.480  35.970  1.00  0.00     0.134 A 
ATOM     81  C   UNL A   1      38.271  31.588  36.746  1.00  0.00     0.134 A 
ATOM     82  F   UNL A   1      40.369  34.065  35.115  1.00  0.00    -0.206 F 
ATOM     83  C   UNL A   1      39.038  34.239  37.041  1.00  0.00     0.040 A 
ATOM     84  C   UNL A   1      37.759  32.347  37.799  1.00  0.00     0.040 A 
ATOM     85  F   UNL A   1      37.875  30.310  36.646  1.00  0.00    -0.206 F 
ATOM     86  C   UNL A   1      38.149  33.675  37.954  1.00  0.00     0.006 A 
ENDBRANCH  62  79
ENDBRANCH  36  37
ENDBRANCH  29  31
ENDBRANCH  28  29
ENDBRANCH  27  28
ENDBRANCH  26  27
ENDBRANCH  25  26
ENDBRANCH   1  25
TORSDOF 18
ENDMDL
