MODEL 1
REMARK VINA RESULT:     -11.4      0.000      0.000
REMARK SMILES O=C(OCCOCCOC(=O)C1(Cc2ccncc2)Cc2ccccc2C1)c1ccc(-c2c3nc(c(-c4c(F)cccc4F)c4ccc([nH]4)c(-c4c(F)cccc4F)c4nc(c(-c5c(F)cccc5F)c5ccc2[nH]5)C=C4)C=C3)cc1
REMARK SMILES IDX 6 1 5 2 4 3 3 4 2 5 1 6 28 7 29 8 81 9 30 10 80 11 31 12
REMARK SMILES IDX 32 13 33 14 74 15 34 16 79 17 73 18 75 19 35 20 78 21 72 22
REMARK SMILES IDX 71 23 36 25 62 26 45 27 61 28 46 29 49 30 60 31 76 32 47 33
REMARK SMILES IDX 48 34 59 36 77 37 50 38 37 39 38 40 43 41 39 42 40 43 42 44
REMARK SMILES IDX 44 45 41 46 63 47 64 48 69 49 65 50 66 51 68 52 70 53 67 54
REMARK SMILES IDX 51 55 52 56 57 57 53 58 54 59 56 60 58 61 55 62 7 63 8 64
REMARK SMILES IDX 9 65 10 66 11 67 12 68 20 69 27 70 21 71 26 72 22 73 25 74
REMARK SMILES IDX 23 75 24 76 13 77 14 78 15 79 19 80 16 81 18 82 17 83
REMARK H PARENT 75 24 49 35
REMARK Flexibility Score: inf
ROOT
ATOM      1  O   UNL A   1      40.546  20.571  26.211  1.00  0.00    -0.374 OA
ENDROOT
BRANCH   1   2
ATOM      2  C   UNL A   1      41.803  20.773  26.860  1.00  0.00     0.202 C 
BRANCH   2   3
ATOM      3  C   UNL A   1      43.047  20.948  25.984  1.00  0.00     0.261 C 
BRANCH   3   4
ATOM      4  O   UNL A   1      43.686  22.199  26.249  1.00  0.00    -0.460 OA
BRANCH   4   5
ATOM      5  C   UNL A   1      43.284  23.417  25.828  1.00  0.00     0.338 C 
ATOM      6  O   UNL A   1      43.232  23.635  24.618  1.00  0.00    -0.246 OA
BRANCH   5   7
ATOM      7  C   UNL A   1      42.882  24.518  26.756  1.00  0.00     0.060 A 
ATOM      8  C   UNL A   1      43.426  25.805  26.779  1.00  0.00     0.016 A 
ATOM      9  C   UNL A   1      41.811  24.241  27.618  1.00  0.00     0.016 A 
ATOM     10  C   UNL A   1      42.950  26.791  27.615  1.00  0.00     0.010 A 
ATOM     11  C   UNL A   1      41.321  25.223  28.476  1.00  0.00     0.010 A 
ATOM     12  C   UNL A   1      41.907  26.492  28.471  1.00  0.00    -0.014 A 
BRANCH  12  13
ATOM     13  C   UNL A   1      41.579  27.494  29.479  1.00  0.00     0.031 A 
ATOM     14  C   UNL A   1      42.426  27.527  30.702  1.00  0.00     0.074 A 
ATOM     15  C   UNL A   1      40.631  28.403  29.217  1.00  0.00     0.049 A 
ATOM     16  N   UNL A   1      42.261  28.200  31.802  1.00  0.00    -0.248 NA
ATOM     17  C   UNL A   1      43.637  26.686  30.676  1.00  0.00     0.031 C 
ATOM     18  C   UNL A   1      39.899  28.521  27.953  1.00  0.00     0.029 A 
ATOM     19  N   UNL A   1      40.121  29.398  29.999  1.00  0.00    -0.354 N 
ATOM     20  C   UNL A   1      43.313  27.823  32.622  1.00  0.00     0.074 A 
ATOM     21  C   UNL A   1      44.125  26.881  31.888  1.00  0.00     0.031 C 
ATOM     22  C   UNL A   1      39.005  29.515  28.061  1.00  0.00     0.029 A 
ATOM     23  C   UNL A   1      39.058  30.041  29.419  1.00  0.00     0.049 A 
ATOM     24  H   UNL A   1      40.481  29.631  30.885  1.00  0.00     0.167 HD
ATOM     25  C   UNL A   1      43.542  28.220  33.892  1.00  0.00     0.037 A 
ATOM     26  C   UNL A   1      38.187  30.901  29.974  1.00  0.00     0.037 A 
ATOM     27  C   UNL A   1      42.679  29.147  34.571  1.00  0.00     0.049 A 
ATOM     28  C   UNL A   1      38.391  31.254  31.419  1.00  0.00     0.074 A 
ATOM     29  C   UNL A   1      42.738  29.598  35.872  1.00  0.00     0.029 A 
ATOM     30  N   UNL A   1      41.579  29.759  33.975  1.00  0.00    -0.354 N 
ATOM     31  N   UNL A   1      39.332  30.842  32.240  1.00  0.00    -0.248 NA
ATOM     32  C   UNL A   1      37.420  32.169  32.025  1.00  0.00     0.031 C 
ATOM     33  C   UNL A   1      41.641  30.444  36.079  1.00  0.00     0.029 A 
ATOM     34  C   UNL A   1      40.935  30.568  34.888  1.00  0.00     0.049 A 
ATOM     35  H   UNL A   1      41.302  29.633  33.039  1.00  0.00     0.167 HD
ATOM     36  C   UNL A   1      39.083  31.462  33.454  1.00  0.00     0.074 A 
ATOM     37  C   UNL A   1      37.899  32.281  33.258  1.00  0.00     0.031 C 
ATOM     38  C   UNL A   1      39.764  31.373  34.624  1.00  0.00     0.037 A 
BRANCH  25  39
ATOM     39  C   UNL A   1      44.675  27.553  34.612  1.00  0.00     0.057 A 
ATOM     40  C   UNL A   1      45.972  28.085  34.637  1.00  0.00     0.134 A 
ATOM     41  C   UNL A   1      44.484  26.300  35.208  1.00  0.00     0.134 A 
ATOM     42  F   UNL A   1      46.235  29.263  34.050  1.00  0.00    -0.206 F 
ATOM     43  C   UNL A   1      47.043  27.376  35.187  1.00  0.00     0.040 A 
ATOM     44  C   UNL A   1      45.540  25.595  35.787  1.00  0.00     0.040 A 
ATOM     45  F   UNL A   1      43.273  25.724  35.209  1.00  0.00    -0.206 F 
ATOM     46  C   UNL A   1      46.827  26.126  35.765  1.00  0.00     0.006 A 
ENDBRANCH  25  39
BRANCH  26  47
ATOM     47  C   UNL A   1      37.038  31.397  29.176  1.00  0.00     0.057 A 
ATOM     48  C   UNL A   1      35.910  30.604  28.949  1.00  0.00     0.134 A 
ATOM     49  C   UNL A   1      37.015  32.707  28.675  1.00  0.00     0.134 A 
ATOM     50  F   UNL A   1      35.873  29.339  29.394  1.00  0.00    -0.206 F 
ATOM     51  C   UNL A   1      34.801  31.094  28.254  1.00  0.00     0.040 A 
ATOM     52  C   UNL A   1      35.904  33.217  28.002  1.00  0.00     0.040 A 
ATOM     53  F   UNL A   1      38.061  33.525  28.867  1.00  0.00    -0.206 F 
ATOM     54  C   UNL A   1      34.792  32.407  27.787  1.00  0.00     0.006 A 
ENDBRANCH  26  47
BRANCH  38  55
ATOM     55  C   UNL A   1      39.276  32.219  35.758  1.00  0.00     0.057 A 
ATOM     56  C   UNL A   1      39.689  33.546  35.919  1.00  0.00     0.134 A 
ATOM     57  C   UNL A   1      38.298  31.724  36.629  1.00  0.00     0.134 A 
ATOM     58  F   UNL A   1      40.631  34.069  35.119  1.00  0.00    -0.206 F 
ATOM     59  C   UNL A   1      39.142  34.355  36.913  1.00  0.00     0.040 A 
ATOM     60  C   UNL A   1      37.726  32.531  37.609  1.00  0.00     0.040 A 
ATOM     61  F   UNL A   1      37.858  30.462  36.512  1.00  0.00    -0.206 F 
ATOM     62  C   UNL A   1      38.148  33.851  37.753  1.00  0.00     0.006 A 
ENDBRANCH  38  55
ENDBRANCH  12  13
ENDBRANCH   5   7
ENDBRANCH   4   5
ENDBRANCH   3   4
ENDBRANCH   2   3
ENDBRANCH   1   2
BRANCH   1  63
ATOM     63  C   UNL A   1      39.566  21.602  26.396  1.00  0.00     0.202 C 
BRANCH  63  64
ATOM     64  C   UNL A   1      38.444  21.455  25.371  1.00  0.00     0.261 C 
BRANCH  64  65
ATOM     65  O   UNL A   1      37.213  21.664  26.075  1.00  0.00    -0.463 OA
BRANCH  65  66
ATOM     66  C   UNL A   1      36.601  22.857  25.846  1.00  0.00     0.313 C 
ATOM     67  O   UNL A   1      37.204  23.917  25.808  1.00  0.00    -0.252 OA
BRANCH  66  68
ATOM     68  C   UNL A   1      35.082  22.702  25.708  1.00  0.00     0.080 C 
ATOM     69  C   UNL A   1      34.542  23.265  24.345  1.00  0.00     0.055 C 
ATOM     70  C   UNL A   1      34.799  21.177  25.675  1.00  0.00     0.055 C 
ATOM     71  C   UNL A   1      33.633  22.200  23.853  1.00  0.00    -0.044 A 
ATOM     72  C   UNL A   1      33.774  21.031  24.594  1.00  0.00    -0.044 A 
ATOM     73  C   UNL A   1      32.771  22.287  22.772  1.00  0.00     0.004 A 
ATOM     74  C   UNL A   1      33.050  19.904  24.258  1.00  0.00     0.004 A 
ATOM     75  C   UNL A   1      32.029  21.160  22.436  1.00  0.00     0.000 A 
ATOM     76  C   UNL A   1      32.169  19.975  23.174  1.00  0.00     0.000 A 
BRANCH  68  77
ATOM     77  C   UNL A   1      34.283  23.434  26.833  1.00  0.00     0.055 C 
BRANCH  77  78
ATOM     78  C   UNL A   1      32.836  23.812  26.636  1.00  0.00    -0.044 A 
ATOM     79  C   UNL A   1      31.800  22.941  26.995  1.00  0.00     0.024 A 
ATOM     80  C   UNL A   1      32.490  25.069  26.141  1.00  0.00     0.024 A 
ATOM     81  C   UNL A   1      30.487  23.339  26.797  1.00  0.00     0.111 A 
ATOM     82  C   UNL A   1      31.147  25.386  26.003  1.00  0.00     0.111 A 
ATOM     83  N   UNL A   1      30.136  24.550  26.316  1.00  0.00    -0.265 NA
ENDBRANCH  77  78
ENDBRANCH  68  77
ENDBRANCH  66  68
ENDBRANCH  65  66
ENDBRANCH  64  65
ENDBRANCH  63  64
ENDBRANCH   1  63
TORSDOF 16
ENDMDL
MODEL 2
REMARK VINA RESULT:     -11.4      1.284      2.593
REMARK SMILES O=C(OCCOCCOC(=O)C1(Cc2ccncc2)Cc2ccccc2C1)c1ccc(-c2c3nc(c(-c4c(F)cccc4F)c4ccc([nH]4)c(-c4c(F)cccc4F)c4nc(c(-c5c(F)cccc5F)c5ccc2[nH]5)C=C4)C=C3)cc1
REMARK SMILES IDX 6 1 5 2 4 3 3 4 2 5 1 6 28 7 29 8 81 9 30 10 80 11 31 12
REMARK SMILES IDX 32 13 33 14 74 15 34 16 79 17 73 18 75 19 35 20 78 21 72 22
REMARK SMILES IDX 71 23 36 25 62 26 45 27 61 28 46 29 49 30 60 31 76 32 47 33
REMARK SMILES IDX 48 34 59 36 77 37 50 38 37 39 38 40 43 41 39 42 40 43 42 44
REMARK SMILES IDX 44 45 41 46 63 47 64 48 69 49 65 50 66 51 68 52 70 53 67 54
REMARK SMILES IDX 51 55 52 56 57 57 53 58 54 59 56 60 58 61 55 62 7 63 8 64
REMARK SMILES IDX 9 65 10 66 11 67 12 68 20 69 27 70 21 71 26 72 22 73 25 74
REMARK SMILES IDX 23 75 24 76 13 77 14 78 15 79 19 80 16 81 18 82 17 83
REMARK H PARENT 75 24 49 35
REMARK Flexibility Score: inf
ROOT
ATOM      1  O   UNL A   1      39.631  20.911  25.993  1.00  0.00    -0.374 OA
ENDROOT
BRANCH   1   2
ATOM      2  C   UNL A   1      40.828  20.313  26.494  1.00  0.00     0.202 C 
BRANCH   2   3
ATOM      3  C   UNL A   1      42.164  20.982  26.155  1.00  0.00     0.261 C 
BRANCH   3   4
ATOM      4  O   UNL A   1      41.959  22.170  25.387  1.00  0.00    -0.460 OA
BRANCH   4   5
ATOM      5  C   UNL A   1      42.672  23.315  25.462  1.00  0.00     0.338 C 
ATOM      6  O   UNL A   1      43.633  23.459  24.708  1.00  0.00    -0.246 OA
BRANCH   5   7
ATOM      7  C   UNL A   1      42.348  24.426  26.407  1.00  0.00     0.060 A 
ATOM      8  C   UNL A   1      42.970  25.677  26.439  1.00  0.00     0.016 A 
ATOM      9  C   UNL A   1      41.271  24.205  27.278  1.00  0.00     0.016 A 
ATOM     10  C   UNL A   1      42.564  26.680  27.292  1.00  0.00     0.010 A 
ATOM     11  C   UNL A   1      40.851  25.204  28.152  1.00  0.00     0.010 A 
ATOM     12  C   UNL A   1      41.512  26.435  28.156  1.00  0.00    -0.014 A 
BRANCH  12  13
ATOM     13  C   UNL A   1      41.256  27.442  29.179  1.00  0.00     0.031 A 
ATOM     14  C   UNL A   1      42.143  27.435  30.374  1.00  0.00     0.074 A 
ATOM     15  C   UNL A   1      40.336  28.389  28.952  1.00  0.00     0.049 A 
ATOM     16  N   UNL A   1      42.039  28.107  31.482  1.00  0.00    -0.248 NA
ATOM     17  C   UNL A   1      43.319  26.548  30.304  1.00  0.00     0.031 C 
ATOM     18  C   UNL A   1      39.570  28.543  27.713  1.00  0.00     0.029 A 
ATOM     19  N   UNL A   1      39.892  29.398  29.755  1.00  0.00    -0.354 N 
ATOM     20  C   UNL A   1      43.102  27.684  32.266  1.00  0.00     0.074 A 
ATOM     21  C   UNL A   1      43.853  26.716  31.501  1.00  0.00     0.031 C 
ATOM     22  C   UNL A   1      38.719  29.570  27.855  1.00  0.00     0.029 A 
ATOM     23  C   UNL A   1      38.836  30.085  29.214  1.00  0.00     0.049 A 
ATOM     24  H   UNL A   1      40.289  29.611  30.630  1.00  0.00     0.167 HD
ATOM     25  C   UNL A   1      43.388  28.064  33.530  1.00  0.00     0.037 A 
ATOM     26  C   UNL A   1      38.017  30.975  29.800  1.00  0.00     0.037 A 
ATOM     27  C   UNL A   1      42.583  29.019  34.240  1.00  0.00     0.049 A 
ATOM     28  C   UNL A   1      38.281  31.311  31.240  1.00  0.00     0.074 A 
ATOM     29  C   UNL A   1      42.701  29.460  35.541  1.00  0.00     0.029 A 
ATOM     30  N   UNL A   1      41.489  29.677  33.684  1.00  0.00    -0.354 N 
ATOM     31  N   UNL A   1      39.231  30.857  32.028  1.00  0.00    -0.248 NA
ATOM     32  C   UNL A   1      37.367  32.259  31.882  1.00  0.00     0.031 C 
ATOM     33  C   UNL A   1      41.646  30.346  35.788  1.00  0.00     0.029 A 
ATOM     34  C   UNL A   1      40.907  30.505  34.621  1.00  0.00     0.049 A 
ATOM     35  H   UNL A   1      41.177  29.568  32.757  1.00  0.00     0.167 HD
ATOM     36  C   UNL A   1      39.046  31.479  33.252  1.00  0.00     0.074 A 
ATOM     37  C   UNL A   1      37.889  32.345  33.099  1.00  0.00     0.031 C 
ATOM     38  C   UNL A   1      39.761  31.357  34.399  1.00  0.00     0.037 A 
BRANCH  25  39
ATOM     39  C   UNL A   1      44.516  27.349  34.209  1.00  0.00     0.057 A 
ATOM     40  C   UNL A   1      44.353  26.113  34.848  1.00  0.00     0.134 A 
ATOM     41  C   UNL A   1      45.772  27.964  34.311  1.00  0.00     0.134 A 
ATOM     42  F   UNL A   1      43.165  25.488  34.825  1.00  0.00    -0.206 F 
ATOM     43  C   UNL A   1      45.379  25.537  35.601  1.00  0.00     0.040 A 
ATOM     44  C   UNL A   1      46.814  27.384  35.035  1.00  0.00     0.040 A 
ATOM     45  F   UNL A   1      45.996  29.154  33.736  1.00  0.00    -0.206 F 
ATOM     46  C   UNL A   1      46.616  26.174  35.694  1.00  0.00     0.006 A 
ENDBRANCH  25  39
BRANCH  26  47
ATOM     47  C   UNL A   1      36.864  31.520  29.043  1.00  0.00     0.057 A 
ATOM     48  C   UNL A   1      35.725  30.750  28.792  1.00  0.00     0.134 A 
ATOM     49  C   UNL A   1      36.847  32.853  28.606  1.00  0.00     0.134 A 
ATOM     50  F   UNL A   1      35.681  29.465  29.175  1.00  0.00    -0.206 F 
ATOM     51  C   UNL A   1      34.612  31.283  28.136  1.00  0.00     0.040 A 
ATOM     52  C   UNL A   1      35.733  33.406  27.973  1.00  0.00     0.040 A 
ATOM     53  F   UNL A   1      37.904  33.651  28.824  1.00  0.00    -0.206 F 
ATOM     54  C   UNL A   1      34.611  32.618  27.734  1.00  0.00     0.006 A 
ENDBRANCH  26  47
BRANCH  38  55
ATOM     55  C   UNL A   1      39.343  32.214  35.553  1.00  0.00     0.057 A 
ATOM     56  C   UNL A   1      38.529  31.722  36.579  1.00  0.00     0.134 A 
ATOM     57  C   UNL A   1      39.857  33.509  35.684  1.00  0.00     0.134 A 
ATOM     58  F   UNL A   1      38.000  30.492  36.501  1.00  0.00    -0.206 F 
ATOM     59  C   UNL A   1      38.239  32.496  37.702  1.00  0.00     0.040 A 
ATOM     60  C   UNL A   1      39.596  34.281  36.813  1.00  0.00     0.040 A 
ATOM     61  F   UNL A   1      40.652  34.025  34.734  1.00  0.00    -0.206 F 
ATOM     62  C   UNL A   1      38.785  33.774  37.826  1.00  0.00     0.006 A 
ENDBRANCH  38  55
ENDBRANCH  12  13
ENDBRANCH   5   7
ENDBRANCH   4   5
ENDBRANCH   3   4
ENDBRANCH   2   3
ENDBRANCH   1   2
BRANCH   1  63
ATOM     63  C   UNL A   1      38.696  20.022  25.364  1.00  0.00     0.202 C 
BRANCH  63  64
ATOM     64  C   UNL A   1      37.555  20.815  24.733  1.00  0.00     0.261 C 
BRANCH  64  65
ATOM     65  O   UNL A   1      36.500  20.863  25.703  1.00  0.00    -0.463 OA
BRANCH  65  66
ATOM     66  C   UNL A   1      35.818  22.038  25.772  1.00  0.00     0.313 C 
ATOM     67  O   UNL A   1      36.343  23.094  26.085  1.00  0.00    -0.252 OA
BRANCH  66  68
ATOM     68  C   UNL A   1      34.327  21.850  25.469  1.00  0.00     0.080 C 
ATOM     69  C   UNL A   1      33.421  22.851  26.271  1.00  0.00     0.055 C 
ATOM     70  C   UNL A   1      34.134  22.213  23.974  1.00  0.00     0.055 C 
ATOM     71  C   UNL A   1      32.478  23.377  25.251  1.00  0.00    -0.044 A 
ATOM     72  C   UNL A   1      32.874  23.021  23.966  1.00  0.00    -0.044 A 
ATOM     73  C   UNL A   1      31.363  24.162  25.488  1.00  0.00     0.004 A 
ATOM     74  C   UNL A   1      32.154  23.460  22.872  1.00  0.00     0.004 A 
ATOM     75  C   UNL A   1      30.625  24.597  24.392  1.00  0.00     0.000 A 
ATOM     76  C   UNL A   1      31.020  24.248  23.092  1.00  0.00     0.000 A 
BRANCH  68  77
ATOM     77  C   UNL A   1      33.805  20.418  25.809  1.00  0.00     0.055 C 
BRANCH  77  78
ATOM     78  C   UNL A   1      33.594  19.391  24.724  1.00  0.00    -0.044 A 
ATOM     79  C   UNL A   1      34.491  18.333  24.538  1.00  0.00     0.024 A 
ATOM     80  C   UNL A   1      32.462  19.438  23.910  1.00  0.00     0.024 A 
ATOM     81  C   UNL A   1      34.248  17.413  23.529  1.00  0.00     0.111 A 
ATOM     82  C   UNL A   1      32.292  18.458  22.945  1.00  0.00     0.111 A 
ATOM     83  N   UNL A   1      33.160  17.447  22.731  1.00  0.00    -0.265 NA
ENDBRANCH  77  78
ENDBRANCH  68  77
ENDBRANCH  66  68
ENDBRANCH  65  66
ENDBRANCH  64  65
ENDBRANCH  63  64
ENDBRANCH   1  63
TORSDOF 16
ENDMDL
MODEL 3
REMARK VINA RESULT:     -11.3      3.426      8.312
REMARK SMILES O=C(OCCOCCOC(=O)C1(Cc2ccncc2)Cc2ccccc2C1)c1ccc(-c2c3nc(c(-c4c(F)cccc4F)c4ccc([nH]4)c(-c4c(F)cccc4F)c4nc(c(-c5c(F)cccc5F)c5ccc2[nH]5)C=C4)C=C3)cc1
REMARK SMILES IDX 6 1 5 2 4 3 3 4 2 5 1 6 28 7 29 8 81 9 30 10 80 11 31 12
REMARK SMILES IDX 32 13 33 14 74 15 34 16 79 17 73 18 75 19 35 20 78 21 72 22
REMARK SMILES IDX 71 23 36 25 62 26 45 27 61 28 46 29 49 30 60 31 76 32 47 33
REMARK SMILES IDX 48 34 59 36 77 37 50 38 37 39 38 40 43 41 39 42 40 43 42 44
REMARK SMILES IDX 44 45 41 46 63 47 64 48 69 49 65 50 66 51 68 52 70 53 67 54
REMARK SMILES IDX 51 55 52 56 57 57 53 58 54 59 56 60 58 61 55 62 7 63 8 64
REMARK SMILES IDX 9 65 10 66 11 67 12 68 20 69 27 70 21 71 26 72 22 73 25 74
REMARK SMILES IDX 23 75 24 76 13 77 14 78 15 79 19 80 16 81 18 82 17 83
REMARK H PARENT 75 24 49 35
REMARK Flexibility Score: inf
ROOT
ATOM      1  O   UNL A   1      31.111  31.382  25.684  1.00  0.00    -0.374 OA
ENDROOT
BRANCH   1   2
ATOM      2  C   UNL A   1      31.470  31.905  26.965  1.00  0.00     0.202 C 
BRANCH   2   3
ATOM      3  C   UNL A   1      32.615  32.920  27.034  1.00  0.00     0.261 C 
BRANCH   3   4
ATOM      4  O   UNL A   1      32.250  34.047  27.835  1.00  0.00    -0.460 OA
BRANCH   4   5
ATOM      5  C   UNL A   1      33.019  34.666  28.757  1.00  0.00     0.338 C 
ATOM      6  O   UNL A   1      32.717  35.806  29.105  1.00  0.00    -0.246 OA
BRANCH   5   7
ATOM      7  C   UNL A   1      34.215  34.033  29.391  1.00  0.00     0.060 A 
ATOM      8  C   UNL A   1      34.188  33.053  30.388  1.00  0.00     0.016 A 
ATOM      9  C   UNL A   1      35.463  34.409  28.873  1.00  0.00     0.016 A 
ATOM     10  C   UNL A   1      35.335  32.461  30.869  1.00  0.00     0.010 A 
ATOM     11  C   UNL A   1      36.634  33.827  29.353  1.00  0.00     0.010 A 
ATOM     12  C   UNL A   1      36.556  32.860  30.360  1.00  0.00    -0.014 A 
BRANCH  12  13
ATOM     13  C   UNL A   1      37.745  32.365  31.043  1.00  0.00     0.031 A 
ATOM     14  C   UNL A   1      38.480  31.243  30.397  1.00  0.00     0.074 A 
ATOM     15  C   UNL A   1      38.190  33.003  32.134  1.00  0.00     0.049 A 
ATOM     16  N   UNL A   1      39.459  30.523  30.860  1.00  0.00    -0.248 NA
ATOM     17  C   UNL A   1      38.053  30.888  29.031  1.00  0.00     0.031 C 
ATOM     18  C   UNL A   1      37.602  34.221  32.698  1.00  0.00     0.029 A 
ATOM     19  N   UNL A   1      39.236  32.715  32.960  1.00  0.00    -0.354 N 
ATOM     20  C   UNL A   1      39.730  29.595  29.867  1.00  0.00     0.074 A 
ATOM     21  C   UNL A   1      38.830  29.853  28.767  1.00  0.00     0.031 C 
ATOM     22  C   UNL A   1      38.281  34.556  33.805  1.00  0.00     0.029 A 
ATOM     23  C   UNL A   1      39.290  33.535  34.058  1.00  0.00     0.049 A 
ATOM     24  H   UNL A   1      39.884  31.995  32.786  1.00  0.00     0.167 HD
ATOM     25  C   UNL A   1      40.638  28.596  29.907  1.00  0.00     0.037 A 
ATOM     26  C   UNL A   1      40.032  33.408  35.171  1.00  0.00     0.037 A 
ATOM     27  C   UNL A   1      41.489  28.383  31.046  1.00  0.00     0.049 A 
ATOM     28  C   UNL A   1      40.964  32.232  35.249  1.00  0.00     0.074 A 
ATOM     29  C   UNL A   1      42.412  27.384  31.267  1.00  0.00     0.029 A 
ATOM     30  N   UNL A   1      41.501  29.207  32.169  1.00  0.00    -0.354 N 
ATOM     31  N   UNL A   1      41.174  31.291  34.356  1.00  0.00    -0.248 NA
ATOM     32  C   UNL A   1      41.747  32.083  36.478  1.00  0.00     0.031 C 
ATOM     33  C   UNL A   1      42.944  27.572  32.548  1.00  0.00     0.029 A 
ATOM     34  C   UNL A   1      42.399  28.726  33.099  1.00  0.00     0.049 A 
ATOM     35  H   UNL A   1      40.949  30.013  32.282  1.00  0.00     0.167 HD
ATOM     36  C   UNL A   1      42.129  30.448  34.902  1.00  0.00     0.074 A 
ATOM     37  C   UNL A   1      42.457  30.995  36.207  1.00  0.00     0.031 C 
ATOM     38  C   UNL A   1      42.691  29.328  34.380  1.00  0.00     0.037 A 
BRANCH  25  39
ATOM     39  C   UNL A   1      40.636  27.636  28.756  1.00  0.00     0.057 A 
ATOM     40  C   UNL A   1      41.438  27.816  27.621  1.00  0.00     0.134 A 
ATOM     41  C   UNL A   1      39.736  26.563  28.743  1.00  0.00     0.134 A 
ATOM     42  F   UNL A   1      42.294  28.848  27.550  1.00  0.00    -0.206 F 
ATOM     43  C   UNL A   1      41.313  26.993  26.499  1.00  0.00     0.040 A 
ATOM     44  C   UNL A   1      39.622  25.715  27.640  1.00  0.00     0.040 A 
ATOM     45  F   UNL A   1      38.928  26.339  29.789  1.00  0.00    -0.206 F 
ATOM     46  C   UNL A   1      40.402  25.938  26.508  1.00  0.00     0.006 A 
ENDBRANCH  25  39
BRANCH  26  47
ATOM     47  C   UNL A   1      39.849  34.368  36.287  1.00  0.00     0.057 A 
ATOM     48  C   UNL A   1      39.022  34.075  37.374  1.00  0.00     0.134 A 
ATOM     49  C   UNL A   1      40.554  35.581  36.324  1.00  0.00     0.134 A 
ATOM     50  F   UNL A   1      38.313  32.937  37.397  1.00  0.00    -0.206 F 
ATOM     51  C   UNL A   1      38.900  34.951  38.457  1.00  0.00     0.040 A 
ATOM     52  C   UNL A   1      40.462  36.452  37.410  1.00  0.00     0.040 A 
ATOM     53  F   UNL A   1      41.375  35.918  35.317  1.00  0.00    -0.206 F 
ATOM     54  C   UNL A   1      39.629  36.138  38.481  1.00  0.00     0.006 A 
ENDBRANCH  26  47
BRANCH  38  55
ATOM     55  C   UNL A   1      43.750  28.658  35.198  1.00  0.00     0.057 A 
ATOM     56  C   UNL A   1      43.434  27.711  36.178  1.00  0.00     0.134 A 
ATOM     57  C   UNL A   1      45.102  28.888  34.917  1.00  0.00     0.134 A 
ATOM     58  F   UNL A   1      42.156  27.458  36.495  1.00  0.00    -0.206 F 
ATOM     59  C   UNL A   1      44.434  27.013  36.854  1.00  0.00     0.040 A 
ATOM     60  C   UNL A   1      46.108  28.179  35.567  1.00  0.00     0.040 A 
ATOM     61  F   UNL A   1      45.460  29.777  33.978  1.00  0.00    -0.206 F 
ATOM     62  C   UNL A   1      45.775  27.237  36.539  1.00  0.00     0.006 A 
ENDBRANCH  38  55
ENDBRANCH  12  13
ENDBRANCH   5   7
ENDBRANCH   4   5
ENDBRANCH   3   4
ENDBRANCH   2   3
ENDBRANCH   1   2
BRANCH   1  63
ATOM     63  C   UNL A   1      31.403  29.994  25.465  1.00  0.00     0.202 C 
BRANCH  63  64
ATOM     64  C   UNL A   1      32.208  29.432  26.633  1.00  0.00     0.261 C 
BRANCH  64  65
ATOM     65  O   UNL A   1      32.726  28.165  26.206  1.00  0.00    -0.463 OA
BRANCH  65  66
ATOM     66  C   UNL A   1      31.928  27.091  26.451  1.00  0.00     0.313 C 
ATOM     67  O   UNL A   1      31.008  27.116  27.252  1.00  0.00    -0.252 OA
BRANCH  66  68
ATOM     68  C   UNL A   1      32.370  25.860  25.653  1.00  0.00     0.080 C 
ATOM     69  C   UNL A   1      33.879  25.931  25.224  1.00  0.00     0.055 C 
ATOM     70  C   UNL A   1      32.262  24.650  26.618  1.00  0.00     0.055 C 
ATOM     71  C   UNL A   1      34.412  24.588  25.567  1.00  0.00    -0.044 A 
ATOM     72  C   UNL A   1      33.511  23.870  26.346  1.00  0.00    -0.044 A 
ATOM     73  C   UNL A   1      35.655  24.084  25.224  1.00  0.00     0.004 A 
ATOM     74  C   UNL A   1      33.844  22.613  26.813  1.00  0.00     0.004 A 
ATOM     75  C   UNL A   1      35.993  22.814  25.680  1.00  0.00     0.000 A 
ATOM     76  C   UNL A   1      35.093  22.084  26.471  1.00  0.00     0.000 A 
BRANCH  68  77
ATOM     77  C   UNL A   1      31.550  25.651  24.339  1.00  0.00     0.055 C 
BRANCH  77  78
ATOM     78  C   UNL A   1      30.887  26.814  23.645  1.00  0.00    -0.044 A 
ATOM     79  C   UNL A   1      31.604  27.651  22.780  1.00  0.00     0.024 A 
ATOM     80  C   UNL A   1      29.523  27.054  23.804  1.00  0.00     0.024 A 
ATOM     81  C   UNL A   1      30.945  28.703  22.163  1.00  0.00     0.111 A 
ATOM     82  C   UNL A   1      28.947  28.117  23.124  1.00  0.00     0.111 A 
ATOM     83  N   UNL A   1      29.627  28.951  22.309  1.00  0.00    -0.265 NA
ENDBRANCH  77  78
ENDBRANCH  68  77
ENDBRANCH  66  68
ENDBRANCH  65  66
ENDBRANCH  64  65
ENDBRANCH  63  64
ENDBRANCH   1  63
TORSDOF 16
ENDMDL
