MODEL 1
REMARK VINA RESULT:     -10.5      0.000      0.000
REMARK SMILES CN(C)C(=O)CCNC(=O)NC[C@H]1CC[C@@H](C(=O)OCCOCCOC(=O)c2ccc(-c3c4nc(c(-c5c(F)cccc5F)c5ccc([nH]5)c(-c5c(F)cccc5F)c5nc(c(-c6c(F)cccc6F)c6ccc3[nH]6)C=C5)C=C4)cc2)CC1
REMARK SMILES IDX 20 1 19 2 17 3 18 4 16 5 13 6 14 7 83 8 15 9 82 10 12 11
REMARK SMILES IDX 11 12 8 13 9 14 10 16 7 18 6 19 4 20 1 21 2 22 3 23 5 24
REMARK SMILES IDX 21 25 22 26 23 27 24 28 25 29 26 30 27 31 28 32 29 33 81 34
REMARK SMILES IDX 30 35 80 36 31 37 32 38 33 39 74 40 34 41 79 42 73 43 75 44
REMARK SMILES IDX 35 45 78 46 72 47 71 48 36 50 62 51 45 52 61 53 46 54 49 55
REMARK SMILES IDX 60 56 76 57 47 58 48 59 59 61 77 62 50 63 37 64 38 65 43 66
REMARK SMILES IDX 39 67 40 68 42 69 44 70 41 71 63 72 64 73 69 74 65 75 66 76
REMARK SMILES IDX 68 77 70 78 67 79 51 80 52 81 57 82 53 83 54 84 56 85 58 86
REMARK SMILES IDX 55 87
REMARK H PARENT 8 15 11 17 75 49 49 60
REMARK Flexibility Score: inf
ROOT
ATOM      1  C   UNL A   1      39.148  21.332  26.122  1.00  0.00     0.261 C 
ENDROOT
BRANCH   1   2
ATOM      2  O   UNL A   1      38.785  22.719  26.279  1.00  0.00    -0.463 OA
BRANCH   2   3
ATOM      3  C   UNL A   1      37.543  23.067  25.858  1.00  0.00     0.309 C 
ATOM      4  O   UNL A   1      36.998  24.138  26.102  1.00  0.00    -0.252 OA
BRANCH   3   5
ATOM      5  C   UNL A   1      36.830  21.955  25.091  1.00  0.00     0.099 C 
ATOM      6  C   UNL A   1      34.236  22.700  23.799  1.00  0.00     0.008 C 
ATOM      7  C   UNL A   1      35.583  23.295  23.360  1.00  0.00     0.006 C 
ATOM      8  C   UNL A   1      34.283  22.357  25.295  1.00  0.00     0.006 C 
ATOM      9  C   UNL A   1      36.737  22.333  23.613  1.00  0.00     0.015 C 
ATOM     10  C   UNL A   1      35.480  21.467  25.638  1.00  0.00     0.015 C 
BRANCH   6  11
ATOM     11  C   UNL A   1      33.022  23.561  23.368  1.00  0.00     0.121 C 
BRANCH  11  12
ATOM     12  N   UNL A   1      33.254  24.483  22.275  1.00  0.00    -0.338 N 
ATOM     13  N   UNL A   1      33.452  26.625  23.232  1.00  0.00    -0.338 N 
ATOM     14  C   UNL A   1      33.353  25.810  22.178  1.00  0.00     0.314 C 
ATOM     15  H   UNL A   1      33.185  27.553  23.043  1.00  0.00     0.165 HD
ATOM     16  O   UNL A   1      33.343  26.307  21.052  1.00  0.00    -0.249 OA
ATOM     17  H   UNL A   1      33.363  24.028  21.409  1.00  0.00     0.165 HD
BRANCH  13  18
ATOM     18  C   UNL A   1      33.878  26.405  24.601  1.00  0.00     0.127 C 
BRANCH  18  19
ATOM     19  C   UNL A   1      32.963  27.043  25.638  1.00  0.00     0.121 C 
BRANCH  19  20
ATOM     20  C   UNL A   1      31.603  27.179  25.009  1.00  0.00     0.223 C 
ATOM     21  C   UNL A   1      30.323  28.556  23.485  1.00  0.00     0.146 C 
ATOM     22  N   UNL A   1      31.228  28.447  24.610  1.00  0.00    -0.349 N 
ATOM     23  C   UNL A   1      31.645  29.674  25.279  1.00  0.00     0.146 C 
ATOM     24  O   UNL A   1      30.950  26.172  24.726  1.00  0.00    -0.275 OA
ENDBRANCH  19  20
ENDBRANCH  18  19
ENDBRANCH  13  18
ENDBRANCH  11  12
ENDBRANCH   6  11
ENDBRANCH   3   5
ENDBRANCH   2   3
ENDBRANCH   1   2
BRANCH   1  25
ATOM     25  C   UNL A   1      40.592  21.078  26.568  1.00  0.00     0.202 C 
BRANCH  25  26
ATOM     26  O   UNL A   1      41.602  21.335  25.590  1.00  0.00    -0.374 OA
BRANCH  26  27
ATOM     27  C   UNL A   1      42.943  21.029  25.960  1.00  0.00     0.202 C 
BRANCH  27  28
ATOM     28  C   UNL A   1      44.047  21.889  25.331  1.00  0.00     0.261 C 
BRANCH  28  29
ATOM     29  O   UNL A   1      43.556  23.092  24.710  1.00  0.00    -0.460 OA
BRANCH  29  30
ATOM     30  C   UNL A   1      44.267  24.202  25.010  1.00  0.00     0.338 C 
ATOM     31  O   UNL A   1      45.362  24.523  24.547  1.00  0.00    -0.246 OA
BRANCH  30  32
ATOM     32  C   UNL A   1      43.522  25.111  25.902  1.00  0.00     0.060 A 
ATOM     33  C   UNL A   1      44.089  26.363  26.168  1.00  0.00     0.016 A 
ATOM     34  C   UNL A   1      42.357  24.723  26.562  1.00  0.00     0.016 A 
ATOM     35  C   UNL A   1      43.534  27.202  27.138  1.00  0.00     0.010 A 
ATOM     36  C   UNL A   1      41.790  25.578  27.521  1.00  0.00     0.010 A 
ATOM     37  C   UNL A   1      42.394  26.808  27.851  1.00  0.00    -0.014 A 
BRANCH  37  38
ATOM     38  C   UNL A   1      41.896  27.615  29.002  1.00  0.00     0.031 A 
ATOM     39  C   UNL A   1      42.491  27.425  30.371  1.00  0.00     0.074 A 
ATOM     40  C   UNL A   1      40.949  28.564  28.861  1.00  0.00     0.049 A 
ATOM     41  N   UNL A   1      42.183  28.028  31.493  1.00  0.00    -0.248 NA
ATOM     42  C   UNL A   1      43.601  26.468  30.487  1.00  0.00     0.031 C 
ATOM     43  C   UNL A   1      40.358  28.996  27.601  1.00  0.00     0.029 A 
ATOM     44  N   UNL A   1      40.294  29.320  29.809  1.00  0.00    -0.354 N 
ATOM     45  C   UNL A   1      43.102  27.577  32.428  1.00  0.00     0.074 A 
ATOM     46  C   UNL A   1      43.908  26.568  31.772  1.00  0.00     0.031 C 
ATOM     47  C   UNL A   1      39.373  29.871  27.865  1.00  0.00     0.029 A 
ATOM     48  C   UNL A   1      39.224  30.012  29.301  1.00  0.00     0.049 A 
ATOM     49  H   UNL A   1      40.566  29.358  30.755  1.00  0.00     0.167 HD
ATOM     50  C   UNL A   1      43.305  28.011  33.696  1.00  0.00     0.037 A 
ATOM     51  C   UNL A   1      38.206  30.655  29.905  1.00  0.00     0.037 A 
ATOM     52  C   UNL A   1      42.516  29.013  34.364  1.00  0.00     0.049 A 
ATOM     53  C   UNL A   1      38.285  30.935  31.368  1.00  0.00     0.074 A 
ATOM     54  C   UNL A   1      42.708  29.570  35.618  1.00  0.00     0.029 A 
ATOM     55  N   UNL A   1      41.371  29.595  33.846  1.00  0.00    -0.354 N 
ATOM     56  N   UNL A   1      39.198  30.557  32.223  1.00  0.00    -0.248 NA
ATOM     57  C   UNL A   1      37.252  31.816  31.926  1.00  0.00     0.031 C 
ATOM     58  C   UNL A   1      41.650  30.451  35.878  1.00  0.00     0.029 A 
ATOM     59  C   UNL A   1      40.821  30.474  34.768  1.00  0.00     0.049 A 
ATOM     60  H   UNL A   1      40.999  29.411  32.952  1.00  0.00     0.167 HD
ATOM     61  C   UNL A   1      38.905  31.224  33.401  1.00  0.00     0.074 A 
ATOM     62  C   UNL A   1      37.701  31.994  33.161  1.00  0.00     0.031 C 
ATOM     63  C   UNL A   1      39.614  31.233  34.555  1.00  0.00     0.037 A 
BRANCH  50  64
ATOM     64  C   UNL A   1      44.466  27.409  34.430  1.00  0.00     0.057 A 
ATOM     65  C   UNL A   1      44.342  26.196  35.124  1.00  0.00     0.134 A 
ATOM     66  C   UNL A   1      45.714  28.039  34.442  1.00  0.00     0.134 A 
ATOM     67  F   UNL A   1      43.167  25.551  35.160  1.00  0.00    -0.206 F 
ATOM     68  C   UNL A   1      45.413  25.648  35.831  1.00  0.00     0.040 A 
ATOM     69  C   UNL A   1      46.799  27.488  35.127  1.00  0.00     0.040 A 
ATOM     70  F   UNL A   1      45.898  29.199  33.794  1.00  0.00    -0.206 F 
ATOM     71  C   UNL A   1      46.647  26.295  35.830  1.00  0.00     0.006 A 
ENDBRANCH  50  64
BRANCH  51  72
ATOM     72  C   UNL A   1      37.022  31.076  29.119  1.00  0.00     0.057 A 
ATOM     73  C   UNL A   1      35.998  30.187  28.786  1.00  0.00     0.134 A 
ATOM     74  C   UNL A   1      36.902  32.400  28.675  1.00  0.00     0.134 A 
ATOM     75  F   UNL A   1      36.080  28.900  29.153  1.00  0.00    -0.206 F 
ATOM     76  C   UNL A   1      34.887  30.601  28.050  1.00  0.00     0.040 A 
ATOM     77  C   UNL A   1      35.786  32.833  27.958  1.00  0.00     0.040 A 
ATOM     78  F   UNL A   1      37.871  33.290  28.934  1.00  0.00    -0.206 F 
ATOM     79  C   UNL A   1      34.774  31.930  27.643  1.00  0.00     0.006 A 
ENDBRANCH  51  72
BRANCH  63  80
ATOM     80  C   UNL A   1      39.134  32.161  35.630  1.00  0.00     0.057 A 
ATOM     81  C   UNL A   1      39.529  33.503  35.689  1.00  0.00     0.134 A 
ATOM     82  C   UNL A   1      38.296  31.688  36.649  1.00  0.00     0.134 A 
ATOM     83  F   UNL A   1      40.353  34.008  34.758  1.00  0.00    -0.206 F 
ATOM     84  C   UNL A   1      39.138  34.332  36.741  1.00  0.00     0.040 A 
ATOM     85  C   UNL A   1      37.876  32.514  37.692  1.00  0.00     0.040 A 
ATOM     86  F   UNL A   1      37.882  30.413  36.655  1.00  0.00    -0.206 F 
ATOM     87  C   UNL A   1      38.307  33.839  37.745  1.00  0.00     0.006 A 
ENDBRANCH  63  80
ENDBRANCH  37  38
ENDBRANCH  30  32
ENDBRANCH  29  30
ENDBRANCH  28  29
ENDBRANCH  27  28
ENDBRANCH  26  27
ENDBRANCH  25  26
ENDBRANCH   1  25
TORSDOF 19
ENDMDL
MODEL 2
REMARK VINA RESULT:     -10.4      3.612      8.782
REMARK SMILES CN(C)C(=O)CCNC(=O)NC[C@H]1CC[C@@H](C(=O)OCCOCCOC(=O)c2ccc(-c3c4nc(c(-c5c(F)cccc5F)c5ccc([nH]5)c(-c5c(F)cccc5F)c5nc(c(-c6c(F)cccc6F)c6ccc3[nH]6)C=C5)C=C4)cc2)CC1
REMARK SMILES IDX 20 1 19 2 17 3 18 4 16 5 13 6 14 7 83 8 15 9 82 10 12 11
REMARK SMILES IDX 11 12 8 13 9 14 10 16 7 18 6 19 4 20 1 21 2 22 3 23 5 24
REMARK SMILES IDX 21 25 22 26 23 27 24 28 25 29 26 30 27 31 28 32 29 33 81 34
REMARK SMILES IDX 30 35 80 36 31 37 32 38 33 39 74 40 34 41 79 42 73 43 75 44
REMARK SMILES IDX 35 45 78 46 72 47 71 48 36 50 62 51 45 52 61 53 46 54 49 55
REMARK SMILES IDX 60 56 76 57 47 58 48 59 59 61 77 62 50 63 37 64 38 65 43 66
REMARK SMILES IDX 39 67 40 68 42 69 44 70 41 71 63 72 64 73 69 74 65 75 66 76
REMARK SMILES IDX 68 77 70 78 67 79 51 80 52 81 57 82 53 83 54 84 56 85 58 86
REMARK SMILES IDX 55 87
REMARK H PARENT 8 15 11 17 75 49 49 60
REMARK Flexibility Score: inf
ROOT
ATOM      1  C   UNL A   1      33.749  32.273  27.976  1.00  0.00     0.261 C 
ENDROOT
BRANCH   1   2
ATOM      2  O   UNL A   1      33.949  30.892  27.610  1.00  0.00    -0.463 OA
BRANCH   2   3
ATOM      3  C   UNL A   1      32.879  30.250  27.077  1.00  0.00     0.309 C 
ATOM      4  O   UNL A   1      31.777  30.759  26.902  1.00  0.00    -0.252 OA
BRANCH   3   5
ATOM      5  C   UNL A   1      33.146  28.779  26.768  1.00  0.00     0.099 C 
ATOM      6  C   UNL A   1      32.035  27.752  24.187  1.00  0.00     0.008 C 
ATOM      7  C   UNL A   1      33.144  28.813  24.249  1.00  0.00     0.006 C 
ATOM      8  C   UNL A   1      31.132  27.871  25.423  1.00  0.00     0.006 C 
ATOM      9  C   UNL A   1      33.997  28.669  25.503  1.00  0.00     0.015 C 
ATOM     10  C   UNL A   1      31.938  27.831  26.724  1.00  0.00     0.015 C 
BRANCH   6  11
ATOM     11  C   UNL A   1      31.283  27.737  22.833  1.00  0.00     0.121 C 
BRANCH  11  12
ATOM     12  N   UNL A   1      31.963  27.078  21.736  1.00  0.00    -0.338 N 
ATOM     13  N   UNL A   1      31.941  24.774  22.218  1.00  0.00    -0.338 N 
ATOM     14  C   UNL A   1      32.337  25.821  21.490  1.00  0.00     0.314 C 
ATOM     15  H   UNL A   1      32.533  23.991  22.143  1.00  0.00     0.165 HD
ATOM     16  O   UNL A   1      33.097  25.623  20.542  1.00  0.00    -0.249 OA
ATOM     17  H   UNL A   1      32.202  27.697  21.009  1.00  0.00     0.165 HD
BRANCH  13  18
ATOM     18  C   UNL A   1      30.806  24.567  23.097  1.00  0.00     0.127 C 
BRANCH  18  19
ATOM     19  C   UNL A   1      30.938  23.341  23.991  1.00  0.00     0.121 C 
BRANCH  19  20
ATOM     20  C   UNL A   1      31.858  23.711  25.123  1.00  0.00     0.223 C 
ATOM     21  C   UNL A   1      32.631  22.960  27.290  1.00  0.00     0.146 C 
ATOM     22  N   UNL A   1      31.542  23.208  26.369  1.00  0.00    -0.349 N 
ATOM     23  C   UNL A   1      30.180  22.959  26.832  1.00  0.00     0.146 C 
ATOM     24  O   UNL A   1      32.919  24.293  24.890  1.00  0.00    -0.275 OA
ENDBRANCH  19  20
ENDBRANCH  18  19
ENDBRANCH  13  18
ENDBRANCH  11  12
ENDBRANCH   6  11
ENDBRANCH   3   5
ENDBRANCH   2   3
ENDBRANCH   1   2
BRANCH   1  25
ATOM     25  C   UNL A   1      34.510  32.628  29.257  1.00  0.00     0.202 C 
BRANCH  25  26
ATOM     26  O   UNL A   1      34.730  34.021  29.488  1.00  0.00    -0.374 OA
BRANCH  26  27
ATOM     27  C   UNL A   1      33.864  34.926  28.811  1.00  0.00     0.202 C 
BRANCH  27  28
ATOM     28  C   UNL A   1      33.008  35.850  29.688  1.00  0.00     0.261 C 
BRANCH  28  29
ATOM     29  O   UNL A   1      32.426  35.186  30.825  1.00  0.00    -0.460 OA
BRANCH  29  30
ATOM     30  C   UNL A   1      32.764  35.728  32.018  1.00  0.00     0.338 C 
ATOM     31  O   UNL A   1      32.164  36.620  32.617  1.00  0.00    -0.246 OA
BRANCH  30  32
ATOM     32  C   UNL A   1      33.911  35.035  32.634  1.00  0.00     0.060 A 
ATOM     33  C   UNL A   1      35.166  35.647  32.532  1.00  0.00     0.016 A 
ATOM     34  C   UNL A   1      33.803  33.765  33.197  1.00  0.00     0.016 A 
ATOM     35  C   UNL A   1      36.321  34.970  32.931  1.00  0.00     0.010 A 
ATOM     36  C   UNL A   1      34.964  33.095  33.617  1.00  0.00     0.010 A 
ATOM     37  C   UNL A   1      36.240  33.671  33.451  1.00  0.00    -0.014 A 
BRANCH  37  38
ATOM     38  C   UNL A   1      37.474  32.877  33.719  1.00  0.00     0.031 A 
ATOM     39  C   UNL A   1      38.387  33.261  34.853  1.00  0.00     0.074 A 
ATOM     40  C   UNL A   1      37.792  31.777  33.008  1.00  0.00     0.049 A 
ATOM     41  N   UNL A   1      39.507  32.697  35.233  1.00  0.00    -0.248 NA
ATOM     42  C   UNL A   1      37.969  34.394  35.690  1.00  0.00     0.031 C 
ATOM     43  C   UNL A   1      36.967  31.164  31.975  1.00  0.00     0.029 A 
ATOM     44  N   UNL A   1      38.925  30.993  33.035  1.00  0.00    -0.354 N 
ATOM     45  C   UNL A   1      39.889  33.360  36.390  1.00  0.00     0.074 A 
ATOM     46  C   UNL A   1      38.943  34.438  36.587  1.00  0.00     0.031 C 
ATOM     47  C   UNL A   1      37.659  30.160  31.411  1.00  0.00     0.029 A 
ATOM     48  C   UNL A   1      38.986  30.099  31.997  1.00  0.00     0.049 A 
ATOM     49  H   UNL A   1      39.621  31.068  33.729  1.00  0.00     0.167 HD
ATOM     50  C   UNL A   1      40.892  33.057  37.250  1.00  0.00     0.037 A 
ATOM     51  C   UNL A   1      39.995  29.342  31.526  1.00  0.00     0.037 A 
ATOM     52  C   UNL A   1      41.841  31.988  37.071  1.00  0.00     0.049 A 
ATOM     53  C   UNL A   1      41.232  29.183  32.345  1.00  0.00     0.074 A 
ATOM     54  C   UNL A   1      42.835  31.562  37.936  1.00  0.00     0.029 A 
ATOM     55  N   UNL A   1      41.931  31.190  35.943  1.00  0.00    -0.354 N 
ATOM     56  N   UNL A   1      41.545  29.768  33.471  1.00  0.00    -0.248 NA
ATOM     57  C   UNL A   1      42.205  28.186  31.883  1.00  0.00     0.031 C 
ATOM     58  C   UNL A   1      43.559  30.539  37.309  1.00  0.00     0.029 A 
ATOM     59  C   UNL A   1      42.988  30.299  36.070  1.00  0.00     0.049 A 
ATOM     60  H   UNL A   1      41.332  31.245  35.163  1.00  0.00     0.167 HD
ATOM     61  C   UNL A   1      42.706  29.147  33.903  1.00  0.00     0.074 A 
ATOM     62  C   UNL A   1      43.064  28.173  32.892  1.00  0.00     0.031 C 
ATOM     63  C   UNL A   1      43.372  29.338  35.067  1.00  0.00     0.037 A 
BRANCH  50  64
ATOM     64  C   UNL A   1      40.984  33.893  38.491  1.00  0.00     0.057 A 
ATOM     65  C   UNL A   1      40.239  33.583  39.638  1.00  0.00     0.134 A 
ATOM     66  C   UNL A   1      41.823  35.011  38.544  1.00  0.00     0.134 A 
ATOM     67  F   UNL A   1      39.407  32.530  39.644  1.00  0.00    -0.206 F 
ATOM     68  C   UNL A   1      40.302  34.375  40.784  1.00  0.00     0.040 A 
ATOM     69  C   UNL A   1      41.911  35.798  39.694  1.00  0.00     0.040 A 
ATOM     70  F   UNL A   1      42.563  35.358  37.481  1.00  0.00    -0.206 F 
ATOM     71  C   UNL A   1      41.143  35.485  40.814  1.00  0.00     0.006 A 
ENDBRANCH  50  64
BRANCH  51  72
ATOM     72  C   UNL A   1      39.873  28.675  30.208  1.00  0.00     0.057 A 
ATOM     73  C   UNL A   1      40.376  29.247  29.038  1.00  0.00     0.134 A 
ATOM     74  C   UNL A   1      39.230  27.435  30.100  1.00  0.00     0.134 A 
ATOM     75  F   UNL A   1      40.966  30.450  29.078  1.00  0.00    -0.206 F 
ATOM     76  C   UNL A   1      40.257  28.604  27.805  1.00  0.00     0.040 A 
ATOM     77  C   UNL A   1      39.125  26.769  28.877  1.00  0.00     0.040 A 
ATOM     78  F   UNL A   1      38.696  26.852  31.183  1.00  0.00    -0.206 F 
ATOM     79  C   UNL A   1      39.639  27.356  27.724  1.00  0.00     0.006 A 
ENDBRANCH  51  72
BRANCH  63  80
ATOM     80  C   UNL A   1      44.528  28.423  35.335  1.00  0.00     0.057 A 
ATOM     81  C   UNL A   1      45.838  28.743  34.957  1.00  0.00     0.134 A 
ATOM     82  C   UNL A   1      44.317  27.178  35.945  1.00  0.00     0.134 A 
ATOM     83  F   UNL A   1      46.101  29.908  34.344  1.00  0.00    -0.206 F 
ATOM     84  C   UNL A   1      46.890  27.845  35.141  1.00  0.00     0.040 A 
ATOM     85  C   UNL A   1      45.365  26.283  36.159  1.00  0.00     0.040 A 
ATOM     86  F   UNL A   1      43.088  26.807  36.330  1.00  0.00    -0.206 F 
ATOM     87  C   UNL A   1      46.655  26.612  35.746  1.00  0.00     0.006 A 
ENDBRANCH  63  80
ENDBRANCH  37  38
ENDBRANCH  30  32
ENDBRANCH  29  30
ENDBRANCH  28  29
ENDBRANCH  27  28
ENDBRANCH  26  27
ENDBRANCH  25  26
ENDBRANCH   1  25
TORSDOF 19
ENDMDL
MODEL 3
REMARK VINA RESULT:     -10.2      5.119     11.384
REMARK SMILES CN(C)C(=O)CCNC(=O)NC[C@H]1CC[C@@H](C(=O)OCCOCCOC(=O)c2ccc(-c3c4nc(c(-c5c(F)cccc5F)c5ccc([nH]5)c(-c5c(F)cccc5F)c5nc(c(-c6c(F)cccc6F)c6ccc3[nH]6)C=C5)C=C4)cc2)CC1
REMARK SMILES IDX 20 1 19 2 17 3 18 4 16 5 13 6 14 7 83 8 15 9 82 10 12 11
REMARK SMILES IDX 11 12 8 13 9 14 10 16 7 18 6 19 4 20 1 21 2 22 3 23 5 24
REMARK SMILES IDX 21 25 22 26 23 27 24 28 25 29 26 30 27 31 28 32 29 33 81 34
REMARK SMILES IDX 30 35 80 36 31 37 32 38 33 39 74 40 34 41 79 42 73 43 75 44
REMARK SMILES IDX 35 45 78 46 72 47 71 48 36 50 62 51 45 52 61 53 46 54 49 55
REMARK SMILES IDX 60 56 76 57 47 58 48 59 59 61 77 62 50 63 37 64 38 65 43 66
REMARK SMILES IDX 39 67 40 68 42 69 44 70 41 71 63 72 64 73 69 74 65 75 66 76
REMARK SMILES IDX 68 77 70 78 67 79 51 80 52 81 57 82 53 83 54 84 56 85 58 86
REMARK SMILES IDX 55 87
REMARK H PARENT 8 15 11 17 75 49 49 60
REMARK Flexibility Score: inf
ROOT
ATOM      1  C   UNL A   1      33.728  35.798  32.068  1.00  0.00     0.261 C 
ENDROOT
BRANCH   1   2
ATOM      2  O   UNL A   1      34.292  34.502  32.355  1.00  0.00    -0.463 OA
BRANCH   2   3
ATOM      3  C   UNL A   1      35.637  34.457  32.528  1.00  0.00     0.309 C 
ATOM      4  O   UNL A   1      36.273  35.217  33.251  1.00  0.00    -0.252 OA
BRANCH   3   5
ATOM      5  C   UNL A   1      36.324  33.396  31.670  1.00  0.00     0.099 C 
ATOM      6  C   UNL A   1      38.113  31.487  33.120  1.00  0.00     0.008 C 
ATOM      7  C   UNL A   1      36.594  31.533  33.343  1.00  0.00     0.006 C 
ATOM      8  C   UNL A   1      38.625  32.882  32.735  1.00  0.00     0.006 C 
ATOM      9  C   UNL A   1      35.852  32.008  32.101  1.00  0.00     0.015 C 
ATOM     10  C   UNL A   1      37.854  33.464  31.547  1.00  0.00     0.015 C 
BRANCH   6  11
ATOM     11  C   UNL A   1      38.879  30.813  34.286  1.00  0.00     0.121 C 
BRANCH  11  12
ATOM     12  N   UNL A   1      38.092  30.486  35.457  1.00  0.00    -0.338 N 
ATOM     13  N   UNL A   1      38.900  31.832  37.210  1.00  0.00    -0.338 N 
ATOM     14  C   UNL A   1      38.138  30.841  36.743  1.00  0.00     0.314 C 
ATOM     15  H   UNL A   1      39.090  31.767  38.174  1.00  0.00     0.165 HD
ATOM     16  O   UNL A   1      37.441  30.210  37.539  1.00  0.00    -0.249 OA
ATOM     17  H   UNL A   1      37.357  29.860  35.260  1.00  0.00     0.165 HD
BRANCH  13  18
ATOM     18  C   UNL A   1      39.503  32.987  36.573  1.00  0.00     0.127 C 
BRANCH  18  19
ATOM     19  C   UNL A   1      38.584  34.199  36.505  1.00  0.00     0.121 C 
BRANCH  19  20
ATOM     20  C   UNL A   1      39.371  35.321  35.884  1.00  0.00     0.223 C 
ATOM     21  C   UNL A   1      41.464  36.522  36.062  1.00  0.00     0.146 C 
ATOM     22  N   UNL A   1      40.293  35.954  36.694  1.00  0.00    -0.349 N 
ATOM     23  C   UNL A   1      40.136  36.129  38.135  1.00  0.00     0.146 C 
ATOM     24  O   UNL A   1      39.295  35.531  34.672  1.00  0.00    -0.275 OA
ENDBRANCH  19  20
ENDBRANCH  18  19
ENDBRANCH  13  18
ENDBRANCH  11  12
ENDBRANCH   6  11
ENDBRANCH   3   5
ENDBRANCH   2   3
ENDBRANCH   1   2
BRANCH   1  25
ATOM     25  C   UNL A   1      33.171  35.863  30.642  1.00  0.00     0.202 C 
BRANCH  25  26
ATOM     26  O   UNL A   1      33.995  35.292  29.623  1.00  0.00    -0.374 OA
BRANCH  26  27
ATOM     27  C   UNL A   1      33.402  34.281  28.813  1.00  0.00     0.202 C 
BRANCH  27  28
ATOM     28  C   UNL A   1      34.356  33.271  28.162  1.00  0.00     0.261 C 
BRANCH  28  29
ATOM     29  O   UNL A   1      34.559  32.081  28.946  1.00  0.00    -0.460 OA
BRANCH  29  30
ATOM     30  C   UNL A   1      34.594  30.939  28.223  1.00  0.00     0.338 C 
ATOM     31  O   UNL A   1      33.728  30.532  27.448  1.00  0.00    -0.246 OA
BRANCH  30  32
ATOM     32  C   UNL A   1      35.886  30.239  28.358  1.00  0.00     0.060 A 
ATOM     33  C   UNL A   1      36.217  29.731  29.619  1.00  0.00     0.016 A 
ATOM     34  C   UNL A   1      36.813  30.174  27.318  1.00  0.00     0.016 A 
ATOM     35  C   UNL A   1      37.493  29.217  29.865  1.00  0.00     0.010 A 
ATOM     36  C   UNL A   1      38.087  29.638  27.564  1.00  0.00     0.010 A 
ATOM     37  C   UNL A   1      38.457  29.191  28.849  1.00  0.00    -0.014 A 
BRANCH  37  38
ATOM     38  C   UNL A   1      39.868  28.806  29.143  1.00  0.00     0.031 A 
ATOM     39  C   UNL A   1      40.819  29.815  29.729  1.00  0.00     0.074 A 
ATOM     40  C   UNL A   1      40.329  27.554  28.949  1.00  0.00     0.049 A 
ATOM     41  N   UNL A   1      42.082  29.667  30.044  1.00  0.00    -0.248 NA
ATOM     42  C   UNL A   1      40.272  31.143  30.040  1.00  0.00     0.031 C 
ATOM     43  C   UNL A   1      39.530  26.409  28.531  1.00  0.00     0.029 A 
ATOM     44  N   UNL A   1      41.606  27.047  29.056  1.00  0.00    -0.354 N 
ATOM     45  C   UNL A   1      42.461  30.855  30.652  1.00  0.00     0.074 A 
ATOM     46  C   UNL A   1      41.327  31.752  30.562  1.00  0.00     0.031 C 
ATOM     47  C   UNL A   1      40.350  25.363  28.333  1.00  0.00     0.029 A 
ATOM     48  C   UNL A   1      41.724  25.777  28.549  1.00  0.00     0.049 A 
ATOM     49  H   UNL A   1      42.356  27.544  29.454  1.00  0.00     0.167 HD
ATOM     50  C   UNL A   1      43.619  31.151  31.290  1.00  0.00     0.037 A 
ATOM     51  C   UNL A   1      42.804  25.033  28.245  1.00  0.00     0.037 A 
ATOM     52  C   UNL A   1      44.755  30.272  31.391  1.00  0.00     0.049 A 
ATOM     53  C   UNL A   1      44.148  25.465  28.727  1.00  0.00     0.074 A 
ATOM     54  C   UNL A   1      45.935  30.462  32.091  1.00  0.00     0.029 A 
ATOM     55  N   UNL A   1      44.867  29.045  30.757  1.00  0.00    -0.354 N 
ATOM     56  N   UNL A   1      44.474  26.561  29.360  1.00  0.00    -0.248 NA
ATOM     57  C   UNL A   1      45.250  24.512  28.546  1.00  0.00     0.031 C 
ATOM     58  C   UNL A   1      46.780  29.373  31.839  1.00  0.00     0.029 A 
ATOM     59  C   UNL A   1      46.110  28.484  31.015  1.00  0.00     0.049 A 
ATOM     60  H   UNL A   1      44.166  28.631  30.203  1.00  0.00     0.167 HD
ATOM     61  C   UNL A   1      45.797  26.395  29.734  1.00  0.00     0.074 A 
ATOM     62  C   UNL A   1      46.225  25.112  29.216  1.00  0.00     0.031 C 
ATOM     63  C   UNL A   1      46.560  27.219  30.492  1.00  0.00     0.037 A 
BRANCH  50  64
ATOM     64  C   UNL A   1      43.690  32.490  31.961  1.00  0.00     0.057 A 
ATOM     65  C   UNL A   1      44.229  33.607  31.307  1.00  0.00     0.134 A 
ATOM     66  C   UNL A   1      43.213  32.667  33.264  1.00  0.00     0.134 A 
ATOM     67  F   UNL A   1      44.714  33.497  30.061  1.00  0.00    -0.206 F 
ATOM     68  C   UNL A   1      44.321  34.847  31.939  1.00  0.00     0.040 A 
ATOM     69  C   UNL A   1      43.279  33.909  33.897  1.00  0.00     0.040 A 
ATOM     70  F   UNL A   1      42.683  31.638  33.941  1.00  0.00    -0.206 F 
ATOM     71  C   UNL A   1      43.841  35.000  33.238  1.00  0.00     0.006 A 
ENDBRANCH  50  64
BRANCH  51  72
ATOM     72  C   UNL A   1      42.653  23.798  27.438  1.00  0.00     0.057 A 
ATOM     73  C   UNL A   1      42.783  23.800  26.048  1.00  0.00     0.134 A 
ATOM     74  C   UNL A   1      42.363  22.577  28.061  1.00  0.00     0.134 A 
ATOM     75  F   UNL A   1      43.022  24.947  25.397  1.00  0.00    -0.206 F 
ATOM     76  C   UNL A   1      42.642  22.628  25.303  1.00  0.00     0.040 A 
ATOM     77  C   UNL A   1      42.244  21.393  27.332  1.00  0.00     0.040 A 
ATOM     78  F   UNL A   1      42.193  22.520  29.390  1.00  0.00    -0.206 F 
ATOM     79  C   UNL A   1      42.383  21.418  25.947  1.00  0.00     0.006 A 
ENDBRANCH  51  72
BRANCH  63  80
ATOM     80  C   UNL A   1      47.924  26.719  30.860  1.00  0.00     0.057 A 
ATOM     81  C   UNL A   1      48.148  25.924  31.991  1.00  0.00     0.134 A 
ATOM     82  C   UNL A   1      49.040  27.079  30.092  1.00  0.00     0.134 A 
ATOM     83  F   UNL A   1      47.125  25.569  32.784  1.00  0.00    -0.206 F 
ATOM     84  C   UNL A   1      49.435  25.534  32.364  1.00  0.00     0.040 A 
ATOM     85  C   UNL A   1      50.328  26.673  30.440  1.00  0.00     0.040 A 
ATOM     86  F   UNL A   1      48.898  27.841  28.998  1.00  0.00    -0.206 F 
ATOM     87  C   UNL A   1      50.530  25.906  31.586  1.00  0.00     0.006 A 
ENDBRANCH  63  80
ENDBRANCH  37  38
ENDBRANCH  30  32
ENDBRANCH  29  30
ENDBRANCH  28  29
ENDBRANCH  27  28
ENDBRANCH  26  27
ENDBRANCH  25  26
ENDBRANCH   1  25
TORSDOF 19
ENDMDL
