MODEL 1
REMARK VINA RESULT:     -11.3      0.000      0.000
REMARK SMILES Cc1cccc(C(=O)OCCOCCOC(=O)c2ccc(-c3c4nc(c(-c5c(F)cccc5F)c5ccc([nH]5)c(-c5c(F)cccc5F)c5nc(c(-c6c(F)cccc6F)c6ccc3[nH]6)C=C5)C=C4)cc2)c1OC[C@@H]1C[C@H]2CC[C@@H]1C2
REMARK SMILES IDX 11 1 10 2 9 3 7 4 8 5 6 6 1 7 2 8 3 9 72 10 4 11 5 12 73 13
REMARK SMILES IDX 74 14 75 15 76 16 80 17 77 18 79 19 81 20 78 21 12 22 13 23
REMARK SMILES IDX 14 24 15 25 16 26 17 27 18 28 19 29 71 30 20 31 70 32 21 33
REMARK SMILES IDX 22 34 23 35 64 36 24 37 69 38 63 39 65 40 25 41 68 42 62 43
REMARK SMILES IDX 61 44 26 46 52 47 35 48 51 49 36 50 39 51 50 52 66 53 37 54
REMARK SMILES IDX 38 55 49 57 67 58 40 59 27 60 28 61 33 62 29 63 30 64 32 65
REMARK SMILES IDX 34 66 31 67 53 68 54 69 59 70 55 71 56 72 58 73 60 74 57 75
REMARK SMILES IDX 41 76 42 77 47 78 43 79 44 80 46 81 48 82 45 83
REMARK H PARENT 65 45 39 56
REMARK Flexibility Score: inf
ROOT
ATOM      1  C   UNL A   1      31.438  31.949  26.377  1.00  0.00     0.202 C 
ENDROOT
BRANCH   1   2
ATOM      2  C   UNL A   1      32.358  30.864  26.878  1.00  0.00     0.261 C 
BRANCH   2   3
ATOM      3  O   UNL A   1      31.982  29.547  26.433  1.00  0.00    -0.460 OA
BRANCH   3   4
ATOM      4  C   UNL A   1      32.544  29.068  25.296  1.00  0.00     0.342 C 
ATOM      5  O   UNL A   1      33.178  29.705  24.481  1.00  0.00    -0.246 OA
BRANCH   4   6
ATOM      6  C   UNL A   1      32.332  27.604  25.202  1.00  0.00     0.102 A 
ATOM      7  C   UNL A   1      30.423  24.961  23.229  1.00  0.00     0.048 C 
ATOM      8  C   UNL A   1      31.299  25.637  24.244  1.00  0.00    -0.008 A 
ATOM      9  C   UNL A   1      31.575  24.936  25.434  1.00  0.00     0.007 A 
ATOM     10  C   UNL A   1      31.729  26.966  24.097  1.00  0.00     0.136 A 
ATOM     11  C   UNL A   1      32.206  25.557  26.505  1.00  0.00     0.001 A 
ATOM     12  C   UNL A   1      32.576  26.890  26.394  1.00  0.00     0.019 A 
BRANCH  10  13
ATOM     13  O   UNL A   1      31.232  27.672  23.034  1.00  0.00    -0.492 OA
BRANCH  13  14
ATOM     14  C   UNL A   1      29.874  28.155  22.984  1.00  0.00     0.233 C 
BRANCH  14  15
ATOM     15  C   UNL A   1      29.537  29.566  22.485  1.00  0.00     0.030 C 
ATOM     16  C   UNL A   1      29.539  30.614  23.638  1.00  0.00     0.011 C 
ATOM     17  C   UNL A   1      28.086  29.716  21.964  1.00  0.00    -0.004 C 
ATOM     18  C   UNL A   1      28.184  31.329  23.486  1.00  0.00    -0.010 C 
ATOM     19  C   UNL A   1      28.028  30.986  21.106  1.00  0.00     0.004 C 
ATOM     20  C   UNL A   1      27.279  30.142  23.194  1.00  0.00     0.007 C 
ATOM     21  C   UNL A   1      28.150  32.101  22.154  1.00  0.00     0.004 C 
ENDBRANCH  14  15
ENDBRANCH  13  14
ENDBRANCH  10  13
ENDBRANCH   4   6
ENDBRANCH   3   4
ENDBRANCH   2   3
ENDBRANCH   1   2
BRANCH   1  22
ATOM     22  O   UNL A   1      31.547  33.039  27.278  1.00  0.00    -0.374 OA
BRANCH  22  23
ATOM     23  C   UNL A   1      32.863  33.420  27.631  1.00  0.00     0.202 C 
BRANCH  23  24
ATOM     24  C   UNL A   1      32.899  34.715  28.453  1.00  0.00     0.261 C 
BRANCH  24  25
ATOM     25  O   UNL A   1      34.206  34.895  29.045  1.00  0.00    -0.460 OA
BRANCH  25  26
ATOM     26  C   UNL A   1      34.338  34.506  30.344  1.00  0.00     0.338 C 
ATOM     27  O   UNL A   1      34.110  35.206  31.317  1.00  0.00    -0.246 OA
BRANCH  26  28
ATOM     28  C   UNL A   1      35.059  33.200  30.415  1.00  0.00     0.060 A 
ATOM     29  C   UNL A   1      34.919  32.371  31.546  1.00  0.00     0.016 A 
ATOM     30  C   UNL A   1      36.120  32.998  29.540  1.00  0.00     0.016 A 
ATOM     31  C   UNL A   1      35.939  31.470  31.892  1.00  0.00     0.010 A 
ATOM     32  C   UNL A   1      37.176  32.226  29.963  1.00  0.00     0.010 A 
ATOM     33  C   UNL A   1      37.117  31.478  31.154  1.00  0.00    -0.014 A 
BRANCH  33  34
ATOM     34  C   UNL A   1      38.381  30.807  31.482  1.00  0.00     0.031 A 
ATOM     35  C   UNL A   1      38.685  29.567  30.729  1.00  0.00     0.074 A 
ATOM     36  C   UNL A   1      39.385  31.476  32.108  1.00  0.00     0.049 A 
ATOM     37  N   UNL A   1      39.786  28.915  30.829  1.00  0.00    -0.248 NA
ATOM     38  C   UNL A   1      37.750  28.927  29.795  1.00  0.00     0.031 C 
ATOM     39  C   UNL A   1      40.831  31.329  31.898  1.00  0.00     0.029 A 
ATOM     40  N   UNL A   1      39.328  32.480  33.084  1.00  0.00    -0.354 N 
ATOM     41  C   UNL A   1      39.865  28.066  29.755  1.00  0.00     0.074 A 
ATOM     42  C   UNL A   1      38.529  27.999  29.230  1.00  0.00     0.031 C 
ATOM     43  C   UNL A   1      41.503  31.965  32.875  1.00  0.00     0.029 A 
ATOM     44  C   UNL A   1      40.515  32.408  33.839  1.00  0.00     0.049 A 
ATOM     45  H   UNL A   1      38.592  33.119  33.218  1.00  0.00     0.167 HD
ATOM     46  C   UNL A   1      41.099  27.639  29.373  1.00  0.00     0.037 A 
ATOM     47  C   UNL A   1      40.480  32.128  35.170  1.00  0.00     0.037 A 
ATOM     48  C   UNL A   1      42.093  27.982  30.399  1.00  0.00     0.049 A 
ATOM     49  C   UNL A   1      41.188  30.824  35.395  1.00  0.00     0.074 A 
ATOM     50  C   UNL A   1      43.123  28.901  30.469  1.00  0.00     0.029 A 
ATOM     51  N   UNL A   1      41.874  27.538  31.705  1.00  0.00    -0.354 N 
ATOM     52  N   UNL A   1      41.304  29.921  34.458  1.00  0.00    -0.248 NA
ATOM     53  C   UNL A   1      41.923  30.478  36.605  1.00  0.00     0.031 C 
ATOM     54  C   UNL A   1      43.440  29.086  31.850  1.00  0.00     0.029 A 
ATOM     55  C   UNL A   1      42.640  28.243  32.612  1.00  0.00     0.049 A 
ATOM     56  H   UNL A   1      41.254  26.813  31.948  1.00  0.00     0.167 HD
ATOM     57  C   UNL A   1      42.170  28.957  34.863  1.00  0.00     0.074 A 
ATOM     58  C   UNL A   1      42.498  29.320  36.233  1.00  0.00     0.031 C 
ATOM     59  C   UNL A   1      42.569  27.946  34.043  1.00  0.00     0.037 A 
BRANCH  46  60
ATOM     60  C   UNL A   1      41.444  27.045  28.028  1.00  0.00     0.057 A 
ATOM     61  C   UNL A   1      41.920  27.873  26.994  1.00  0.00     0.134 A 
ATOM     62  C   UNL A   1      41.243  25.701  27.644  1.00  0.00     0.134 A 
ATOM     63  F   UNL A   1      42.128  29.183  27.192  1.00  0.00    -0.206 F 
ATOM     64  C   UNL A   1      42.193  27.403  25.700  1.00  0.00     0.040 A 
ATOM     65  C   UNL A   1      41.561  25.209  26.369  1.00  0.00     0.040 A 
ATOM     66  F   UNL A   1      40.675  24.801  28.453  1.00  0.00    -0.206 F 
ATOM     67  C   UNL A   1      42.031  26.062  25.387  1.00  0.00     0.006 A 
ENDBRANCH  46  60
BRANCH  47  68
ATOM     68  C   UNL A   1      39.234  32.664  35.798  1.00  0.00     0.057 A 
ATOM     69  C   UNL A   1      38.327  31.705  36.300  1.00  0.00     0.134 A 
ATOM     70  C   UNL A   1      39.225  33.918  36.420  1.00  0.00     0.134 A 
ATOM     71  F   UNL A   1      38.259  30.489  35.739  1.00  0.00    -0.206 F 
ATOM     72  C   UNL A   1      37.602  31.912  37.478  1.00  0.00     0.040 A 
ATOM     73  C   UNL A   1      38.493  34.137  37.597  1.00  0.00     0.040 A 
ATOM     74  F   UNL A   1      40.052  34.888  36.007  1.00  0.00    -0.206 F 
ATOM     75  C   UNL A   1      37.728  33.115  38.162  1.00  0.00     0.006 A 
ENDBRANCH  47  68
BRANCH  59  76
ATOM     76  C   UNL A   1      42.987  26.597  34.561  1.00  0.00     0.057 A 
ATOM     77  C   UNL A   1      42.088  25.670  35.113  1.00  0.00     0.134 A 
ATOM     78  C   UNL A   1      44.292  26.110  34.344  1.00  0.00     0.134 A 
ATOM     79  F   UNL A   1      40.781  25.935  35.238  1.00  0.00    -0.206 F 
ATOM     80  C   UNL A   1      42.477  24.389  35.509  1.00  0.00     0.040 A 
ATOM     81  C   UNL A   1      44.674  24.807  34.671  1.00  0.00     0.040 A 
ATOM     82  F   UNL A   1      45.246  26.858  33.770  1.00  0.00    -0.206 F 
ATOM     83  C   UNL A   1      43.772  23.950  35.280  1.00  0.00     0.006 A 
ENDBRANCH  59  76
ENDBRANCH  33  34
ENDBRANCH  26  28
ENDBRANCH  25  26
ENDBRANCH  24  25
ENDBRANCH  23  24
ENDBRANCH  22  23
ENDBRANCH   1  22
TORSDOF 17
ENDMDL
MODEL 2
REMARK VINA RESULT:     -11.3      4.581      9.469
REMARK SMILES Cc1cccc(C(=O)OCCOCCOC(=O)c2ccc(-c3c4nc(c(-c5c(F)cccc5F)c5ccc([nH]5)c(-c5c(F)cccc5F)c5nc(c(-c6c(F)cccc6F)c6ccc3[nH]6)C=C5)C=C4)cc2)c1OC[C@@H]1C[C@H]2CC[C@@H]1C2
REMARK SMILES IDX 11 1 10 2 9 3 7 4 8 5 6 6 1 7 2 8 3 9 72 10 4 11 5 12 73 13
REMARK SMILES IDX 74 14 75 15 76 16 80 17 77 18 79 19 81 20 78 21 12 22 13 23
REMARK SMILES IDX 14 24 15 25 16 26 17 27 18 28 19 29 71 30 20 31 70 32 21 33
REMARK SMILES IDX 22 34 23 35 64 36 24 37 69 38 63 39 65 40 25 41 68 42 62 43
REMARK SMILES IDX 61 44 26 46 52 47 35 48 51 49 36 50 39 51 50 52 66 53 37 54
REMARK SMILES IDX 38 55 49 57 67 58 40 59 27 60 28 61 33 62 29 63 30 64 32 65
REMARK SMILES IDX 34 66 31 67 53 68 54 69 59 70 55 71 56 72 58 73 60 74 57 75
REMARK SMILES IDX 41 76 42 77 47 78 43 79 44 80 46 81 48 82 45 83
REMARK H PARENT 65 45 39 56
REMARK Flexibility Score: inf
ROOT
ATOM      1  C   UNL A   1      37.358  21.819  24.896  1.00  0.00     0.202 C 
ENDROOT
BRANCH   1   2
ATOM      2  C   UNL A   1      36.737  22.729  23.866  1.00  0.00     0.261 C 
BRANCH   2   3
ATOM      3  O   UNL A   1      35.601  23.461  24.363  1.00  0.00    -0.460 OA
BRANCH   3   4
ATOM      4  C   UNL A   1      34.538  23.635  23.540  1.00  0.00     0.342 C 
ATOM      5  O   UNL A   1      34.572  24.022  22.391  1.00  0.00    -0.246 OA
BRANCH   4   6
ATOM      6  C   UNL A   1      33.291  23.219  24.225  1.00  0.00     0.102 A 
ATOM      7  C   UNL A   1      30.286  24.612  26.109  1.00  0.00     0.048 C 
ATOM      8  C   UNL A   1      31.274  23.671  25.482  1.00  0.00    -0.008 A 
ATOM      9  C   UNL A   1      31.282  22.338  25.937  1.00  0.00     0.007 A 
ATOM     10  C   UNL A   1      32.251  24.108  24.572  1.00  0.00     0.136 A 
ATOM     11  C   UNL A   1      32.286  21.455  25.560  1.00  0.00     0.001 A 
ATOM     12  C   UNL A   1      33.294  21.896  24.713  1.00  0.00     0.019 A 
BRANCH  10  13
ATOM     13  O   UNL A   1      32.344  25.456  24.350  1.00  0.00    -0.492 OA
BRANCH  13  14
ATOM     14  C   UNL A   1      33.411  26.263  24.888  1.00  0.00     0.233 C 
BRANCH  14  15
ATOM     15  C   UNL A   1      33.193  27.729  25.284  1.00  0.00     0.030 C 
ATOM     16  C   UNL A   1      33.775  28.050  26.693  1.00  0.00     0.011 C 
ATOM     17  C   UNL A   1      31.706  28.107  25.495  1.00  0.00    -0.004 C 
ATOM     18  C   UNL A   1      32.604  28.729  27.427  1.00  0.00    -0.010 C 
ATOM     19  C   UNL A   1      31.600  29.636  25.433  1.00  0.00     0.004 C 
ATOM     20  C   UNL A   1      31.450  27.844  26.982  1.00  0.00     0.007 C 
ATOM     21  C   UNL A   1      32.269  30.068  26.744  1.00  0.00     0.004 C 
ENDBRANCH  14  15
ENDBRANCH  13  14
ENDBRANCH  10  13
ENDBRANCH   4   6
ENDBRANCH   3   4
ENDBRANCH   2   3
ENDBRANCH   1   2
BRANCH   1  22
ATOM     22  O   UNL A   1      38.022  22.645  25.838  1.00  0.00    -0.374 OA
BRANCH  22  23
ATOM     23  C   UNL A   1      39.286  22.188  26.280  1.00  0.00     0.202 C 
BRANCH  23  24
ATOM     24  C   UNL A   1      39.566  20.739  25.860  1.00  0.00     0.261 C 
BRANCH  24  25
ATOM     25  O   UNL A   1      40.662  20.198  26.634  1.00  0.00    -0.460 OA
BRANCH  25  26
ATOM     26  C   UNL A   1      41.908  20.357  26.105  1.00  0.00     0.338 C 
ATOM     27  O   UNL A   1      42.427  19.613  25.288  1.00  0.00    -0.246 OA
BRANCH  26  28
ATOM     28  C   UNL A   1      42.654  21.404  26.863  1.00  0.00     0.060 A 
ATOM     29  C   UNL A   1      42.381  21.624  28.228  1.00  0.00     0.016 A 
ATOM     30  C   UNL A   1      43.337  22.369  26.132  1.00  0.00     0.016 A 
ATOM     31  C   UNL A   1      42.627  22.882  28.803  1.00  0.00     0.010 A 
ATOM     32  C   UNL A   1      43.437  23.636  26.660  1.00  0.00     0.010 A 
ATOM     33  C   UNL A   1      43.057  23.919  27.985  1.00  0.00    -0.014 A 
BRANCH  33  34
ATOM     34  C   UNL A   1      43.140  25.345  28.321  1.00  0.00     0.031 A 
ATOM     35  C   UNL A   1      41.985  26.187  27.922  1.00  0.00     0.074 A 
ATOM     36  C   UNL A   1      43.993  25.789  29.282  1.00  0.00     0.049 A 
ATOM     37  N   UNL A   1      41.860  27.428  28.223  1.00  0.00    -0.248 NA
ATOM     38  C   UNL A   1      40.859  25.699  27.115  1.00  0.00     0.031 C 
ATOM     39  C   UNL A   1      43.775  26.877  30.244  1.00  0.00     0.029 A 
ATOM     40  N   UNL A   1      45.270  25.334  29.632  1.00  0.00    -0.354 N 
ATOM     41  C   UNL A   1      40.548  27.774  28.018  1.00  0.00     0.074 A 
ATOM     42  C   UNL A   1      40.007  26.726  27.198  1.00  0.00     0.031 C 
ATOM     43  C   UNL A   1      44.933  27.187  30.854  1.00  0.00     0.029 A 
ATOM     44  C   UNL A   1      45.971  26.420  30.192  1.00  0.00     0.049 A 
ATOM     45  H   UNL A   1      45.616  24.421  29.509  1.00  0.00     0.167 HD
ATOM     46  C   UNL A   1      40.064  28.848  28.697  1.00  0.00     0.037 A 
ATOM     47  C   UNL A   1      47.100  26.900  29.604  1.00  0.00     0.037 A 
ATOM     48  C   UNL A   1      41.165  29.592  29.321  1.00  0.00     0.049 A 
ATOM     49  C   UNL A   1      46.839  28.311  29.164  1.00  0.00     0.074 A 
ATOM     50  C   UNL A   1      41.597  29.757  30.625  1.00  0.00     0.029 A 
ATOM     51  N   UNL A   1      42.206  30.040  28.504  1.00  0.00    -0.354 N 
ATOM     52  N   UNL A   1      45.636  28.752  28.911  1.00  0.00    -0.248 NA
ATOM     53  C   UNL A   1      47.849  29.359  29.100  1.00  0.00     0.031 C 
ATOM     54  C   UNL A   1      42.954  30.201  30.574  1.00  0.00     0.029 A 
ATOM     55  C   UNL A   1      43.328  30.356  29.245  1.00  0.00     0.049 A 
ATOM     56  H   UNL A   1      42.148  30.121  27.525  1.00  0.00     0.167 HD
ATOM     57  C   UNL A   1      45.672  30.101  28.755  1.00  0.00     0.074 A 
ATOM     58  C   UNL A   1      47.085  30.435  28.834  1.00  0.00     0.031 C 
ATOM     59  C   UNL A   1      44.543  30.845  28.593  1.00  0.00     0.037 A 
BRANCH  46  60
ATOM     60  C   UNL A   1      38.602  29.156  28.923  1.00  0.00     0.057 A 
ATOM     61  C   UNL A   1      37.838  29.737  27.893  1.00  0.00     0.134 A 
ATOM     62  C   UNL A   1      37.906  29.005  30.142  1.00  0.00     0.134 A 
ATOM     63  F   UNL A   1      38.369  29.979  26.685  1.00  0.00    -0.206 F 
ATOM     64  C   UNL A   1      36.496  30.115  28.054  1.00  0.00     0.040 A 
ATOM     65  C   UNL A   1      36.550  29.332  30.301  1.00  0.00     0.040 A 
ATOM     66  F   UNL A   1      38.504  28.593  31.264  1.00  0.00    -0.206 F 
ATOM     67  C   UNL A   1      35.840  29.896  29.256  1.00  0.00     0.006 A 
ENDBRANCH  46  60
BRANCH  47  68
ATOM     68  C   UNL A   1      47.855  25.806  28.919  1.00  0.00     0.057 A 
ATOM     69  C   UNL A   1      47.687  25.714  27.521  1.00  0.00     0.134 A 
ATOM     70  C   UNL A   1      49.069  25.340  29.434  1.00  0.00     0.134 A 
ATOM     71  F   UNL A   1      46.539  26.117  26.955  1.00  0.00    -0.206 F 
ATOM     72  C   UNL A   1      48.739  25.371  26.665  1.00  0.00     0.040 A 
ATOM     73  C   UNL A   1      50.128  24.984  28.584  1.00  0.00     0.040 A 
ATOM     74  F   UNL A   1      49.313  25.388  30.751  1.00  0.00    -0.206 F 
ATOM     75  C   UNL A   1      49.984  25.059  27.197  1.00  0.00     0.006 A 
ENDBRANCH  47  68
BRANCH  59  76
ATOM     76  C   UNL A   1      44.530  32.147  27.840  1.00  0.00     0.057 A 
ATOM     77  C   UNL A   1      44.927  32.266  26.498  1.00  0.00     0.134 A 
ATOM     78  C   UNL A   1      43.932  33.298  28.392  1.00  0.00     0.134 A 
ATOM     79  F   UNL A   1      45.373  31.218  25.792  1.00  0.00    -0.206 F 
ATOM     80  C   UNL A   1      44.828  33.464  25.787  1.00  0.00     0.040 A 
ATOM     81  C   UNL A   1      43.762  34.479  27.667  1.00  0.00     0.040 A 
ATOM     82  F   UNL A   1      43.448  33.319  29.642  1.00  0.00    -0.206 F 
ATOM     83  C   UNL A   1      44.234  34.574  26.369  1.00  0.00     0.006 A 
ENDBRANCH  59  76
ENDBRANCH  33  34
ENDBRANCH  26  28
ENDBRANCH  25  26
ENDBRANCH  24  25
ENDBRANCH  23  24
ENDBRANCH  22  23
ENDBRANCH   1  22
TORSDOF 17
ENDMDL
MODEL 3
REMARK VINA RESULT:     -11.2      5.209     10.344
REMARK SMILES Cc1cccc(C(=O)OCCOCCOC(=O)c2ccc(-c3c4nc(c(-c5c(F)cccc5F)c5ccc([nH]5)c(-c5c(F)cccc5F)c5nc(c(-c6c(F)cccc6F)c6ccc3[nH]6)C=C5)C=C4)cc2)c1OC[C@@H]1C[C@H]2CC[C@@H]1C2
REMARK SMILES IDX 11 1 10 2 9 3 7 4 8 5 6 6 1 7 2 8 3 9 72 10 4 11 5 12 73 13
REMARK SMILES IDX 74 14 75 15 76 16 80 17 77 18 79 19 81 20 78 21 12 22 13 23
REMARK SMILES IDX 14 24 15 25 16 26 17 27 18 28 19 29 71 30 20 31 70 32 21 33
REMARK SMILES IDX 22 34 23 35 64 36 24 37 69 38 63 39 65 40 25 41 68 42 62 43
REMARK SMILES IDX 61 44 26 46 52 47 35 48 51 49 36 50 39 51 50 52 66 53 37 54
REMARK SMILES IDX 38 55 49 57 67 58 40 59 27 60 28 61 33 62 29 63 30 64 32 65
REMARK SMILES IDX 34 66 31 67 53 68 54 69 59 70 55 71 56 72 58 73 60 74 57 75
REMARK SMILES IDX 41 76 42 77 47 78 43 79 44 80 46 81 48 82 45 83
REMARK H PARENT 65 45 39 56
REMARK Flexibility Score: inf
ROOT
ATOM      1  C   UNL A   1      38.491  23.356  26.283  1.00  0.00     0.202 C 
ENDROOT
BRANCH   1   2
ATOM      2  C   UNL A   1      37.387  23.033  25.307  1.00  0.00     0.261 C 
BRANCH   2   3
ATOM      3  O   UNL A   1      36.290  23.965  25.359  1.00  0.00    -0.460 OA
BRANCH   3   4
ATOM      4  C   UNL A   1      35.102  23.533  25.847  1.00  0.00     0.342 C 
ATOM      5  O   UNL A   1      34.888  23.131  26.972  1.00  0.00    -0.246 OA
BRANCH   4   6
ATOM      6  C   UNL A   1      34.046  23.677  24.817  1.00  0.00     0.102 A 
ATOM      7  C   UNL A   1      32.191  21.728  22.118  1.00  0.00     0.048 C 
ATOM      8  C   UNL A   1      32.673  22.835  23.012  1.00  0.00    -0.008 A 
ATOM      9  C   UNL A   1      32.467  24.158  22.576  1.00  0.00     0.007 A 
ATOM     10  C   UNL A   1      33.420  22.586  24.175  1.00  0.00     0.136 A 
ATOM     11  C   UNL A   1      33.053  25.232  23.236  1.00  0.00     0.001 A 
ATOM     12  C   UNL A   1      33.847  24.992  24.349  1.00  0.00     0.019 A 
BRANCH  10  13
ATOM     13  O   UNL A   1      33.791  21.291  24.418  1.00  0.00    -0.492 OA
BRANCH  13  14
ATOM     14  C   UNL A   1      32.930  20.346  25.086  1.00  0.00     0.233 C 
BRANCH  14  15
ATOM     15  C   UNL A   1      33.344  18.882  25.292  1.00  0.00     0.030 C 
ATOM     16  C   UNL A   1      34.667  18.535  24.545  1.00  0.00     0.011 C 
ATOM     17  C   UNL A   1      32.375  17.861  24.648  1.00  0.00    -0.004 C 
ATOM     18  C   UNL A   1      34.314  17.269  23.744  1.00  0.00    -0.010 C 
ATOM     19  C   UNL A   1      32.639  16.496  25.294  1.00  0.00     0.004 C 
ATOM     20  C   UNL A   1      32.929  17.642  23.237  1.00  0.00     0.007 C 
ATOM     21  C   UNL A   1      34.005  16.111  24.711  1.00  0.00     0.004 C 
ENDBRANCH  14  15
ENDBRANCH  13  14
ENDBRANCH  10  13
ENDBRANCH   4   6
ENDBRANCH   3   4
ENDBRANCH   2   3
ENDBRANCH   1   2
BRANCH   1  22
ATOM     22  O   UNL A   1      39.251  22.172  26.461  1.00  0.00    -0.374 OA
BRANCH  22  23
ATOM     23  C   UNL A   1      38.849  21.056  25.689  1.00  0.00     0.202 C 
BRANCH  23  24
ATOM     24  C   UNL A   1      39.858  19.903  25.755  1.00  0.00     0.261 C 
BRANCH  24  25
ATOM     25  O   UNL A   1      40.908  20.212  26.701  1.00  0.00    -0.460 OA
BRANCH  25  26
ATOM     26  C   UNL A   1      42.119  20.540  26.170  1.00  0.00     0.338 C 
ATOM     27  O   UNL A   1      42.682  19.936  25.271  1.00  0.00    -0.246 OA
BRANCH  26  28
ATOM     28  C   UNL A   1      42.786  21.570  27.020  1.00  0.00     0.060 A 
ATOM     29  C   UNL A   1      42.303  21.844  28.315  1.00  0.00     0.016 A 
ATOM     30  C   UNL A   1      43.632  22.478  26.393  1.00  0.00     0.016 A 
ATOM     31  C   UNL A   1      42.519  23.105  28.897  1.00  0.00     0.010 A 
ATOM     32  C   UNL A   1      43.712  23.753  26.904  1.00  0.00     0.010 A 
ATOM     33  C   UNL A   1      43.134  24.094  28.140  1.00  0.00    -0.014 A 
BRANCH  33  34
ATOM     34  C   UNL A   1      43.239  25.524  28.456  1.00  0.00     0.031 A 
ATOM     35  C   UNL A   1      42.082  26.371  28.074  1.00  0.00     0.074 A 
ATOM     36  C   UNL A   1      44.119  25.971  29.390  1.00  0.00     0.049 A 
ATOM     37  N   UNL A   1      41.976  27.617  28.362  1.00  0.00    -0.248 NA
ATOM     38  C   UNL A   1      40.933  25.884  27.302  1.00  0.00     0.031 C 
ATOM     39  C   UNL A   1      43.935  27.073  30.344  1.00  0.00     0.029 A 
ATOM     40  N   UNL A   1      45.401  25.509  29.715  1.00  0.00    -0.354 N 
ATOM     41  C   UNL A   1      40.663  27.973  28.185  1.00  0.00     0.074 A 
ATOM     42  C   UNL A   1      40.092  26.919  27.392  1.00  0.00     0.031 C 
ATOM     43  C   UNL A   1      45.111  27.380  30.921  1.00  0.00     0.029 A 
ATOM     44  C   UNL A   1      46.125  26.595  30.243  1.00  0.00     0.049 A 
ATOM     45  H   UNL A   1      45.735  24.591  29.596  1.00  0.00     0.167 HD
ATOM     46  C   UNL A   1      40.205  29.060  28.862  1.00  0.00     0.037 A 
ATOM     47  C   UNL A   1      47.243  27.057  29.622  1.00  0.00     0.037 A 
ATOM     48  C   UNL A   1      41.329  29.801  29.449  1.00  0.00     0.049 A 
ATOM     49  C   UNL A   1      46.985  28.465  29.170  1.00  0.00     0.074 A 
ATOM     50  C   UNL A   1      41.793  29.979  30.739  1.00  0.00     0.029 A 
ATOM     51  N   UNL A   1      42.353  30.229  28.601  1.00  0.00    -0.354 N 
ATOM     52  N   UNL A   1      45.780  28.914  28.941  1.00  0.00    -0.248 NA
ATOM     53  C   UNL A   1      48.002  29.503  29.068  1.00  0.00     0.031 C 
ATOM     54  C   UNL A   1      43.153  30.410  30.650  1.00  0.00     0.029 A 
ATOM     55  C   UNL A   1      43.496  30.544  29.310  1.00  0.00     0.049 A 
ATOM     56  H   UNL A   1      42.271  30.299  27.623  1.00  0.00     0.167 HD
ATOM     57  C   UNL A   1      45.824  30.260  28.766  1.00  0.00     0.074 A 
ATOM     58  C   UNL A   1      47.242  30.582  28.807  1.00  0.00     0.031 C 
ATOM     59  C   UNL A   1      44.698  31.013  28.622  1.00  0.00     0.037 A 
BRANCH  46  60
ATOM     60  C   UNL A   1      38.752  29.385  29.119  1.00  0.00     0.057 A 
ATOM     61  C   UNL A   1      38.189  29.134  30.385  1.00  0.00     0.134 A 
ATOM     62  C   UNL A   1      37.827  29.846  28.158  1.00  0.00     0.134 A 
ATOM     63  F   UNL A   1      38.932  28.659  31.395  1.00  0.00    -0.206 F 
ATOM     64  C   UNL A   1      36.832  29.344  30.675  1.00  0.00     0.040 A 
ATOM     65  C   UNL A   1      36.479  30.107  28.449  1.00  0.00     0.040 A 
ATOM     66  F   UNL A   1      38.151  30.012  26.871  1.00  0.00    -0.206 F 
ATOM     67  C   UNL A   1      35.974  29.850  29.711  1.00  0.00     0.006 A 
ENDBRANCH  46  60
BRANCH  47  68
ATOM     68  C   UNL A   1      47.971  25.947  28.933  1.00  0.00     0.057 A 
ATOM     69  C   UNL A   1      47.830  25.887  27.530  1.00  0.00     0.134 A 
ATOM     70  C   UNL A   1      49.156  25.426  29.465  1.00  0.00     0.134 A 
ATOM     71  F   UNL A   1      46.711  26.343  26.948  1.00  0.00    -0.206 F 
ATOM     72  C   UNL A   1      48.887  25.519  26.690  1.00  0.00     0.040 A 
ATOM     73  C   UNL A   1      50.218  25.046  28.631  1.00  0.00     0.040 A 
ATOM     74  F   UNL A   1      49.373  25.442  30.787  1.00  0.00    -0.206 F 
ATOM     75  C   UNL A   1      50.107  25.150  27.243  1.00  0.00     0.006 A 
ENDBRANCH  47  68
BRANCH  59  76
ATOM     76  C   UNL A   1      44.679  32.305  27.853  1.00  0.00     0.057 A 
ATOM     77  C   UNL A   1      45.062  32.407  26.506  1.00  0.00     0.134 A 
ATOM     78  C   UNL A   1      44.088  33.464  28.397  1.00  0.00     0.134 A 
ATOM     79  F   UNL A   1      45.498  31.349  25.809  1.00  0.00    -0.206 F 
ATOM     80  C   UNL A   1      44.956  33.596  25.781  1.00  0.00     0.040 A 
ATOM     81  C   UNL A   1      43.912  34.636  27.660  1.00  0.00     0.040 A 
ATOM     82  F   UNL A   1      43.618  33.502  29.652  1.00  0.00    -0.206 F 
ATOM     83  C   UNL A   1      44.370  34.714  26.355  1.00  0.00     0.006 A 
ENDBRANCH  59  76
ENDBRANCH  33  34
ENDBRANCH  26  28
ENDBRANCH  25  26
ENDBRANCH  24  25
ENDBRANCH  23  24
ENDBRANCH  22  23
ENDBRANCH   1  22
TORSDOF 17
ENDMDL
