MODEL 1
REMARK VINA RESULT:     -11.4      0.000      0.000
REMARK SMILES Cc1ncccc1C(=O)Nc1cnccc1C(=O)OCCOCCOC(=O)c1ccc(-c2c3nc(c(-c4c(F)cccc4F)c4ccc([nH]4)c(-c4c(F)cccc4F)c4nc(c(-c5c(F)cccc5F)c5ccc2[nH]5)C=C4)C=C3)cc1
REMARK SMILES IDX 22 1 21 2 20 3 19 4 17 5 18 6 16 7 11 8 12 9 13 10 15 11
REMARK SMILES IDX 14 12 10 13 8 14 9 15 7 17 1 18 2 19 3 20 4 21 6 22 5 23
REMARK SMILES IDX 23 24 24 25 25 26 26 27 27 28 28 29 29 30 81 31 30 32 80 33
REMARK SMILES IDX 31 34 32 35 33 36 74 37 34 38 79 39 73 40 75 41 35 42 78 43
REMARK SMILES IDX 72 44 71 45 36 47 62 48 45 49 61 50 46 51 49 52 60 53 76 54
REMARK SMILES IDX 47 55 48 56 59 58 77 59 50 60 37 61 38 62 43 63 39 64 40 65
REMARK SMILES IDX 42 66 44 67 41 68 63 69 64 70 69 71 65 72 66 73 68 74 70 75
REMARK SMILES IDX 67 76 51 77 52 78 57 79 53 80 54 81 56 82 58 83 55 84
REMARK H PARENT 10 16 75 46 49 57
REMARK Flexibility Score: inf
ROOT
ATOM      1  O   UNL A   1      41.015  21.580  26.635  1.00  0.00    -0.374 OA
ENDROOT
BRANCH   1   2
ATOM      2  C   UNL A   1      39.766  21.175  26.089  1.00  0.00     0.202 C 
BRANCH   2   3
ATOM      3  C   UNL A   1      38.628  22.196  26.016  1.00  0.00     0.261 C 
BRANCH   3   4
ATOM      4  O   UNL A   1      37.631  21.908  25.019  1.00  0.00    -0.460 OA
BRANCH   4   5
ATOM      5  C   UNL A   1      36.568  22.753  25.027  1.00  0.00     0.340 C 
ATOM      6  O   UNL A   1      36.606  23.967  25.175  1.00  0.00    -0.246 OA
BRANCH   5   7
ATOM      7  C   UNL A   1      35.332  22.062  24.618  1.00  0.00     0.086 A 
ATOM      8  C   UNL A   1      34.350  22.555  23.756  1.00  0.00     0.074 A 
ATOM      9  C   UNL A   1      33.185  21.783  23.662  1.00  0.00     0.138 A 
ATOM     10  N   UNL A   1      32.984  20.582  24.255  1.00  0.00    -0.263 NA
ATOM     11  C   UNL A   1      35.157  20.804  25.226  1.00  0.00     0.038 A 
ATOM     12  C   UNL A   1      33.989  20.103  25.005  1.00  0.00     0.112 A 
BRANCH   8  13
ATOM     13  N   UNL A   1      34.377  23.693  22.927  1.00  0.00    -0.320 N 
ATOM     14  C   UNL A   1      33.807  24.939  22.967  1.00  0.00     0.257 C 
ATOM     15  O   UNL A   1      33.938  25.657  21.972  1.00  0.00    -0.269 OA
ATOM     16  H   UNL A   1      34.940  23.562  22.129  1.00  0.00     0.170 HD
BRANCH  14  17
ATOM     17  C   UNL A   1      33.091  25.504  24.124  1.00  0.00     0.061 A 
ATOM     18  C   UNL A   1      30.794  24.485  23.627  1.00  0.00     0.067 C 
ATOM     19  C   UNL A   1      31.740  25.325  24.427  1.00  0.00     0.050 A 
ATOM     20  N   UNL A   1      31.165  25.923  25.508  1.00  0.00    -0.261 NA
ATOM     21  C   UNL A   1      31.946  26.664  26.325  1.00  0.00     0.111 A 
ATOM     22  C   UNL A   1      33.885  26.212  25.040  1.00  0.00     0.017 A 
ATOM     23  C   UNL A   1      33.307  26.815  26.150  1.00  0.00     0.021 A 
ENDBRANCH  14  17
ENDBRANCH   8  13
ENDBRANCH   5   7
ENDBRANCH   4   5
ENDBRANCH   3   4
ENDBRANCH   2   3
ENDBRANCH   1   2
BRANCH   1  24
ATOM     24  C   UNL A   1      42.201  20.955  26.160  1.00  0.00     0.202 C 
BRANCH  24  25
ATOM     25  C   UNL A   1      43.333  21.837  25.615  1.00  0.00     0.261 C 
BRANCH  25  26
ATOM     26  O   UNL A   1      42.892  22.951  24.818  1.00  0.00    -0.460 OA
BRANCH  26  27
ATOM     27  C   UNL A   1      43.631  24.076  24.980  1.00  0.00     0.338 C 
ATOM     28  O   UNL A   1      44.718  24.329  24.479  1.00  0.00    -0.246 OA
BRANCH  27  29
ATOM     29  C   UNL A   1      42.896  25.080  25.766  1.00  0.00     0.060 A 
ATOM     30  C   UNL A   1      43.512  26.317  25.990  1.00  0.00     0.016 A 
ATOM     31  C   UNL A   1      41.706  24.747  26.415  1.00  0.00     0.016 A 
ATOM     32  C   UNL A   1      42.966  27.210  26.909  1.00  0.00     0.010 A 
ATOM     33  C   UNL A   1      41.165  25.640  27.345  1.00  0.00     0.010 A 
ATOM     34  C   UNL A   1      41.817  26.855  27.626  1.00  0.00    -0.014 A 
BRANCH  34  35
ATOM     35  C   UNL A   1      41.399  27.679  28.785  1.00  0.00     0.031 A 
ATOM     36  C   UNL A   1      42.181  27.589  30.067  1.00  0.00     0.074 A 
ATOM     37  C   UNL A   1      40.360  28.526  28.687  1.00  0.00     0.049 A 
ATOM     38  N   UNL A   1      41.982  28.198  31.207  1.00  0.00    -0.248 NA
ATOM     39  C   UNL A   1      43.346  26.689  30.059  1.00  0.00     0.031 C 
ATOM     40  C   UNL A   1      39.553  28.736  27.489  1.00  0.00     0.029 A 
ATOM     41  N   UNL A   1      39.808  29.366  29.621  1.00  0.00    -0.354 N 
ATOM     42  C   UNL A   1      42.989  27.752  32.055  1.00  0.00     0.074 A 
ATOM     43  C   UNL A   1      43.781  26.801  31.306  1.00  0.00     0.031 C 
ATOM     44  C   UNL A   1      38.602  29.647  27.760  1.00  0.00     0.029 A 
ATOM     45  C   UNL A   1      38.717  30.057  29.158  1.00  0.00     0.049 A 
ATOM     46  H   UNL A   1      40.160  29.463  30.535  1.00  0.00     0.167 HD
ATOM     47  C   UNL A   1      43.236  28.109  33.337  1.00  0.00     0.037 A 
ATOM     48  C   UNL A   1      37.893  30.908  29.799  1.00  0.00     0.037 A 
ATOM     49  C   UNL A   1      42.448  29.054  34.082  1.00  0.00     0.049 A 
ATOM     50  C   UNL A   1      38.140  31.231  31.247  1.00  0.00     0.074 A 
ATOM     51  C   UNL A   1      42.627  29.495  35.383  1.00  0.00     0.029 A 
ATOM     52  N   UNL A   1      41.322  29.698  33.593  1.00  0.00    -0.354 N 
ATOM     53  N   UNL A   1      39.103  30.817  32.034  1.00  0.00    -0.248 NA
ATOM     54  C   UNL A   1      37.183  32.138  31.896  1.00  0.00     0.031 C 
ATOM     55  C   UNL A   1      41.581  30.372  35.695  1.00  0.00     0.029 A 
ATOM     56  C   UNL A   1      40.778  30.513  34.574  1.00  0.00     0.049 A 
ATOM     57  H   UNL A   1      40.960  29.592  32.683  1.00  0.00     0.167 HD
ATOM     58  C   UNL A   1      38.884  31.430  33.261  1.00  0.00     0.074 A 
ATOM     59  C   UNL A   1      37.701  32.252  33.111  1.00  0.00     0.031 C 
ATOM     60  C   UNL A   1      39.599  31.325  34.408  1.00  0.00     0.037 A 
BRANCH  47  61
ATOM     61  C   UNL A   1      44.396  27.445  34.022  1.00  0.00     0.057 A 
ATOM     62  C   UNL A   1      45.677  28.013  34.027  1.00  0.00     0.134 A 
ATOM     63  C   UNL A   1      44.226  26.227  34.690  1.00  0.00     0.134 A 
ATOM     64  F   UNL A   1      45.910  29.171  33.394  1.00  0.00    -0.206 F 
ATOM     65  C   UNL A   1      46.754  27.378  34.649  1.00  0.00     0.040 A 
ATOM     66  C   UNL A   1      45.290  25.593  35.336  1.00  0.00     0.040 A 
ATOM     67  F   UNL A   1      43.025  25.631  34.727  1.00  0.00    -0.206 F 
ATOM     68  C   UNL A   1      46.560  26.165  35.309  1.00  0.00     0.006 A 
ENDBRANCH  47  61
BRANCH  48  69
ATOM     69  C   UNL A   1      36.751  31.514  29.071  1.00  0.00     0.057 A 
ATOM     70  C   UNL A   1      36.787  32.847  28.650  1.00  0.00     0.134 A 
ATOM     71  C   UNL A   1      35.599  30.775  28.780  1.00  0.00     0.134 A 
ATOM     72  F   UNL A   1      37.856  33.612  28.921  1.00  0.00    -0.206 F 
ATOM     73  C   UNL A   1      35.715  33.428  27.971  1.00  0.00     0.040 A 
ATOM     74  C   UNL A   1      34.528  31.335  28.083  1.00  0.00     0.040 A 
ATOM     75  F   UNL A   1      35.503  29.493  29.161  1.00  0.00    -0.206 F 
ATOM     76  C   UNL A   1      34.584  32.668  27.679  1.00  0.00     0.006 A 
ENDBRANCH  48  69
BRANCH  60  77
ATOM     77  C   UNL A   1      39.140  32.139  35.583  1.00  0.00     0.057 A 
ATOM     78  C   UNL A   1      38.327  31.597  36.586  1.00  0.00     0.134 A 
ATOM     79  C   UNL A   1      39.548  33.472  35.730  1.00  0.00     0.134 A 
ATOM     80  F   UNL A   1      37.892  30.331  36.497  1.00  0.00    -0.206 F 
ATOM     81  C   UNL A   1      37.920  32.357  37.684  1.00  0.00     0.040 A 
ATOM     82  C   UNL A   1      39.167  34.234  36.834  1.00  0.00     0.040 A 
ATOM     83  F   UNL A   1      40.334  34.049  34.808  1.00  0.00    -0.206 F 
ATOM     84  C   UNL A   1      38.346  33.677  37.814  1.00  0.00     0.006 A 
ENDBRANCH  60  77
ENDBRANCH  34  35
ENDBRANCH  27  29
ENDBRANCH  26  27
ENDBRANCH  25  26
ENDBRANCH  24  25
ENDBRANCH   1  24
TORSDOF 16
ENDMDL
MODEL 2
REMARK VINA RESULT:     -10.8      3.251      7.952
REMARK SMILES Cc1ncccc1C(=O)Nc1cnccc1C(=O)OCCOCCOC(=O)c1ccc(-c2c3nc(c(-c4c(F)cccc4F)c4ccc([nH]4)c(-c4c(F)cccc4F)c4nc(c(-c5c(F)cccc5F)c5ccc2[nH]5)C=C4)C=C3)cc1
REMARK SMILES IDX 22 1 21 2 20 3 19 4 17 5 18 6 16 7 11 8 12 9 13 10 15 11
REMARK SMILES IDX 14 12 10 13 8 14 9 15 7 17 1 18 2 19 3 20 4 21 6 22 5 23
REMARK SMILES IDX 23 24 24 25 25 26 26 27 27 28 28 29 29 30 81 31 30 32 80 33
REMARK SMILES IDX 31 34 32 35 33 36 74 37 34 38 79 39 73 40 75 41 35 42 78 43
REMARK SMILES IDX 72 44 71 45 36 47 62 48 45 49 61 50 46 51 49 52 60 53 76 54
REMARK SMILES IDX 47 55 48 56 59 58 77 59 50 60 37 61 38 62 43 63 39 64 40 65
REMARK SMILES IDX 42 66 44 67 41 68 63 69 64 70 69 71 65 72 66 73 68 74 70 75
REMARK SMILES IDX 67 76 51 77 52 78 57 79 53 80 54 81 56 82 58 83 55 84
REMARK H PARENT 10 16 75 46 49 57
REMARK Flexibility Score: inf
ROOT
ATOM      1  O   UNL A   1      29.881  30.503  24.214  1.00  0.00    -0.374 OA
ENDROOT
BRANCH   1   2
ATOM      2  C   UNL A   1      29.809  29.849  22.954  1.00  0.00     0.202 C 
BRANCH   2   3
ATOM      3  C   UNL A   1      29.281  28.414  22.898  1.00  0.00     0.261 C 
BRANCH   3   4
ATOM      4  O   UNL A   1      30.289  27.415  22.658  1.00  0.00    -0.460 OA
BRANCH   4   5
ATOM      5  C   UNL A   1      30.388  26.471  23.629  1.00  0.00     0.340 C 
ATOM      6  O   UNL A   1      29.666  25.493  23.768  1.00  0.00    -0.246 OA
BRANCH   5   7
ATOM      7  C   UNL A   1      31.628  26.635  24.409  1.00  0.00     0.086 A 
ATOM      8  C   UNL A   1      31.872  26.144  25.694  1.00  0.00     0.074 A 
ATOM      9  C   UNL A   1      33.061  26.581  26.292  1.00  0.00     0.138 A 
ATOM     10  N   UNL A   1      34.008  27.345  25.698  1.00  0.00    -0.263 NA
ATOM     11  C   UNL A   1      32.609  27.409  23.761  1.00  0.00     0.038 A 
ATOM     12  C   UNL A   1      33.774  27.722  24.431  1.00  0.00     0.112 A 
BRANCH   8  13
ATOM     13  N   UNL A   1      31.121  25.234  26.462  1.00  0.00    -0.320 N 
ATOM     14  C   UNL A   1      31.038  23.868  26.546  1.00  0.00     0.257 C 
ATOM     15  O   UNL A   1      30.144  23.394  27.251  1.00  0.00    -0.269 OA
ATOM     16  H   UNL A   1      30.509  25.687  27.088  1.00  0.00     0.170 HD
BRANCH  14  17
ATOM     17  C   UNL A   1      31.966  22.924  25.899  1.00  0.00     0.061 A 
ATOM     18  C   UNL A   1      33.278  22.254  27.995  1.00  0.00     0.067 C 
ATOM     19  C   UNL A   1      32.984  22.205  26.528  1.00  0.00     0.050 A 
ATOM     20  N   UNL A   1      33.813  21.380  25.828  1.00  0.00    -0.261 NA
ATOM     21  C   UNL A   1      33.600  21.226  24.503  1.00  0.00     0.111 A 
ATOM     22  C   UNL A   1      31.725  22.675  24.539  1.00  0.00     0.017 A 
ATOM     23  C   UNL A   1      32.560  21.826  23.823  1.00  0.00     0.021 A 
ENDBRANCH  14  17
ENDBRANCH   8  13
ENDBRANCH   5   7
ENDBRANCH   4   5
ENDBRANCH   3   4
ENDBRANCH   2   3
ENDBRANCH   1   2
BRANCH   1  24
ATOM     24  C   UNL A   1      31.028  30.290  25.028  1.00  0.00     0.202 C 
BRANCH  24  25
ATOM     25  C   UNL A   1      31.369  31.324  26.110  1.00  0.00     0.261 C 
BRANCH  25  26
ATOM     26  O   UNL A   1      32.466  30.956  26.964  1.00  0.00    -0.460 OA
BRANCH  26  27
ATOM     27  C   UNL A   1      33.227  32.001  27.372  1.00  0.00     0.338 C 
ATOM     28  O   UNL A   1      32.875  33.163  27.522  1.00  0.00    -0.246 OA
BRANCH  27  29
ATOM     29  C   UNL A   1      34.573  31.551  27.762  1.00  0.00     0.060 A 
ATOM     30  C   UNL A   1      34.754  30.191  28.044  1.00  0.00     0.016 A 
ATOM     31  C   UNL A   1      35.589  32.474  28.016  1.00  0.00     0.016 A 
ATOM     32  C   UNL A   1      35.938  29.755  28.633  1.00  0.00     0.010 A 
ATOM     33  C   UNL A   1      36.773  32.035  28.617  1.00  0.00     0.010 A 
ATOM     34  C   UNL A   1      36.933  30.682  28.967  1.00  0.00    -0.014 A 
BRANCH  34  35
ATOM     35  C   UNL A   1      38.061  30.259  29.831  1.00  0.00     0.031 A 
ATOM     36  C   UNL A   1      39.092  29.313  29.277  1.00  0.00     0.074 A 
ATOM     37  C   UNL A   1      38.187  30.739  31.080  1.00  0.00     0.049 A 
ATOM     38  N   UNL A   1      40.144  28.797  29.859  1.00  0.00    -0.248 NA
ATOM     39  C   UNL A   1      38.911  28.896  27.878  1.00  0.00     0.031 C 
ATOM     40  C   UNL A   1      37.280  31.692  31.712  1.00  0.00     0.029 A 
ATOM     41  N   UNL A   1      39.135  30.483  32.038  1.00  0.00    -0.354 N 
ATOM     42  C   UNL A   1      40.746  27.989  28.903  1.00  0.00     0.074 A 
ATOM     43  C   UNL A   1      39.928  28.063  27.711  1.00  0.00     0.031 C 
ATOM     44  C   UNL A   1      37.713  31.940  32.961  1.00  0.00     0.029 A 
ATOM     45  C   UNL A   1      38.908  31.139  33.221  1.00  0.00     0.049 A 
ATOM     46  H   UNL A   1      39.903  29.885  31.891  1.00  0.00     0.167 HD
ATOM     47  C   UNL A   1      41.882  27.259  29.004  1.00  0.00     0.037 A 
ATOM     48  C   UNL A   1      39.578  31.082  34.387  1.00  0.00     0.037 A 
ATOM     49  C   UNL A   1      42.695  27.184  30.189  1.00  0.00     0.049 A 
ATOM     50  C   UNL A   1      40.794  30.203  34.502  1.00  0.00     0.074 A 
ATOM     51  C   UNL A   1      43.873  26.485  30.387  1.00  0.00     0.029 A 
ATOM     52  N   UNL A   1      42.406  27.827  31.383  1.00  0.00    -0.354 N 
ATOM     53  N   UNL A   1      41.364  29.456  33.588  1.00  0.00    -0.248 NA
ATOM     54  C   UNL A   1      41.457  30.158  35.813  1.00  0.00     0.031 C 
ATOM     55  C   UNL A   1      44.272  26.669  31.716  1.00  0.00     0.029 A 
ATOM     56  C   UNL A   1      43.369  27.521  32.331  1.00  0.00     0.049 A 
ATOM     57  H   UNL A   1      41.631  28.415  31.536  1.00  0.00     0.167 HD
ATOM     58  C   UNL A   1      42.464  28.873  34.204  1.00  0.00     0.074 A 
ATOM     59  C   UNL A   1      42.487  29.360  35.568  1.00  0.00     0.031 C 
ATOM     60  C   UNL A   1      43.376  28.014  33.685  1.00  0.00     0.037 A 
BRANCH  47  61
ATOM     61  C   UNL A   1      42.291  26.457  27.802  1.00  0.00     0.057 A 
ATOM     62  C   UNL A   1      41.889  25.127  27.627  1.00  0.00     0.134 A 
ATOM     63  C   UNL A   1      43.092  27.027  26.805  1.00  0.00     0.134 A 
ATOM     64  F   UNL A   1      41.134  24.517  28.552  1.00  0.00    -0.206 F 
ATOM     65  C   UNL A   1      42.293  24.383  26.516  1.00  0.00     0.040 A 
ATOM     66  C   UNL A   1      43.483  26.301  25.678  1.00  0.00     0.040 A 
ATOM     67  F   UNL A   1      43.510  28.298  26.909  1.00  0.00    -0.206 F 
ATOM     68  C   UNL A   1      43.090  24.972  25.536  1.00  0.00     0.006 A 
ENDBRANCH  47  61
BRANCH  48  69
ATOM     69  C   UNL A   1      39.109  31.882  35.546  1.00  0.00     0.057 A 
ATOM     70  C   UNL A   1      39.524  33.205  35.727  1.00  0.00     0.134 A 
ATOM     71  C   UNL A   1      38.235  31.342  36.497  1.00  0.00     0.134 A 
ATOM     72  F   UNL A   1      40.380  33.768  34.861  1.00  0.00    -0.206 F 
ATOM     73  C   UNL A   1      39.093  33.963  36.817  1.00  0.00     0.040 A 
ATOM     74  C   UNL A   1      37.778  32.095  37.578  1.00  0.00     0.040 A 
ATOM     75  F   UNL A   1      37.804  30.078  36.380  1.00  0.00    -0.206 F 
ATOM     76  C   UNL A   1      38.211  33.409  37.743  1.00  0.00     0.006 A 
ENDBRANCH  48  69
BRANCH  60  77
ATOM     77  C   UNL A   1      44.491  27.568  34.587  1.00  0.00     0.057 A 
ATOM     78  C   UNL A   1      45.668  28.313  34.731  1.00  0.00     0.134 A 
ATOM     79  C   UNL A   1      44.368  26.398  35.347  1.00  0.00     0.134 A 
ATOM     80  F   UNL A   1      45.852  29.437  34.021  1.00  0.00    -0.206 F 
ATOM     81  C   UNL A   1      46.691  27.900  35.586  1.00  0.00     0.040 A 
ATOM     82  C   UNL A   1      45.374  25.987  36.222  1.00  0.00     0.040 A 
ATOM     83  F   UNL A   1      43.262  25.643  35.261  1.00  0.00    -0.206 F 
ATOM     84  C   UNL A   1      46.543  26.737  36.340  1.00  0.00     0.006 A 
ENDBRANCH  60  77
ENDBRANCH  34  35
ENDBRANCH  27  29
ENDBRANCH  26  27
ENDBRANCH  25  26
ENDBRANCH  24  25
ENDBRANCH   1  24
TORSDOF 16
ENDMDL
MODEL 3
REMARK VINA RESULT:     -10.8      3.894      6.017
REMARK SMILES Cc1ncccc1C(=O)Nc1cnccc1C(=O)OCCOCCOC(=O)c1ccc(-c2c3nc(c(-c4c(F)cccc4F)c4ccc([nH]4)c(-c4c(F)cccc4F)c4nc(c(-c5c(F)cccc5F)c5ccc2[nH]5)C=C4)C=C3)cc1
REMARK SMILES IDX 22 1 21 2 20 3 19 4 17 5 18 6 16 7 11 8 12 9 13 10 15 11
REMARK SMILES IDX 14 12 10 13 8 14 9 15 7 17 1 18 2 19 3 20 4 21 6 22 5 23
REMARK SMILES IDX 23 24 24 25 25 26 26 27 27 28 28 29 29 30 81 31 30 32 80 33
REMARK SMILES IDX 31 34 32 35 33 36 74 37 34 38 79 39 73 40 75 41 35 42 78 43
REMARK SMILES IDX 72 44 71 45 36 47 62 48 45 49 61 50 46 51 49 52 60 53 76 54
REMARK SMILES IDX 47 55 48 56 59 58 77 59 50 60 37 61 38 62 43 63 39 64 40 65
REMARK SMILES IDX 42 66 44 67 41 68 63 69 64 70 69 71 65 72 66 73 68 74 70 75
REMARK SMILES IDX 67 76 51 77 52 78 57 79 53 80 54 81 56 82 58 83 55 84
REMARK H PARENT 10 16 75 46 49 57
REMARK Flexibility Score: inf
ROOT
ATOM      1  O   UNL A   1      38.590  22.175  26.170  1.00  0.00    -0.374 OA
ENDROOT
BRANCH   1   2
ATOM      2  C   UNL A   1      38.187  23.467  25.736  1.00  0.00     0.202 C 
BRANCH   2   3
ATOM      3  C   UNL A   1      36.749  23.917  26.002  1.00  0.00     0.261 C 
BRANCH   3   4
ATOM      4  O   UNL A   1      35.777  23.395  25.076  1.00  0.00    -0.460 OA
BRANCH   4   5
ATOM      5  C   UNL A   1      34.730  22.758  25.660  1.00  0.00     0.340 C 
ATOM      6  O   UNL A   1      34.370  22.869  26.824  1.00  0.00    -0.246 OA
BRANCH   5   7
ATOM      7  C   UNL A   1      33.911  22.048  24.661  1.00  0.00     0.086 A 
ATOM      8  C   UNL A   1      33.485  22.549  23.428  1.00  0.00     0.074 A 
ATOM      9  C   UNL A   1      32.570  21.747  22.734  1.00  0.00     0.138 A 
ATOM     10  N   UNL A   1      32.153  20.515  23.114  1.00  0.00    -0.263 NA
ATOM     11  C   UNL A   1      33.512  20.761  25.065  1.00  0.00     0.038 A 
ATOM     12  C   UNL A   1      32.655  20.035  24.262  1.00  0.00     0.112 A 
BRANCH   8  13
ATOM     13  N   UNL A   1      33.876  23.722  22.755  1.00  0.00    -0.320 N 
ATOM     14  C   UNL A   1      33.614  25.060  22.900  1.00  0.00     0.257 C 
ATOM     15  O   UNL A   1      34.027  25.819  22.020  1.00  0.00    -0.269 OA
ATOM     16  H   UNL A   1      34.484  23.537  22.002  1.00  0.00     0.170 HD
BRANCH  14  17
ATOM     17  C   UNL A   1      32.918  25.665  24.049  1.00  0.00     0.061 A 
ATOM     18  C   UNL A   1      30.547  24.911  23.439  1.00  0.00     0.067 C 
ATOM     19  C   UNL A   1      31.544  25.622  24.298  1.00  0.00     0.050 A 
ATOM     20  N   UNL A   1      30.995  26.247  25.377  1.00  0.00    -0.261 NA
ATOM     21  C   UNL A   1      31.817  26.878  26.245  1.00  0.00     0.111 A 
ATOM     22  C   UNL A   1      33.746  26.258  25.015  1.00  0.00     0.017 A 
ATOM     23  C   UNL A   1      33.192  26.887  26.122  1.00  0.00     0.021 A 
ENDBRANCH  14  17
ENDBRANCH   8  13
ENDBRANCH   5   7
ENDBRANCH   4   5
ENDBRANCH   3   4
ENDBRANCH   2   3
ENDBRANCH   1   2
BRANCH   1  24
ATOM     24  C   UNL A   1      38.323  21.059  25.329  1.00  0.00     0.202 C 
BRANCH  24  25
ATOM     25  C   UNL A   1      39.049  19.735  25.605  1.00  0.00     0.261 C 
BRANCH  25  26
ATOM     26  O   UNL A   1      40.005  19.790  26.679  1.00  0.00    -0.460 OA
BRANCH  26  27
ATOM     27  C   UNL A   1      41.294  19.662  26.282  1.00  0.00     0.338 C 
ATOM     28  O   UNL A   1      41.814  18.691  25.749  1.00  0.00    -0.246 OA
BRANCH  27  29
ATOM     29  C   UNL A   1      42.025  20.928  26.450  1.00  0.00     0.060 A 
ATOM     30  C   UNL A   1      42.389  21.308  27.748  1.00  0.00     0.016 A 
ATOM     31  C   UNL A   1      42.192  21.804  25.377  1.00  0.00     0.016 A 
ATOM     32  C   UNL A   1      42.873  22.591  27.987  1.00  0.00     0.010 A 
ATOM     33  C   UNL A   1      42.668  23.096  25.620  1.00  0.00     0.010 A 
ATOM     34  C   UNL A   1      42.970  23.507  26.932  1.00  0.00    -0.014 A 
BRANCH  34  35
ATOM     35  C   UNL A   1      43.222  24.937  27.230  1.00  0.00     0.031 A 
ATOM     36  C   UNL A   1      44.576  25.520  26.928  1.00  0.00     0.074 A 
ATOM     37  C   UNL A   1      42.248  25.718  27.728  1.00  0.00     0.049 A 
ATOM     38  N   UNL A   1      45.023  26.733  27.128  1.00  0.00    -0.248 NA
ATOM     39  C   UNL A   1      45.558  24.609  26.319  1.00  0.00     0.031 C 
ATOM     40  C   UNL A   1      40.885  25.282  28.020  1.00  0.00     0.029 A 
ATOM     41  N   UNL A   1      42.264  27.044  28.077  1.00  0.00    -0.354 N 
ATOM     42  C   UNL A   1      46.337  26.731  26.677  1.00  0.00     0.074 A 
ATOM     43  C   UNL A   1      46.624  25.389  26.218  1.00  0.00     0.031 C 
ATOM     44  C   UNL A   1      40.192  26.325  28.510  1.00  0.00     0.029 A 
ATOM     45  C   UNL A   1      41.073  27.488  28.593  1.00  0.00     0.049 A 
ATOM     46  H   UNL A   1      43.054  27.621  27.968  1.00  0.00     0.167 HD
ATOM     47  C   UNL A   1      47.221  27.756  26.639  1.00  0.00     0.037 A 
ATOM     48  C   UNL A   1      40.740  28.693  29.095  1.00  0.00     0.037 A 
ATOM     49  C   UNL A   1      46.936  29.090  27.097  1.00  0.00     0.049 A 
ATOM     50  C   UNL A   1      41.763  29.796  29.116  1.00  0.00     0.074 A 
ATOM     51  C   UNL A   1      47.760  30.202  27.087  1.00  0.00     0.029 A 
ATOM     52  N   UNL A   1      45.732  29.489  27.657  1.00  0.00    -0.354 N 
ATOM     53  N   UNL A   1      42.996  29.789  28.672  1.00  0.00    -0.248 NA
ATOM     54  C   UNL A   1      41.346  31.074  29.710  1.00  0.00     0.031 C 
ATOM     55  C   UNL A   1      47.068  31.264  27.683  1.00  0.00     0.029 A 
ATOM     56  C   UNL A   1      45.798  30.824  28.022  1.00  0.00     0.049 A 
ATOM     57  H   UNL A   1      44.945  28.909  27.779  1.00  0.00     0.167 HD
ATOM     58  C   UNL A   1      43.495  31.064  28.910  1.00  0.00     0.074 A 
ATOM     59  C   UNL A   1      42.427  31.821  29.530  1.00  0.00     0.031 C 
ATOM     60  C   UNL A   1      44.725  31.563  28.638  1.00  0.00     0.037 A 
BRANCH  47  61
ATOM     61  C   UNL A   1      48.594  27.458  26.110  1.00  0.00     0.057 A 
ATOM     62  C   UNL A   1      48.870  27.440  24.737  1.00  0.00     0.134 A 
ATOM     63  C   UNL A   1      49.653  27.192  26.986  1.00  0.00     0.134 A 
ATOM     64  F   UNL A   1      47.897  27.672  23.844  1.00  0.00    -0.206 F 
ATOM     65  C   UNL A   1      50.145  27.141  24.252  1.00  0.00     0.040 A 
ATOM     66  C   UNL A   1      50.939  26.916  26.515  1.00  0.00     0.040 A 
ATOM     67  F   UNL A   1      49.458  27.197  28.313  1.00  0.00    -0.206 F 
ATOM     68  C   UNL A   1      51.185  26.881  25.144  1.00  0.00     0.006 A 
ENDBRANCH  47  61
BRANCH  48  69
ATOM     69  C   UNL A   1      39.373  28.917  29.624  1.00  0.00     0.057 A 
ATOM     70  C   UNL A   1      38.346  29.390  28.800  1.00  0.00     0.134 A 
ATOM     71  C   UNL A   1      39.060  28.663  30.965  1.00  0.00     0.134 A 
ATOM     72  F   UNL A   1      38.593  29.675  27.512  1.00  0.00    -0.206 F 
ATOM     73  C   UNL A   1      37.058  29.611  29.290  1.00  0.00     0.040 A 
ATOM     74  C   UNL A   1      37.772  28.857  31.463  1.00  0.00     0.040 A 
ATOM     75  F   UNL A   1      40.001  28.211  31.805  1.00  0.00    -0.206 F 
ATOM     76  C   UNL A   1      36.767  29.336  30.625  1.00  0.00     0.006 A 
ENDBRANCH  48  69
BRANCH  60  77
ATOM     77  C   UNL A   1      44.974  33.004  28.981  1.00  0.00     0.057 A 
ATOM     78  C   UNL A   1      45.555  33.384  30.197  1.00  0.00     0.134 A 
ATOM     79  C   UNL A   1      44.664  34.018  28.066  1.00  0.00     0.134 A 
ATOM     80  F   UNL A   1      45.864  32.461  31.120  1.00  0.00    -0.206 F 
ATOM     81  C   UNL A   1      45.800  34.725  30.499  1.00  0.00     0.040 A 
ATOM     82  C   UNL A   1      44.925  35.359  28.347  1.00  0.00     0.040 A 
ATOM     83  F   UNL A   1      44.113  33.720  26.879  1.00  0.00    -0.206 F 
ATOM     84  C   UNL A   1      45.491  35.717  29.570  1.00  0.00     0.006 A 
ENDBRANCH  60  77
ENDBRANCH  34  35
ENDBRANCH  27  29
ENDBRANCH  26  27
ENDBRANCH  25  26
ENDBRANCH  24  25
ENDBRANCH   1  24
TORSDOF 16
ENDMDL
