MODEL 1
REMARK VINA RESULT:     -11.5      0.000      0.000
REMARK SMILES CC(C)c1noc(C[N@@H+]2[C@@H](C(=O)OCCOCCOC(=O)c3ccc(-c4c5nc(c(-c6c(F)cccc6F)c6ccc([nH]6)c(-c6c(F)cccc6F)c6nc(c(-c7c(F)cccc7F)c7ccc4[nH]7)C=C6)C=C5)cc3)C[C@H]3CCCC[C@@H]32)n1
REMARK SMILES IDX 15 1 14 2 13 3 11 4 12 5 10 6 9 7 82 8 76 10 77 11 81 12
REMARK SMILES IDX 78 13 80 14 79 15 8 16 7 17 4 18 5 19 83 20 6 21 2 22 1 23
REMARK SMILES IDX 3 24 16 25 17 26 18 27 19 28 20 29 21 30 22 31 23 32 75 33
REMARK SMILES IDX 24 34 74 35 25 36 26 37 27 38 68 39 28 40 73 41 67 42 69 43
REMARK SMILES IDX 29 44 72 45 66 46 65 47 30 49 56 50 39 51 55 52 40 53 43 54
REMARK SMILES IDX 54 55 70 56 41 57 42 58 53 60 71 61 44 62 31 63 32 64 37 65
REMARK SMILES IDX 33 66 34 67 36 68 38 69 35 70 57 71 58 72 63 73 59 74 60 75
REMARK SMILES IDX 62 76 64 77 61 78 45 79 46 80 51 81 47 82 48 83 50 84 52 85
REMARK SMILES IDX 49 86
REMARK H PARENT 9 9 69 48 43 59
REMARK Flexibility Score: inf
ROOT
ATOM      1  C   UNL A   1      33.112  30.263  26.668  1.00  0.00     0.202 C 
ENDROOT
BRANCH   1   2
ATOM      2  C   UNL A   1      33.454  28.879  27.221  1.00  0.00     0.261 C 
BRANCH   2   3
ATOM      3  O   UNL A   1      33.122  27.852  26.272  1.00  0.00    -0.459 OA
BRANCH   3   4
ATOM      4  C   UNL A   1      31.791  27.563  26.188  1.00  0.00     0.365 C 
ATOM      5  O   UNL A   1      31.093  27.235  27.140  1.00  0.00    -0.245 OA
BRANCH   4   6
ATOM      6  C   UNL A   1      31.292  27.690  24.728  1.00  0.00     0.296 C 
ATOM      7  N   UNL A   1      30.281  26.626  24.449  1.00  0.00    -0.313 N 
ATOM      8  C   UNL A   1      31.091  25.457  24.073  1.00  0.00     0.188 C 
ATOM      9  H   UNL A   1      29.705  26.406  25.260  1.00  0.00     0.349 HD
ATOM     10  C   UNL A   1      32.497  27.416  23.819  1.00  0.00     0.087 C 
ATOM     11  C   UNL A   1      32.228  26.037  23.231  1.00  0.00     0.054 C 
ATOM     12  C   UNL A   1      30.512  24.212  23.409  1.00  0.00     0.065 C 
ATOM     13  C   UNL A   1      33.387  25.056  23.199  1.00  0.00     0.010 C 
ATOM     14  C   UNL A   1      31.635  23.175  23.221  1.00  0.00     0.006 C 
ATOM     15  C   UNL A   1      32.907  23.742  22.569  1.00  0.00     0.001 C 
BRANCH   7  16
ATOM     16  C   UNL A   1      29.190  27.021  23.536  1.00  0.00     0.364 C 
BRANCH  16  17
ATOM     17  C   UNL A   1      29.222  28.394  22.951  1.00  0.00     0.281 A 
ATOM     18  C   UNL A   1      28.841  30.349  22.313  1.00  0.00     0.174 A 
ATOM     19  N   UNL A   1      29.710  29.894  21.399  1.00  0.00    -0.062 NA
ATOM     20  N   UNL A   1      28.552  29.464  23.317  1.00  0.00    -0.191 NA
ATOM     21  O   UNL A   1      29.972  28.587  21.828  1.00  0.00    -0.333 OA
BRANCH  18  22
ATOM     22  C   UNL A   1      28.131  31.657  22.181  1.00  0.00     0.055 C 
ATOM     23  C   UNL A   1      28.845  32.742  22.992  1.00  0.00     0.016 C 
ATOM     24  C   UNL A   1      28.016  32.100  20.720  1.00  0.00     0.016 C 
ENDBRANCH  18  22
ENDBRANCH  16  17
ENDBRANCH   7  16
ENDBRANCH   4   6
ENDBRANCH   3   4
ENDBRANCH   2   3
ENDBRANCH   1   2
BRANCH   1  25
ATOM     25  O   UNL A   1      31.936  30.877  27.188  1.00  0.00    -0.374 OA
BRANCH  25  26
ATOM     26  C   UNL A   1      31.379  31.969  26.452  1.00  0.00     0.202 C 
BRANCH  26  27
ATOM     27  C   UNL A   1      31.964  33.354  26.748  1.00  0.00     0.261 C 
BRANCH  27  28
ATOM     28  O   UNL A   1      32.355  33.493  28.126  1.00  0.00    -0.460 OA
BRANCH  28  29
ATOM     29  C   UNL A   1      33.448  34.265  28.333  1.00  0.00     0.338 C 
ATOM     30  O   UNL A   1      33.487  35.484  28.438  1.00  0.00    -0.246 OA
BRANCH  29  31
ATOM     31  C   UNL A   1      34.625  33.420  28.603  1.00  0.00     0.060 A 
ATOM     32  C   UNL A   1      34.400  32.163  29.182  1.00  0.00     0.016 A 
ATOM     33  C   UNL A   1      35.925  33.873  28.378  1.00  0.00     0.016 A 
ATOM     34  C   UNL A   1      35.476  31.377  29.586  1.00  0.00     0.010 A 
ATOM     35  C   UNL A   1      37.005  33.088  28.796  1.00  0.00     0.010 A 
ATOM     36  C   UNL A   1      36.784  31.853  29.435  1.00  0.00    -0.014 A 
BRANCH  36  37
ATOM     37  C   UNL A   1      37.903  31.131  30.086  1.00  0.00     0.031 A 
ATOM     38  C   UNL A   1      38.207  31.412  31.533  1.00  0.00     0.074 A 
ATOM     39  C   UNL A   1      38.623  30.219  29.408  1.00  0.00     0.049 A 
ATOM     40  N   UNL A   1      39.154  30.924  32.292  1.00  0.00    -0.248 NA
ATOM     41  C   UNL A   1      37.327  32.376  32.215  1.00  0.00     0.031 C 
ATOM     42  C   UNL A   1      38.406  29.836  28.015  1.00  0.00     0.029 A 
ATOM     43  N   UNL A   1      39.694  29.458  29.805  1.00  0.00    -0.354 N 
ATOM     44  C   UNL A   1      38.995  31.529  33.532  1.00  0.00     0.074 A 
ATOM     45  C   UNL A   1      37.871  32.433  33.422  1.00  0.00     0.031 C 
ATOM     46  C   UNL A   1      39.329  28.922  27.666  1.00  0.00     0.029 A 
ATOM     47  C   UNL A   1      40.215  28.677  28.803  1.00  0.00     0.049 A 
ATOM     48  H   UNL A   1      40.054  29.470  30.721  1.00  0.00     0.167 HD
ATOM     49  C   UNL A   1      39.718  31.344  34.660  1.00  0.00     0.037 A 
ATOM     50  C   UNL A   1      41.298  27.876  28.799  1.00  0.00     0.037 A 
ATOM     51  C   UNL A   1      40.821  30.429  34.777  1.00  0.00     0.049 A 
ATOM     52  C   UNL A   1      42.111  27.724  30.058  1.00  0.00     0.074 A 
ATOM     53  C   UNL A   1      41.580  30.133  35.897  1.00  0.00     0.029 A 
ATOM     54  N   UNL A   1      41.326  29.666  33.736  1.00  0.00    -0.354 N 
ATOM     55  N   UNL A   1      41.919  28.263  31.238  1.00  0.00    -0.248 NA
ATOM     56  C   UNL A   1      43.292  26.850  29.985  1.00  0.00     0.031 C 
ATOM     57  C   UNL A   1      42.576  29.225  35.522  1.00  0.00     0.029 A 
ATOM     58  C   UNL A   1      42.407  28.922  34.180  1.00  0.00     0.049 A 
ATOM     59  H   UNL A   1      40.970  29.655  32.819  1.00  0.00     0.167 HD
ATOM     60  C   UNL A   1      42.933  27.769  32.052  1.00  0.00     0.074 A 
ATOM     61  C   UNL A   1      43.731  26.881  31.235  1.00  0.00     0.031 C 
ATOM     62  C   UNL A   1      43.180  28.029  33.359  1.00  0.00     0.037 A 
BRANCH  49  63
ATOM     63  C   UNL A   1      39.358  32.162  35.864  1.00  0.00     0.057 A 
ATOM     64  C   UNL A   1      39.921  33.422  36.098  1.00  0.00     0.134 A 
ATOM     65  C   UNL A   1      38.383  31.710  36.762  1.00  0.00     0.134 A 
ATOM     66  F   UNL A   1      40.868  33.906  35.281  1.00  0.00    -0.206 F 
ATOM     67  C   UNL A   1      39.531  34.202  37.189  1.00  0.00     0.040 A 
ATOM     68  C   UNL A   1      37.971  32.488  37.844  1.00  0.00     0.040 A 
ATOM     69  F   UNL A   1      37.804  30.512  36.591  1.00  0.00    -0.206 F 
ATOM     70  C   UNL A   1      38.547  33.738  38.061  1.00  0.00     0.006 A 
ENDBRANCH  49  63
BRANCH  50  71
ATOM     71  C   UNL A   1      41.704  27.168  27.558  1.00  0.00     0.057 A 
ATOM     72  C   UNL A   1      41.331  25.840  27.322  1.00  0.00     0.134 A 
ATOM     73  C   UNL A   1      42.522  27.788  26.606  1.00  0.00     0.134 A 
ATOM     74  F   UNL A   1      40.570  25.185  28.210  1.00  0.00    -0.206 F 
ATOM     75  C   UNL A   1      41.778  25.144  26.197  1.00  0.00     0.040 A 
ATOM     76  C   UNL A   1      42.955  27.113  25.463  1.00  0.00     0.040 A 
ATOM     77  F   UNL A   1      42.915  29.059  26.774  1.00  0.00    -0.206 F 
ATOM     78  C   UNL A   1      42.591  25.783  25.262  1.00  0.00     0.006 A 
ENDBRANCH  50  71
BRANCH  62  79
ATOM     79  C   UNL A   1      44.333  27.314  33.998  1.00  0.00     0.057 A 
ATOM     80  C   UNL A   1      45.612  27.880  34.058  1.00  0.00     0.134 A 
ATOM     81  C   UNL A   1      44.149  26.061  34.599  1.00  0.00     0.134 A 
ATOM     82  F   UNL A   1      45.856  29.071  33.491  1.00  0.00    -0.206 F 
ATOM     83  C   UNL A   1      46.673  27.216  34.676  1.00  0.00     0.040 A 
ATOM     84  C   UNL A   1      45.196  25.400  35.241  1.00  0.00     0.040 A 
ATOM     85  F   UNL A   1      42.946  25.469  34.585  1.00  0.00    -0.206 F 
ATOM     86  C   UNL A   1      46.465  25.975  35.276  1.00  0.00     0.006 A 
ENDBRANCH  62  79
ENDBRANCH  36  37
ENDBRANCH  29  31
ENDBRANCH  28  29
ENDBRANCH  27  28
ENDBRANCH  26  27
ENDBRANCH  25  26
ENDBRANCH   1  25
TORSDOF 17
ENDMDL
MODEL 2
REMARK VINA RESULT:     -11.3      4.118      9.021
REMARK SMILES CC(C)c1noc(C[N@@H+]2[C@@H](C(=O)OCCOCCOC(=O)c3ccc(-c4c5nc(c(-c6c(F)cccc6F)c6ccc([nH]6)c(-c6c(F)cccc6F)c6nc(c(-c7c(F)cccc7F)c7ccc4[nH]7)C=C6)C=C5)cc3)C[C@H]3CCCC[C@@H]32)n1
REMARK SMILES IDX 15 1 14 2 13 3 11 4 12 5 10 6 9 7 82 8 76 10 77 11 81 12
REMARK SMILES IDX 78 13 80 14 79 15 8 16 7 17 4 18 5 19 83 20 6 21 2 22 1 23
REMARK SMILES IDX 3 24 16 25 17 26 18 27 19 28 20 29 21 30 22 31 23 32 75 33
REMARK SMILES IDX 24 34 74 35 25 36 26 37 27 38 68 39 28 40 73 41 67 42 69 43
REMARK SMILES IDX 29 44 72 45 66 46 65 47 30 49 56 50 39 51 55 52 40 53 43 54
REMARK SMILES IDX 54 55 70 56 41 57 42 58 53 60 71 61 44 62 31 63 32 64 37 65
REMARK SMILES IDX 33 66 34 67 36 68 38 69 35 70 57 71 58 72 63 73 59 74 60 75
REMARK SMILES IDX 62 76 64 77 61 78 45 79 46 80 51 81 47 82 48 83 50 84 52 85
REMARK SMILES IDX 49 86
REMARK H PARENT 9 9 69 48 43 59
REMARK Flexibility Score: inf
ROOT
ATOM      1  C   UNL A   1      39.755  21.472  26.367  1.00  0.00     0.202 C 
ENDROOT
BRANCH   1   2
ATOM      2  C   UNL A   1      38.481  22.268  26.087  1.00  0.00     0.261 C 
BRANCH   2   3
ATOM      3  O   UNL A   1      37.382  21.389  25.794  1.00  0.00    -0.459 OA
BRANCH   3   4
ATOM      4  C   UNL A   1      36.602  21.781  24.745  1.00  0.00     0.365 C 
ATOM      5  O   UNL A   1      37.038  22.141  23.657  1.00  0.00    -0.245 OA
BRANCH   4   6
ATOM      6  C   UNL A   1      35.102  21.726  25.123  1.00  0.00     0.296 C 
ATOM      7  N   UNL A   1      34.270  21.840  23.888  1.00  0.00    -0.313 N 
ATOM      8  C   UNL A   1      34.161  23.289  23.665  1.00  0.00     0.188 C 
ATOM      9  H   UNL A   1      34.699  21.391  23.079  1.00  0.00     0.349 HD
ATOM     10  C   UNL A   1      34.812  22.966  25.978  1.00  0.00     0.087 C 
ATOM     11  C   UNL A   1      34.002  23.880  25.066  1.00  0.00     0.054 C 
ATOM     12  C   UNL A   1      33.162  23.919  22.699  1.00  0.00     0.065 C 
ATOM     13  C   UNL A   1      34.380  25.351  25.043  1.00  0.00     0.010 C 
ATOM     14  C   UNL A   1      33.377  25.443  22.677  1.00  0.00     0.006 C 
ATOM     15  C   UNL A   1      33.446  26.086  24.073  1.00  0.00     0.001 C 
BRANCH   7  16
ATOM     16  C   UNL A   1      33.017  21.057  23.902  1.00  0.00     0.364 C 
BRANCH  16  17
ATOM     17  C   UNL A   1      33.053  19.678  24.471  1.00  0.00     0.281 A 
ATOM     18  C   UNL A   1      33.301  17.639  24.864  1.00  0.00     0.174 A 
ATOM     19  N   UNL A   1      32.240  17.967  25.614  1.00  0.00    -0.062 NA
ATOM     20  N   UNL A   1      33.861  18.684  24.179  1.00  0.00    -0.191 NA
ATOM     21  O   UNL A   1      32.076  19.334  25.359  1.00  0.00    -0.333 OA
BRANCH  18  22
ATOM     22  C   UNL A   1      33.757  16.229  24.671  1.00  0.00     0.055 C 
ATOM     23  C   UNL A   1      35.214  16.068  25.115  1.00  0.00     0.016 C 
ATOM     24  C   UNL A   1      32.876  15.233  25.429  1.00  0.00     0.016 C 
ENDBRANCH  18  22
ENDBRANCH  16  17
ENDBRANCH   7  16
ENDBRANCH   4   6
ENDBRANCH   3   4
ENDBRANCH   2   3
ENDBRANCH   1   2
BRANCH   1  25
ATOM     25  O   UNL A   1      40.987  22.154  26.147  1.00  0.00    -0.374 OA
BRANCH  25  26
ATOM     26  C   UNL A   1      42.182  21.369  26.115  1.00  0.00     0.202 C 
BRANCH  26  27
ATOM     27  C   UNL A   1      43.384  21.994  25.398  1.00  0.00     0.261 C 
BRANCH  27  28
ATOM     28  O   UNL A   1      43.044  23.236  24.754  1.00  0.00    -0.460 OA
BRANCH  28  29
ATOM     29  C   UNL A   1      43.862  24.273  25.050  1.00  0.00     0.338 C 
ATOM     30  O   UNL A   1      44.969  24.503  24.582  1.00  0.00    -0.246 OA
BRANCH  29  31
ATOM     31  C   UNL A   1      43.165  25.239  25.919  1.00  0.00     0.060 A 
ATOM     32  C   UNL A   1      43.866  26.394  26.294  1.00  0.00     0.016 A 
ATOM     33  C   UNL A   1      41.891  24.987  26.428  1.00  0.00     0.016 A 
ATOM     34  C   UNL A   1      43.315  27.275  27.221  1.00  0.00     0.010 A 
ATOM     35  C   UNL A   1      41.344  25.867  27.369  1.00  0.00     0.010 A 
ATOM     36  C   UNL A   1      42.070  26.995  27.797  1.00  0.00    -0.014 A 
BRANCH  36  37
ATOM     37  C   UNL A   1      41.604  27.796  28.954  1.00  0.00     0.031 A 
ATOM     38  C   UNL A   1      42.334  27.673  30.265  1.00  0.00     0.074 A 
ATOM     39  C   UNL A   1      40.563  28.640  28.836  1.00  0.00     0.049 A 
ATOM     40  N   UNL A   1      42.083  28.251  31.411  1.00  0.00    -0.248 NA
ATOM     41  C   UNL A   1      43.502  26.777  30.286  1.00  0.00     0.031 C 
ATOM     42  C   UNL A   1      39.796  28.870  27.613  1.00  0.00     0.029 A 
ATOM     43  N   UNL A   1      39.966  29.452  29.767  1.00  0.00    -0.354 N 
ATOM     44  C   UNL A   1      43.048  27.779  32.292  1.00  0.00     0.074 A 
ATOM     45  C   UNL A   1      43.881  26.855  31.554  1.00  0.00     0.031 C 
ATOM     46  C   UNL A   1      38.816  29.753  27.874  1.00  0.00     0.029 A 
ATOM     47  C   UNL A   1      38.872  30.128  29.286  1.00  0.00     0.049 A 
ATOM     48  H   UNL A   1      40.292  29.541  30.692  1.00  0.00     0.167 HD
ATOM     49  C   UNL A   1      43.225  28.092  33.596  1.00  0.00     0.037 A 
ATOM     50  C   UNL A   1      38.002  30.937  29.921  1.00  0.00     0.037 A 
ATOM     51  C   UNL A   1      42.412  29.027  34.325  1.00  0.00     0.049 A 
ATOM     52  C   UNL A   1      38.199  31.232  31.386  1.00  0.00     0.074 A 
ATOM     53  C   UNL A   1      42.550  29.449  35.636  1.00  0.00     0.029 A 
ATOM     54  N   UNL A   1      41.306  29.681  33.807  1.00  0.00    -0.354 N 
ATOM     55  N   UNL A   1      39.145  30.819  32.194  1.00  0.00    -0.248 NA
ATOM     56  C   UNL A   1      37.205  32.107  32.026  1.00  0.00     0.031 C 
ATOM     57  C   UNL A   1      41.498  30.324  35.926  1.00  0.00     0.029 A 
ATOM     58  C   UNL A   1      40.733  30.481  34.781  1.00  0.00     0.049 A 
ATOM     59  H   UNL A   1      40.977  29.591  32.883  1.00  0.00     0.167 HD
ATOM     60  C   UNL A   1      38.880  31.408  33.425  1.00  0.00     0.074 A 
ATOM     61  C   UNL A   1      37.690  32.214  33.255  1.00  0.00     0.031 C 
ATOM     62  C   UNL A   1      39.559  31.292  34.591  1.00  0.00     0.037 A 
BRANCH  49  63
ATOM     63  C   UNL A   1      44.331  27.401  34.337  1.00  0.00     0.057 A 
ATOM     64  C   UNL A   1      44.147  26.156  34.950  1.00  0.00     0.134 A 
ATOM     65  C   UNL A   1      45.614  27.961  34.376  1.00  0.00     0.134 A 
ATOM     66  F   UNL A   1      42.939  25.574  34.957  1.00  0.00    -0.206 F 
ATOM     67  C   UNL A   1      45.201  25.494  35.583  1.00  0.00     0.040 A 
ATOM     68  C   UNL A   1      46.680  27.300  34.988  1.00  0.00     0.040 A 
ATOM     69  F   UNL A   1      45.856  29.150  33.804  1.00  0.00    -0.206 F 
ATOM     70  C   UNL A   1      46.474  26.063  35.596  1.00  0.00     0.006 A 
ENDBRANCH  49  63
BRANCH  50  71
ATOM     71  C   UNL A   1      36.844  31.514  29.193  1.00  0.00     0.057 A 
ATOM     72  C   UNL A   1      35.733  30.733  28.856  1.00  0.00     0.134 A 
ATOM     73  C   UNL A   1      36.847  32.849  28.770  1.00  0.00     0.134 A 
ATOM     74  F   UNL A   1      35.684  29.441  29.211  1.00  0.00    -0.206 F 
ATOM     75  C   UNL A   1      34.678  31.249  28.101  1.00  0.00     0.040 A 
ATOM     76  C   UNL A   1      35.787  33.386  28.036  1.00  0.00     0.040 A 
ATOM     77  F   UNL A   1      37.882  33.650  29.060  1.00  0.00    -0.206 F 
ATOM     78  C   UNL A   1      34.703  32.581  27.691  1.00  0.00     0.006 A 
ENDBRANCH  50  71
BRANCH  62  79
ATOM     79  C   UNL A   1      39.061  32.085  35.762  1.00  0.00     0.057 A 
ATOM     80  C   UNL A   1      38.232  31.519  36.739  1.00  0.00     0.134 A 
ATOM     81  C   UNL A   1      39.453  33.419  35.938  1.00  0.00     0.134 A 
ATOM     82  F   UNL A   1      37.812  30.251  36.623  1.00  0.00    -0.206 F 
ATOM     83  C   UNL A   1      37.792  32.259  37.838  1.00  0.00     0.040 A 
ATOM     84  C   UNL A   1      39.039  34.161  37.044  1.00  0.00     0.040 A 
ATOM     85  F   UNL A   1      40.254  34.016  35.043  1.00  0.00    -0.206 F 
ATOM     86  C   UNL A   1      38.202  33.583  37.996  1.00  0.00     0.006 A 
ENDBRANCH  62  79
ENDBRANCH  36  37
ENDBRANCH  29  31
ENDBRANCH  28  29
ENDBRANCH  27  28
ENDBRANCH  26  27
ENDBRANCH  25  26
ENDBRANCH   1  25
TORSDOF 17
ENDMDL
MODEL 3
REMARK VINA RESULT:     -10.9      5.087      9.223
REMARK SMILES CC(C)c1noc(C[N@@H+]2[C@@H](C(=O)OCCOCCOC(=O)c3ccc(-c4c5nc(c(-c6c(F)cccc6F)c6ccc([nH]6)c(-c6c(F)cccc6F)c6nc(c(-c7c(F)cccc7F)c7ccc4[nH]7)C=C6)C=C5)cc3)C[C@H]3CCCC[C@@H]32)n1
REMARK SMILES IDX 15 1 14 2 13 3 11 4 12 5 10 6 9 7 82 8 76 10 77 11 81 12
REMARK SMILES IDX 78 13 80 14 79 15 8 16 7 17 4 18 5 19 83 20 6 21 2 22 1 23
REMARK SMILES IDX 3 24 16 25 17 26 18 27 19 28 20 29 21 30 22 31 23 32 75 33
REMARK SMILES IDX 24 34 74 35 25 36 26 37 27 38 68 39 28 40 73 41 67 42 69 43
REMARK SMILES IDX 29 44 72 45 66 46 65 47 30 49 56 50 39 51 55 52 40 53 43 54
REMARK SMILES IDX 54 55 70 56 41 57 42 58 53 60 71 61 44 62 31 63 32 64 37 65
REMARK SMILES IDX 33 66 34 67 36 68 38 69 35 70 57 71 58 72 63 73 59 74 60 75
REMARK SMILES IDX 62 76 64 77 61 78 45 79 46 80 51 81 47 82 48 83 50 84 52 85
REMARK SMILES IDX 49 86
REMARK H PARENT 9 9 69 48 43 59
REMARK Flexibility Score: inf
ROOT
ATOM      1  C   UNL A   1      38.085  22.308  25.705  1.00  0.00     0.202 C 
ENDROOT
BRANCH   1   2
ATOM      2  C   UNL A   1      37.063  23.417  25.957  1.00  0.00     0.261 C 
BRANCH   2   3
ATOM      3  O   UNL A   1      35.773  22.863  26.265  1.00  0.00    -0.459 OA
BRANCH   3   4
ATOM      4  C   UNL A   1      34.715  23.624  25.859  1.00  0.00     0.365 C 
ATOM      5  O   UNL A   1      34.777  24.825  25.626  1.00  0.00    -0.245 OA
BRANCH   4   6
ATOM      6  C   UNL A   1      33.430  22.766  25.752  1.00  0.00     0.296 C 
ATOM      7  N   UNL A   1      32.862  22.886  24.375  1.00  0.00    -0.313 N 
ATOM      8  C   UNL A   1      32.044  24.106  24.433  1.00  0.00     0.188 C 
ATOM      9  H   UNL A   1      33.580  22.979  23.657  1.00  0.00     0.349 HD
ATOM     10  C   UNL A   1      32.405  23.376  26.716  1.00  0.00     0.087 C 
ATOM     11  C   UNL A   1      31.387  24.060  25.814  1.00  0.00     0.054 C 
ATOM     12  C   UNL A   1      31.024  24.487  23.365  1.00  0.00     0.065 C 
ATOM     13  C   UNL A   1      30.934  25.455  26.208  1.00  0.00     0.010 C 
ATOM     14  C   UNL A   1      30.407  25.852  23.724  1.00  0.00     0.006 C 
ATOM     15  C   UNL A   1      29.914  25.954  25.177  1.00  0.00     0.001 C 
BRANCH   7  16
ATOM     16  C   UNL A   1      32.222  21.662  23.852  1.00  0.00     0.364 C 
BRANCH  16  17
ATOM     17  C   UNL A   1      32.676  20.345  24.387  1.00  0.00     0.281 A 
ATOM     18  C   UNL A   1      33.514  18.458  24.721  1.00  0.00     0.174 A 
ATOM     19  N   UNL A   1      32.439  18.461  25.523  1.00  0.00    -0.062 NA
ATOM     20  N   UNL A   1      33.720  19.626  24.038  1.00  0.00    -0.191 NA
ATOM     21  O   UNL A   1      31.881  19.727  25.307  1.00  0.00    -0.333 OA
BRANCH  18  22
ATOM     22  C   UNL A   1      34.343  17.240  24.477  1.00  0.00     0.055 C 
ATOM     23  C   UNL A   1      33.958  16.122  25.451  1.00  0.00     0.016 C 
ATOM     24  C   UNL A   1      34.210  16.735  23.038  1.00  0.00     0.016 C 
ENDBRANCH  18  22
ENDBRANCH  16  17
ENDBRANCH   7  16
ENDBRANCH   4   6
ENDBRANCH   3   4
ENDBRANCH   2   3
ENDBRANCH   1   2
BRANCH   1  25
ATOM     25  O   UNL A   1      37.708  21.303  24.767  1.00  0.00    -0.374 OA
BRANCH  25  26
ATOM     26  C   UNL A   1      38.224  19.985  24.967  1.00  0.00     0.202 C 
BRANCH  26  27
ATOM     27  C   UNL A   1      39.366  19.850  25.981  1.00  0.00     0.261 C 
BRANCH  27  28
ATOM     28  O   UNL A   1      40.362  18.904  25.550  1.00  0.00    -0.460 OA
BRANCH  28  29
ATOM     29  C   UNL A   1      41.595  19.098  26.075  1.00  0.00     0.338 C 
ATOM     30  O   UNL A   1      42.538  18.317  26.063  1.00  0.00    -0.246 OA
BRANCH  29  31
ATOM     31  C   UNL A   1      41.740  20.490  26.536  1.00  0.00     0.060 A 
ATOM     32  C   UNL A   1      41.952  21.476  25.562  1.00  0.00     0.016 A 
ATOM     33  C   UNL A   1      41.755  20.820  27.892  1.00  0.00     0.016 A 
ATOM     34  C   UNL A   1      42.233  22.786  25.942  1.00  0.00     0.010 A 
ATOM     35  C   UNL A   1      42.049  22.134  28.273  1.00  0.00     0.010 A 
ATOM     36  C   UNL A   1      42.326  23.113  27.301  1.00  0.00    -0.014 A 
BRANCH  36  37
ATOM     37  C   UNL A   1      42.864  24.437  27.696  1.00  0.00     0.031 A 
ATOM     38  C   UNL A   1      41.901  25.526  28.088  1.00  0.00     0.074 A 
ATOM     39  C   UNL A   1      44.190  24.661  27.731  1.00  0.00     0.049 A 
ATOM     40  N   UNL A   1      42.145  26.763  28.435  1.00  0.00    -0.248 NA
ATOM     41  C   UNL A   1      40.472  25.173  28.084  1.00  0.00     0.031 C 
ATOM     42  C   UNL A   1      45.222  23.680  27.405  1.00  0.00     0.029 A 
ATOM     43  N   UNL A   1      44.891  25.798  28.047  1.00  0.00    -0.354 N 
ATOM     44  C   UNL A   1      40.904  27.340  28.676  1.00  0.00     0.074 A 
ATOM     45  C   UNL A   1      39.907  26.324  28.420  1.00  0.00     0.031 C 
ATOM     46  C   UNL A   1      46.429  24.263  27.522  1.00  0.00     0.029 A 
ATOM     47  C   UNL A   1      46.250  25.662  27.904  1.00  0.00     0.049 A 
ATOM     48  H   UNL A   1      44.461  26.630  28.349  1.00  0.00     0.167 HD
ATOM     49  C   UNL A   1      40.623  28.600  29.079  1.00  0.00     0.037 A 
ATOM     50  C   UNL A   1      47.234  26.572  28.043  1.00  0.00     0.037 A 
ATOM     51  C   UNL A   1      41.615  29.604  29.355  1.00  0.00     0.049 A 
ATOM     52  C   UNL A   1      46.887  27.982  28.448  1.00  0.00     0.074 A 
ATOM     53  C   UNL A   1      41.428  30.895  29.821  1.00  0.00     0.029 A 
ATOM     54  N   UNL A   1      42.980  29.433  29.186  1.00  0.00    -0.354 N 
ATOM     55  N   UNL A   1      45.714  28.500  28.723  1.00  0.00    -0.248 NA
ATOM     56  C   UNL A   1      48.003  28.933  28.564  1.00  0.00     0.031 C 
ATOM     57  C   UNL A   1      42.677  31.520  29.889  1.00  0.00     0.029 A 
ATOM     58  C   UNL A   1      43.645  30.603  29.509  1.00  0.00     0.049 A 
ATOM     59  H   UNL A   1      43.411  28.602  28.882  1.00  0.00     0.167 HD
ATOM     60  C   UNL A   1      45.954  29.823  29.074  1.00  0.00     0.074 A 
ATOM     61  C   UNL A   1      47.385  30.027  28.987  1.00  0.00     0.031 C 
ATOM     62  C   UNL A   1      45.070  30.784  29.435  1.00  0.00     0.037 A 
BRANCH  49  63
ATOM     63  C   UNL A   1      39.181  28.982  29.227  1.00  0.00     0.057 A 
ATOM     64  C   UNL A   1      38.424  29.449  28.146  1.00  0.00     0.134 A 
ATOM     65  C   UNL A   1      38.527  28.815  30.453  1.00  0.00     0.134 A 
ATOM     66  F   UNL A   1      38.996  29.642  26.948  1.00  0.00    -0.206 F 
ATOM     67  C   UNL A   1      37.066  29.742  28.282  1.00  0.00     0.040 A 
ATOM     68  C   UNL A   1      37.165  29.085  30.597  1.00  0.00     0.040 A 
ATOM     69  F   UNL A   1      39.197  28.368  31.527  1.00  0.00    -0.206 F 
ATOM     70  C   UNL A   1      36.431  29.552  29.508  1.00  0.00     0.006 A 
ENDBRANCH  49  63
BRANCH  50  71
ATOM     71  C   UNL A   1      48.646  26.200  27.774  1.00  0.00     0.057 A 
ATOM     72  C   UNL A   1      49.495  25.772  28.800  1.00  0.00     0.134 A 
ATOM     73  C   UNL A   1      49.193  26.315  26.490  1.00  0.00     0.134 A 
ATOM     74  F   UNL A   1      49.036  25.667  30.056  1.00  0.00    -0.206 F 
ATOM     75  C   UNL A   1      50.844  25.498  28.568  1.00  0.00     0.040 A 
ATOM     76  C   UNL A   1      50.534  26.019  26.237  1.00  0.00     0.040 A 
ATOM     77  F   UNL A   1      48.432  26.720  25.463  1.00  0.00    -0.206 F 
ATOM     78  C   UNL A   1      51.366  25.620  27.281  1.00  0.00     0.006 A 
ENDBRANCH  50  71
BRANCH  62  79
ATOM     79  C   UNL A   1      45.624  32.128  29.805  1.00  0.00     0.057 A 
ATOM     80  C   UNL A   1      46.035  32.424  31.110  1.00  0.00     0.134 A 
ATOM     81  C   UNL A   1      45.789  33.123  28.832  1.00  0.00     0.134 A 
ATOM     82  F   UNL A   1      45.893  31.519  32.089  1.00  0.00    -0.206 F 
ATOM     83  C   UNL A   1      46.572  33.670  31.439  1.00  0.00     0.040 A 
ATOM     84  C   UNL A   1      46.346  34.363  29.144  1.00  0.00     0.040 A 
ATOM     85  F   UNL A   1      45.425  32.899  27.561  1.00  0.00    -0.206 F 
ATOM     86  C   UNL A   1      46.735  34.642  30.452  1.00  0.00     0.006 A 
ENDBRANCH  62  79
ENDBRANCH  36  37
ENDBRANCH  29  31
ENDBRANCH  28  29
ENDBRANCH  27  28
ENDBRANCH  26  27
ENDBRANCH  25  26
ENDBRANCH   1  25
TORSDOF 17
ENDMDL
