MODEL 1
REMARK VINA RESULT:     -10.7      0.000      0.000
REMARK SMILES CCCOC(=O)c1c(NC(=O)[C@@H]2CC=CC[C@H]2C(=O)OCCOCCOC(=O)c2ccc(-c3c4nc(c(-c5c(F)cccc5F)c5ccc([nH]5)c(-c5c(F)cccc5F)c5nc(c(-c6c(F)cccc6F)c6ccc3[nH]6)C=C5)C=C4)cc2)sc2c1CCCC2
REMARK SMILES IDX 21 1 20 2 18 3 19 4 17 5 12 6 13 7 14 8 16 9 15 10 10 11
REMARK SMILES IDX 9 12 11 14 8 15 7 16 85 17 83 18 84 19 86 20 89 21 87 22
REMARK SMILES IDX 88 23 5 24 6 25 4 26 3 27 2 28 1 29 22 30 23 31 24 32 25 33
REMARK SMILES IDX 26 34 27 35 28 36 29 37 30 38 82 39 31 40 81 41 32 42 33 43
REMARK SMILES IDX 34 44 75 45 35 46 80 47 74 48 76 49 36 50 79 51 73 52 72 53
REMARK SMILES IDX 37 55 63 56 46 57 62 58 47 59 50 60 61 61 77 62 48 63 49 64
REMARK SMILES IDX 60 66 78 67 51 68 38 69 39 70 44 71 40 72 41 73 43 74 45 75
REMARK SMILES IDX 42 76 64 77 65 78 70 79 66 80 67 81 69 82 71 83 68 84 52 85
REMARK SMILES IDX 53 86 58 87 54 88 55 89 57 90 59 91 56 92
REMARK H PARENT 9 13 76 54 50 65
REMARK Flexibility Score: inf
ROOT
ATOM      1  C   UNL A   1      36.329  21.120  25.550  1.00  0.00     0.261 C 
ENDROOT
BRANCH   1   2
ATOM      2  O   UNL A   1      35.797  22.268  26.237  1.00  0.00    -0.463 OA
BRANCH   2   3
ATOM      3  C   UNL A   1      35.290  23.267  25.460  1.00  0.00     0.310 C 
ATOM      4  O   UNL A   1      35.637  24.440  25.538  1.00  0.00    -0.252 OA
BRANCH   3   5
ATOM      5  C   UNL A   1      34.173  22.821  24.516  1.00  0.00     0.116 C 
ATOM      6  C   UNL A   1      32.784  23.392  24.785  1.00  0.00     0.097 C 
ATOM      7  C   UNL A   1      31.739  22.715  23.892  1.00  0.00     0.041 C 
ATOM      8  C   UNL A   1      32.129  22.874  22.452  1.00  0.00    -0.030 C 
ATOM      9  C   UNL A   1      34.538  23.214  23.068  1.00  0.00     0.043 C 
ATOM     10  C   UNL A   1      33.396  23.124  22.085  1.00  0.00    -0.030 C 
BRANCH   6  11
ATOM     11  C   UNL A   1      32.361  23.344  26.215  1.00  0.00     0.229 C 
ATOM     12  N   UNL A   1      31.914  24.475  26.828  1.00  0.00    -0.317 N 
ATOM     13  H   UNL A   1      31.810  24.405  27.805  1.00  0.00     0.170 HD
ATOM     14  O   UNL A   1      32.333  22.274  26.828  1.00  0.00    -0.274 OA
BRANCH  12  15
ATOM     15  C   UNL A   1      31.585  25.704  26.294  1.00  0.00     0.110 A 
ATOM     16  C   UNL A   1      32.125  26.965  26.039  1.00  0.00     0.098 A 
ATOM     17  C   UNL A   1      31.243  27.667  25.095  1.00  0.00    -0.017 A 
ATOM     18  S   UNL A   1      30.002  25.522  25.637  1.00  0.00    -0.122 S 
ATOM     19  C   UNL A   1      30.160  26.912  24.701  1.00  0.00     0.011 A 
ATOM     20  C   UNL A   1      31.482  29.034  24.502  1.00  0.00     0.038 C 
ATOM     21  C   UNL A   1      29.175  27.273  23.631  1.00  0.00     0.047 C 
ATOM     22  C   UNL A   1      30.242  29.567  23.774  1.00  0.00     0.005 C 
ATOM     23  C   UNL A   1      29.655  28.502  22.842  1.00  0.00     0.006 C 
BRANCH  16  24
ATOM     24  C   UNL A   1      33.392  27.624  26.446  1.00  0.00     0.341 C 
ATOM     25  O   UNL A   1      34.387  27.531  25.727  1.00  0.00    -0.246 OA
BRANCH  24  26
ATOM     26  O   UNL A   1      33.405  28.406  27.592  1.00  0.00    -0.462 OA
BRANCH  26  27
ATOM     27  C   UNL A   1      34.581  29.259  27.607  1.00  0.00     0.233 C 
BRANCH  27  28
ATOM     28  C   UNL A   1      34.370  30.743  27.270  1.00  0.00     0.038 C 
ATOM     29  C   UNL A   1      32.913  31.192  27.265  1.00  0.00     0.007 C 
ENDBRANCH  27  28
ENDBRANCH  26  27
ENDBRANCH  24  26
ENDBRANCH  16  24
ENDBRANCH  12  15
ENDBRANCH   6  11
ENDBRANCH   3   5
ENDBRANCH   2   3
ENDBRANCH   1   2
BRANCH   1  30
ATOM     30  C   UNL A   1      37.774  21.209  25.055  1.00  0.00     0.202 C 
BRANCH  30  31
ATOM     31  O   UNL A   1      38.783  20.554  25.807  1.00  0.00    -0.374 OA
BRANCH  31  32
ATOM     32  C   UNL A   1      40.012  21.255  25.971  1.00  0.00     0.202 C 
BRANCH  32  33
ATOM     33  C   UNL A   1      40.018  22.419  26.975  1.00  0.00     0.261 C 
BRANCH  33  34
ATOM     34  O   UNL A   1      40.204  23.717  26.371  1.00  0.00    -0.460 OA
BRANCH  34  35
ATOM     35  C   UNL A   1      41.223  24.434  26.910  1.00  0.00     0.338 C 
ATOM     36  O   UNL A   1      42.419  24.236  26.767  1.00  0.00    -0.246 OA
BRANCH  35  37
ATOM     37  C   UNL A   1      40.737  25.620  27.644  1.00  0.00     0.060 A 
ATOM     38  C   UNL A   1      41.535  26.770  27.592  1.00  0.00     0.016 A 
ATOM     39  C   UNL A   1      39.634  25.567  28.498  1.00  0.00     0.016 A 
ATOM     40  C   UNL A   1      41.288  27.834  28.456  1.00  0.00     0.010 A 
ATOM     41  C   UNL A   1      39.382  26.641  29.364  1.00  0.00     0.010 A 
ATOM     42  C   UNL A   1      40.243  27.754  29.385  1.00  0.00    -0.014 A 
BRANCH  42  43
ATOM     43  C   UNL A   1      40.177  28.749  30.487  1.00  0.00     0.031 A 
ATOM     44  C   UNL A   1      39.155  29.855  30.414  1.00  0.00     0.074 A 
ATOM     45  C   UNL A   1      40.967  28.637  31.568  1.00  0.00     0.049 A 
ATOM     46  N   UNL A   1      38.920  30.827  31.259  1.00  0.00    -0.248 NA
ATOM     47  C   UNL A   1      38.280  29.864  29.230  1.00  0.00     0.031 C 
ATOM     48  C   UNL A   1      41.958  27.586  31.783  1.00  0.00     0.029 A 
ATOM     49  N   UNL A   1      41.056  29.420  32.693  1.00  0.00    -0.354 N 
ATOM     50  C   UNL A   1      37.878  31.564  30.708  1.00  0.00     0.074 A 
ATOM     51  C   UNL A   1      37.544  30.945  29.444  1.00  0.00     0.031 C 
ATOM     52  C   UNL A   1      42.562  27.792  32.967  1.00  0.00     0.029 A 
ATOM     53  C   UNL A   1      42.019  29.005  33.578  1.00  0.00     0.049 A 
ATOM     54  H   UNL A   1      40.482  30.205  32.850  1.00  0.00     0.167 HD
ATOM     55  C   UNL A   1      37.246  32.650  31.215  1.00  0.00     0.037 A 
ATOM     56  C   UNL A   1      42.429  29.551  34.740  1.00  0.00     0.037 A 
ATOM     57  C   UNL A   1      37.571  33.262  32.476  1.00  0.00     0.049 A 
ATOM     58  C   UNL A   1      41.760  30.800  35.249  1.00  0.00     0.074 A 
ATOM     59  C   UNL A   1      36.977  34.356  33.084  1.00  0.00     0.029 A 
ATOM     60  N   UNL A   1      38.581  32.835  33.323  1.00  0.00    -0.354 N 
ATOM     61  N   UNL A   1      40.764  31.476  34.728  1.00  0.00    -0.248 NA
ATOM     62  C   UNL A   1      42.271  31.360  36.508  1.00  0.00     0.031 C 
ATOM     63  C   UNL A   1      37.660  34.618  34.276  1.00  0.00     0.029 A 
ATOM     64  C   UNL A   1      38.647  33.659  34.434  1.00  0.00     0.049 A 
ATOM     65  H   UNL A   1      39.167  32.060  33.159  1.00  0.00     0.167 HD
ATOM     66  C   UNL A   1      40.513  32.523  35.606  1.00  0.00     0.074 A 
ATOM     67  C   UNL A   1      41.453  32.387  36.698  1.00  0.00     0.031 C 
ATOM     68  C   UNL A   1      39.586  33.507  35.517  1.00  0.00     0.037 A 
BRANCH  55  69
ATOM     69  C   UNL A   1      36.153  33.263  30.390  1.00  0.00     0.057 A 
ATOM     70  C   UNL A   1      34.799  33.098  30.711  1.00  0.00     0.134 A 
ATOM     71  C   UNL A   1      36.460  34.058  29.277  1.00  0.00     0.134 A 
ATOM     72  F   UNL A   1      34.437  32.339  31.757  1.00  0.00    -0.206 F 
ATOM     73  C   UNL A   1      33.790  33.683  29.943  1.00  0.00     0.040 A 
ATOM     74  C   UNL A   1      35.461  34.668  28.516  1.00  0.00     0.040 A 
ATOM     75  F   UNL A   1      37.737  34.261  28.918  1.00  0.00    -0.206 F 
ATOM     76  C   UNL A   1      34.121  34.476  28.846  1.00  0.00     0.006 A 
ENDBRANCH  55  69
BRANCH  56  77
ATOM     77  C   UNL A   1      43.543  28.928  35.498  1.00  0.00     0.057 A 
ATOM     78  C   UNL A   1      43.304  27.956  36.477  1.00  0.00     0.134 A 
ATOM     79  C   UNL A   1      44.873  29.302  35.271  1.00  0.00     0.134 A 
ATOM     80  F   UNL A   1      42.050  27.573  36.756  1.00  0.00    -0.206 F 
ATOM     81  C   UNL A   1      44.347  27.388  37.211  1.00  0.00     0.040 A 
ATOM     82  C   UNL A   1      45.927  28.725  35.981  1.00  0.00     0.040 A 
ATOM     83  F   UNL A   1      45.169  30.228  34.347  1.00  0.00    -0.206 F 
ATOM     84  C   UNL A   1      45.664  27.768  36.960  1.00  0.00     0.006 A 
ENDBRANCH  56  77
BRANCH  68  85
ATOM     85  C   UNL A   1      39.520  34.497  36.643  1.00  0.00     0.057 A 
ATOM     86  C   UNL A   1      38.838  34.217  37.833  1.00  0.00     0.134 A 
ATOM     87  C   UNL A   1      40.186  35.726  36.552  1.00  0.00     0.134 A 
ATOM     88  F   UNL A   1      38.171  33.062  37.979  1.00  0.00    -0.206 F 
ATOM     89  C   UNL A   1      38.806  35.132  38.887  1.00  0.00     0.040 A 
ATOM     90  C   UNL A   1      40.181  36.638  37.608  1.00  0.00     0.040 A 
ATOM     91  F   UNL A   1      40.865  36.052  35.443  1.00  0.00    -0.206 F 
ATOM     92  C   UNL A   1      39.485  36.344  38.778  1.00  0.00     0.006 A 
ENDBRANCH  68  85
ENDBRANCH  42  43
ENDBRANCH  35  37
ENDBRANCH  34  35
ENDBRANCH  33  34
ENDBRANCH  32  33
ENDBRANCH  31  32
ENDBRANCH  30  31
ENDBRANCH   1  30
TORSDOF 20
ENDMDL
MODEL 2
REMARK VINA RESULT:     -10.4      0.858      6.011
REMARK SMILES CCCOC(=O)c1c(NC(=O)[C@@H]2CC=CC[C@H]2C(=O)OCCOCCOC(=O)c2ccc(-c3c4nc(c(-c5c(F)cccc5F)c5ccc([nH]5)c(-c5c(F)cccc5F)c5nc(c(-c6c(F)cccc6F)c6ccc3[nH]6)C=C5)C=C4)cc2)sc2c1CCCC2
REMARK SMILES IDX 21 1 20 2 18 3 19 4 17 5 12 6 13 7 14 8 16 9 15 10 10 11
REMARK SMILES IDX 9 12 11 14 8 15 7 16 85 17 83 18 84 19 86 20 89 21 87 22
REMARK SMILES IDX 88 23 5 24 6 25 4 26 3 27 2 28 1 29 22 30 23 31 24 32 25 33
REMARK SMILES IDX 26 34 27 35 28 36 29 37 30 38 82 39 31 40 81 41 32 42 33 43
REMARK SMILES IDX 34 44 75 45 35 46 80 47 74 48 76 49 36 50 79 51 73 52 72 53
REMARK SMILES IDX 37 55 63 56 46 57 62 58 47 59 50 60 61 61 77 62 48 63 49 64
REMARK SMILES IDX 60 66 78 67 51 68 38 69 39 70 44 71 40 72 41 73 43 74 45 75
REMARK SMILES IDX 42 76 64 77 65 78 70 79 66 80 67 81 69 82 71 83 68 84 52 85
REMARK SMILES IDX 53 86 58 87 54 88 55 89 57 90 59 91 56 92
REMARK H PARENT 9 13 76 54 50 65
REMARK Flexibility Score: inf
ROOT
ATOM      1  C   UNL A   1      37.542  23.044  25.722  1.00  0.00     0.261 C 
ENDROOT
BRANCH   1   2
ATOM      2  O   UNL A   1      36.160  22.762  26.013  1.00  0.00    -0.463 OA
BRANCH   2   3
ATOM      3  C   UNL A   1      35.238  23.637  25.520  1.00  0.00     0.310 C 
ATOM      4  O   UNL A   1      35.233  24.838  25.767  1.00  0.00    -0.252 OA
BRANCH   3   5
ATOM      5  C   UNL A   1      34.139  22.984  24.682  1.00  0.00     0.116 C 
ATOM      6  C   UNL A   1      32.709  23.440  24.959  1.00  0.00     0.097 C 
ATOM      7  C   UNL A   1      31.707  22.571  24.192  1.00  0.00     0.041 C 
ATOM      8  C   UNL A   1      32.023  22.614  22.725  1.00  0.00    -0.030 C 
ATOM      9  C   UNL A   1      34.406  23.255  23.185  1.00  0.00     0.043 C 
ATOM     10  C   UNL A   1      33.243  22.948  22.273  1.00  0.00    -0.030 C 
BRANCH   6  11
ATOM     11  C   UNL A   1      32.348  23.503  26.405  1.00  0.00     0.229 C 
ATOM     12  N   UNL A   1      31.867  24.662  26.934  1.00  0.00    -0.317 N 
ATOM     13  H   UNL A   1      31.806  24.678  27.916  1.00  0.00     0.170 HD
ATOM     14  O   UNL A   1      32.402  22.494  27.112  1.00  0.00    -0.274 OA
BRANCH  12  15
ATOM     15  C   UNL A   1      31.451  25.819  26.307  1.00  0.00     0.110 A 
ATOM     16  C   UNL A   1      31.893  27.099  25.969  1.00  0.00     0.098 A 
ATOM     17  C   UNL A   1      30.977  27.657  24.963  1.00  0.00    -0.017 A 
ATOM     18  S   UNL A   1      29.901  25.462  25.642  1.00  0.00    -0.122 S 
ATOM     19  C   UNL A   1      29.966  26.790  24.610  1.00  0.00     0.011 A 
ATOM     20  C   UNL A   1      31.117  28.993  24.276  1.00  0.00     0.038 C 
ATOM     21  C   UNL A   1      28.977  26.993  23.502  1.00  0.00     0.047 C 
ATOM     22  C   UNL A   1      29.853  29.370  23.493  1.00  0.00     0.005 C 
ATOM     23  C   UNL A   1      29.373  28.197  22.633  1.00  0.00     0.006 C 
BRANCH  16  24
ATOM     24  C   UNL A   1      33.095  27.886  26.345  1.00  0.00     0.341 C 
ATOM     25  O   UNL A   1      34.094  27.854  25.627  1.00  0.00    -0.246 OA
BRANCH  24  26
ATOM     26  O   UNL A   1      33.036  28.712  27.458  1.00  0.00    -0.462 OA
BRANCH  26  27
ATOM     27  C   UNL A   1      32.825  30.091  27.051  1.00  0.00     0.233 C 
BRANCH  27  28
ATOM     28  C   UNL A   1      33.786  31.142  27.625  1.00  0.00     0.038 C 
ATOM     29  C   UNL A   1      35.254  30.728  27.626  1.00  0.00     0.007 C 
ENDBRANCH  27  28
ENDBRANCH  26  27
ENDBRANCH  24  26
ENDBRANCH  16  24
ENDBRANCH  12  15
ENDBRANCH   6  11
ENDBRANCH   3   5
ENDBRANCH   2   3
ENDBRANCH   1   2
BRANCH   1  30
ATOM     30  C   UNL A   1      38.520  21.869  25.768  1.00  0.00     0.202 C 
BRANCH  30  31
ATOM     31  O   UNL A   1      39.668  21.983  26.593  1.00  0.00    -0.374 OA
BRANCH  31  32
ATOM     32  C   UNL A   1      40.840  21.305  26.151  1.00  0.00     0.202 C 
BRANCH  32  33
ATOM     33  C   UNL A   1      42.134  22.131  26.077  1.00  0.00     0.261 C 
BRANCH  33  34
ATOM     34  O   UNL A   1      42.153  23.277  26.956  1.00  0.00    -0.460 OA
BRANCH  34  35
ATOM     35  C   UNL A   1      42.264  24.465  26.309  1.00  0.00     0.338 C 
ATOM     36  O   UNL A   1      42.723  24.657  25.195  1.00  0.00    -0.246 OA
BRANCH  35  37
ATOM     37  C   UNL A   1      41.642  25.568  27.069  1.00  0.00     0.060 A 
ATOM     38  C   UNL A   1      42.345  26.779  27.121  1.00  0.00     0.016 A 
ATOM     39  C   UNL A   1      40.501  25.382  27.852  1.00  0.00     0.016 A 
ATOM     40  C   UNL A   1      41.963  27.772  28.020  1.00  0.00     0.010 A 
ATOM     41  C   UNL A   1      40.113  26.384  28.753  1.00  0.00     0.010 A 
ATOM     42  C   UNL A   1      40.877  27.559  28.880  1.00  0.00    -0.014 A 
BRANCH  42  43
ATOM     43  C   UNL A   1      40.668  28.486  30.023  1.00  0.00     0.031 A 
ATOM     44  C   UNL A   1      41.551  28.360  31.238  1.00  0.00     0.074 A 
ATOM     45  C   UNL A   1      39.751  29.467  29.960  1.00  0.00     0.049 A 
ATOM     46  N   UNL A   1      41.547  29.060  32.345  1.00  0.00    -0.248 NA
ATOM     47  C   UNL A   1      42.578  27.307  31.198  1.00  0.00     0.031 C 
ATOM     48  C   UNL A   1      38.872  29.726  28.823  1.00  0.00     0.029 A 
ATOM     49  N   UNL A   1      39.412  30.431  30.877  1.00  0.00    -0.354 N 
ATOM     50  C   UNL A   1      42.563  28.529  33.132  1.00  0.00     0.074 A 
ATOM     51  C   UNL A   1      43.143  27.431  32.390  1.00  0.00     0.031 C 
ATOM     52  C   UNL A   1      38.086  30.778  29.111  1.00  0.00     0.029 A 
ATOM     53  C   UNL A   1      38.389  31.248  30.464  1.00  0.00     0.049 A 
ATOM     54  H   UNL A   1      39.861  30.528  31.748  1.00  0.00     0.167 HD
ATOM     55  C   UNL A   1      42.983  28.927  34.357  1.00  0.00     0.037 A 
ATOM     56  C   UNL A   1      37.757  32.248  31.109  1.00  0.00     0.037 A 
ATOM     57  C   UNL A   1      42.413  30.024  35.093  1.00  0.00     0.049 A 
ATOM     58  C   UNL A   1      38.195  32.626  32.498  1.00  0.00     0.074 A 
ATOM     59  C   UNL A   1      42.781  30.515  36.335  1.00  0.00     0.029 A 
ATOM     60  N   UNL A   1      41.350  30.799  34.657  1.00  0.00    -0.354 N 
ATOM     61  N   UNL A   1      39.167  32.128  33.224  1.00  0.00    -0.248 NA
ATOM     62  C   UNL A   1      37.448  33.707  33.158  1.00  0.00     0.031 C 
ATOM     63  C   UNL A   1      41.910  31.557  36.668  1.00  0.00     0.029 A 
ATOM     64  C   UNL A   1      41.030  31.747  35.614  1.00  0.00     0.049 A 
ATOM     65  H   UNL A   1      40.890  30.692  33.793  1.00  0.00     0.167 HD
ATOM     66  C   UNL A   1      39.165  32.850  34.411  1.00  0.00     0.074 A 
ATOM     67  C   UNL A   1      38.103  33.827  34.305  1.00  0.00     0.031 C 
ATOM     68  C   UNL A   1      39.973  32.717  35.491  1.00  0.00     0.037 A 
BRANCH  55  69
ATOM     69  C   UNL A   1      44.102  28.153  34.991  1.00  0.00     0.057 A 
ATOM     70  C   UNL A   1      45.444  28.523  34.830  1.00  0.00     0.134 A 
ATOM     71  C   UNL A   1      43.831  27.042  35.801  1.00  0.00     0.134 A 
ATOM     72  F   UNL A   1      45.772  29.570  34.058  1.00  0.00    -0.206 F 
ATOM     73  C   UNL A   1      46.477  27.803  35.434  1.00  0.00     0.040 A 
ATOM     74  C   UNL A   1      44.853  26.329  36.429  1.00  0.00     0.040 A 
ATOM     75  F   UNL A   1      42.567  26.638  36.001  1.00  0.00    -0.206 F 
ATOM     76  C   UNL A   1      46.182  26.706  36.241  1.00  0.00     0.006 A 
ENDBRANCH  55  69
BRANCH  56  77
ATOM     77  C   UNL A   1      36.628  32.955  30.453  1.00  0.00     0.057 A 
ATOM     78  C   UNL A   1      35.302  32.726  30.841  1.00  0.00     0.134 A 
ATOM     79  C   UNL A   1      36.848  33.865  29.413  1.00  0.00     0.134 A 
ATOM     80  F   UNL A   1      35.026  31.847  31.815  1.00  0.00    -0.206 F 
ATOM     81  C   UNL A   1      34.236  33.368  30.209  1.00  0.00     0.040 A 
ATOM     82  C   UNL A   1      35.793  34.532  28.788  1.00  0.00     0.040 A 
ATOM     83  F   UNL A   1      38.095  34.128  28.994  1.00  0.00    -0.206 F 
ATOM     84  C   UNL A   1      34.480  34.279  29.182  1.00  0.00     0.006 A 
ENDBRANCH  56  77
BRANCH  68  85
ATOM     85  C   UNL A   1      39.761  33.668  36.633  1.00  0.00     0.057 A 
ATOM     86  C   UNL A   1      40.382  34.922  36.674  1.00  0.00     0.134 A 
ATOM     87  C   UNL A   1      38.888  33.344  37.680  1.00  0.00     0.134 A 
ATOM     88  F   UNL A   1      41.238  35.289  35.708  1.00  0.00    -0.206 F 
ATOM     89  C   UNL A   1      40.158  35.813  37.725  1.00  0.00     0.040 A 
ATOM     90  C   UNL A   1      38.636  34.235  38.722  1.00  0.00     0.040 A 
ATOM     91  F   UNL A   1      38.253  32.162  37.695  1.00  0.00    -0.206 F 
ATOM     92  C   UNL A   1      39.276  35.473  38.750  1.00  0.00     0.006 A 
ENDBRANCH  68  85
ENDBRANCH  42  43
ENDBRANCH  35  37
ENDBRANCH  34  35
ENDBRANCH  33  34
ENDBRANCH  32  33
ENDBRANCH  31  32
ENDBRANCH  30  31
ENDBRANCH   1  30
TORSDOF 20
ENDMDL
MODEL 3
REMARK VINA RESULT:     -10.3      4.220      8.049
REMARK SMILES CCCOC(=O)c1c(NC(=O)[C@@H]2CC=CC[C@H]2C(=O)OCCOCCOC(=O)c2ccc(-c3c4nc(c(-c5c(F)cccc5F)c5ccc([nH]5)c(-c5c(F)cccc5F)c5nc(c(-c6c(F)cccc6F)c6ccc3[nH]6)C=C5)C=C4)cc2)sc2c1CCCC2
REMARK SMILES IDX 21 1 20 2 18 3 19 4 17 5 12 6 13 7 14 8 16 9 15 10 10 11
REMARK SMILES IDX 9 12 11 14 8 15 7 16 85 17 83 18 84 19 86 20 89 21 87 22
REMARK SMILES IDX 88 23 5 24 6 25 4 26 3 27 2 28 1 29 22 30 23 31 24 32 25 33
REMARK SMILES IDX 26 34 27 35 28 36 29 37 30 38 82 39 31 40 81 41 32 42 33 43
REMARK SMILES IDX 34 44 75 45 35 46 80 47 74 48 76 49 36 50 79 51 73 52 72 53
REMARK SMILES IDX 37 55 63 56 46 57 62 58 47 59 50 60 61 61 77 62 48 63 49 64
REMARK SMILES IDX 60 66 78 67 51 68 38 69 39 70 44 71 40 72 41 73 43 74 45 75
REMARK SMILES IDX 42 76 64 77 65 78 70 79 66 80 67 81 69 82 71 83 68 84 52 85
REMARK SMILES IDX 53 86 58 87 54 88 55 89 57 90 59 91 56 92
REMARK H PARENT 9 13 76 54 50 65
REMARK Flexibility Score: inf
ROOT
ATOM      1  C   UNL A   1      35.772  23.671  25.248  1.00  0.00     0.261 C 
ENDROOT
BRANCH   1   2
ATOM      2  O   UNL A   1      35.336  24.514  24.164  1.00  0.00    -0.463 OA
BRANCH   2   3
ATOM      3  C   UNL A   1      34.307  24.047  23.401  1.00  0.00     0.310 C 
ATOM      4  O   UNL A   1      34.444  23.249  22.480  1.00  0.00    -0.252 OA
BRANCH   3   5
ATOM      5  C   UNL A   1      32.949  24.665  23.734  1.00  0.00     0.116 C 
ATOM      6  C   UNL A   1      32.044  24.999  22.551  1.00  0.00     0.097 C 
ATOM      7  C   UNL A   1      30.812  25.782  23.018  1.00  0.00     0.041 C 
ATOM      8  C   UNL A   1      30.081  24.993  24.064  1.00  0.00    -0.030 C 
ATOM      9  C   UNL A   1      32.154  23.699  24.639  1.00  0.00     0.043 C 
ATOM     10  C   UNL A   1      30.688  24.033  24.780  1.00  0.00    -0.030 C 
BRANCH   6  11
ATOM     11  C   UNL A   1      32.725  25.713  21.432  1.00  0.00     0.229 C 
ATOM     12  N   UNL A   1      32.869  27.067  21.479  1.00  0.00    -0.317 N 
ATOM     13  H   UNL A   1      33.177  27.482  20.642  1.00  0.00     0.170 HD
ATOM     14  O   UNL A   1      33.235  25.085  20.501  1.00  0.00    -0.274 OA
BRANCH  12  15
ATOM     15  C   UNL A   1      32.649  27.948  22.519  1.00  0.00     0.110 A 
ATOM     16  C   UNL A   1      31.668  28.783  23.055  1.00  0.00     0.098 A 
ATOM     17  C   UNL A   1      32.067  29.151  24.421  1.00  0.00    -0.017 A 
ATOM     18  S   UNL A   1      34.052  27.857  23.516  1.00  0.00    -0.122 S 
ATOM     19  C   UNL A   1      33.256  28.576  24.813  1.00  0.00     0.011 A 
ATOM     20  C   UNL A   1      31.266  29.991  25.386  1.00  0.00     0.038 C 
ATOM     21  C   UNL A   1      33.846  28.620  26.190  1.00  0.00     0.047 C 
ATOM     22  C   UNL A   1      32.092  30.399  26.613  1.00  0.00     0.005 C 
ATOM     23  C   UNL A   1      32.836  29.194  27.196  1.00  0.00     0.006 C 
BRANCH  16  24
ATOM     24  C   UNL A   1      30.345  29.239  22.558  1.00  0.00     0.341 C 
ATOM     25  O   UNL A   1      30.255  29.747  21.441  1.00  0.00    -0.246 OA
BRANCH  24  26
ATOM     26  O   UNL A   1      29.218  29.003  23.333  1.00  0.00    -0.462 OA
BRANCH  26  27
ATOM     27  C   UNL A   1      28.063  29.669  22.756  1.00  0.00     0.233 C 
BRANCH  27  28
ATOM     28  C   UNL A   1      27.559  30.933  23.469  1.00  0.00     0.038 C 
ATOM     29  C   UNL A   1      28.566  32.077  23.520  1.00  0.00     0.007 C 
ENDBRANCH  27  28
ENDBRANCH  26  27
ENDBRANCH  24  26
ENDBRANCH  16  24
ENDBRANCH  12  15
ENDBRANCH   6  11
ENDBRANCH   3   5
ENDBRANCH   2   3
ENDBRANCH   1   2
BRANCH   1  30
ATOM     30  C   UNL A   1      36.959  22.744  24.977  1.00  0.00     0.202 C 
BRANCH  30  31
ATOM     31  O   UNL A   1      36.712  21.351  24.873  1.00  0.00    -0.374 OA
BRANCH  31  32
ATOM     32  C   UNL A   1      37.849  20.496  24.928  1.00  0.00     0.202 C 
BRANCH  32  33
ATOM     33  C   UNL A   1      39.071  21.016  25.702  1.00  0.00     0.261 C 
BRANCH  33  34
ATOM     34  O   UNL A   1      39.762  20.003  26.464  1.00  0.00    -0.460 OA
BRANCH  34  35
ATOM     35  C   UNL A   1      41.084  19.899  26.171  1.00  0.00     0.338 C 
ATOM     36  O   UNL A   1      41.625  19.031  25.507  1.00  0.00    -0.246 OA
BRANCH  35  37
ATOM     37  C   UNL A   1      41.851  21.062  26.663  1.00  0.00     0.060 A 
ATOM     38  C   UNL A   1      41.819  21.307  28.042  1.00  0.00     0.016 A 
ATOM     39  C   UNL A   1      42.438  21.987  25.797  1.00  0.00     0.016 A 
ATOM     40  C   UNL A   1      42.291  22.515  28.550  1.00  0.00     0.010 A 
ATOM     41  C   UNL A   1      42.919  23.201  26.310  1.00  0.00     0.010 A 
ATOM     42  C   UNL A   1      42.795  23.492  27.681  1.00  0.00    -0.014 A 
BRANCH  42  43
ATOM     43  C   UNL A   1      43.013  24.870  28.192  1.00  0.00     0.031 A 
ATOM     44  C   UNL A   1      44.413  25.313  28.530  1.00  0.00     0.074 A 
ATOM     45  C   UNL A   1      41.992  25.739  28.294  1.00  0.00     0.049 A 
ATOM     46  N   UNL A   1      44.834  26.465  28.987  1.00  0.00    -0.248 NA
ATOM     47  C   UNL A   1      45.483  24.324  28.321  1.00  0.00     0.031 C 
ATOM     48  C   UNL A   1      40.602  25.451  27.951  1.00  0.00     0.029 A 
ATOM     49  N   UNL A   1      41.973  27.046  28.715  1.00  0.00    -0.354 N 
ATOM     50  C   UNL A   1      46.211  26.338  29.125  1.00  0.00     0.074 A 
ATOM     51  C   UNL A   1      46.553  24.989  28.732  1.00  0.00     0.031 C 
ATOM     52  C   UNL A   1      39.860  26.548  28.182  1.00  0.00     0.029 A 
ATOM     53  C   UNL A   1      40.720  27.606  28.715  1.00  0.00     0.049 A 
ATOM     54  H   UNL A   1      42.781  27.536  28.992  1.00  0.00     0.167 HD
ATOM     55  C   UNL A   1      47.112  27.265  29.531  1.00  0.00     0.037 A 
ATOM     56  C   UNL A   1      40.309  28.825  29.115  1.00  0.00     0.037 A 
ATOM     57  C   UNL A   1      46.775  28.610  29.914  1.00  0.00     0.049 A 
ATOM     58  C   UNL A   1      41.320  29.815  29.630  1.00  0.00     0.074 A 
ATOM     59  C   UNL A   1      47.620  29.629  30.324  1.00  0.00     0.029 A 
ATOM     60  N   UNL A   1      45.489  29.124  29.939  1.00  0.00    -0.354 N 
ATOM     61  N   UNL A   1      42.621  29.689  29.739  1.00  0.00    -0.248 NA
ATOM     62  C   UNL A   1      40.805  31.118  30.076  1.00  0.00     0.031 C 
ATOM     63  C   UNL A   1      46.838  30.744  30.641  1.00  0.00     0.029 A 
ATOM     64  C   UNL A   1      45.511  30.436  30.383  1.00  0.00     0.049 A 
ATOM     65  H   UNL A   1      44.677  28.630  29.680  1.00  0.00     0.167 HD
ATOM     66  C   UNL A   1      43.081  30.900  30.240  1.00  0.00     0.074 A 
ATOM     67  C   UNL A   1      41.922  31.753  30.403  1.00  0.00     0.031 C 
ATOM     68  C   UNL A   1      44.350  31.274  30.536  1.00  0.00     0.037 A 
BRANCH  55  69
ATOM     69  C   UNL A   1      48.551  26.846  29.604  1.00  0.00     0.057 A 
ATOM     70  C   UNL A   1      49.088  26.229  30.742  1.00  0.00     0.134 A 
ATOM     71  C   UNL A   1      49.404  27.032  28.508  1.00  0.00     0.134 A 
ATOM     72  F   UNL A   1      48.328  26.033  31.830  1.00  0.00    -0.206 F 
ATOM     73  C   UNL A   1      50.426  25.832  30.795  1.00  0.00     0.040 A 
ATOM     74  C   UNL A   1      50.737  26.617  28.540  1.00  0.00     0.040 A 
ATOM     75  F   UNL A   1      48.953  27.611  27.385  1.00  0.00    -0.206 F 
ATOM     76  C   UNL A   1      51.252  26.020  29.689  1.00  0.00     0.006 A 
ENDBRANCH  55  69
BRANCH  56  77
ATOM     77  C   UNL A   1      38.867  29.176  29.061  1.00  0.00     0.057 A 
ATOM     78  C   UNL A   1      38.050  29.073  30.193  1.00  0.00     0.134 A 
ATOM     79  C   UNL A   1      38.271  29.609  27.871  1.00  0.00     0.134 A 
ATOM     80  F   UNL A   1      38.559  28.640  31.356  1.00  0.00    -0.206 F 
ATOM     81  C   UNL A   1      36.688  29.375  30.139  1.00  0.00     0.040 A 
ATOM     82  C   UNL A   1      36.915  29.938  27.810  1.00  0.00     0.040 A 
ATOM     83  F   UNL A   1      38.999  29.729  26.752  1.00  0.00    -0.206 F 
ATOM     84  C   UNL A   1      36.118  29.815  28.946  1.00  0.00     0.006 A 
ENDBRANCH  56  77
BRANCH  68  85
ATOM     85  C   UNL A   1      44.558  32.673  31.037  1.00  0.00     0.057 A 
ATOM     86  C   UNL A   1      44.680  32.958  32.402  1.00  0.00     0.134 A 
ATOM     87  C   UNL A   1      44.685  33.741  30.139  1.00  0.00     0.134 A 
ATOM     88  F   UNL A   1      44.557  31.982  33.314  1.00  0.00    -0.206 F 
ATOM     89  C   UNL A   1      44.902  34.258  32.858  1.00  0.00     0.040 A 
ATOM     90  C   UNL A   1      44.931  35.041  30.581  1.00  0.00     0.040 A 
ATOM     91  F   UNL A   1      44.588  33.534  28.817  1.00  0.00    -0.206 F 
ATOM     92  C   UNL A   1      45.036  35.304  31.945  1.00  0.00     0.006 A 
ENDBRANCH  68  85
ENDBRANCH  42  43
ENDBRANCH  35  37
ENDBRANCH  34  35
ENDBRANCH  33  34
ENDBRANCH  32  33
ENDBRANCH  31  32
ENDBRANCH  30  31
ENDBRANCH   1  30
TORSDOF 20
ENDMDL
