MODEL 1
REMARK VINA RESULT:     -10.8      0.000      0.000
REMARK SMILES C[C@H]1[C@H](C(=O)OCCOCCOC(=O)c2ccc(-c3c4nc(c(-c5c(F)cccc5F)c5ccc([nH]5)c(-c5c(F)cccc5F)c5nc(c(-c6c(F)cccc6F)c6ccc3[nH]6)C=C5)C=C4)cc2)CC[N@@H+]1CC(=O)N1CCCC1
REMARK SMILES IDX 9 1 8 2 7 3 6 4 4 5 5 6 3 7 1 8 2 9 71 10 69 11 70 12 72 14
REMARK SMILES IDX 73 15 74 16 75 17 76 18 79 19 77 20 78 21 10 22 11 23 12 24
REMARK SMILES IDX 13 25 14 26 15 27 16 28 68 29 17 30 67 31 18 32 19 33 20 34
REMARK SMILES IDX 61 35 21 36 66 37 60 38 62 39 22 40 65 41 59 42 58 43 23 45
REMARK SMILES IDX 49 46 32 47 48 48 33 49 36 50 47 51 63 52 34 53 35 54 46 56
REMARK SMILES IDX 64 57 37 58 24 59 25 60 30 61 26 62 27 63 29 64 31 65 28 66
REMARK SMILES IDX 50 67 51 68 56 69 52 70 53 71 55 72 57 73 54 74 38 75 39 76
REMARK SMILES IDX 44 77 40 78 41 79 43 80 45 81 42 82
REMARK H PARENT 71 13 62 44 36 55
REMARK Flexibility Score: inf
ROOT
ATOM      1  O   UNL A   1      32.490  30.034  27.101  1.00  0.00    -0.374 OA
ENDROOT
BRANCH   1   2
ATOM      2  C   UNL A   1      32.131  28.686  26.801  1.00  0.00     0.202 C 
BRANCH   2   3
ATOM      3  C   UNL A   1      33.297  27.744  26.432  1.00  0.00     0.261 C 
BRANCH   3   4
ATOM      4  O   UNL A   1      32.907  26.379  26.147  1.00  0.00    -0.463 OA
BRANCH   4   5
ATOM      5  C   UNL A   1      33.733  25.657  25.341  1.00  0.00     0.315 C 
ATOM      6  O   UNL A   1      34.060  25.999  24.211  1.00  0.00    -0.252 OA
BRANCH   5   7
ATOM      7  C   UNL A   1      34.266  24.389  25.985  1.00  0.00     0.162 C 
ATOM      8  C   UNL A   1      32.435  22.990  27.053  1.00  0.00     0.076 C 
ATOM      9  C   UNL A   1      33.351  23.164  25.842  1.00  0.00     0.195 C 
ATOM     10  N   UNL A   1      34.253  22.005  25.731  1.00  0.00    -0.324 N 
ATOM     11  C   UNL A   1      35.618  23.903  25.479  1.00  0.00     0.083 C 
ATOM     12  C   UNL A   1      35.627  22.452  25.928  1.00  0.00     0.264 C 
ATOM     13  H   UNL A   1      34.009  21.371  26.492  1.00  0.00     0.348 HD
BRANCH  10  14
ATOM     14  C   UNL A   1      34.019  21.051  24.631  1.00  0.00     0.364 C 
BRANCH  14  15
ATOM     15  C   UNL A   1      32.999  19.910  24.862  1.00  0.00     0.277 C 
ATOM     16  O   UNL A   1      31.838  20.164  25.195  1.00  0.00    -0.268 OA
ATOM     17  N   UNL A   1      33.390  18.613  24.611  1.00  0.00    -0.338 N 
ATOM     18  C   UNL A   1      34.732  18.157  24.430  1.00  0.00     0.119 C 
ATOM     19  C   UNL A   1      32.455  17.513  24.496  1.00  0.00     0.119 C 
ATOM     20  C   UNL A   1      34.714  16.681  24.750  1.00  0.00     0.023 C 
ATOM     21  C   UNL A   1      33.262  16.262  24.798  1.00  0.00     0.023 C 
ENDBRANCH  14  15
ENDBRANCH  10  14
ENDBRANCH   5   7
ENDBRANCH   4   5
ENDBRANCH   3   4
ENDBRANCH   2   3
ENDBRANCH   1   2
BRANCH   1  22
ATOM     22  C   UNL A   1      31.782  31.029  26.365  1.00  0.00     0.202 C 
BRANCH  22  23
ATOM     23  C   UNL A   1      31.499  32.291  27.183  1.00  0.00     0.261 C 
BRANCH  23  24
ATOM     24  O   UNL A   1      32.598  33.223  27.034  1.00  0.00    -0.460 OA
BRANCH  24  25
ATOM     25  C   UNL A   1      33.143  33.705  28.174  1.00  0.00     0.338 C 
ATOM     26  O   UNL A   1      32.628  34.483  28.960  1.00  0.00    -0.246 OA
BRANCH  25  27
ATOM     27  C   UNL A   1      34.454  33.056  28.432  1.00  0.00     0.060 A 
ATOM     28  C   UNL A   1      34.435  31.765  28.976  1.00  0.00     0.016 A 
ATOM     29  C   UNL A   1      35.683  33.671  28.154  1.00  0.00     0.016 A 
ATOM     30  C   UNL A   1      35.630  31.105  29.273  1.00  0.00     0.010 A 
ATOM     31  C   UNL A   1      36.885  33.004  28.452  1.00  0.00     0.010 A 
ATOM     32  C   UNL A   1      36.865  31.731  29.051  1.00  0.00    -0.014 A 
BRANCH  32  33
ATOM     33  C   UNL A   1      38.078  31.145  29.689  1.00  0.00     0.031 A 
ATOM     34  C   UNL A   1      38.359  31.502  31.126  1.00  0.00     0.074 A 
ATOM     35  C   UNL A   1      38.865  30.241  29.074  1.00  0.00     0.049 A 
ATOM     36  N   UNL A   1      39.248  31.005  31.947  1.00  0.00    -0.248 NA
ATOM     37  C   UNL A   1      37.514  32.553  31.713  1.00  0.00     0.031 C 
ATOM     38  C   UNL A   1      38.714  29.781  27.700  1.00  0.00     0.029 A 
ATOM     39  N   UNL A   1      39.946  29.533  29.542  1.00  0.00    -0.354 N 
ATOM     40  C   UNL A   1      39.048  31.663  33.155  1.00  0.00     0.074 A 
ATOM     41  C   UNL A   1      37.996  32.631  32.942  1.00  0.00     0.031 C 
ATOM     42  C   UNL A   1      39.660  28.864  27.430  1.00  0.00     0.029 A 
ATOM     43  C   UNL A   1      40.489  28.671  28.618  1.00  0.00     0.049 A 
ATOM     44  H   UNL A   1      40.300  29.632  30.455  1.00  0.00     0.167 HD
ATOM     45  C   UNL A   1      39.665  31.466  34.344  1.00  0.00     0.037 A 
ATOM     46  C   UNL A   1      41.528  27.817  28.717  1.00  0.00     0.037 A 
ATOM     47  C   UNL A   1      40.733  30.530  34.565  1.00  0.00     0.049 A 
ATOM     48  C   UNL A   1      42.253  27.674  30.030  1.00  0.00     0.074 A 
ATOM     49  C   UNL A   1      41.421  30.269  35.737  1.00  0.00     0.029 A 
ATOM     50  N   UNL A   1      41.281  29.713  33.589  1.00  0.00    -0.354 N 
ATOM     51  N   UNL A   1      42.009  28.252  31.180  1.00  0.00    -0.248 NA
ATOM     52  C   UNL A   1      43.392  26.742  30.061  1.00  0.00     0.031 C 
ATOM     53  C   UNL A   1      42.419  29.329  35.459  1.00  0.00     0.029 A 
ATOM     54  C   UNL A   1      42.315  28.965  34.126  1.00  0.00     0.049 A 
ATOM     55  H   UNL A   1      40.979  29.671  32.653  1.00  0.00     0.167 HD
ATOM     56  C   UNL A   1      42.935  27.728  32.075  1.00  0.00     0.074 A 
ATOM     57  C   UNL A   1      43.739  26.776  31.339  1.00  0.00     0.031 C 
ATOM     58  C   UNL A   1      43.102  28.009  33.391  1.00  0.00     0.037 A 
BRANCH  45  59
ATOM     59  C   UNL A   1      39.198  32.307  35.492  1.00  0.00     0.057 A 
ATOM     60  C   UNL A   1      39.658  33.618  35.679  1.00  0.00     0.134 A 
ATOM     61  C   UNL A   1      38.285  31.800  36.424  1.00  0.00     0.134 A 
ATOM     62  F   UNL A   1      40.551  34.153  34.833  1.00  0.00    -0.206 F 
ATOM     63  C   UNL A   1      39.246  34.385  36.769  1.00  0.00     0.040 A 
ATOM     64  C   UNL A   1      37.846  32.568  37.503  1.00  0.00     0.040 A 
ATOM     65  F   UNL A   1      37.808  30.552  36.303  1.00  0.00    -0.206 F 
ATOM     66  C   UNL A   1      38.333  33.862  37.682  1.00  0.00     0.006 A 
ENDBRANCH  45  59
BRANCH  46  67
ATOM     67  C   UNL A   1      41.955  27.008  27.545  1.00  0.00     0.057 A 
ATOM     68  C   UNL A   1      42.821  27.527  26.575  1.00  0.00     0.134 A 
ATOM     69  C   UNL A   1      41.453  25.718  27.332  1.00  0.00     0.134 A 
ATOM     70  F   UNL A   1      43.315  28.767  26.707  1.00  0.00    -0.206 F 
ATOM     71  C   UNL A   1      43.150  26.809  25.424  1.00  0.00     0.040 A 
ATOM     72  C   UNL A   1      41.792  24.978  26.197  1.00  0.00     0.040 A 
ATOM     73  F   UNL A   1      40.616  25.162  28.220  1.00  0.00    -0.206 F 
ATOM     74  C   UNL A   1      42.634  25.528  25.234  1.00  0.00     0.006 A 
ENDBRANCH  46  67
BRANCH  58  75
ATOM     75  C   UNL A   1      44.162  27.249  34.135  1.00  0.00     0.057 A 
ATOM     76  C   UNL A   1      43.907  26.010  34.737  1.00  0.00     0.134 A 
ATOM     77  C   UNL A   1      45.470  27.746  34.217  1.00  0.00     0.134 A 
ATOM     78  F   UNL A   1      42.675  25.480  34.706  1.00  0.00    -0.206 F 
ATOM     79  C   UNL A   1      44.905  25.308  35.416  1.00  0.00     0.040 A 
ATOM     80  C   UNL A   1      46.483  27.040  34.867  1.00  0.00     0.040 A 
ATOM     81  F   UNL A   1      45.788  28.922  33.654  1.00  0.00    -0.206 F 
ATOM     82  C   UNL A   1      46.200  25.819  35.476  1.00  0.00     0.006 A 
ENDBRANCH  58  75
ENDBRANCH  32  33
ENDBRANCH  25  27
ENDBRANCH  24  25
ENDBRANCH  23  24
ENDBRANCH  22  23
ENDBRANCH   1  22
TORSDOF 16
ENDMDL
MODEL 2
REMARK VINA RESULT:     -10.8      0.992      1.883
REMARK SMILES C[C@H]1[C@H](C(=O)OCCOCCOC(=O)c2ccc(-c3c4nc(c(-c5c(F)cccc5F)c5ccc([nH]5)c(-c5c(F)cccc5F)c5nc(c(-c6c(F)cccc6F)c6ccc3[nH]6)C=C5)C=C4)cc2)CC[N@@H+]1CC(=O)N1CCCC1
REMARK SMILES IDX 9 1 8 2 7 3 6 4 4 5 5 6 3 7 1 8 2 9 71 10 69 11 70 12 72 14
REMARK SMILES IDX 73 15 74 16 75 17 76 18 79 19 77 20 78 21 10 22 11 23 12 24
REMARK SMILES IDX 13 25 14 26 15 27 16 28 68 29 17 30 67 31 18 32 19 33 20 34
REMARK SMILES IDX 61 35 21 36 66 37 60 38 62 39 22 40 65 41 59 42 58 43 23 45
REMARK SMILES IDX 49 46 32 47 48 48 33 49 36 50 47 51 63 52 34 53 35 54 46 56
REMARK SMILES IDX 64 57 37 58 24 59 25 60 30 61 26 62 27 63 29 64 31 65 28 66
REMARK SMILES IDX 50 67 51 68 56 69 52 70 53 71 55 72 57 73 54 74 38 75 39 76
REMARK SMILES IDX 44 77 40 78 41 79 43 80 45 81 42 82
REMARK H PARENT 71 13 62 44 36 55
REMARK Flexibility Score: inf
ROOT
ATOM      1  O   UNL A   1      31.020  30.617  25.365  1.00  0.00    -0.374 OA
ENDROOT
BRANCH   1   2
ATOM      2  C   UNL A   1      31.427  29.498  24.579  1.00  0.00     0.202 C 
BRANCH   2   3
ATOM      3  C   UNL A   1      31.469  28.140  25.310  1.00  0.00     0.261 C 
BRANCH   3   4
ATOM      4  O   UNL A   1      31.667  26.992  24.449  1.00  0.00    -0.463 OA
BRANCH   4   5
ATOM      5  C   UNL A   1      31.964  25.811  25.056  1.00  0.00     0.315 C 
ATOM      6  O   UNL A   1      31.904  25.626  26.266  1.00  0.00    -0.252 OA
BRANCH   5   7
ATOM      7  C   UNL A   1      32.340  24.701  24.089  1.00  0.00     0.162 C 
ATOM      8  C   UNL A   1      34.821  24.161  24.139  1.00  0.00     0.076 C 
ATOM      9  C   UNL A   1      33.425  23.744  24.603  1.00  0.00     0.195 C 
ATOM     10  N   UNL A   1      33.089  22.424  24.042  1.00  0.00    -0.324 N 
ATOM     11  C   UNL A   1      31.206  23.780  23.660  1.00  0.00     0.083 C 
ATOM     12  C   UNL A   1      31.957  22.569  23.134  1.00  0.00     0.264 C 
ATOM     13  H   UNL A   1      33.899  22.122  23.501  1.00  0.00     0.348 HD
BRANCH  10  14
ATOM     14  C   UNL A   1      33.056  21.271  24.962  1.00  0.00     0.364 C 
BRANCH  14  15
ATOM     15  C   UNL A   1      34.154  20.191  24.813  1.00  0.00     0.277 C 
ATOM     16  O   UNL A   1      35.305  20.407  25.203  1.00  0.00    -0.268 OA
ATOM     17  N   UNL A   1      33.803  18.956  24.311  1.00  0.00    -0.338 N 
ATOM     18  C   UNL A   1      32.585  18.636  23.635  1.00  0.00     0.119 C 
ATOM     19  C   UNL A   1      34.656  17.791  24.410  1.00  0.00     0.119 C 
ATOM     20  C   UNL A   1      32.882  17.408  22.808  1.00  0.00     0.023 C 
ATOM     21  C   UNL A   1      34.206  16.864  23.294  1.00  0.00     0.023 C 
ENDBRANCH  14  15
ENDBRANCH  10  14
ENDBRANCH   5   7
ENDBRANCH   4   5
ENDBRANCH   3   4
ENDBRANCH   2   3
ENDBRANCH   1   2
BRANCH   1  22
ATOM     22  C   UNL A   1      31.883  30.942  26.452  1.00  0.00     0.202 C 
BRANCH  22  23
ATOM     23  C   UNL A   1      31.519  32.262  27.133  1.00  0.00     0.261 C 
BRANCH  23  24
ATOM     24  O   UNL A   1      32.610  33.204  26.983  1.00  0.00    -0.460 OA
BRANCH  24  25
ATOM     25  C   UNL A   1      33.151  33.692  28.123  1.00  0.00     0.338 C 
ATOM     26  O   UNL A   1      32.631  34.470  28.905  1.00  0.00    -0.246 OA
BRANCH  25  27
ATOM     27  C   UNL A   1      34.464  33.049  28.385  1.00  0.00     0.060 A 
ATOM     28  C   UNL A   1      34.449  31.750  28.908  1.00  0.00     0.016 A 
ATOM     29  C   UNL A   1      35.691  33.678  28.132  1.00  0.00     0.016 A 
ATOM     30  C   UNL A   1      35.646  31.094  29.208  1.00  0.00     0.010 A 
ATOM     31  C   UNL A   1      36.895  33.016  28.434  1.00  0.00     0.010 A 
ATOM     32  C   UNL A   1      36.879  31.734  29.011  1.00  0.00    -0.014 A 
BRANCH  32  33
ATOM     33  C   UNL A   1      38.089  31.147  29.653  1.00  0.00     0.031 A 
ATOM     34  C   UNL A   1      38.370  31.512  31.088  1.00  0.00     0.074 A 
ATOM     35  C   UNL A   1      38.873  30.236  29.045  1.00  0.00     0.049 A 
ATOM     36  N   UNL A   1      39.256  31.016  31.914  1.00  0.00    -0.248 NA
ATOM     37  C   UNL A   1      37.528  32.570  31.669  1.00  0.00     0.031 C 
ATOM     38  C   UNL A   1      38.721  29.768  27.674  1.00  0.00     0.029 A 
ATOM     39  N   UNL A   1      39.951  29.527  29.518  1.00  0.00    -0.354 N 
ATOM     40  C   UNL A   1      39.058  31.682  33.117  1.00  0.00     0.074 A 
ATOM     41  C   UNL A   1      38.009  32.653  32.898  1.00  0.00     0.031 C 
ATOM     42  C   UNL A   1      39.664  28.847  27.410  1.00  0.00     0.029 A 
ATOM     43  C   UNL A   1      40.491  28.657  28.599  1.00  0.00     0.049 A 
ATOM     44  H   UNL A   1      40.305  29.630  30.431  1.00  0.00     0.167 HD
ATOM     45  C   UNL A   1      39.673  31.490  34.308  1.00  0.00     0.037 A 
ATOM     46  C   UNL A   1      41.527  27.800  28.704  1.00  0.00     0.037 A 
ATOM     47  C   UNL A   1      40.737  30.551  34.535  1.00  0.00     0.049 A 
ATOM     48  C   UNL A   1      42.250  27.662  30.019  1.00  0.00     0.074 A 
ATOM     49  C   UNL A   1      41.423  30.295  35.710  1.00  0.00     0.029 A 
ATOM     50  N   UNL A   1      41.283  29.726  33.565  1.00  0.00    -0.354 N 
ATOM     51  N   UNL A   1      42.007  28.248  31.166  1.00  0.00    -0.248 NA
ATOM     52  C   UNL A   1      43.386  26.726  30.057  1.00  0.00     0.031 C 
ATOM     53  C   UNL A   1      42.418  29.349  35.438  1.00  0.00     0.029 A 
ATOM     54  C   UNL A   1      42.314  28.978  34.108  1.00  0.00     0.049 A 
ATOM     55  H   UNL A   1      40.982  29.680  32.629  1.00  0.00     0.167 HD
ATOM     56  C   UNL A   1      42.931  27.726  32.064  1.00  0.00     0.074 A 
ATOM     57  C   UNL A   1      43.732  26.767  31.335  1.00  0.00     0.031 C 
ATOM     58  C   UNL A   1      43.098  28.014  33.379  1.00  0.00     0.037 A 
BRANCH  45  59
ATOM     59  C   UNL A   1      39.208  32.339  35.451  1.00  0.00     0.057 A 
ATOM     60  C   UNL A   1      38.289  31.862  36.395  1.00  0.00     0.134 A 
ATOM     61  C   UNL A   1      39.679  33.648  35.607  1.00  0.00     0.134 A 
ATOM     62  F   UNL A   1      37.784  30.623  36.287  1.00  0.00    -0.206 F 
ATOM     63  C   UNL A   1      37.833  32.667  37.439  1.00  0.00     0.040 A 
ATOM     64  C   UNL A   1      39.250  34.454  36.663  1.00  0.00     0.040 A 
ATOM     65  F   UNL A   1      40.559  34.165  34.737  1.00  0.00    -0.206 F 
ATOM     66  C   UNL A   1      38.318  33.966  37.577  1.00  0.00     0.006 A 
ENDBRANCH  45  59
BRANCH  46  67
ATOM     67  C   UNL A   1      41.952  26.982  27.538  1.00  0.00     0.057 A 
ATOM     68  C   UNL A   1      42.802  27.500  26.554  1.00  0.00     0.134 A 
ATOM     69  C   UNL A   1      41.463  25.684  27.345  1.00  0.00     0.134 A 
ATOM     70  F   UNL A   1      43.283  28.748  26.666  1.00  0.00    -0.206 F 
ATOM     71  C   UNL A   1      43.128  26.772  25.407  1.00  0.00     0.040 A 
ATOM     72  C   UNL A   1      41.799  24.935  26.216  1.00  0.00     0.040 A 
ATOM     73  F   UNL A   1      40.642  25.129  28.248  1.00  0.00    -0.206 F 
ATOM     74  C   UNL A   1      42.626  25.483  25.238  1.00  0.00     0.006 A 
ENDBRANCH  46  67
BRANCH  58  75
ATOM     75  C   UNL A   1      44.155  27.255  34.129  1.00  0.00     0.057 A 
ATOM     76  C   UNL A   1      45.459  27.744  34.278  1.00  0.00     0.134 A 
ATOM     77  C   UNL A   1      43.851  26.033  34.745  1.00  0.00     0.134 A 
ATOM     78  F   UNL A   1      45.821  28.902  33.706  1.00  0.00    -0.206 F 
ATOM     79  C   UNL A   1      46.429  27.033  34.989  1.00  0.00     0.040 A 
ATOM     80  C   UNL A   1      44.803  25.327  35.482  1.00  0.00     0.040 A 
ATOM     81  F   UNL A   1      42.618  25.511  34.652  1.00  0.00    -0.206 F 
ATOM     82  C   UNL A   1      46.100  25.824  35.599  1.00  0.00     0.006 A 
ENDBRANCH  58  75
ENDBRANCH  32  33
ENDBRANCH  25  27
ENDBRANCH  24  25
ENDBRANCH  23  24
ENDBRANCH  22  23
ENDBRANCH   1  22
TORSDOF 16
ENDMDL
MODEL 3
REMARK VINA RESULT:     -10.8      3.986      9.442
REMARK SMILES C[C@H]1[C@H](C(=O)OCCOCCOC(=O)c2ccc(-c3c4nc(c(-c5c(F)cccc5F)c5ccc([nH]5)c(-c5c(F)cccc5F)c5nc(c(-c6c(F)cccc6F)c6ccc3[nH]6)C=C5)C=C4)cc2)CC[N@@H+]1CC(=O)N1CCCC1
REMARK SMILES IDX 9 1 8 2 7 3 6 4 4 5 5 6 3 7 1 8 2 9 71 10 69 11 70 12 72 14
REMARK SMILES IDX 73 15 74 16 75 17 76 18 79 19 77 20 78 21 10 22 11 23 12 24
REMARK SMILES IDX 13 25 14 26 15 27 16 28 68 29 17 30 67 31 18 32 19 33 20 34
REMARK SMILES IDX 61 35 21 36 66 37 60 38 62 39 22 40 65 41 59 42 58 43 23 45
REMARK SMILES IDX 49 46 32 47 48 48 33 49 36 50 47 51 63 52 34 53 35 54 46 56
REMARK SMILES IDX 64 57 37 58 24 59 25 60 30 61 26 62 27 63 29 64 31 65 28 66
REMARK SMILES IDX 50 67 51 68 56 69 52 70 53 71 55 72 57 73 54 74 38 75 39 76
REMARK SMILES IDX 44 77 40 78 41 79 43 80 45 81 42 82
REMARK H PARENT 71 13 62 44 36 55
REMARK Flexibility Score: inf
ROOT
ATOM      1  O   UNL A   1      35.358  22.076  26.182  1.00  0.00    -0.374 OA
ENDROOT
BRANCH   1   2
ATOM      2  C   UNL A   1      34.462  21.814  27.260  1.00  0.00     0.202 C 
BRANCH   2   3
ATOM      3  C   UNL A   1      32.961  21.988  26.947  1.00  0.00     0.261 C 
BRANCH   3   4
ATOM      4  O   UNL A   1      32.360  23.186  27.497  1.00  0.00    -0.463 OA
BRANCH   4   5
ATOM      5  C   UNL A   1      31.662  23.976  26.636  1.00  0.00     0.315 C 
ATOM      6  O   UNL A   1      30.555  24.442  26.876  1.00  0.00    -0.252 OA
BRANCH   5   7
ATOM      7  C   UNL A   1      32.400  24.277  25.343  1.00  0.00     0.162 C 
ATOM      8  C   UNL A   1      31.003  23.781  23.280  1.00  0.00     0.076 C 
ATOM      9  C   UNL A   1      31.524  24.863  24.226  1.00  0.00     0.195 C 
ATOM     10  N   UNL A   1      32.393  25.793  23.486  1.00  0.00    -0.324 N 
ATOM     11  C   UNL A   1      33.563  25.254  25.454  1.00  0.00     0.083 C 
ATOM     12  C   UNL A   1      33.750  25.696  24.012  1.00  0.00     0.264 C 
ATOM     13  H   UNL A   1      32.401  25.477  22.516  1.00  0.00     0.348 HD
BRANCH  10  14
ATOM     14  C   UNL A   1      31.883  27.152  23.219  1.00  0.00     0.364 C 
BRANCH  14  15
ATOM     15  C   UNL A   1      32.613  28.345  23.880  1.00  0.00     0.277 C 
ATOM     16  O   UNL A   1      33.469  28.981  23.257  1.00  0.00    -0.268 OA
ATOM     17  N   UNL A   1      32.234  28.734  25.147  1.00  0.00    -0.338 N 
ATOM     18  C   UNL A   1      31.427  27.979  26.053  1.00  0.00     0.119 C 
ATOM     19  C   UNL A   1      32.620  29.998  25.736  1.00  0.00     0.119 C 
ATOM     20  C   UNL A   1      31.750  28.506  27.431  1.00  0.00     0.023 C 
ATOM     21  C   UNL A   1      32.517  29.794  27.237  1.00  0.00     0.023 C 
ENDBRANCH  14  15
ENDBRANCH  10  14
ENDBRANCH   5   7
ENDBRANCH   4   5
ENDBRANCH   3   4
ENDBRANCH   2   3
ENDBRANCH   1   2
BRANCH   1  22
ATOM     22  C   UNL A   1      35.395  21.077  25.166  1.00  0.00     0.202 C 
BRANCH  22  23
ATOM     23  C   UNL A   1      36.792  20.495  24.946  1.00  0.00     0.261 C 
BRANCH  23  24
ATOM     24  O   UNL A   1      37.784  21.542  25.096  1.00  0.00    -0.460 OA
BRANCH  24  25
ATOM     25  C   UNL A   1      38.904  21.222  25.784  1.00  0.00     0.338 C 
ATOM     26  O   UNL A   1      39.507  20.162  25.749  1.00  0.00    -0.246 OA
BRANCH  25  27
ATOM     27  C   UNL A   1      39.404  22.405  26.531  1.00  0.00     0.060 A 
ATOM     28  C   UNL A   1      38.800  23.638  26.258  1.00  0.00     0.016 A 
ATOM     29  C   UNL A   1      40.434  22.333  27.480  1.00  0.00     0.016 A 
ATOM     30  C   UNL A   1      39.239  24.799  26.900  1.00  0.00     0.010 A 
ATOM     31  C   UNL A   1      40.874  23.502  28.126  1.00  0.00     0.010 A 
ATOM     32  C   UNL A   1      40.306  24.750  27.811  1.00  0.00    -0.014 A 
BRANCH  32  33
ATOM     33  C   UNL A   1      40.957  26.031  28.204  1.00  0.00     0.031 A 
ATOM     34  C   UNL A   1      42.378  26.263  27.759  1.00  0.00     0.074 A 
ATOM     35  C   UNL A   1      40.303  27.020  28.843  1.00  0.00     0.049 A 
ATOM     36  N   UNL A   1      43.106  27.348  27.832  1.00  0.00    -0.248 NA
ATOM     37  C   UNL A   1      43.062  25.117  27.139  1.00  0.00     0.031 C 
ATOM     38  C   UNL A   1      38.928  26.957  29.320  1.00  0.00     0.029 A 
ATOM     39  N   UNL A   1      40.713  28.287  29.186  1.00  0.00    -0.354 N 
ATOM     40  C   UNL A   1      44.321  27.022  27.241  1.00  0.00     0.074 A 
ATOM     41  C   UNL A   1      44.252  25.627  26.868  1.00  0.00     0.031 C 
ATOM     42  C   UNL A   1      38.600  28.130  29.890  1.00  0.00     0.029 A 
ATOM     43  C   UNL A   1      39.746  29.032  29.819  1.00  0.00     0.049 A 
ATOM     44  H   UNL A   1      41.616  28.630  28.996  1.00  0.00     0.167 HD
ATOM     45  C   UNL A   1      45.392  27.815  27.005  1.00  0.00     0.037 A 
ATOM     46  C   UNL A   1      39.776  30.299  30.281  1.00  0.00     0.037 A 
ATOM     47  C   UNL A   1      45.490  29.195  27.396  1.00  0.00     0.049 A 
ATOM     48  C   UNL A   1      41.011  31.138  30.079  1.00  0.00     0.074 A 
ATOM     49  C   UNL A   1      46.542  30.073  27.202  1.00  0.00     0.029 A 
ATOM     50  N   UNL A   1      44.505  29.893  28.076  1.00  0.00    -0.354 N 
ATOM     51  N   UNL A   1      42.125  30.838  29.458  1.00  0.00    -0.248 NA
ATOM     52  C   UNL A   1      40.983  32.503  30.630  1.00  0.00     0.031 C 
ATOM     53  C   UNL A   1      46.213  31.290  27.809  1.00  0.00     0.029 A 
ATOM     54  C   UNL A   1      44.935  31.185  28.332  1.00  0.00     0.049 A 
ATOM     55  H   UNL A   1      43.630  29.526  28.338  1.00  0.00     0.167 HD
ATOM     56  C   UNL A   1      42.912  31.984  29.512  1.00  0.00     0.074 A 
ATOM     57  C   UNL A   1      42.143  32.989  30.214  1.00  0.00     0.031 C 
ATOM     58  C   UNL A   1      44.159  32.185  29.019  1.00  0.00     0.037 A 
BRANCH  45  59
ATOM     59  C   UNL A   1      46.555  27.185  26.301  1.00  0.00     0.057 A 
ATOM     60  C   UNL A   1      46.681  27.228  24.905  1.00  0.00     0.134 A 
ATOM     61  C   UNL A   1      47.555  26.524  27.023  1.00  0.00     0.134 A 
ATOM     62  F   UNL A   1      45.743  27.827  24.156  1.00  0.00    -0.206 F 
ATOM     63  C   UNL A   1      47.747  26.611  24.251  1.00  0.00     0.040 A 
ATOM     64  C   UNL A   1      48.641  25.926  26.381  1.00  0.00     0.040 A 
ATOM     65  F   UNL A   1      47.494  26.447  28.361  1.00  0.00    -0.206 F 
ATOM     66  C   UNL A   1      48.734  25.962  24.991  1.00  0.00     0.006 A 
ENDBRANCH  45  59
BRANCH  46  67
ATOM     67  C   UNL A   1      38.596  30.877  30.978  1.00  0.00     0.057 A 
ATOM     68  C   UNL A   1      38.391  30.684  32.349  1.00  0.00     0.134 A 
ATOM     69  C   UNL A   1      37.610  31.578  30.273  1.00  0.00     0.134 A 
ATOM     70  F   UNL A   1      39.286  29.997  33.075  1.00  0.00    -0.206 F 
ATOM     71  C   UNL A   1      37.237  31.141  32.990  1.00  0.00     0.040 A 
ATOM     72  C   UNL A   1      36.462  32.062  30.906  1.00  0.00     0.040 A 
ATOM     73  F   UNL A   1      37.743  31.794  28.957  1.00  0.00    -0.206 F 
ATOM     74  C   UNL A   1      36.269  31.834  32.266  1.00  0.00     0.006 A 
ENDBRANCH  46  67
BRANCH  58  75
ATOM     75  C   UNL A   1      44.757  33.553  29.178  1.00  0.00     0.057 A 
ATOM     76  C   UNL A   1      45.567  33.890  30.272  1.00  0.00     0.134 A 
ATOM     77  C   UNL A   1      44.552  34.538  28.202  1.00  0.00     0.134 A 
ATOM     78  F   UNL A   1      45.796  32.999  31.248  1.00  0.00    -0.206 F 
ATOM     79  C   UNL A   1      46.127  35.163  30.400  1.00  0.00     0.040 A 
ATOM     80  C   UNL A   1      45.131  35.804  28.306  1.00  0.00     0.040 A 
ATOM     81  F   UNL A   1      43.797  34.281  27.123  1.00  0.00    -0.206 F 
ATOM     82  C   UNL A   1      45.915  36.122  29.412  1.00  0.00     0.006 A 
ENDBRANCH  58  75
ENDBRANCH  32  33
ENDBRANCH  25  27
ENDBRANCH  24  25
ENDBRANCH  23  24
ENDBRANCH  22  23
ENDBRANCH   1  22
TORSDOF 16
ENDMDL
