MODEL 1
REMARK VINA RESULT:      -9.7      0.000      0.000
REMARK SMILES COc1ccc(CN(CC(=O)OCCOCCOC(=O)c2ccc(-c3c4nc(c(-c5c(F)cccc5F)c5ccc([nH]5)c(-c5c(F)cccc5F)c5nc(c(-c6c(F)cccc6F)c6ccc3[nH]6)C=C5)C=C4)cc2)N=O)cc1
REMARK SMILES IDX 14 1 13 2 12 3 10 4 11 5 9 6 8 7 7 8 6 9 3 10 4 11 78 12
REMARK SMILES IDX 5 13 77 14 2 15 1 16 75 17 76 18 15 19 16 20 17 21 18 22
REMARK SMILES IDX 19 23 20 24 21 25 22 26 74 27 23 28 73 29 24 30 25 31 26 32
REMARK SMILES IDX 67 33 27 34 72 35 66 36 68 37 28 38 71 39 65 40 64 41 29 43
REMARK SMILES IDX 55 44 38 45 54 46 39 47 42 48 53 49 69 50 40 51 41 52 52 54
REMARK SMILES IDX 70 55 43 56 30 57 31 58 36 59 32 60 33 61 35 62 37 63 34 64
REMARK SMILES IDX 56 65 57 66 62 67 58 68 59 69 61 70 63 71 60 72 44 73 45 74
REMARK SMILES IDX 50 75 46 76 47 77 49 78 51 79 48 80
REMARK H PARENT 68 42 42 53
REMARK Flexibility Score: inf
ROOT
ATOM      1  C   UNL A   1      36.564  22.157  25.809  1.00  0.00     0.202 C 
ENDROOT
BRANCH   1   2
ATOM      2  C   UNL A   1      35.575  23.283  26.135  1.00  0.00     0.261 C 
BRANCH   2   3
ATOM      3  O   UNL A   1      34.588  22.869  27.104  1.00  0.00    -0.462 OA
BRANCH   3   4
ATOM      4  C   UNL A   1      33.571  22.085  26.639  1.00  0.00     0.327 C 
ATOM      5  O   UNL A   1      33.499  20.873  26.811  1.00  0.00    -0.250 OA
BRANCH   4   6
ATOM      6  C   UNL A   1      32.576  22.841  25.765  1.00  0.00     0.264 C 
BRANCH   6   7
ATOM      7  N   UNL A   1      31.736  23.762  26.546  1.00  0.00    -0.245 NA
BRANCH   7   8
ATOM      8  C   UNL A   1      31.360  24.994  25.837  1.00  0.00     0.178 C 
BRANCH   8   9
ATOM      9  C   UNL A   1      32.059  26.264  26.296  1.00  0.00    -0.027 A 
ATOM     10  C   UNL A   1      33.257  28.699  27.065  1.00  0.00     0.118 A 
ATOM     11  C   UNL A   1      33.979  27.750  26.340  1.00  0.00     0.047 A 
ATOM     12  C   UNL A   1      31.938  28.424  27.420  1.00  0.00     0.047 A 
ATOM     13  C   UNL A   1      33.397  26.533  25.977  1.00  0.00     0.009 A 
ATOM     14  C   UNL A   1      31.346  27.215  27.040  1.00  0.00     0.009 A 
BRANCH  10  15
ATOM     15  O   UNL A   1      33.933  29.856  27.329  1.00  0.00    -0.497 OA
ATOM     16  C   UNL A   1      33.173  31.057  27.275  1.00  0.00     0.278 C 
ENDBRANCH  10  15
ENDBRANCH   8   9
ENDBRANCH   7   8
BRANCH   7  17
ATOM     17  N   UNL A   1      30.830  23.308  27.388  1.00  0.00     0.053 NA
ATOM     18  O   UNL A   1      29.715  23.821  27.242  1.00  0.00    -0.125 OA
ENDBRANCH   7  17
ENDBRANCH   6   7
ENDBRANCH   4   6
ENDBRANCH   3   4
ENDBRANCH   2   3
ENDBRANCH   1   2
BRANCH   1  19
ATOM     19  O   UNL A   1      37.897  22.554  25.484  1.00  0.00    -0.374 OA
BRANCH  19  20
ATOM     20  C   UNL A   1      38.915  21.573  25.678  1.00  0.00     0.202 C 
BRANCH  20  21
ATOM     21  C   UNL A   1      40.146  22.022  26.475  1.00  0.00     0.261 C 
BRANCH  21  22
ATOM     22  O   UNL A   1      39.925  23.258  27.178  1.00  0.00    -0.460 OA
BRANCH  22  23
ATOM     23  C   UNL A   1      40.889  24.189  26.992  1.00  0.00     0.338 C 
ATOM     24  O   UNL A   1      41.797  24.170  26.170  1.00  0.00    -0.246 OA
BRANCH  23  25
ATOM     25  C   UNL A   1      40.624  25.371  27.832  1.00  0.00     0.060 A 
ATOM     26  C   UNL A   1      41.645  26.323  27.937  1.00  0.00     0.016 A 
ATOM     27  C   UNL A   1      39.439  25.519  28.557  1.00  0.00     0.016 A 
ATOM     28  C   UNL A   1      41.507  27.403  28.805  1.00  0.00     0.010 A 
ATOM     29  C   UNL A   1      39.304  26.601  29.434  1.00  0.00     0.010 A 
ATOM     30  C   UNL A   1      40.349  27.529  29.586  1.00  0.00    -0.014 A 
BRANCH  30  31
ATOM     31  C   UNL A   1      40.301  28.563  30.647  1.00  0.00     0.031 A 
ATOM     32  C   UNL A   1      39.304  29.684  30.536  1.00  0.00     0.074 A 
ATOM     33  C   UNL A   1      41.108  28.480  31.719  1.00  0.00     0.049 A 
ATOM     34  N   UNL A   1      39.090  30.688  31.348  1.00  0.00    -0.248 NA
ATOM     35  C   UNL A   1      38.432  29.671  29.351  1.00  0.00     0.031 C 
ATOM     36  C   UNL A   1      42.089  27.424  31.957  1.00  0.00     0.029 A 
ATOM     37  N   UNL A   1      41.227  29.303  32.811  1.00  0.00    -0.354 N 
ATOM     38  C   UNL A   1      38.061  31.424  30.775  1.00  0.00     0.074 A 
ATOM     39  C   UNL A   1      37.716  30.771  29.530  1.00  0.00     0.031 C 
ATOM     40  C   UNL A   1      42.716  27.666  33.120  1.00  0.00     0.029 A 
ATOM     41  C   UNL A   1      42.199  28.906  33.695  1.00  0.00     0.049 A 
ATOM     42  H   UNL A   1      40.669  30.103  32.946  1.00  0.00     0.167 HD
ATOM     43  C   UNL A   1      37.451  32.536  31.249  1.00  0.00     0.037 A 
ATOM     44  C   UNL A   1      42.630  29.487  34.831  1.00  0.00     0.037 A 
ATOM     45  C   UNL A   1      37.795  33.183  32.487  1.00  0.00     0.049 A 
ATOM     46  C   UNL A   1      41.984  30.762  35.301  1.00  0.00     0.074 A 
ATOM     47  C   UNL A   1      37.219  34.301  33.066  1.00  0.00     0.029 A 
ATOM     48  N   UNL A   1      38.814  32.775  33.334  1.00  0.00    -0.354 N 
ATOM     49  N   UNL A   1      40.992  31.432  34.767  1.00  0.00    -0.248 NA
ATOM     50  C   UNL A   1      42.519  31.361  36.532  1.00  0.00     0.031 C 
ATOM     51  C   UNL A   1      37.920  34.597  34.240  1.00  0.00     0.029 A 
ATOM     52  C   UNL A   1      38.903  33.635  34.416  1.00  0.00     0.049 A 
ATOM     53  H   UNL A   1      39.389  31.989  33.189  1.00  0.00     0.167 HD
ATOM     54  C   UNL A   1      40.768  32.517  35.605  1.00  0.00     0.074 A 
ATOM     55  C   UNL A   1      41.720  32.407  36.693  1.00  0.00     0.031 C 
ATOM     56  C   UNL A   1      39.858  33.514  35.487  1.00  0.00     0.037 A 
BRANCH  43  57
ATOM     57  C   UNL A   1      36.360  33.136  30.411  1.00  0.00     0.057 A 
ATOM     58  C   UNL A   1      35.006  32.939  30.710  1.00  0.00     0.134 A 
ATOM     59  C   UNL A   1      36.669  33.945  29.310  1.00  0.00     0.134 A 
ATOM     60  F   UNL A   1      34.643  32.163  31.743  1.00  0.00    -0.206 F 
ATOM     61  C   UNL A   1      33.997  33.510  29.931  1.00  0.00     0.040 A 
ATOM     62  C   UNL A   1      35.670  34.540  28.540  1.00  0.00     0.040 A 
ATOM     63  F   UNL A   1      37.946  34.178  28.972  1.00  0.00    -0.206 F 
ATOM     64  C   UNL A   1      34.329  34.319  28.845  1.00  0.00     0.006 A 
ENDBRANCH  43  57
BRANCH  44  65
ATOM     65  C   UNL A   1      43.742  28.874  35.601  1.00  0.00     0.057 A 
ATOM     66  C   UNL A   1      45.072  29.244  35.375  1.00  0.00     0.134 A 
ATOM     67  C   UNL A   1      43.501  27.892  36.569  1.00  0.00     0.134 A 
ATOM     68  F   UNL A   1      45.368  30.163  34.444  1.00  0.00    -0.206 F 
ATOM     69  C   UNL A   1      46.124  28.650  36.074  1.00  0.00     0.040 A 
ATOM     70  C   UNL A   1      44.541  27.305  37.292  1.00  0.00     0.040 A 
ATOM     71  F   UNL A   1      42.247  27.494  36.833  1.00  0.00    -0.206 F 
ATOM     72  C   UNL A   1      45.859  27.681  37.040  1.00  0.00     0.006 A 
ENDBRANCH  44  65
BRANCH  56  73
ATOM     73  C   UNL A   1      39.834  34.554  36.569  1.00  0.00     0.057 A 
ATOM     74  C   UNL A   1      39.037  34.410  37.711  1.00  0.00     0.134 A 
ATOM     75  C   UNL A   1      40.646  35.692  36.486  1.00  0.00     0.134 A 
ATOM     76  F   UNL A   1      38.227  33.349  37.846  1.00  0.00    -0.206 F 
ATOM     77  C   UNL A   1      39.032  35.372  38.723  1.00  0.00     0.040 A 
ATOM     78  C   UNL A   1      40.669  36.648  37.503  1.00  0.00     0.040 A 
ATOM     79  F   UNL A   1      41.440  35.887  35.422  1.00  0.00    -0.206 F 
ATOM     80  C   UNL A   1      39.856  36.492  38.623  1.00  0.00     0.006 A 
ENDBRANCH  56  73
ENDBRANCH  30  31
ENDBRANCH  23  25
ENDBRANCH  22  23
ENDBRANCH  21  22
ENDBRANCH  20  21
ENDBRANCH  19  20
ENDBRANCH   1  19
TORSDOF 19
ENDMDL
MODEL 2
REMARK VINA RESULT:      -9.6      3.855      6.336
REMARK SMILES COc1ccc(CN(CC(=O)OCCOCCOC(=O)c2ccc(-c3c4nc(c(-c5c(F)cccc5F)c5ccc([nH]5)c(-c5c(F)cccc5F)c5nc(c(-c6c(F)cccc6F)c6ccc3[nH]6)C=C5)C=C4)cc2)N=O)cc1
REMARK SMILES IDX 14 1 13 2 12 3 10 4 11 5 9 6 8 7 7 8 6 9 3 10 4 11 78 12
REMARK SMILES IDX 5 13 77 14 2 15 1 16 75 17 76 18 15 19 16 20 17 21 18 22
REMARK SMILES IDX 19 23 20 24 21 25 22 26 74 27 23 28 73 29 24 30 25 31 26 32
REMARK SMILES IDX 67 33 27 34 72 35 66 36 68 37 28 38 71 39 65 40 64 41 29 43
REMARK SMILES IDX 55 44 38 45 54 46 39 47 42 48 53 49 69 50 40 51 41 52 52 54
REMARK SMILES IDX 70 55 43 56 30 57 31 58 36 59 32 60 33 61 35 62 37 63 34 64
REMARK SMILES IDX 56 65 57 66 62 67 58 68 59 69 61 70 63 71 60 72 44 73 45 74
REMARK SMILES IDX 50 75 46 76 47 77 49 78 51 79 48 80
REMARK H PARENT 68 42 42 53
REMARK Flexibility Score: inf
ROOT
ATOM      1  C   UNL A   1      40.874  19.969  26.327  1.00  0.00     0.202 C 
ENDROOT
BRANCH   1   2
ATOM      2  C   UNL A   1      42.158  19.141  26.194  1.00  0.00     0.261 C 
BRANCH   2   3
ATOM      3  O   UNL A   1      42.891  19.471  24.995  1.00  0.00    -0.462 OA
BRANCH   3   4
ATOM      4  C   UNL A   1      44.228  19.195  25.004  1.00  0.00     0.327 C 
ATOM      5  O   UNL A   1      44.702  18.078  25.184  1.00  0.00    -0.250 OA
BRANCH   4   6
ATOM      6  C   UNL A   1      45.103  20.438  24.892  1.00  0.00     0.264 C 
BRANCH   6   7
ATOM      7  N   UNL A   1      44.355  21.673  25.176  1.00  0.00    -0.245 NA
BRANCH   7   8
ATOM      8  C   UNL A   1      44.965  22.532  26.201  1.00  0.00     0.178 C 
BRANCH   8   9
ATOM      9  C   UNL A   1      45.575  23.833  25.701  1.00  0.00    -0.027 A 
ATOM     10  C   UNL A   1      46.591  26.256  24.677  1.00  0.00     0.118 A 
ATOM     11  C   UNL A   1      47.321  25.073  24.557  1.00  0.00     0.047 A 
ATOM     12  C   UNL A   1      45.358  26.232  25.325  1.00  0.00     0.047 A 
ATOM     13  C   UNL A   1      46.831  23.875  25.083  1.00  0.00     0.009 A 
ATOM     14  C   UNL A   1      44.856  25.030  25.835  1.00  0.00     0.009 A 
BRANCH  10  15
ATOM     15  O   UNL A   1      47.168  27.349  24.094  1.00  0.00    -0.497 OA
ATOM     16  C   UNL A   1      48.487  27.172  23.591  1.00  0.00     0.278 C 
ENDBRANCH  10  15
ENDBRANCH   8   9
ENDBRANCH   7   8
BRANCH   7  17
ATOM     17  N   UNL A   1      43.718  22.317  24.219  1.00  0.00     0.053 NA
ATOM     18  O   UNL A   1      44.287  22.269  23.123  1.00  0.00    -0.125 OA
ENDBRANCH   7  17
ENDBRANCH   6   7
ENDBRANCH   4   6
ENDBRANCH   3   4
ENDBRANCH   2   3
ENDBRANCH   1   2
BRANCH   1  19
ATOM     19  O   UNL A   1      40.594  20.506  27.620  1.00  0.00    -0.374 OA
BRANCH  19  20
ATOM     20  C   UNL A   1      41.145  21.791  27.906  1.00  0.00     0.202 C 
BRANCH  20  21
ATOM     21  C   UNL A   1      40.968  22.862  26.822  1.00  0.00     0.261 C 
BRANCH  21  22
ATOM     22  O   UNL A   1      41.894  23.953  26.972  1.00  0.00    -0.460 OA
BRANCH  22  23
ATOM     23  C   UNL A   1      41.530  25.088  26.333  1.00  0.00     0.338 C 
ATOM     24  O   UNL A   1      41.423  25.264  25.125  1.00  0.00    -0.246 OA
BRANCH  23  25
ATOM     25  C   UNL A   1      41.103  26.107  27.309  1.00  0.00     0.060 A 
ATOM     26  C   UNL A   1      41.817  27.312  27.330  1.00  0.00     0.016 A 
ATOM     27  C   UNL A   1      40.079  25.872  28.230  1.00  0.00     0.016 A 
ATOM     28  C   UNL A   1      41.542  28.268  28.304  1.00  0.00     0.010 A 
ATOM     29  C   UNL A   1      39.810  26.831  29.213  1.00  0.00     0.010 A 
ATOM     30  C   UNL A   1      40.561  28.019  29.274  1.00  0.00    -0.014 A 
BRANCH  30  31
ATOM     31  C   UNL A   1      40.421  28.950  30.418  1.00  0.00     0.031 A 
ATOM     32  C   UNL A   1      39.364  30.020  30.369  1.00  0.00     0.074 A 
ATOM     33  C   UNL A   1      41.198  28.818  31.507  1.00  0.00     0.049 A 
ATOM     34  N   UNL A   1      39.068  30.934  31.257  1.00  0.00    -0.248 NA
ATOM     35  C   UNL A   1      38.531  30.063  29.158  1.00  0.00     0.031 C 
ATOM     36  C   UNL A   1      42.232  27.800  31.687  1.00  0.00     0.029 A 
ATOM     37  N   UNL A   1      41.236  29.546  32.669  1.00  0.00    -0.354 N 
ATOM     38  C   UNL A   1      38.015  31.660  30.714  1.00  0.00     0.074 A 
ATOM     39  C   UNL A   1      37.746  31.102  29.406  1.00  0.00     0.031 C 
ATOM     40  C   UNL A   1      42.808  27.973  32.888  1.00  0.00     0.029 A 
ATOM     41  C   UNL A   1      42.202  29.126  33.550  1.00  0.00     0.049 A 
ATOM     42  H   UNL A   1      40.628  30.299  32.854  1.00  0.00     0.167 HD
ATOM     43  C   UNL A   1      37.327  32.690  31.261  1.00  0.00     0.037 A 
ATOM     44  C   UNL A   1      42.565  29.627  34.746  1.00  0.00     0.037 A 
ATOM     45  C   UNL A   1      37.595  33.244  32.562  1.00  0.00     0.049 A 
ATOM     46  C   UNL A   1      41.832  30.819  35.301  1.00  0.00     0.074 A 
ATOM     47  C   UNL A   1      36.938  34.273  33.215  1.00  0.00     0.029 A 
ATOM     48  N   UNL A   1      38.610  32.819  33.406  1.00  0.00    -0.354 N 
ATOM     49  N   UNL A   1      40.818  31.477  34.793  1.00  0.00    -0.248 NA
ATOM     50  C   UNL A   1      42.293  31.335  36.598  1.00  0.00     0.031 C 
ATOM     51  C   UNL A   1      37.585  34.502  34.434  1.00  0.00     0.029 A 
ATOM     52  C   UNL A   1      38.616  33.584  34.561  1.00  0.00     0.049 A 
ATOM     53  H   UNL A   1      39.234  32.082  33.214  1.00  0.00     0.167 HD
ATOM     54  C   UNL A   1      40.507  32.470  35.714  1.00  0.00     0.074 A 
ATOM     55  C   UNL A   1      41.430  32.317  36.820  1.00  0.00     0.031 C 
ATOM     56  C   UNL A   1      39.544  33.421  35.651  1.00  0.00     0.037 A 
BRANCH  43  57
ATOM     57  C   UNL A   1      36.229  33.301  30.441  1.00  0.00     0.057 A 
ATOM     58  C   UNL A   1      36.498  34.146  29.356  1.00  0.00     0.134 A 
ATOM     59  C   UNL A   1      34.886  33.016  30.721  1.00  0.00     0.134 A 
ATOM     60  F   UNL A   1      37.762  34.469  29.044  1.00  0.00    -0.206 F 
ATOM     61  C   UNL A   1      35.470  34.701  28.592  1.00  0.00     0.040 A 
ATOM     62  C   UNL A   1      33.852  33.546  29.950  1.00  0.00     0.040 A 
ATOM     63  F   UNL A   1      34.560  32.211  31.744  1.00  0.00    -0.206 F 
ATOM     64  C   UNL A   1      34.142  34.396  28.885  1.00  0.00     0.006 A 
ENDBRANCH  43  57
BRANCH  44  65
ATOM     65  C   UNL A   1      43.687  29.012  35.498  1.00  0.00     0.057 A 
ATOM     66  C   UNL A   1      43.463  28.006  36.444  1.00  0.00     0.134 A 
ATOM     67  C   UNL A   1      45.009  29.428  35.299  1.00  0.00     0.134 A 
ATOM     68  F   UNL A   1      42.216  27.582  36.696  1.00  0.00    -0.206 F 
ATOM     69  C   UNL A   1      44.511  27.446  37.176  1.00  0.00     0.040 A 
ATOM     70  C   UNL A   1      46.069  28.861  36.007  1.00  0.00     0.040 A 
ATOM     71  F   UNL A   1      45.290  30.389  34.406  1.00  0.00    -0.206 F 
ATOM     72  C   UNL A   1      45.820  27.869  36.954  1.00  0.00     0.006 A 
ENDBRANCH  44  65
BRANCH  56  73
ATOM     73  C   UNL A   1      39.427  34.359  36.817  1.00  0.00     0.057 A 
ATOM     74  C   UNL A   1      38.765  33.989  37.994  1.00  0.00     0.134 A 
ATOM     75  C   UNL A   1      40.015  35.629  36.776  1.00  0.00     0.134 A 
ATOM     76  F   UNL A   1      38.169  32.791  38.092  1.00  0.00    -0.206 F 
ATOM     77  C   UNL A   1      38.675  34.858  39.084  1.00  0.00     0.040 A 
ATOM     78  C   UNL A   1      39.953  36.497  37.868  1.00  0.00     0.040 A 
ATOM     79  F   UNL A   1      40.671  36.042  35.681  1.00  0.00    -0.206 F 
ATOM     80  C   UNL A   1      39.277  36.114  39.023  1.00  0.00     0.006 A 
ENDBRANCH  56  73
ENDBRANCH  30  31
ENDBRANCH  23  25
ENDBRANCH  22  23
ENDBRANCH  21  22
ENDBRANCH  20  21
ENDBRANCH  19  20
ENDBRANCH   1  19
TORSDOF 19
ENDMDL
MODEL 3
REMARK VINA RESULT:      -9.5      4.505      8.092
REMARK SMILES COc1ccc(CN(CC(=O)OCCOCCOC(=O)c2ccc(-c3c4nc(c(-c5c(F)cccc5F)c5ccc([nH]5)c(-c5c(F)cccc5F)c5nc(c(-c6c(F)cccc6F)c6ccc3[nH]6)C=C5)C=C4)cc2)N=O)cc1
REMARK SMILES IDX 14 1 13 2 12 3 10 4 11 5 9 6 8 7 7 8 6 9 3 10 4 11 78 12
REMARK SMILES IDX 5 13 77 14 2 15 1 16 75 17 76 18 15 19 16 20 17 21 18 22
REMARK SMILES IDX 19 23 20 24 21 25 22 26 74 27 23 28 73 29 24 30 25 31 26 32
REMARK SMILES IDX 67 33 27 34 72 35 66 36 68 37 28 38 71 39 65 40 64 41 29 43
REMARK SMILES IDX 55 44 38 45 54 46 39 47 42 48 53 49 69 50 40 51 41 52 52 54
REMARK SMILES IDX 70 55 43 56 30 57 31 58 36 59 32 60 33 61 35 62 37 63 34 64
REMARK SMILES IDX 56 65 57 66 62 67 58 68 59 69 61 70 63 71 60 72 44 73 45 74
REMARK SMILES IDX 50 75 46 76 47 77 49 78 51 79 48 80
REMARK H PARENT 68 42 42 53
REMARK Flexibility Score: inf
ROOT
ATOM      1  C   UNL A   1      36.094  22.302  25.222  1.00  0.00     0.202 C 
ENDROOT
BRANCH   1   2
ATOM      2  C   UNL A   1      35.505  23.492  24.454  1.00  0.00     0.261 C 
BRANCH   2   3
ATOM      3  O   UNL A   1      35.305  24.639  25.308  1.00  0.00    -0.462 OA
BRANCH   3   4
ATOM      4  C   UNL A   1      34.014  24.929  25.644  1.00  0.00     0.327 C 
ATOM      5  O   UNL A   1      33.623  26.038  25.996  1.00  0.00    -0.250 OA
BRANCH   4   6
ATOM      6  C   UNL A   1      33.104  23.705  25.663  1.00  0.00     0.264 C 
BRANCH   6   7
ATOM      7  N   UNL A   1      31.715  24.049  26.001  1.00  0.00    -0.245 NA
BRANCH   7   8
ATOM      8  C   UNL A   1      30.791  24.049  24.858  1.00  0.00     0.178 C 
BRANCH   8   9
ATOM      9  C   UNL A   1      30.661  25.366  24.108  1.00  0.00    -0.027 A 
ATOM     10  C   UNL A   1      30.277  27.774  22.691  1.00  0.00     0.118 A 
ATOM     11  C   UNL A   1      31.191  26.821  22.238  1.00  0.00     0.047 A 
ATOM     12  C   UNL A   1      29.564  27.530  23.863  1.00  0.00     0.047 A 
ATOM     13  C   UNL A   1      31.401  25.638  22.950  1.00  0.00     0.009 A 
ATOM     14  C   UNL A   1      29.758  26.336  24.567  1.00  0.00     0.009 A 
BRANCH  10  15
ATOM     15  O   UNL A   1      30.145  28.871  21.887  1.00  0.00    -0.497 OA
ATOM     16  C   UNL A   1      28.928  29.597  22.006  1.00  0.00     0.278 C 
ENDBRANCH  10  15
ENDBRANCH   8   9
ENDBRANCH   7   8
BRANCH   7  17
ATOM     17  N   UNL A   1      31.181  23.674  27.146  1.00  0.00     0.053 NA
ATOM     18  O   UNL A   1      29.955  23.825  27.196  1.00  0.00    -0.125 OA
ENDBRANCH   7  17
ENDBRANCH   6   7
ENDBRANCH   4   6
ENDBRANCH   3   4
ENDBRANCH   2   3
ENDBRANCH   1   2
BRANCH   1  19
ATOM     19  O   UNL A   1      37.003  21.468  24.503  1.00  0.00    -0.374 OA
BRANCH  19  20
ATOM     20  C   UNL A   1      37.068  20.102  24.912  1.00  0.00     0.202 C 
BRANCH  20  21
ATOM     21  C   UNL A   1      38.473  19.507  25.068  1.00  0.00     0.261 C 
BRANCH  21  22
ATOM     22  O   UNL A   1      39.052  19.794  26.354  1.00  0.00    -0.460 OA
BRANCH  22  23
ATOM     23  C   UNL A   1      40.384  20.027  26.330  1.00  0.00     0.338 C 
ATOM     24  O   UNL A   1      41.256  19.320  25.841  1.00  0.00    -0.246 OA
BRANCH  23  25
ATOM     25  C   UNL A   1      40.674  21.376  26.850  1.00  0.00     0.060 A 
ATOM     26  C   UNL A   1      40.022  22.452  26.236  1.00  0.00     0.016 A 
ATOM     27  C   UNL A   1      41.612  21.598  27.862  1.00  0.00     0.016 A 
ATOM     28  C   UNL A   1      40.338  23.759  26.598  1.00  0.00     0.010 A 
ATOM     29  C   UNL A   1      41.934  22.912  28.219  1.00  0.00     0.010 A 
ATOM     30  C   UNL A   1      41.323  23.998  27.567  1.00  0.00    -0.014 A 
BRANCH  30  31
ATOM     31  C   UNL A   1      41.792  25.385  27.795  1.00  0.00     0.031 A 
ATOM     32  C   UNL A   1      43.135  25.804  27.262  1.00  0.00     0.074 A 
ATOM     33  C   UNL A   1      41.011  26.274  28.433  1.00  0.00     0.049 A 
ATOM     34  N   UNL A   1      43.736  26.963  27.346  1.00  0.00    -0.248 NA
ATOM     35  C   UNL A   1      43.902  24.778  26.540  1.00  0.00     0.031 C 
ATOM     36  C   UNL A   1      39.677  25.998  28.963  1.00  0.00     0.029 A 
ATOM     37  N   UNL A   1      41.231  27.593  28.742  1.00  0.00    -0.354 N 
ATOM     38  C   UNL A   1      44.949  26.808  26.687  1.00  0.00     0.074 A 
ATOM     39  C   UNL A   1      45.014  25.434  26.239  1.00  0.00     0.031 C 
ATOM     40  C   UNL A   1      39.198  27.114  29.538  1.00  0.00     0.029 A 
ATOM     41  C   UNL A   1      40.200  28.173  29.440  1.00  0.00     0.049 A 
ATOM     42  H   UNL A   1      42.049  28.078  28.487  1.00  0.00     0.167 HD
ATOM     43  C   UNL A   1      45.915  27.731  26.465  1.00  0.00     0.037 A 
ATOM     44  C   UNL A   1      40.087  29.413  29.952  1.00  0.00     0.037 A 
ATOM     45  C   UNL A   1      45.848  29.097  26.911  1.00  0.00     0.049 A 
ATOM     46  C   UNL A   1      41.206  30.400  29.754  1.00  0.00     0.074 A 
ATOM     47  C   UNL A   1      46.766  30.115  26.715  1.00  0.00     0.029 A 
ATOM     48  N   UNL A   1      44.807  29.635  27.652  1.00  0.00    -0.354 N 
ATOM     49  N   UNL A   1      42.334  30.251  29.103  1.00  0.00    -0.248 NA
ATOM     50  C   UNL A   1      41.035  31.727  30.362  1.00  0.00     0.031 C 
ATOM     51  C   UNL A   1      46.302  31.257  27.377  1.00  0.00     0.029 A 
ATOM     52  C   UNL A   1      45.073  30.962  27.947  1.00  0.00     0.049 A 
ATOM     53  H   UNL A   1      43.998  29.146  27.927  1.00  0.00     0.167 HD
ATOM     54  C   UNL A   1      42.997  31.468  29.204  1.00  0.00     0.074 A 
ATOM     55  C   UNL A   1      42.137  32.350  29.966  1.00  0.00     0.031 C 
ATOM     56  C   UNL A   1      44.208  31.825  28.710  1.00  0.00     0.037 A 
BRANCH  43  57
ATOM     57  C   UNL A   1      47.140  27.283  25.722  1.00  0.00     0.057 A 
ATOM     58  C   UNL A   1      47.284  27.487  24.344  1.00  0.00     0.134 A 
ATOM     59  C   UNL A   1      48.201  26.669  26.400  1.00  0.00     0.134 A 
ATOM     60  F   UNL A   1      46.299  28.057  23.634  1.00  0.00    -0.206 F 
ATOM     61  C   UNL A   1      48.432  27.076  23.662  1.00  0.00     0.040 A 
ATOM     62  C   UNL A   1      49.362  26.276  25.734  1.00  0.00     0.040 A 
ATOM     63  F   UNL A   1      48.128  26.448  27.722  1.00  0.00    -0.206 F 
ATOM     64  C   UNL A   1      49.478  26.475  24.360  1.00  0.00     0.006 A 
ENDBRANCH  43  57
BRANCH  44  65
ATOM     65  C   UNL A   1      38.872  29.792  30.716  1.00  0.00     0.057 A 
ATOM     66  C   UNL A   1      37.799  30.443  30.098  1.00  0.00     0.134 A 
ATOM     67  C   UNL A   1      38.763  29.526  32.086  1.00  0.00     0.134 A 
ATOM     68  F   UNL A   1      37.854  30.746  28.793  1.00  0.00    -0.206 F 
ATOM     69  C   UNL A   1      36.666  30.828  30.818  1.00  0.00     0.040 A 
ATOM     70  C   UNL A   1      37.627  29.885  32.814  1.00  0.00     0.040 A 
ATOM     71  F   UNL A   1      39.758  28.903  32.737  1.00  0.00    -0.206 F 
ATOM     72  C   UNL A   1      36.576  30.544  32.179  1.00  0.00     0.006 A 
ENDBRANCH  44  65
BRANCH  56  73
ATOM     73  C   UNL A   1      44.665  33.232  28.961  1.00  0.00     0.057 A 
ATOM     74  C   UNL A   1      44.332  34.280  28.093  1.00  0.00     0.134 A 
ATOM     75  C   UNL A   1      45.412  33.548  30.102  1.00  0.00     0.134 A 
ATOM     76  F   UNL A   1      43.629  34.041  26.976  1.00  0.00    -0.206 F 
ATOM     77  C   UNL A   1      44.745  35.591  28.342  1.00  0.00     0.040 A 
ATOM     78  C   UNL A   1      45.809  34.859  30.374  1.00  0.00     0.040 A 
ATOM     79  F   UNL A   1      45.758  32.592  30.978  1.00  0.00    -0.206 F 
ATOM     80  C   UNL A   1      45.480  35.883  29.490  1.00  0.00     0.006 A 
ENDBRANCH  56  73
ENDBRANCH  30  31
ENDBRANCH  23  25
ENDBRANCH  22  23
ENDBRANCH  21  22
ENDBRANCH  20  21
ENDBRANCH  19  20
ENDBRANCH   1  19
TORSDOF 19
ENDMDL
