MODEL 1
REMARK VINA RESULT:     -11.2      0.000      0.000
REMARK SMILES CC(=O)Nc1cccc(-c2ccc(F)c(C(=O)OCCOCCOC(=O)c3ccc(-c4c5nc(c(-c6c(F)cccc6F)c6ccc([nH]6)c(-c6c(F)cccc6F)c6nc(c(-c7c(F)cccc7F)c7ccc4[nH]7)C=C6)C=C5)cc3)c2)c1
REMARK SMILES IDX 21 1 20 2 19 3 18 4 16 5 17 6 15 7 10 8 11 9 81 10 12 11
REMARK SMILES IDX 13 12 14 13 9 14 5 15 6 16 82 17 7 18 8 19 4 20 1 21 2 22
REMARK SMILES IDX 3 23 22 25 23 26 24 27 25 28 26 29 27 30 28 31 80 32 29 33
REMARK SMILES IDX 79 34 30 35 31 36 32 37 73 38 33 39 78 40 72 41 74 42 34 43
REMARK SMILES IDX 77 44 71 45 70 46 35 48 61 49 44 50 60 51 45 52 48 53 59 54
REMARK SMILES IDX 75 55 46 56 47 57 58 59 76 60 49 61 36 62 37 63 42 64 38 65
REMARK SMILES IDX 39 66 41 67 43 68 40 69 62 70 63 71 68 72 64 73 65 74 67 75
REMARK SMILES IDX 69 76 66 77 50 78 51 79 56 80 52 81 53 82 55 83 57 84 54 85
REMARK H PARENT 4 24 74 47 48 58
REMARK Flexibility Score: inf
ROOT
ATOM      1  O   UNL A   1      43.285  22.437  24.690  1.00  0.00    -0.374 OA
ENDROOT
BRANCH   1   2
ATOM      2  C   UNL A   1      43.598  21.544  25.759  1.00  0.00     0.202 C 
BRANCH   2   3
ATOM      3  C   UNL A   1      42.819  20.226  25.803  1.00  0.00     0.261 C 
BRANCH   3   4
ATOM      4  O   UNL A   1      41.420  20.450  25.560  1.00  0.00    -0.460 OA
BRANCH   4   5
ATOM      5  C   UNL A   1      40.649  20.567  26.670  1.00  0.00     0.341 C 
ATOM      6  O   UNL A   1      40.772  19.950  27.713  1.00  0.00    -0.246 OA
BRANCH   5   7
ATOM      7  C   UNL A   1      39.682  21.663  26.467  1.00  0.00     0.096 A 
ATOM      8  C   UNL A   1      37.540  22.509  25.646  1.00  0.00    -0.017 A 
ATOM      9  C   UNL A   1      37.893  23.780  26.130  1.00  0.00     0.012 A 
ATOM     10  C   UNL A   1      38.464  21.456  25.805  1.00  0.00     0.027 A 
ATOM     11  C   UNL A   1      39.121  23.993  26.761  1.00  0.00     0.041 A 
ATOM     12  C   UNL A   1      40.004  22.934  26.933  1.00  0.00     0.137 A 
ATOM     13  F   UNL A   1      41.187  23.181  27.513  1.00  0.00    -0.206 F 
BRANCH   8  14
ATOM     14  C   UNL A   1      36.217  22.263  25.044  1.00  0.00    -0.016 A 
ATOM     15  C   UNL A   1      34.130  20.979  25.028  1.00  0.00     0.041 A 
ATOM     16  C   UNL A   1      33.702  21.699  23.912  1.00  0.00     0.026 A 
ATOM     17  C   UNL A   1      35.389  21.250  25.563  1.00  0.00     0.034 A 
ATOM     18  C   UNL A   1      34.492  22.726  23.393  1.00  0.00     0.003 A 
ATOM     19  C   UNL A   1      35.737  23.011  23.960  1.00  0.00     0.009 A 
BRANCH  15  20
ATOM     20  N   UNL A   1      33.292  19.967  25.523  1.00  0.00    -0.326 N 
ATOM     21  C   UNL A   1      34.162  18.007  24.251  1.00  0.00     0.114 C 
ATOM     22  C   UNL A   1      33.130  18.668  25.128  1.00  0.00     0.221 C 
ATOM     23  O   UNL A   1      32.168  18.027  25.556  1.00  0.00    -0.275 OA
ATOM     24  H   UNL A   1      32.727  20.239  26.283  1.00  0.00     0.169 HD
ENDBRANCH  15  20
ENDBRANCH   8  14
ENDBRANCH   5   7
ENDBRANCH   4   5
ENDBRANCH   3   4
ENDBRANCH   2   3
ENDBRANCH   1   2
BRANCH   1  25
ATOM     25  C   UNL A   1      44.041  23.643  24.592  1.00  0.00     0.202 C 
BRANCH  25  26
ATOM     26  C   UNL A   1      43.879  24.662  25.726  1.00  0.00     0.261 C 
BRANCH  26  27
ATOM     27  O   UNL A   1      43.460  25.954  25.256  1.00  0.00    -0.460 OA
BRANCH  27  28
ATOM     28  C   UNL A   1      42.194  26.292  25.603  1.00  0.00     0.338 C 
ATOM     29  O   UNL A   1      41.162  25.998  25.025  1.00  0.00    -0.246 OA
BRANCH  28  30
ATOM     30  C   UNL A   1      42.192  26.957  26.920  1.00  0.00     0.060 A 
ATOM     31  C   UNL A   1      41.368  26.416  27.914  1.00  0.00     0.016 A 
ATOM     32  C   UNL A   1      42.909  28.133  27.151  1.00  0.00     0.016 A 
ATOM     33  C   UNL A   1      41.215  27.079  29.129  1.00  0.00     0.010 A 
ATOM     34  C   UNL A   1      42.750  28.801  28.370  1.00  0.00     0.010 A 
ATOM     35  C   UNL A   1      41.873  28.297  29.349  1.00  0.00    -0.014 A 
BRANCH  35  36
ATOM     36  C   UNL A   1      41.528  29.104  30.544  1.00  0.00     0.031 A 
ATOM     37  C   UNL A   1      40.332  30.014  30.494  1.00  0.00     0.074 A 
ATOM     38  C   UNL A   1      42.244  28.994  31.677  1.00  0.00     0.049 A 
ATOM     39  N   UNL A   1      39.851  30.807  31.418  1.00  0.00    -0.248 NA
ATOM     40  C   UNL A   1      39.579  30.035  29.231  1.00  0.00     0.031 C 
ATOM     41  C   UNL A   1      43.397  28.115  31.865  1.00  0.00     0.029 A 
ATOM     42  N   UNL A   1      42.099  29.625  32.885  1.00  0.00    -0.354 N 
ATOM     43  C   UNL A   1      38.739  31.418  30.850  1.00  0.00     0.074 A 
ATOM     44  C   UNL A   1      38.645  30.938  29.488  1.00  0.00     0.031 C 
ATOM     45  C   UNL A   1      43.852  28.259  33.121  1.00  0.00     0.029 A 
ATOM     46  C   UNL A   1      43.045  29.261  33.812  1.00  0.00     0.049 A 
ATOM     47  H   UNL A   1      41.385  30.277  33.071  1.00  0.00     0.167 HD
ATOM     48  C   UNL A   1      37.869  32.288  31.414  1.00  0.00     0.037 A 
ATOM     49  C   UNL A   1      43.240  29.699  35.071  1.00  0.00     0.037 A 
ATOM     50  C   UNL A   1      37.970  32.773  32.767  1.00  0.00     0.049 A 
ATOM     51  C   UNL A   1      42.312  30.735  35.646  1.00  0.00     0.074 A 
ATOM     52  C   UNL A   1      37.135  33.653  33.434  1.00  0.00     0.029 A 
ATOM     53  N   UNL A   1      38.973  32.422  33.658  1.00  0.00    -0.354 N 
ATOM     54  N   UNL A   1      41.255  31.292  35.108  1.00  0.00    -0.248 NA
ATOM     55  C   UNL A   1      42.607  31.199  37.010  1.00  0.00     0.031 C 
ATOM     56  C   UNL A   1      37.663  33.874  34.711  1.00  0.00     0.029 A 
ATOM     57  C   UNL A   1      38.794  33.088  34.860  1.00  0.00     0.049 A 
ATOM     58  H   UNL A   1      39.705  31.792  33.465  1.00  0.00     0.167 HD
ATOM     59  C   UNL A   1      40.738  32.145  36.077  1.00  0.00     0.074 A 
ATOM     60  C   UNL A   1      41.593  32.022  37.240  1.00  0.00     0.031 C 
ATOM     61  C   UNL A   1      39.650  32.954  36.012  1.00  0.00     0.037 A 
BRANCH  48  62
ATOM     62  C   UNL A   1      36.745  32.792  30.551  1.00  0.00     0.057 A 
ATOM     63  C   UNL A   1      36.936  33.806  29.603  1.00  0.00     0.134 A 
ATOM     64  C   UNL A   1      35.459  32.250  30.665  1.00  0.00     0.134 A 
ATOM     65  F   UNL A   1      38.141  34.378  29.452  1.00  0.00    -0.206 F 
ATOM     66  C   UNL A   1      35.882  34.286  28.825  1.00  0.00     0.040 A 
ATOM     67  C   UNL A   1      34.402  32.702  29.871  1.00  0.00     0.040 A 
ATOM     68  F   UNL A   1      35.206  31.273  31.548  1.00  0.00    -0.206 F 
ATOM     69  C   UNL A   1      34.611  33.730  28.955  1.00  0.00     0.006 A 
ENDBRANCH  48  62
BRANCH  49  70
ATOM     70  C   UNL A   1      44.359  29.154  35.882  1.00  0.00     0.057 A 
ATOM     71  C   UNL A   1      44.201  27.986  36.636  1.00  0.00     0.134 A 
ATOM     72  C   UNL A   1      45.602  29.795  35.937  1.00  0.00     0.134 A 
ATOM     73  F   UNL A   1      43.026  27.340  36.642  1.00  0.00    -0.206 F 
ATOM     74  C   UNL A   1      45.234  27.483  37.429  1.00  0.00     0.040 A 
ATOM     75  C   UNL A   1      46.651  29.290  36.705  1.00  0.00     0.040 A 
ATOM     76  F   UNL A   1      45.815  30.920  35.237  1.00  0.00    -0.206 F 
ATOM     77  C   UNL A   1      46.466  28.134  37.460  1.00  0.00     0.006 A 
ENDBRANCH  49  70
BRANCH  61  78
ATOM     78  C   UNL A   1      39.301  33.735  37.246  1.00  0.00     0.057 A 
ATOM     79  C   UNL A   1      39.726  35.057  37.437  1.00  0.00     0.134 A 
ATOM     80  C   UNL A   1      38.510  33.161  38.251  1.00  0.00     0.134 A 
ATOM     81  F   UNL A   1      40.496  35.661  36.519  1.00  0.00    -0.206 F 
ATOM     82  C   UNL A   1      39.403  35.768  38.594  1.00  0.00     0.040 A 
ATOM     83  C   UNL A   1      38.156  33.872  39.399  1.00  0.00     0.040 A 
ATOM     84  F   UNL A   1      38.061  31.903  38.130  1.00  0.00    -0.206 F 
ATOM     85  C   UNL A   1      38.611  35.177  39.576  1.00  0.00     0.006 A 
ENDBRANCH  61  78
ENDBRANCH  35  36
ENDBRANCH  28  30
ENDBRANCH  27  28
ENDBRANCH  26  27
ENDBRANCH  25  26
ENDBRANCH   1  25
TORSDOF 16
ENDMDL
MODEL 2
REMARK VINA RESULT:     -11.1      2.960      4.302
REMARK SMILES CC(=O)Nc1cccc(-c2ccc(F)c(C(=O)OCCOCCOC(=O)c3ccc(-c4c5nc(c(-c6c(F)cccc6F)c6ccc([nH]6)c(-c6c(F)cccc6F)c6nc(c(-c7c(F)cccc7F)c7ccc4[nH]7)C=C6)C=C5)cc3)c2)c1
REMARK SMILES IDX 21 1 20 2 19 3 18 4 16 5 17 6 15 7 10 8 11 9 81 10 12 11
REMARK SMILES IDX 13 12 14 13 9 14 5 15 6 16 82 17 7 18 8 19 4 20 1 21 2 22
REMARK SMILES IDX 3 23 22 25 23 26 24 27 25 28 26 29 27 30 28 31 80 32 29 33
REMARK SMILES IDX 79 34 30 35 31 36 32 37 73 38 33 39 78 40 72 41 74 42 34 43
REMARK SMILES IDX 77 44 71 45 70 46 35 48 61 49 44 50 60 51 45 52 48 53 59 54
REMARK SMILES IDX 75 55 46 56 47 57 58 59 76 60 49 61 36 62 37 63 42 64 38 65
REMARK SMILES IDX 39 66 41 67 43 68 40 69 62 70 63 71 68 72 64 73 65 74 67 75
REMARK SMILES IDX 69 76 66 77 50 78 51 79 56 80 52 81 53 82 55 83 57 84 54 85
REMARK H PARENT 4 24 74 47 48 58
REMARK Flexibility Score: inf
ROOT
ATOM      1  O   UNL A   1      44.522  26.502  25.175  1.00  0.00    -0.374 OA
ENDROOT
BRANCH   1   2
ATOM      2  C   UNL A   1      45.870  26.878  25.461  1.00  0.00     0.202 C 
BRANCH   2   3
ATOM      3  C   UNL A   1      46.140  27.460  26.852  1.00  0.00     0.261 C 
BRANCH   3   4
ATOM      4  O   UNL A   1      46.047  26.439  27.860  1.00  0.00    -0.460 OA
BRANCH   4   5
ATOM      5  C   UNL A   1      45.253  26.739  28.919  1.00  0.00     0.341 C 
ATOM      6  O   UNL A   1      45.020  27.847  29.367  1.00  0.00    -0.246 OA
BRANCH   5   7
ATOM      7  C   UNL A   1      44.600  25.503  29.391  1.00  0.00     0.096 A 
ATOM      8  C   UNL A   1      43.187  23.544  29.013  1.00  0.00    -0.017 A 
ATOM      9  C   UNL A   1      43.408  23.167  30.349  1.00  0.00     0.012 A 
ATOM     10  C   UNL A   1      43.778  24.738  28.553  1.00  0.00     0.027 A 
ATOM     11  C   UNL A   1      44.202  23.946  31.194  1.00  0.00     0.041 A 
ATOM     12  C   UNL A   1      44.798  25.104  30.710  1.00  0.00     0.137 A 
ATOM     13  F   UNL A   1      45.526  25.846  31.557  1.00  0.00    -0.206 F 
BRANCH   8  14
ATOM     14  C   UNL A   1      42.409  22.688  28.099  1.00  0.00    -0.016 A 
ATOM     15  C   UNL A   1      42.389  21.024  26.300  1.00  0.00     0.041 A 
ATOM     16  C   UNL A   1      40.994  21.068  26.283  1.00  0.00     0.026 A 
ATOM     17  C   UNL A   1      43.078  21.851  27.187  1.00  0.00     0.034 A 
ATOM     18  C   UNL A   1      40.305  21.870  27.194  1.00  0.00     0.003 A 
ATOM     19  C   UNL A   1      41.008  22.669  28.101  1.00  0.00     0.009 A 
BRANCH  15  20
ATOM     20  N   UNL A   1      43.035  20.188  25.376  1.00  0.00    -0.326 N 
ATOM     21  C   UNL A   1      43.028  18.038  26.638  1.00  0.00     0.114 C 
ATOM     22  C   UNL A   1      43.496  18.907  25.499  1.00  0.00     0.221 C 
ATOM     23  O   UNL A   1      44.242  18.452  24.629  1.00  0.00    -0.275 OA
ATOM     24  H   UNL A   1      43.180  20.594  24.490  1.00  0.00     0.169 HD
ENDBRANCH  15  20
ENDBRANCH   8  14
ENDBRANCH   5   7
ENDBRANCH   4   5
ENDBRANCH   3   4
ENDBRANCH   2   3
ENDBRANCH   1   2
BRANCH   1  25
ATOM     25  C   UNL A   1      44.213  25.110  25.154  1.00  0.00     0.202 C 
BRANCH  25  26
ATOM     26  C   UNL A   1      42.736  24.726  25.000  1.00  0.00     0.261 C 
BRANCH  26  27
ATOM     27  O   UNL A   1      41.857  25.860  25.077  1.00  0.00    -0.460 OA
BRANCH  27  28
ATOM     28  C   UNL A   1      40.775  25.676  25.872  1.00  0.00     0.338 C 
ATOM     29  O   UNL A   1      39.847  24.906  25.697  1.00  0.00    -0.246 OA
BRANCH  28  30
ATOM     30  C   UNL A   1      40.934  26.440  27.124  1.00  0.00     0.060 A 
ATOM     31  C   UNL A   1      40.131  26.070  28.211  1.00  0.00     0.016 A 
ATOM     32  C   UNL A   1      41.779  27.548  27.209  1.00  0.00     0.016 A 
ATOM     33  C   UNL A   1      40.132  26.840  29.371  1.00  0.00     0.010 A 
ATOM     34  C   UNL A   1      41.775  28.323  28.374  1.00  0.00     0.010 A 
ATOM     35  C   UNL A   1      40.923  27.994  29.444  1.00  0.00    -0.014 A 
BRANCH  35  36
ATOM     36  C   UNL A   1      40.747  28.926  30.585  1.00  0.00     0.031 A 
ATOM     37  C   UNL A   1      39.662  29.966  30.521  1.00  0.00     0.074 A 
ATOM     38  C   UNL A   1      41.512  28.818  31.685  1.00  0.00     0.049 A 
ATOM     39  N   UNL A   1      39.332  30.878  31.399  1.00  0.00    -0.248 NA
ATOM     40  C   UNL A   1      38.840  29.979  29.301  1.00  0.00     0.031 C 
ATOM     41  C   UNL A   1      42.566  27.825  31.885  1.00  0.00     0.029 A 
ATOM     42  N   UNL A   1      41.515  29.553  32.842  1.00  0.00    -0.354 N 
ATOM     43  C   UNL A   1      38.265  31.572  30.841  1.00  0.00     0.074 A 
ATOM     44  C   UNL A   1      38.034  31.005  29.530  1.00  0.00     0.031 C 
ATOM     45  C   UNL A   1      43.111  28.009  33.099  1.00  0.00     0.029 A 
ATOM     46  C   UNL A   1      42.467  29.150  33.746  1.00  0.00     0.049 A 
ATOM     47  H   UNL A   1      40.893  30.297  33.010  1.00  0.00     0.167 HD
ATOM     48  C   UNL A   1      37.536  32.580  31.375  1.00  0.00     0.037 A 
ATOM     49  C   UNL A   1      42.788  29.656  34.952  1.00  0.00     0.037 A 
ATOM     50  C   UNL A   1      37.774  33.151  32.676  1.00  0.00     0.049 A 
ATOM     51  C   UNL A   1      42.021  30.836  35.487  1.00  0.00     0.074 A 
ATOM     52  C   UNL A   1      37.087  34.173  33.310  1.00  0.00     0.029 A 
ATOM     53  N   UNL A   1      38.783  32.752  33.540  1.00  0.00    -0.354 N 
ATOM     54  N   UNL A   1      41.004  31.473  34.959  1.00  0.00    -0.248 NA
ATOM     55  C   UNL A   1      42.450  31.364  36.790  1.00  0.00     0.031 C 
ATOM     56  C   UNL A   1      37.715  34.427  34.536  1.00  0.00     0.029 A 
ATOM     57  C   UNL A   1      38.755  33.525  34.690  1.00  0.00     0.049 A 
ATOM     58  H   UNL A   1      39.424  32.027  33.363  1.00  0.00     0.167 HD
ATOM     59  C   UNL A   1      40.648  32.452  35.880  1.00  0.00     0.074 A 
ATOM     60  C   UNL A   1      41.553  32.317  37.003  1.00  0.00     0.031 C 
ATOM     61  C   UNL A   1      39.659  33.378  35.804  1.00  0.00     0.037 A 
BRANCH  48  62
ATOM     62  C   UNL A   1      36.427  33.147  30.533  1.00  0.00     0.057 A 
ATOM     63  C   UNL A   1      36.677  34.036  29.478  1.00  0.00     0.134 A 
ATOM     64  C   UNL A   1      35.094  32.792  30.773  1.00  0.00     0.134 A 
ATOM     65  F   UNL A   1      37.931  34.428  29.203  1.00  0.00    -0.206 F 
ATOM     66  C   UNL A   1      35.640  34.578  28.719  1.00  0.00     0.040 A 
ATOM     67  C   UNL A   1      34.050  33.305  30.001  1.00  0.00     0.040 A 
ATOM     68  F   UNL A   1      34.782  31.941  31.763  1.00  0.00    -0.206 F 
ATOM     69  C   UNL A   1      34.322  34.209  28.976  1.00  0.00     0.006 A 
ENDBRANCH  48  62
BRANCH  49  70
ATOM     70  C   UNL A   1      43.884  29.045  35.747  1.00  0.00     0.057 A 
ATOM     71  C   UNL A   1      43.633  27.992  36.633  1.00  0.00     0.134 A 
ATOM     72  C   UNL A   1      45.201  29.510  35.654  1.00  0.00     0.134 A 
ATOM     73  F   UNL A   1      42.386  27.519  36.783  1.00  0.00    -0.206 F 
ATOM     74  C   UNL A   1      44.648  27.433  37.410  1.00  0.00     0.040 A 
ATOM     75  C   UNL A   1      46.231  28.944  36.406  1.00  0.00     0.040 A 
ATOM     76  F   UNL A   1      45.506  30.518  34.823  1.00  0.00    -0.206 F 
ATOM     77  C   UNL A   1      45.953  27.906  37.293  1.00  0.00     0.006 A 
ENDBRANCH  49  70
BRANCH  61  78
ATOM     78  C   UNL A   1      39.478  34.287  36.986  1.00  0.00     0.057 A 
ATOM     79  C   UNL A   1      38.698  33.924  38.092  1.00  0.00     0.134 A 
ATOM     80  C   UNL A   1      40.110  35.537  37.025  1.00  0.00     0.134 A 
ATOM     81  F   UNL A   1      38.055  32.746  38.113  1.00  0.00    -0.206 F 
ATOM     82  C   UNL A   1      38.530  34.782  39.180  1.00  0.00     0.040 A 
ATOM     83  C   UNL A   1      39.973  36.392  38.120  1.00  0.00     0.040 A 
ATOM     84  F   UNL A   1      40.879  35.944  36.005  1.00  0.00    -0.206 F 
ATOM     85  C   UNL A   1      39.173  36.018  39.198  1.00  0.00     0.006 A 
ENDBRANCH  61  78
ENDBRANCH  35  36
ENDBRANCH  28  30
ENDBRANCH  27  28
ENDBRANCH  26  27
ENDBRANCH  25  26
ENDBRANCH   1  25
TORSDOF 16
ENDMDL
MODEL 3
REMARK VINA RESULT:     -11.0      5.850     11.335
REMARK SMILES CC(=O)Nc1cccc(-c2ccc(F)c(C(=O)OCCOCCOC(=O)c3ccc(-c4c5nc(c(-c6c(F)cccc6F)c6ccc([nH]6)c(-c6c(F)cccc6F)c6nc(c(-c7c(F)cccc7F)c7ccc4[nH]7)C=C6)C=C5)cc3)c2)c1
REMARK SMILES IDX 21 1 20 2 19 3 18 4 16 5 17 6 15 7 10 8 11 9 81 10 12 11
REMARK SMILES IDX 13 12 14 13 9 14 5 15 6 16 82 17 7 18 8 19 4 20 1 21 2 22
REMARK SMILES IDX 3 23 22 25 23 26 24 27 25 28 26 29 27 30 28 31 80 32 29 33
REMARK SMILES IDX 79 34 30 35 31 36 32 37 73 38 33 39 78 40 72 41 74 42 34 43
REMARK SMILES IDX 77 44 71 45 70 46 35 48 61 49 44 50 60 51 45 52 48 53 59 54
REMARK SMILES IDX 75 55 46 56 47 57 58 59 76 60 49 61 36 62 37 63 42 64 38 65
REMARK SMILES IDX 39 66 41 67 43 68 40 69 62 70 63 71 68 72 64 73 65 74 67 75
REMARK SMILES IDX 69 76 66 77 50 78 51 79 56 80 52 81 53 82 55 83 57 84 54 85
REMARK H PARENT 4 24 74 47 48 58
REMARK Flexibility Score: inf
ROOT
ATOM      1  O   UNL A   1      34.481  34.265  30.776  1.00  0.00    -0.374 OA
ENDROOT
BRANCH   1   2
ATOM      2  C   UNL A   1      33.678  34.976  29.834  1.00  0.00     0.202 C 
BRANCH   2   3
ATOM      3  C   UNL A   1      34.040  34.806  28.355  1.00  0.00     0.261 C 
BRANCH   3   4
ATOM      4  O   UNL A   1      34.100  33.414  28.001  1.00  0.00    -0.460 OA
BRANCH   4   5
ATOM      5  C   UNL A   1      32.931  32.873  27.573  1.00  0.00     0.341 C 
ATOM      6  O   UNL A   1      31.892  33.466  27.346  1.00  0.00    -0.246 OA
BRANCH   5   7
ATOM      7  C   UNL A   1      33.140  31.438  27.303  1.00  0.00     0.096 A 
ATOM      8  C   UNL A   1      32.462  29.329  26.267  1.00  0.00    -0.017 A 
ATOM      9  C   UNL A   1      33.605  28.727  26.822  1.00  0.00     0.012 A 
ATOM     10  C   UNL A   1      32.232  30.693  26.538  1.00  0.00     0.027 A 
ATOM     11  C   UNL A   1      34.493  29.461  27.612  1.00  0.00     0.041 A 
ATOM     12  C   UNL A   1      34.260  30.811  27.842  1.00  0.00     0.137 A 
ATOM     13  F   UNL A   1      35.115  31.478  28.631  1.00  0.00    -0.206 F 
BRANCH   8  14
ATOM     14  C   UNL A   1      31.562  28.577  25.375  1.00  0.00    -0.016 A 
ATOM     15  C   UNL A   1      30.155  28.538  23.369  1.00  0.00     0.041 A 
ATOM     16  C   UNL A   1      29.790  27.223  23.657  1.00  0.00     0.026 A 
ATOM     17  C   UNL A   1      31.013  29.206  24.242  1.00  0.00     0.034 A 
ATOM     18  C   UNL A   1      30.338  26.566  24.760  1.00  0.00     0.003 A 
ATOM     19  C   UNL A   1      31.225  27.237  25.609  1.00  0.00     0.009 A 
BRANCH  15  20
ATOM     20  N   UNL A   1      29.589  29.149  22.239  1.00  0.00    -0.326 N 
ATOM     21  C   UNL A   1      27.653  30.317  23.288  1.00  0.00     0.114 C 
ATOM     22  C   UNL A   1      28.407  29.818  22.083  1.00  0.00     0.221 C 
ATOM     23  O   UNL A   1      28.006  30.068  20.944  1.00  0.00    -0.275 OA
ATOM     24  H   UNL A   1      30.135  29.085  21.422  1.00  0.00     0.169 HD
ENDBRANCH  15  20
ENDBRANCH   8  14
ENDBRANCH   5   7
ENDBRANCH   4   5
ENDBRANCH   3   4
ENDBRANCH   2   3
ENDBRANCH   1   2
BRANCH   1  25
ATOM     25  C   UNL A   1      34.191  34.444  32.161  1.00  0.00     0.202 C 
BRANCH  25  26
ATOM     26  C   UNL A   1      35.379  34.713  33.093  1.00  0.00     0.261 C 
BRANCH  26  27
ATOM     27  O   UNL A   1      36.582  34.055  32.662  1.00  0.00    -0.460 OA
BRANCH  27  28
ATOM     28  C   UNL A   1      36.766  32.821  33.193  1.00  0.00     0.338 C 
ATOM     29  O   UNL A   1      36.210  32.341  34.165  1.00  0.00    -0.246 OA
BRANCH  28  30
ATOM     30  C   UNL A   1      37.646  32.022  32.319  1.00  0.00     0.060 A 
ATOM     31  C   UNL A   1      38.630  31.241  32.938  1.00  0.00     0.016 A 
ATOM     32  C   UNL A   1      37.572  32.102  30.928  1.00  0.00     0.016 A 
ATOM     33  C   UNL A   1      39.580  30.578  32.166  1.00  0.00     0.010 A 
ATOM     34  C   UNL A   1      38.530  31.439  30.153  1.00  0.00     0.010 A 
ATOM     35  C   UNL A   1      39.560  30.705  30.770  1.00  0.00    -0.014 A 
BRANCH  35  36
ATOM     36  C   UNL A   1      40.701  30.188  29.976  1.00  0.00     0.031 A 
ATOM     37  C   UNL A   1      41.872  31.090  29.700  1.00  0.00     0.074 A 
ATOM     38  C   UNL A   1      40.715  28.914  29.545  1.00  0.00     0.049 A 
ATOM     39  N   UNL A   1      42.970  30.846  29.030  1.00  0.00    -0.248 NA
ATOM     40  C   UNL A   1      41.792  32.451  30.252  1.00  0.00     0.031 C 
ATOM     41  C   UNL A   1      39.662  27.930  29.785  1.00  0.00     0.029 A 
ATOM     42  N   UNL A   1      41.656  28.232  28.817  1.00  0.00    -0.354 N 
ATOM     43  C   UNL A   1      43.712  32.020  29.082  1.00  0.00     0.074 A 
ATOM     44  C   UNL A   1      42.920  32.988  29.809  1.00  0.00     0.031 C 
ATOM     45  C   UNL A   1      40.018  26.765  29.219  1.00  0.00     0.029 A 
ATOM     46  C   UNL A   1      41.307  26.931  28.550  1.00  0.00     0.049 A 
ATOM     47  H   UNL A   1      42.501  28.636  28.515  1.00  0.00     0.167 HD
ATOM     48  C   UNL A   1      44.946  32.266  28.581  1.00  0.00     0.037 A 
ATOM     49  C   UNL A   1      41.952  25.988  27.837  1.00  0.00     0.037 A 
ATOM     50  C   UNL A   1      45.730  31.305  27.849  1.00  0.00     0.049 A 
ATOM     51  C   UNL A   1      43.282  26.314  27.213  1.00  0.00     0.074 A 
ATOM     52  C   UNL A   1      46.994  31.455  27.305  1.00  0.00     0.029 A 
ATOM     53  N   UNL A   1      45.319  30.013  27.553  1.00  0.00    -0.354 N 
ATOM     54  N   UNL A   1      43.983  27.419  27.282  1.00  0.00    -0.248 NA
ATOM     55  C   UNL A   1      43.912  25.253  26.413  1.00  0.00     0.031 C 
ATOM     56  C   UNL A   1      47.326  30.271  26.634  1.00  0.00     0.029 A 
ATOM     57  C   UNL A   1      46.293  29.365  26.810  1.00  0.00     0.049 A 
ATOM     58  H   UNL A   1      44.462  29.616  27.829  1.00  0.00     0.167 HD
ATOM     59  C   UNL A   1      45.150  27.177  26.567  1.00  0.00     0.074 A 
ATOM     60  C   UNL A   1      45.066  25.815  26.081  1.00  0.00     0.031 C 
ATOM     61  C   UNL A   1      46.199  28.006  26.336  1.00  0.00     0.037 A 
BRANCH  48  62
ATOM     62  C   UNL A   1      45.509  33.644  28.789  1.00  0.00     0.057 A 
ATOM     63  C   UNL A   1      45.271  34.687  27.884  1.00  0.00     0.134 A 
ATOM     64  C   UNL A   1      46.293  33.934  29.913  1.00  0.00     0.134 A 
ATOM     65  F   UNL A   1      44.539  34.474  26.779  1.00  0.00    -0.206 F 
ATOM     66  C   UNL A   1      45.819  35.957  28.071  1.00  0.00     0.040 A 
ATOM     67  C   UNL A   1      46.823  35.208  30.127  1.00  0.00     0.040 A 
ATOM     68  F   UNL A   1      46.557  32.985  30.824  1.00  0.00    -0.206 F 
ATOM     69  C   UNL A   1      46.594  36.221  29.198  1.00  0.00     0.006 A 
ENDBRANCH  48  62
BRANCH  49  70
ATOM     70  C   UNL A   1      41.353  24.638  27.677  1.00  0.00     0.057 A 
ATOM     71  C   UNL A   1      41.823  23.549  28.418  1.00  0.00     0.134 A 
ATOM     72  C   UNL A   1      40.314  24.402  26.769  1.00  0.00     0.134 A 
ATOM     73  F   UNL A   1      42.832  23.708  29.287  1.00  0.00    -0.206 F 
ATOM     74  C   UNL A   1      41.292  22.269  28.252  1.00  0.00     0.040 A 
ATOM     75  C   UNL A   1      39.757  23.133  26.611  1.00  0.00     0.040 A 
ATOM     76  F   UNL A   1      39.821  25.406  26.028  1.00  0.00    -0.206 F 
ATOM     77  C   UNL A   1      40.251  22.060  27.350  1.00  0.00     0.006 A 
ENDBRANCH  49  70
BRANCH  61  78
ATOM     78  C   UNL A   1      47.357  27.448  25.559  1.00  0.00     0.057 A 
ATOM     79  C   UNL A   1      47.453  27.579  24.167  1.00  0.00     0.134 A 
ATOM     80  C   UNL A   1      48.402  26.786  26.218  1.00  0.00     0.134 A 
ATOM     81  F   UNL A   1      46.481  28.191  23.474  1.00  0.00    -0.206 F 
ATOM     82  C   UNL A   1      48.530  27.046  23.456  1.00  0.00     0.040 A 
ATOM     83  C   UNL A   1      49.498  26.274  25.521  1.00  0.00     0.040 A 
ATOM     84  F   UNL A   1      48.379  26.633  27.550  1.00  0.00    -0.206 F 
ATOM     85  C   UNL A   1      49.560  26.396  24.134  1.00  0.00     0.006 A 
ENDBRANCH  61  78
ENDBRANCH  35  36
ENDBRANCH  28  30
ENDBRANCH  27  28
ENDBRANCH  26  27
ENDBRANCH  25  26
ENDBRANCH   1  25
TORSDOF 16
ENDMDL
