MODEL 1
REMARK VINA RESULT:     -10.4      0.000      0.000
REMARK SMILES Cc1n[nH]c(C(F)(F)Cl)c1C(=O)OCCOCCOC(=O)c1ccc(-c2c3nc(c(-c4c(F)cccc4F)c4ccc([nH]4)c(-c4c(F)cccc4F)c4nc(c(-c5c(F)cccc5F)c5ccc2[nH]5)C=C4)C=C3)cc1
REMARK SMILES IDX 17 1 16 2 15 3 14 4 13 5 11 6 12 7 10 8 1 9 2 10 3 11 4 12
REMARK SMILES IDX 5 13 6 15 7 16 8 17 9 18 18 19 19 20 20 21 21 22 22 23 23 24
REMARK SMILES IDX 75 25 24 26 74 27 25 28 26 29 27 30 68 31 28 32 73 33 67 34
REMARK SMILES IDX 69 35 29 36 72 37 66 38 65 39 30 41 56 42 39 43 55 44 40 45
REMARK SMILES IDX 43 46 54 47 70 48 41 49 42 50 53 52 71 53 44 54 31 55 32 56
REMARK SMILES IDX 37 57 33 58 34 59 36 60 38 61 35 62 57 63 58 64 63 65 59 66
REMARK SMILES IDX 60 67 62 68 64 69 61 70 45 71 46 72 51 73 47 74 48 75 50 76
REMARK SMILES IDX 52 77 49 78
REMARK H PARENT 4 14 69 40 43 51
REMARK Flexibility Score: inf
ROOT
ATOM      1  C   UNL A   1      31.389  31.748  26.771  1.00  0.00     0.202 C 
ENDROOT
BRANCH   1   2
ATOM      2  O   UNL A   1      32.184  30.639  26.348  1.00  0.00    -0.374 OA
BRANCH   2   3
ATOM      3  C   UNL A   1      32.085  29.453  27.141  1.00  0.00     0.202 C 
BRANCH   3   4
ATOM      4  C   UNL A   1      32.084  28.169  26.304  1.00  0.00     0.261 C 
BRANCH   4   5
ATOM      5  O   UNL A   1      30.769  27.986  25.751  1.00  0.00    -0.460 OA
BRANCH   5   6
ATOM      6  C   UNL A   1      30.705  27.364  24.545  1.00  0.00     0.342 C 
ATOM      7  O   UNL A   1      30.519  26.166  24.380  1.00  0.00    -0.246 OA
BRANCH   6   8
ATOM      8  C   UNL A   1      30.718  28.317  23.452  1.00  0.00     0.111 A 
ATOM      9  C   UNL A   1      28.184  28.913  23.062  1.00  0.00     0.070 C 
ATOM     10  C   UNL A   1      29.642  28.963  22.777  1.00  0.00     0.074 A 
ATOM     11  N   UNL A   1      30.084  29.731  21.773  1.00  0.00    -0.180 NA
ATOM     12  N   UNL A   1      31.414  29.589  21.802  1.00  0.00    -0.274 N 
ATOM     13  C   UNL A   1      31.853  28.739  22.772  1.00  0.00     0.135 A 
ATOM     14  H   UNL A   1      32.019  30.055  21.181  1.00  0.00     0.190 HD
BRANCH  13  15
ATOM     15  C   UNL A   1      33.297  28.447  22.900  1.00  0.00     0.365 C 
ATOM     16  F   UNL A   1      33.937  28.843  21.760  1.00  0.00    -0.181 F 
ATOM     17  F   UNL A   1      33.855  29.170  23.903  1.00  0.00    -0.181 F 
ATOM     18  Cl  UNL A   1      33.626  26.725  23.129  1.00  0.00    -0.040 Cl
ENDBRANCH  13  15
ENDBRANCH   6   8
ENDBRANCH   5   6
ENDBRANCH   4   5
ENDBRANCH   3   4
ENDBRANCH   2   3
ENDBRANCH   1   2
BRANCH   1  19
ATOM     19  C   UNL A   1      32.145  33.077  26.809  1.00  0.00     0.261 C 
BRANCH  19  20
ATOM     20  O   UNL A   1      32.208  33.576  28.154  1.00  0.00    -0.460 OA
BRANCH  20  21
ATOM     21  C   UNL A   1      33.239  34.417  28.402  1.00  0.00     0.338 C 
ATOM     22  O   UNL A   1      33.199  35.632  28.491  1.00  0.00    -0.246 OA
BRANCH  21  23
ATOM     23  C   UNL A   1      34.452  33.633  28.712  1.00  0.00     0.060 A 
ATOM     24  C   UNL A   1      34.267  32.355  29.252  1.00  0.00     0.016 A 
ATOM     25  C   UNL A   1      35.740  34.142  28.519  1.00  0.00     0.016 A 
ATOM     26  C   UNL A   1      35.368  31.601  29.648  1.00  0.00     0.010 A 
ATOM     27  C   UNL A   1      36.845  33.386  28.924  1.00  0.00     0.010 A 
ATOM     28  C   UNL A   1      36.659  32.128  29.519  1.00  0.00    -0.014 A 
BRANCH  28  29
ATOM     29  C   UNL A   1      37.794  31.416  30.147  1.00  0.00     0.031 A 
ATOM     30  C   UNL A   1      38.113  31.686  31.590  1.00  0.00     0.074 A 
ATOM     31  C   UNL A   1      38.507  30.512  29.453  1.00  0.00     0.049 A 
ATOM     32  N   UNL A   1      39.041  31.161  32.347  1.00  0.00    -0.248 NA
ATOM     33  C   UNL A   1      37.269  32.681  32.272  1.00  0.00     0.031 C 
ATOM     34  C   UNL A   1      38.277  30.144  28.058  1.00  0.00     0.029 A 
ATOM     35  N   UNL A   1      39.571  29.738  29.838  1.00  0.00    -0.354 N 
ATOM     36  C   UNL A   1      38.889  31.753  33.593  1.00  0.00     0.074 A 
ATOM     37  C   UNL A   1      37.799  32.699  33.486  1.00  0.00     0.031 C 
ATOM     38  C   UNL A   1      39.181  29.216  27.699  1.00  0.00     0.029 A 
ATOM     39  C   UNL A   1      40.059  28.939  28.834  1.00  0.00     0.049 A 
ATOM     40  H   UNL A   1      39.950  29.754  30.746  1.00  0.00     0.167 HD
ATOM     41  C   UNL A   1      39.588  31.523  34.729  1.00  0.00     0.037 A 
ATOM     42  C   UNL A   1      41.103  28.088  28.835  1.00  0.00     0.037 A 
ATOM     43  C   UNL A   1      40.675  30.588  34.839  1.00  0.00     0.049 A 
ATOM     44  C   UNL A   1      41.903  27.895  30.092  1.00  0.00     0.074 A 
ATOM     45  C   UNL A   1      41.432  30.272  35.953  1.00  0.00     0.029 A 
ATOM     46  N   UNL A   1      41.163  29.824  33.791  1.00  0.00    -0.354 N 
ATOM     47  N   UNL A   1      41.731  28.436  31.274  1.00  0.00    -0.248 NA
ATOM     48  C   UNL A   1      43.045  26.971  30.016  1.00  0.00     0.031 C 
ATOM     49  C   UNL A   1      42.401  29.337  35.570  1.00  0.00     0.029 A 
ATOM     50  C   UNL A   1      42.225  29.051  34.226  1.00  0.00     0.049 A 
ATOM     51  H   UNL A   1      40.806  29.829  32.874  1.00  0.00     0.167 HD
ATOM     52  C   UNL A   1      42.724  27.904  32.085  1.00  0.00     0.074 A 
ATOM     53  C   UNL A   1      43.493  26.992  31.265  1.00  0.00     0.031 C 
ATOM     54  C   UNL A   1      42.976  28.148  33.394  1.00  0.00     0.037 A 
BRANCH  41  55
ATOM     55  C   UNL A   1      39.202  32.313  35.940  1.00  0.00     0.057 A 
ATOM     56  C   UNL A   1      39.714  33.596  36.171  1.00  0.00     0.134 A 
ATOM     57  C   UNL A   1      38.297  31.795  36.874  1.00  0.00     0.134 A 
ATOM     58  F   UNL A   1      40.598  34.138  35.321  1.00  0.00    -0.206 F 
ATOM     59  C   UNL A   1      39.349  34.332  37.299  1.00  0.00     0.040 A 
ATOM     60  C   UNL A   1      37.912  32.528  37.996  1.00  0.00     0.040 A 
ATOM     61  F   UNL A   1      37.774  30.571  36.708  1.00  0.00    -0.206 F 
ATOM     62  C   UNL A   1      38.442  33.799  38.214  1.00  0.00     0.006 A 
ENDBRANCH  41  55
BRANCH  42  63
ATOM     63  C   UNL A   1      41.457  27.353  27.597  1.00  0.00     0.057 A 
ATOM     64  C   UNL A   1      41.001  26.049  27.374  1.00  0.00     0.134 A 
ATOM     65  C   UNL A   1      42.273  27.930  26.619  1.00  0.00     0.134 A 
ATOM     66  F   UNL A   1      40.235  25.437  28.288  1.00  0.00    -0.206 F 
ATOM     67  C   UNL A   1      41.355  25.341  26.225  1.00  0.00     0.040 A 
ATOM     68  C   UNL A   1      42.621  27.240  25.458  1.00  0.00     0.040 A 
ATOM     69  F   UNL A   1      42.742  29.178  26.779  1.00  0.00    -0.206 F 
ATOM     70  C   UNL A   1      42.165  25.938  25.261  1.00  0.00     0.006 A 
ENDBRANCH  42  63
BRANCH  54  71
ATOM     71  C   UNL A   1      44.113  27.402  34.022  1.00  0.00     0.057 A 
ATOM     72  C   UNL A   1      45.408  27.933  34.054  1.00  0.00     0.134 A 
ATOM     73  C   UNL A   1      43.901  26.163  34.639  1.00  0.00     0.134 A 
ATOM     74  F   UNL A   1      45.675  29.111  33.469  1.00  0.00    -0.206 F 
ATOM     75  C   UNL A   1      46.459  27.249  34.667  1.00  0.00     0.040 A 
ATOM     76  C   UNL A   1      44.941  25.478  35.270  1.00  0.00     0.040 A 
ATOM     77  F   UNL A   1      42.681  25.606  34.647  1.00  0.00    -0.206 F 
ATOM     78  C   UNL A   1      46.224  26.020  35.283  1.00  0.00     0.006 A 
ENDBRANCH  54  71
ENDBRANCH  28  29
ENDBRANCH  21  23
ENDBRANCH  20  21
ENDBRANCH  19  20
ENDBRANCH   1  19
TORSDOF 15
ENDMDL
MODEL 2
REMARK VINA RESULT:     -10.3      1.473      2.188
REMARK SMILES Cc1n[nH]c(C(F)(F)Cl)c1C(=O)OCCOCCOC(=O)c1ccc(-c2c3nc(c(-c4c(F)cccc4F)c4ccc([nH]4)c(-c4c(F)cccc4F)c4nc(c(-c5c(F)cccc5F)c5ccc2[nH]5)C=C4)C=C3)cc1
REMARK SMILES IDX 17 1 16 2 15 3 14 4 13 5 11 6 12 7 10 8 1 9 2 10 3 11 4 12
REMARK SMILES IDX 5 13 6 15 7 16 8 17 9 18 18 19 19 20 20 21 21 22 22 23 23 24
REMARK SMILES IDX 75 25 24 26 74 27 25 28 26 29 27 30 68 31 28 32 73 33 67 34
REMARK SMILES IDX 69 35 29 36 72 37 66 38 65 39 30 41 56 42 39 43 55 44 40 45
REMARK SMILES IDX 43 46 54 47 70 48 41 49 42 50 53 52 71 53 44 54 31 55 32 56
REMARK SMILES IDX 37 57 33 58 34 59 36 60 38 61 35 62 57 63 58 64 63 65 59 66
REMARK SMILES IDX 60 67 62 68 64 69 61 70 45 71 46 72 51 73 47 74 48 75 50 76
REMARK SMILES IDX 52 77 49 78
REMARK H PARENT 4 14 69 40 43 51
REMARK Flexibility Score: inf
ROOT
ATOM      1  C   UNL A   1      31.344  32.027  26.650  1.00  0.00     0.202 C 
ENDROOT
BRANCH   1   2
ATOM      2  O   UNL A   1      31.926  30.929  25.944  1.00  0.00    -0.374 OA
BRANCH   2   3
ATOM      3  C   UNL A   1      31.865  29.657  26.595  1.00  0.00     0.202 C 
BRANCH   3   4
ATOM      4  C   UNL A   1      31.636  28.495  25.622  1.00  0.00     0.261 C 
BRANCH   4   5
ATOM      5  O   UNL A   1      31.812  28.983  24.281  1.00  0.00    -0.460 OA
BRANCH   5   6
ATOM      6  C   UNL A   1      31.420  28.149  23.282  1.00  0.00     0.342 C 
ATOM      7  O   UNL A   1      32.150  27.709  22.405  1.00  0.00    -0.246 OA
BRANCH   6   8
ATOM      8  C   UNL A   1      30.053  27.700  23.469  1.00  0.00     0.111 A 
ATOM      9  C   UNL A   1      30.281  25.248  24.394  1.00  0.00     0.070 C 
ATOM     10  C   UNL A   1      29.546  26.444  23.909  1.00  0.00     0.074 A 
ATOM     11  N   UNL A   1      28.207  26.420  23.883  1.00  0.00    -0.180 NA
ATOM     12  N   UNL A   1      27.857  27.634  23.442  1.00  0.00    -0.274 N 
ATOM     13  C   UNL A   1      28.919  28.439  23.157  1.00  0.00     0.135 A 
ATOM     14  H   UNL A   1      26.922  27.919  23.333  1.00  0.00     0.190 HD
BRANCH  13  15
ATOM     15  C   UNL A   1      28.692  29.798  22.618  1.00  0.00     0.365 C 
ATOM     16  F   UNL A   1      29.400  29.944  21.460  1.00  0.00    -0.181 F 
ATOM     17  F   UNL A   1      27.391  29.977  22.277  1.00  0.00    -0.181 F 
ATOM     18  Cl  UNL A   1      29.215  31.068  23.730  1.00  0.00    -0.040 Cl
ENDBRANCH  13  15
ENDBRANCH   6   8
ENDBRANCH   5   6
ENDBRANCH   4   5
ENDBRANCH   3   4
ENDBRANCH   2   3
ENDBRANCH   1   2
BRANCH   1  19
ATOM     19  C   UNL A   1      32.286  33.217  26.834  1.00  0.00     0.261 C 
BRANCH  19  20
ATOM     20  O   UNL A   1      32.176  33.736  28.169  1.00  0.00    -0.460 OA
BRANCH  20  21
ATOM     21  C   UNL A   1      33.180  34.563  28.544  1.00  0.00     0.338 C 
ATOM     22  O   UNL A   1      33.116  35.764  28.741  1.00  0.00    -0.246 OA
BRANCH  21  23
ATOM     23  C   UNL A   1      34.390  33.769  28.840  1.00  0.00     0.060 A 
ATOM     24  C   UNL A   1      34.200  32.493  29.385  1.00  0.00     0.016 A 
ATOM     25  C   UNL A   1      35.680  34.265  28.629  1.00  0.00     0.016 A 
ATOM     26  C   UNL A   1      35.299  31.730  29.768  1.00  0.00     0.010 A 
ATOM     27  C   UNL A   1      36.783  33.500  29.021  1.00  0.00     0.010 A 
ATOM     28  C   UNL A   1      36.594  32.244  29.622  1.00  0.00    -0.014 A 
BRANCH  28  29
ATOM     29  C   UNL A   1      37.730  31.524  30.237  1.00  0.00     0.031 A 
ATOM     30  C   UNL A   1      38.064  31.789  31.678  1.00  0.00     0.074 A 
ATOM     31  C   UNL A   1      38.430  30.616  29.534  1.00  0.00     0.049 A 
ATOM     32  N   UNL A   1      38.996  31.255  32.423  1.00  0.00    -0.248 NA
ATOM     33  C   UNL A   1      37.234  32.788  32.370  1.00  0.00     0.031 C 
ATOM     34  C   UNL A   1      38.183  30.253  28.140  1.00  0.00     0.029 A 
ATOM     35  N   UNL A   1      39.492  29.834  29.906  1.00  0.00    -0.354 N 
ATOM     36  C   UNL A   1      38.861  31.846  33.673  1.00  0.00     0.074 A 
ATOM     37  C   UNL A   1      37.777  32.799  33.578  1.00  0.00     0.031 C 
ATOM     38  C   UNL A   1      39.078  29.320  27.771  1.00  0.00     0.029 A 
ATOM     39  C   UNL A   1      39.965  29.034  28.896  1.00  0.00     0.049 A 
ATOM     40  H   UNL A   1      39.880  29.846  30.811  1.00  0.00     0.167 HD
ATOM     41  C   UNL A   1      39.570  31.608  34.800  1.00  0.00     0.037 A 
ATOM     42  C   UNL A   1      41.003  28.176  28.884  1.00  0.00     0.037 A 
ATOM     43  C   UNL A   1      40.652  30.665  34.898  1.00  0.00     0.049 A 
ATOM     44  C   UNL A   1      41.814  27.975  30.133  1.00  0.00     0.074 A 
ATOM     45  C   UNL A   1      41.418  30.342  36.004  1.00  0.00     0.029 A 
ATOM     46  N   UNL A   1      41.124  29.901  33.844  1.00  0.00    -0.354 N 
ATOM     47  N   UNL A   1      41.657  28.515  31.318  1.00  0.00    -0.248 NA
ATOM     48  C   UNL A   1      42.949  27.043  30.044  1.00  0.00     0.031 C 
ATOM     49  C   UNL A   1      42.376  29.401  35.609  1.00  0.00     0.029 A 
ATOM     50  C   UNL A   1      42.185  29.120  34.266  1.00  0.00     0.049 A 
ATOM     51  H   UNL A   1      40.758  29.911  32.930  1.00  0.00     0.167 HD
ATOM     52  C   UNL A   1      42.655  27.974  32.118  1.00  0.00     0.074 A 
ATOM     53  C   UNL A   1      43.409  27.058  31.288  1.00  0.00     0.031 C 
ATOM     54  C   UNL A   1      42.921  28.214  33.425  1.00  0.00     0.037 A 
BRANCH  41  55
ATOM     55  C   UNL A   1      39.201  32.398  36.017  1.00  0.00     0.057 A 
ATOM     56  C   UNL A   1      39.747  33.664  36.262  1.00  0.00     0.134 A 
ATOM     57  C   UNL A   1      38.279  31.898  36.943  1.00  0.00     0.134 A 
ATOM     58  F   UNL A   1      40.649  34.189  35.419  1.00  0.00    -0.206 F 
ATOM     59  C   UNL A   1      39.399  34.400  37.395  1.00  0.00     0.040 A 
ATOM     60  C   UNL A   1      37.910  32.631  38.071  1.00  0.00     0.040 A 
ATOM     61  F   UNL A   1      37.722  30.690  36.765  1.00  0.00    -0.206 F 
ATOM     62  C   UNL A   1      38.474  33.885  38.302  1.00  0.00     0.006 A 
ENDBRANCH  41  55
BRANCH  42  63
ATOM     63  C   UNL A   1      41.339  27.442  27.641  1.00  0.00     0.057 A 
ATOM     64  C   UNL A   1      42.159  28.012  26.663  1.00  0.00     0.134 A 
ATOM     65  C   UNL A   1      40.832  26.161  27.397  1.00  0.00     0.134 A 
ATOM     66  F   UNL A   1      42.654  29.246  26.833  1.00  0.00    -0.206 F 
ATOM     67  C   UNL A   1      42.455  27.338  25.477  1.00  0.00     0.040 A 
ATOM     68  C   UNL A   1      41.134  25.468  26.224  1.00  0.00     0.040 A 
ATOM     69  F   UNL A   1      40.038  25.563  28.299  1.00  0.00    -0.206 F 
ATOM     70  C   UNL A   1      41.944  26.060  25.258  1.00  0.00     0.006 A 
ENDBRANCH  42  63
BRANCH  54  71
ATOM     71  C   UNL A   1      44.060  27.459  34.040  1.00  0.00     0.057 A 
ATOM     72  C   UNL A   1      43.879  26.188  34.598  1.00  0.00     0.134 A 
ATOM     73  C   UNL A   1      45.355  27.990  34.035  1.00  0.00     0.134 A 
ATOM     74  F   UNL A   1      42.658  25.632  34.643  1.00  0.00    -0.206 F 
ATOM     75  C   UNL A   1      44.948  25.475  35.144  1.00  0.00     0.040 A 
ATOM     76  C   UNL A   1      46.435  27.279  34.562  1.00  0.00     0.040 A 
ATOM     77  F   UNL A   1      45.592  29.201  33.509  1.00  0.00    -0.206 F 
ATOM     78  C   UNL A   1      46.231  26.019  35.121  1.00  0.00     0.006 A 
ENDBRANCH  54  71
ENDBRANCH  28  29
ENDBRANCH  21  23
ENDBRANCH  20  21
ENDBRANCH  19  20
ENDBRANCH   1  19
TORSDOF 15
ENDMDL
MODEL 3
REMARK VINA RESULT:     -10.1      1.480      2.238
REMARK SMILES Cc1n[nH]c(C(F)(F)Cl)c1C(=O)OCCOCCOC(=O)c1ccc(-c2c3nc(c(-c4c(F)cccc4F)c4ccc([nH]4)c(-c4c(F)cccc4F)c4nc(c(-c5c(F)cccc5F)c5ccc2[nH]5)C=C4)C=C3)cc1
REMARK SMILES IDX 17 1 16 2 15 3 14 4 13 5 11 6 12 7 10 8 1 9 2 10 3 11 4 12
REMARK SMILES IDX 5 13 6 15 7 16 8 17 9 18 18 19 19 20 20 21 21 22 22 23 23 24
REMARK SMILES IDX 75 25 24 26 74 27 25 28 26 29 27 30 68 31 28 32 73 33 67 34
REMARK SMILES IDX 69 35 29 36 72 37 66 38 65 39 30 41 56 42 39 43 55 44 40 45
REMARK SMILES IDX 43 46 54 47 70 48 41 49 42 50 53 52 71 53 44 54 31 55 32 56
REMARK SMILES IDX 37 57 33 58 34 59 36 60 38 61 35 62 57 63 58 64 63 65 59 66
REMARK SMILES IDX 60 67 62 68 64 69 61 70 45 71 46 72 51 73 47 74 48 75 50 76
REMARK SMILES IDX 52 77 49 78
REMARK H PARENT 4 14 69 40 43 51
REMARK Flexibility Score: inf
ROOT
ATOM      1  C   UNL A   1      31.373  31.968  26.766  1.00  0.00     0.202 C 
ENDROOT
BRANCH   1   2
ATOM      2  O   UNL A   1      31.984  30.805  26.204  1.00  0.00    -0.374 OA
BRANCH   2   3
ATOM      3  C   UNL A   1      32.194  29.708  27.099  1.00  0.00     0.202 C 
BRANCH   3   4
ATOM      4  C   UNL A   1      31.776  28.360  26.502  1.00  0.00     0.261 C 
BRANCH   4   5
ATOM      5  O   UNL A   1      32.414  28.211  25.221  1.00  0.00    -0.460 OA
BRANCH   5   6
ATOM      6  C   UNL A   1      31.593  27.976  24.165  1.00  0.00     0.342 C 
ATOM      7  O   UNL A   1      30.575  28.606  23.911  1.00  0.00    -0.246 OA
BRANCH   6   8
ATOM      8  C   UNL A   1      32.152  26.986  23.265  1.00  0.00     0.111 A 
ATOM      9  C   UNL A   1      34.098  28.246  22.019  1.00  0.00     0.070 C 
ATOM     10  C   UNL A   1      33.203  27.095  22.309  1.00  0.00     0.074 A 
ATOM     11  N   UNL A   1      33.370  25.953  21.632  1.00  0.00    -0.180 NA
ATOM     12  N   UNL A   1      32.453  25.122  22.142  1.00  0.00    -0.274 N 
ATOM     13  C   UNL A   1      31.679  25.690  23.109  1.00  0.00     0.135 A 
ATOM     14  H   UNL A   1      32.348  24.189  21.847  1.00  0.00     0.190 HD
BRANCH  13  15
ATOM     15  C   UNL A   1      30.592  24.908  23.738  1.00  0.00     0.365 C 
ATOM     16  F   UNL A   1      29.436  25.634  23.695  1.00  0.00    -0.181 F 
ATOM     17  F   UNL A   1      30.338  23.774  23.038  1.00  0.00    -0.181 F 
ATOM     18  Cl  UNL A   1      30.921  24.523  25.431  1.00  0.00    -0.040 Cl
ENDBRANCH  13  15
ENDBRANCH   6   8
ENDBRANCH   5   6
ENDBRANCH   4   5
ENDBRANCH   3   4
ENDBRANCH   2   3
ENDBRANCH   1   2
BRANCH   1  19
ATOM     19  C   UNL A   1      32.321  33.159  26.914  1.00  0.00     0.261 C 
BRANCH  19  20
ATOM     20  O   UNL A   1      32.205  33.727  28.229  1.00  0.00    -0.460 OA
BRANCH  20  21
ATOM     21  C   UNL A   1      33.215  34.555  28.583  1.00  0.00     0.338 C 
ATOM     22  O   UNL A   1      33.156  35.758  28.768  1.00  0.00    -0.246 OA
BRANCH  21  23
ATOM     23  C   UNL A   1      34.426  33.761  28.873  1.00  0.00     0.060 A 
ATOM     24  C   UNL A   1      34.239  32.487  29.423  1.00  0.00     0.016 A 
ATOM     25  C   UNL A   1      35.715  34.256  28.653  1.00  0.00     0.016 A 
ATOM     26  C   UNL A   1      35.340  31.724  29.801  1.00  0.00     0.010 A 
ATOM     27  C   UNL A   1      36.820  33.492  29.040  1.00  0.00     0.010 A 
ATOM     28  C   UNL A   1      36.634  32.238  29.646  1.00  0.00    -0.014 A 
BRANCH  28  29
ATOM     29  C   UNL A   1      37.774  31.519  30.255  1.00  0.00     0.031 A 
ATOM     30  C   UNL A   1      38.119  31.789  31.692  1.00  0.00     0.074 A 
ATOM     31  C   UNL A   1      38.467  30.607  29.551  1.00  0.00     0.049 A 
ATOM     32  N   UNL A   1      39.056  31.258  32.433  1.00  0.00    -0.248 NA
ATOM     33  C   UNL A   1      37.295  32.792  32.386  1.00  0.00     0.031 C 
ATOM     34  C   UNL A   1      38.210  30.239  28.160  1.00  0.00     0.029 A 
ATOM     35  N   UNL A   1      39.532  29.826  29.918  1.00  0.00    -0.354 N 
ATOM     36  C   UNL A   1      38.930  31.854  33.681  1.00  0.00     0.074 A 
ATOM     37  C   UNL A   1      37.847  32.808  33.591  1.00  0.00     0.031 C 
ATOM     38  C   UNL A   1      39.101  29.302  27.788  1.00  0.00     0.029 A 
ATOM     39  C   UNL A   1      39.996  29.021  28.908  1.00  0.00     0.049 A 
ATOM     40  H   UNL A   1      39.926  29.840  30.820  1.00  0.00     0.167 HD
ATOM     41  C   UNL A   1      39.647  31.619  34.805  1.00  0.00     0.037 A 
ATOM     42  C   UNL A   1      41.033  28.161  28.892  1.00  0.00     0.037 A 
ATOM     43  C   UNL A   1      40.729  30.676  34.899  1.00  0.00     0.049 A 
ATOM     44  C   UNL A   1      41.853  27.964  30.136  1.00  0.00     0.074 A 
ATOM     45  C   UNL A   1      41.502  30.356  36.000  1.00  0.00     0.029 A 
ATOM     46  N   UNL A   1      41.192  29.907  33.844  1.00  0.00    -0.354 N 
ATOM     47  N   UNL A   1      41.705  28.509  31.320  1.00  0.00    -0.248 NA
ATOM     48  C   UNL A   1      42.986  27.031  30.043  1.00  0.00     0.031 C 
ATOM     49  C   UNL A   1      42.457  29.413  35.602  1.00  0.00     0.029 A 
ATOM     50  C   UNL A   1      42.256  29.126  34.261  1.00  0.00     0.049 A 
ATOM     51  H   UNL A   1      40.820  29.913  32.932  1.00  0.00     0.167 HD
ATOM     52  C   UNL A   1      42.709  27.970  32.115  1.00  0.00     0.074 A 
ATOM     53  C   UNL A   1      43.456  27.051  31.283  1.00  0.00     0.031 C 
ATOM     54  C   UNL A   1      42.985  28.215  33.418  1.00  0.00     0.037 A 
BRANCH  41  55
ATOM     55  C   UNL A   1      39.289  32.415  36.021  1.00  0.00     0.057 A 
ATOM     56  C   UNL A   1      39.877  33.659  36.283  1.00  0.00     0.134 A 
ATOM     57  C   UNL A   1      38.333  31.944  36.928  1.00  0.00     0.134 A 
ATOM     58  F   UNL A   1      40.812  34.155  35.459  1.00  0.00    -0.206 F 
ATOM     59  C   UNL A   1      39.538  34.400  37.415  1.00  0.00     0.040 A 
ATOM     60  C   UNL A   1      37.973  32.683  38.055  1.00  0.00     0.040 A 
ATOM     61  F   UNL A   1      37.735  30.759  36.733  1.00  0.00    -0.206 F 
ATOM     62  C   UNL A   1      38.580  33.914  38.303  1.00  0.00     0.006 A 
ENDBRANCH  41  55
BRANCH  42  63
ATOM     63  C   UNL A   1      41.359  27.421  27.650  1.00  0.00     0.057 A 
ATOM     64  C   UNL A   1      42.223  27.960  26.692  1.00  0.00     0.134 A 
ATOM     65  C   UNL A   1      40.799  26.166  27.386  1.00  0.00     0.134 A 
ATOM     66  F   UNL A   1      42.770  29.170  26.881  1.00  0.00    -0.206 F 
ATOM     67  C   UNL A   1      42.510  27.282  25.507  1.00  0.00     0.040 A 
ATOM     68  C   UNL A   1      41.092  25.469  26.214  1.00  0.00     0.040 A 
ATOM     69  F   UNL A   1      39.962  25.599  28.268  1.00  0.00    -0.206 F 
ATOM     70  C   UNL A   1      41.946  26.031  25.267  1.00  0.00     0.006 A 
ENDBRANCH  42  63
BRANCH  54  71
ATOM     71  C   UNL A   1      44.126  27.462  34.029  1.00  0.00     0.057 A 
ATOM     72  C   UNL A   1      43.951  26.188  34.583  1.00  0.00     0.134 A 
ATOM     73  C   UNL A   1      45.420  27.997  34.023  1.00  0.00     0.134 A 
ATOM     74  F   UNL A   1      42.731  25.629  34.629  1.00  0.00    -0.206 F 
ATOM     75  C   UNL A   1      45.023  25.477  35.124  1.00  0.00     0.040 A 
ATOM     76  C   UNL A   1      46.503  27.287  34.545  1.00  0.00     0.040 A 
ATOM     77  F   UNL A   1      45.653  29.210  33.500  1.00  0.00    -0.206 F 
ATOM     78  C   UNL A   1      46.305  26.025  35.100  1.00  0.00     0.006 A 
ENDBRANCH  54  71
ENDBRANCH  28  29
ENDBRANCH  21  23
ENDBRANCH  20  21
ENDBRANCH  19  20
ENDBRANCH   1  19
TORSDOF 15
ENDMDL
