MODEL 1
REMARK VINA RESULT:     -11.3      0.000      0.000
REMARK SMILES Cc1cccc(O[C@H](C)C(=O)N2CCC[C@@H](C(=O)OCCOCCOC(=O)c3ccc(-c4c5nc(c(-c6c(F)cccc6F)c6ccc([nH]6)c(-c6c(F)cccc6F)c6nc(c(-c7c(F)cccc7F)c7ccc4[nH]7)C=C6)C=C5)cc3)C2)c1
REMARK SMILES IDX 21 1 20 2 19 3 17 4 18 5 16 6 12 7 13 8 82 9 14 10 15 11
REMARK SMILES IDX 10 12 11 13 8 14 9 15 7 16 6 17 1 18 2 19 3 20 83 21 4 22
REMARK SMILES IDX 5 23 22 24 23 25 24 26 25 27 26 28 27 29 28 30 29 31 81 32
REMARK SMILES IDX 30 33 80 34 31 35 32 36 33 37 74 38 34 39 79 40 73 41 75 42
REMARK SMILES IDX 35 43 78 44 72 45 71 46 36 48 62 49 45 50 61 51 46 52 49 53
REMARK SMILES IDX 60 54 76 55 47 56 48 57 59 59 77 60 50 61 37 62 38 63 43 64
REMARK SMILES IDX 39 65 40 66 42 67 44 68 41 69 63 70 64 71 69 72 65 73 66 74
REMARK SMILES IDX 68 75 70 76 67 77 51 78 52 79 57 80 53 81 54 82 56 83 58 84
REMARK SMILES IDX 55 85
REMARK H PARENT 75 47 49 58
REMARK Flexibility Score: inf
ROOT
ATOM      1  C   UNL A   1      31.483  32.287  26.801  1.00  0.00     0.202 C 
ENDROOT
BRANCH   1   2
ATOM      2  C   UNL A   1      32.499  31.244  27.160  1.00  0.00     0.261 C 
BRANCH   2   3
ATOM      3  O   UNL A   1      32.850  30.308  26.120  1.00  0.00    -0.463 OA
BRANCH   3   4
ATOM      4  C   UNL A   1      32.179  29.128  25.968  1.00  0.00     0.310 C 
ATOM      5  O   UNL A   1      31.870  28.355  26.848  1.00  0.00    -0.252 OA
BRANCH   4   6
ATOM      6  C   UNL A   1      31.902  28.903  24.507  1.00  0.00     0.119 C 
ATOM      7  N   UNL A   1      31.957  27.173  22.789  1.00  0.00    -0.339 N 
ATOM      8  C   UNL A   1      30.678  27.593  22.232  1.00  0.00     0.119 C 
ATOM      9  C   UNL A   1      32.134  27.425  24.185  1.00  0.00     0.134 C 
ATOM     10  C   UNL A   1      30.301  29.031  22.603  1.00  0.00     0.022 C 
ATOM     11  C   UNL A   1      30.492  29.318  24.097  1.00  0.00     0.019 C 
BRANCH   7  12
ATOM     12  C   UNL A   1      33.007  26.750  22.000  1.00  0.00     0.263 C 
ATOM     13  O   UNL A   1      33.999  27.465  21.837  1.00  0.00    -0.271 OA
BRANCH  12  14
ATOM     14  C   UNL A   1      32.897  25.361  21.281  1.00  0.00     0.259 C 
ATOM     15  C   UNL A   1      32.486  25.424  19.811  1.00  0.00     0.064 C 
BRANCH  14  16
ATOM     16  O   UNL A   1      33.770  24.337  21.760  1.00  0.00    -0.481 OA
BRANCH  16  17
ATOM     17  C   UNL A   1      33.569  23.282  22.582  1.00  0.00     0.120 A 
ATOM     18  C   UNL A   1      35.834  21.595  25.175  1.00  0.00     0.044 C 
ATOM     19  C   UNL A   1      34.638  21.921  24.331  1.00  0.00    -0.047 A 
ATOM     20  C   UNL A   1      33.472  21.171  24.469  1.00  0.00     0.003 A 
ATOM     21  C   UNL A   1      34.679  22.954  23.375  1.00  0.00     0.049 A 
ATOM     22  C   UNL A   1      32.362  21.487  23.699  1.00  0.00     0.004 A 
ATOM     23  C   UNL A   1      32.409  22.556  22.793  1.00  0.00     0.046 A 
ENDBRANCH  16  17
ENDBRANCH  14  16
ENDBRANCH  12  14
ENDBRANCH   7  12
ENDBRANCH   4   6
ENDBRANCH   3   4
ENDBRANCH   2   3
ENDBRANCH   1   2
BRANCH   1  24
ATOM     24  O   UNL A   1      31.860  33.555  27.280  1.00  0.00    -0.374 OA
BRANCH  24  25
ATOM     25  C   UNL A   1      33.158  33.616  27.856  1.00  0.00     0.202 C 
BRANCH  25  26
ATOM     26  C   UNL A   1      33.337  34.810  28.808  1.00  0.00     0.261 C 
BRANCH  26  27
ATOM     27  O   UNL A   1      33.116  34.410  30.182  1.00  0.00    -0.460 OA
BRANCH  27  28
ATOM     28  C   UNL A   1      34.197  34.450  31.015  1.00  0.00     0.338 C 
ATOM     29  O   UNL A   1      34.621  35.455  31.565  1.00  0.00    -0.246 OA
BRANCH  28  30
ATOM     30  C   UNL A   1      34.975  33.176  30.903  1.00  0.00     0.060 A 
ATOM     31  C   UNL A   1      34.933  32.221  31.941  1.00  0.00     0.016 A 
ATOM     32  C   UNL A   1      36.024  33.157  29.996  1.00  0.00     0.016 A 
ATOM     33  C   UNL A   1      36.036  31.377  32.172  1.00  0.00     0.010 A 
ATOM     34  C   UNL A   1      37.166  32.474  30.350  1.00  0.00     0.010 A 
ATOM     35  C   UNL A   1      37.196  31.579  31.433  1.00  0.00    -0.014 A 
BRANCH  35  36
ATOM     36  C   UNL A   1      38.521  30.979  31.656  1.00  0.00     0.031 A 
ATOM     37  C   UNL A   1      38.842  29.760  30.872  1.00  0.00     0.074 A 
ATOM     38  C   UNL A   1      39.527  31.664  32.258  1.00  0.00     0.049 A 
ATOM     39  N   UNL A   1      39.949  29.115  30.970  1.00  0.00    -0.248 NA
ATOM     40  C   UNL A   1      37.919  29.120  29.927  1.00  0.00     0.031 C 
ATOM     41  C   UNL A   1      40.968  31.580  31.983  1.00  0.00     0.029 A 
ATOM     42  N   UNL A   1      39.469  32.652  33.242  1.00  0.00    -0.354 N 
ATOM     43  C   UNL A   1      40.044  28.293  29.875  1.00  0.00     0.074 A 
ATOM     44  C   UNL A   1      38.707  28.204  29.358  1.00  0.00     0.031 C 
ATOM     45  C   UNL A   1      41.655  32.258  32.920  1.00  0.00     0.029 A 
ATOM     46  C   UNL A   1      40.697  32.687  33.923  1.00  0.00     0.049 A 
ATOM     47  H   UNL A   1      38.694  33.230  33.430  1.00  0.00     0.167 HD
ATOM     48  C   UNL A   1      41.287  27.925  29.463  1.00  0.00     0.037 A 
ATOM     49  C   UNL A   1      40.746  32.492  35.267  1.00  0.00     0.037 A 
ATOM     50  C   UNL A   1      42.286  28.283  30.487  1.00  0.00     0.049 A 
ATOM     51  C   UNL A   1      41.469  31.206  35.502  1.00  0.00     0.074 A 
ATOM     52  C   UNL A   1      43.306  29.216  30.543  1.00  0.00     0.029 A 
ATOM     53  N   UNL A   1      42.091  27.845  31.805  1.00  0.00    -0.354 N 
ATOM     54  N   UNL A   1      41.557  30.294  34.572  1.00  0.00    -0.248 NA
ATOM     55  C   UNL A   1      42.239  30.880  36.694  1.00  0.00     0.031 C 
ATOM     56  C   UNL A   1      43.629  29.421  31.920  1.00  0.00     0.029 A 
ATOM     57  C   UNL A   1      42.846  28.579  32.700  1.00  0.00     0.049 A 
ATOM     58  H   UNL A   1      41.491  27.108  32.060  1.00  0.00     0.167 HD
ATOM     59  C   UNL A   1      42.437  29.344  34.958  1.00  0.00     0.074 A 
ATOM     60  C   UNL A   1      42.803  29.718  36.315  1.00  0.00     0.031 C 
ATOM     61  C   UNL A   1      42.784  28.315  34.141  1.00  0.00     0.037 A 
BRANCH  48  62
ATOM     62  C   UNL A   1      41.629  27.416  28.074  1.00  0.00     0.057 A 
ATOM     63  C   UNL A   1      42.064  28.317  27.084  1.00  0.00     0.134 A 
ATOM     64  C   UNL A   1      41.467  26.091  27.606  1.00  0.00     0.134 A 
ATOM     65  F   UNL A   1      42.239  29.618  27.355  1.00  0.00    -0.206 F 
ATOM     66  C   UNL A   1      42.327  27.934  25.757  1.00  0.00     0.040 A 
ATOM     67  C   UNL A   1      41.776  25.687  26.297  1.00  0.00     0.040 A 
ATOM     68  F   UNL A   1      40.945  25.117  28.356  1.00  0.00    -0.206 F 
ATOM     69  C   UNL A   1      42.199  26.611  25.361  1.00  0.00     0.006 A 
ENDBRANCH  48  62
BRANCH  49  70
ATOM     70  C   UNL A   1      39.540  33.054  35.939  1.00  0.00     0.057 A 
ATOM     71  C   UNL A   1      38.586  32.113  36.377  1.00  0.00     0.134 A 
ATOM     72  C   UNL A   1      39.584  34.271  36.630  1.00  0.00     0.134 A 
ATOM     73  F   UNL A   1      38.491  30.919  35.768  1.00  0.00    -0.206 F 
ATOM     74  C   UNL A   1      37.842  32.300  37.545  1.00  0.00     0.040 A 
ATOM     75  C   UNL A   1      38.841  34.465  37.808  1.00  0.00     0.040 A 
ATOM     76  F   UNL A   1      40.465  35.220  36.284  1.00  0.00    -0.206 F 
ATOM     77  C   UNL A   1      38.008  33.459  38.295  1.00  0.00     0.006 A 
ENDBRANCH  49  70
BRANCH  61  78
ATOM     78  C   UNL A   1      43.158  26.986  34.711  1.00  0.00     0.057 A 
ATOM     79  C   UNL A   1      42.206  25.994  35.013  1.00  0.00     0.134 A 
ATOM     80  C   UNL A   1      44.502  26.592  34.816  1.00  0.00     0.134 A 
ATOM     81  F   UNL A   1      40.896  26.180  34.797  1.00  0.00    -0.206 F 
ATOM     82  C   UNL A   1      42.563  24.742  35.506  1.00  0.00     0.040 A 
ATOM     83  C   UNL A   1      44.871  25.317  35.241  1.00  0.00     0.040 A 
ATOM     84  F   UNL A   1      45.508  27.413  34.480  1.00  0.00    -0.206 F 
ATOM     85  C   UNL A   1      43.901  24.397  35.619  1.00  0.00     0.006 A 
ENDBRANCH  61  78
ENDBRANCH  35  36
ENDBRANCH  28  30
ENDBRANCH  27  28
ENDBRANCH  26  27
ENDBRANCH  25  26
ENDBRANCH  24  25
ENDBRANCH   1  24
TORSDOF 18
ENDMDL
MODEL 2
REMARK VINA RESULT:     -11.1      2.480      4.014
REMARK SMILES Cc1cccc(O[C@H](C)C(=O)N2CCC[C@@H](C(=O)OCCOCCOC(=O)c3ccc(-c4c5nc(c(-c6c(F)cccc6F)c6ccc([nH]6)c(-c6c(F)cccc6F)c6nc(c(-c7c(F)cccc7F)c7ccc4[nH]7)C=C6)C=C5)cc3)C2)c1
REMARK SMILES IDX 21 1 20 2 19 3 17 4 18 5 16 6 12 7 13 8 82 9 14 10 15 11
REMARK SMILES IDX 10 12 11 13 8 14 9 15 7 16 6 17 1 18 2 19 3 20 83 21 4 22
REMARK SMILES IDX 5 23 22 24 23 25 24 26 25 27 26 28 27 29 28 30 29 31 81 32
REMARK SMILES IDX 30 33 80 34 31 35 32 36 33 37 74 38 34 39 79 40 73 41 75 42
REMARK SMILES IDX 35 43 78 44 72 45 71 46 36 48 62 49 45 50 61 51 46 52 49 53
REMARK SMILES IDX 60 54 76 55 47 56 48 57 59 59 77 60 50 61 37 62 38 63 43 64
REMARK SMILES IDX 39 65 40 66 42 67 44 68 41 69 63 70 64 71 69 72 65 73 66 74
REMARK SMILES IDX 68 75 70 76 67 77 51 78 52 79 57 80 53 81 54 82 56 83 58 84
REMARK SMILES IDX 55 85
REMARK H PARENT 75 47 49 58
REMARK Flexibility Score: inf
ROOT
ATOM      1  C   UNL A   1      31.682  28.956  25.027  1.00  0.00     0.202 C 
ENDROOT
BRANCH   1   2
ATOM      2  C   UNL A   1      31.499  27.522  25.423  1.00  0.00     0.261 C 
BRANCH   2   3
ATOM      3  O   UNL A   1      32.444  26.581  24.873  1.00  0.00    -0.463 OA
BRANCH   3   4
ATOM      4  C   UNL A   1      33.624  26.305  25.505  1.00  0.00     0.310 C 
ATOM      5  O   UNL A   1      34.354  27.104  26.050  1.00  0.00    -0.252 OA
BRANCH   4   6
ATOM      6  C   UNL A   1      33.910  24.834  25.395  1.00  0.00     0.119 C 
ATOM      7  N   UNL A   1      33.571  22.919  23.921  1.00  0.00    -0.339 N 
ATOM      8  C   UNL A   1      34.932  22.439  24.125  1.00  0.00     0.119 C 
ATOM      9  C   UNL A   1      33.392  24.333  24.044  1.00  0.00     0.134 C 
ATOM     10  C   UNL A   1      35.581  22.987  25.401  1.00  0.00     0.022 C 
ATOM     11  C   UNL A   1      35.390  24.501  25.550  1.00  0.00     0.019 C 
BRANCH   7  12
ATOM     12  C   UNL A   1      32.492  22.068  23.820  1.00  0.00     0.263 C 
ATOM     13  O   UNL A   1      31.975  21.833  22.725  1.00  0.00    -0.271 OA
BRANCH  12  14
ATOM     14  C   UNL A   1      31.907  21.434  25.130  1.00  0.00     0.259 C 
ATOM     15  C   UNL A   1      30.734  22.193  25.748  1.00  0.00     0.064 C 
BRANCH  14  16
ATOM     16  O   UNL A   1      32.005  20.013  25.238  1.00  0.00    -0.481 OA
BRANCH  16  17
ATOM     17  C   UNL A   1      32.544  19.075  24.426  1.00  0.00     0.120 A 
ATOM     18  C   UNL A   1      35.112  16.303  25.077  1.00  0.00     0.044 C 
ATOM     19  C   UNL A   1      34.113  17.180  24.383  1.00  0.00    -0.047 A 
ATOM     20  C   UNL A   1      33.816  16.958  23.040  1.00  0.00     0.003 A 
ATOM     21  C   UNL A   1      33.488  18.249  25.054  1.00  0.00     0.049 A 
ATOM     22  C   UNL A   1      32.879  17.759  22.405  1.00  0.00     0.004 A 
ATOM     23  C   UNL A   1      32.229  18.783  23.110  1.00  0.00     0.046 A 
ENDBRANCH  16  17
ENDBRANCH  14  16
ENDBRANCH  12  14
ENDBRANCH   7  12
ENDBRANCH   4   6
ENDBRANCH   3   4
ENDBRANCH   2   3
ENDBRANCH   1   2
BRANCH   1  24
ATOM     24  O   UNL A   1      31.778  29.790  26.156  1.00  0.00    -0.374 OA
BRANCH  24  25
ATOM     25  C   UNL A   1      33.105  30.115  26.549  1.00  0.00     0.202 C 
BRANCH  25  26
ATOM     26  C   UNL A   1      33.208  31.480  27.250  1.00  0.00     0.261 C 
BRANCH  26  27
ATOM     27  O   UNL A   1      34.113  31.412  28.377  1.00  0.00    -0.460 OA
BRANCH  27  28
ATOM     28  C   UNL A   1      35.432  31.652  28.121  1.00  0.00     0.338 C 
ATOM     29  O   UNL A   1      35.866  32.637  27.543  1.00  0.00    -0.246 OA
BRANCH  28  30
ATOM     30  C   UNL A   1      36.231  30.406  28.349  1.00  0.00     0.060 A 
ATOM     31  C   UNL A   1      36.203  29.761  29.604  1.00  0.00     0.016 A 
ATOM     32  C   UNL A   1      37.282  30.164  27.476  1.00  0.00     0.016 A 
ATOM     33  C   UNL A   1      37.320  29.027  30.047  1.00  0.00     0.010 A 
ATOM     34  C   UNL A   1      38.434  29.618  27.996  1.00  0.00     0.010 A 
ATOM     35  C   UNL A   1      38.477  29.043  29.277  1.00  0.00    -0.014 A 
BRANCH  35  36
ATOM     36  C   UNL A   1      39.811  28.545  29.648  1.00  0.00     0.031 A 
ATOM     37  C   UNL A   1      40.195  27.211  29.121  1.00  0.00     0.074 A 
ATOM     38  C   UNL A   1      40.775  29.368  30.134  1.00  0.00     0.049 A 
ATOM     39  N   UNL A   1      41.317  26.637  29.371  1.00  0.00    -0.248 NA
ATOM     40  C   UNL A   1      39.325  26.370  28.291  1.00  0.00     0.031 C 
ATOM     41  C   UNL A   1      42.226  29.285  29.920  1.00  0.00     0.029 A 
ATOM     42  N   UNL A   1      40.654  30.523  30.909  1.00  0.00    -0.354 N 
ATOM     43  C   UNL A   1      41.474  25.625  28.458  1.00  0.00     0.074 A 
ATOM     44  C   UNL A   1      40.158  25.391  27.931  1.00  0.00     0.031 C 
ATOM     45  C   UNL A   1      42.861  30.154  30.729  1.00  0.00     0.029 A 
ATOM     46  C   UNL A   1      41.857  30.732  31.603  1.00  0.00     0.049 A 
ATOM     47  H   UNL A   1      39.856  31.098  30.961  1.00  0.00     0.167 HD
ATOM     48  C   UNL A   1      42.741  25.231  28.159  1.00  0.00     0.037 A 
ATOM     49  C   UNL A   1      41.867  30.799  32.960  1.00  0.00     0.037 A 
ATOM     50  C   UNL A   1      43.693  25.813  29.122  1.00  0.00     0.049 A 
ATOM     51  C   UNL A   1      42.619  29.608  33.458  1.00  0.00     0.074 A 
ATOM     52  C   UNL A   1      44.682  26.776  29.025  1.00  0.00     0.029 A 
ATOM     53  N   UNL A   1      43.467  25.628  30.493  1.00  0.00    -0.354 N 
ATOM     54  N   UNL A   1      42.766  28.539  32.723  1.00  0.00    -0.248 NA
ATOM     55  C   UNL A   1      43.358  29.544  34.711  1.00  0.00     0.031 C 
ATOM     56  C   UNL A   1      44.952  27.252  30.346  1.00  0.00     0.029 A 
ATOM     57  C   UNL A   1      44.169  26.547  31.251  1.00  0.00     0.049 A 
ATOM     58  H   UNL A   1      42.881  24.933  30.868  1.00  0.00     0.167 HD
ATOM     59  C   UNL A   1      43.661  27.713  33.308  1.00  0.00     0.074 A 
ATOM     60  C   UNL A   1      43.970  28.353  34.578  1.00  0.00     0.031 C 
ATOM     61  C   UNL A   1      44.067  26.561  32.713  1.00  0.00     0.037 A 
BRANCH  48  62
ATOM     62  C   UNL A   1      43.144  24.479  26.903  1.00  0.00     0.057 A 
ATOM     63  C   UNL A   1      42.810  23.118  26.761  1.00  0.00     0.134 A 
ATOM     64  C   UNL A   1      43.935  24.983  25.844  1.00  0.00     0.134 A 
ATOM     65  F   UNL A   1      42.090  22.478  27.693  1.00  0.00    -0.206 F 
ATOM     66  C   UNL A   1      43.213  22.337  25.665  1.00  0.00     0.040 A 
ATOM     67  C   UNL A   1      44.299  24.226  24.718  1.00  0.00     0.040 A 
ATOM     68  F   UNL A   1      44.458  26.212  25.853  1.00  0.00    -0.206 F 
ATOM     69  C   UNL A   1      43.946  22.893  24.627  1.00  0.00     0.006 A 
ENDBRANCH  48  62
BRANCH  49  70
ATOM     70  C   UNL A   1      40.622  31.435  33.479  1.00  0.00     0.057 A 
ATOM     71  C   UNL A   1      39.672  30.558  34.041  1.00  0.00     0.134 A 
ATOM     72  C   UNL A   1      40.611  32.755  33.946  1.00  0.00     0.134 A 
ATOM     73  F   UNL A   1      39.627  29.274  33.649  1.00  0.00    -0.206 F 
ATOM     74  C   UNL A   1      38.877  30.925  35.131  1.00  0.00     0.040 A 
ATOM     75  C   UNL A   1      39.817  33.131  35.044  1.00  0.00     0.040 A 
ATOM     76  F   UNL A   1      41.484  33.654  33.471  1.00  0.00    -0.206 F 
ATOM     77  C   UNL A   1      38.987  32.202  35.670  1.00  0.00     0.006 A 
ENDBRANCH  49  70
BRANCH  61  78
ATOM     78  C   UNL A   1      44.461  25.379  33.538  1.00  0.00     0.057 A 
ATOM     79  C   UNL A   1      43.570  24.735  34.416  1.00  0.00     0.134 A 
ATOM     80  C   UNL A   1      45.699  24.742  33.351  1.00  0.00     0.134 A 
ATOM     81  F   UNL A   1      42.300  25.139  34.562  1.00  0.00    -0.206 F 
ATOM     82  C   UNL A   1      43.930  23.609  35.153  1.00  0.00     0.040 A 
ATOM     83  C   UNL A   1      46.043  23.574  34.029  1.00  0.00     0.040 A 
ATOM     84  F   UNL A   1      46.607  25.205  32.480  1.00  0.00    -0.206 F 
ATOM     85  C   UNL A   1      45.171  23.022  34.958  1.00  0.00     0.006 A 
ENDBRANCH  61  78
ENDBRANCH  35  36
ENDBRANCH  28  30
ENDBRANCH  27  28
ENDBRANCH  26  27
ENDBRANCH  25  26
ENDBRANCH  24  25
ENDBRANCH   1  24
TORSDOF 18
ENDMDL
MODEL 3
REMARK VINA RESULT:     -11.0      1.531      3.153
REMARK SMILES Cc1cccc(O[C@H](C)C(=O)N2CCC[C@@H](C(=O)OCCOCCOC(=O)c3ccc(-c4c5nc(c(-c6c(F)cccc6F)c6ccc([nH]6)c(-c6c(F)cccc6F)c6nc(c(-c7c(F)cccc7F)c7ccc4[nH]7)C=C6)C=C5)cc3)C2)c1
REMARK SMILES IDX 21 1 20 2 19 3 17 4 18 5 16 6 12 7 13 8 82 9 14 10 15 11
REMARK SMILES IDX 10 12 11 13 8 14 9 15 7 16 6 17 1 18 2 19 3 20 83 21 4 22
REMARK SMILES IDX 5 23 22 24 23 25 24 26 25 27 26 28 27 29 28 30 29 31 81 32
REMARK SMILES IDX 30 33 80 34 31 35 32 36 33 37 74 38 34 39 79 40 73 41 75 42
REMARK SMILES IDX 35 43 78 44 72 45 71 46 36 48 62 49 45 50 61 51 46 52 49 53
REMARK SMILES IDX 60 54 76 55 47 56 48 57 59 59 77 60 50 61 37 62 38 63 43 64
REMARK SMILES IDX 39 65 40 66 42 67 44 68 41 69 63 70 64 71 69 72 65 73 66 74
REMARK SMILES IDX 68 75 70 76 67 77 51 78 52 79 57 80 53 81 54 82 56 83 58 84
REMARK SMILES IDX 55 85
REMARK H PARENT 75 47 49 58
REMARK Flexibility Score: inf
ROOT
ATOM      1  C   UNL A   1      33.927  28.920  26.447  1.00  0.00     0.202 C 
ENDROOT
BRANCH   1   2
ATOM      2  C   UNL A   1      32.976  27.841  26.873  1.00  0.00     0.261 C 
BRANCH   2   3
ATOM      3  O   UNL A   1      32.951  26.652  26.057  1.00  0.00    -0.463 OA
BRANCH   3   4
ATOM      4  C   UNL A   1      31.954  25.726  26.179  1.00  0.00     0.310 C 
ATOM      5  O   UNL A   1      30.810  25.937  26.518  1.00  0.00    -0.252 OA
BRANCH   4   6
ATOM      6  C   UNL A   1      32.504  24.365  25.855  1.00  0.00     0.119 C 
ATOM      7  N   UNL A   1      34.474  23.263  24.930  1.00  0.00    -0.339 N 
ATOM      8  C   UNL A   1      34.450  22.221  25.949  1.00  0.00     0.119 C 
ATOM      9  C   UNL A   1      33.932  24.525  25.326  1.00  0.00     0.134 C 
ATOM     10  C   UNL A   1      33.083  22.068  26.624  1.00  0.00     0.022 C 
ATOM     11  C   UNL A   1      32.486  23.415  27.048  1.00  0.00     0.019 C 
BRANCH   7  12
ATOM     12  C   UNL A   1      34.802  23.006  23.615  1.00  0.00     0.263 C 
ATOM     13  O   UNL A   1      35.976  22.818  23.285  1.00  0.00    -0.271 OA
BRANCH  12  14
ATOM     14  C   UNL A   1      33.659  22.997  22.542  1.00  0.00     0.259 C 
ATOM     15  C   UNL A   1      32.513  22.028  22.825  1.00  0.00     0.064 C 
BRANCH  14  16
ATOM     16  O   UNL A   1      33.430  24.231  21.859  1.00  0.00    -0.481 OA
BRANCH  16  17
ATOM     17  C   UNL A   1      32.786  25.364  22.220  1.00  0.00     0.120 A 
ATOM     18  C   UNL A   1      34.027  28.952  22.752  1.00  0.00     0.044 C 
ATOM     19  C   UNL A   1      33.118  27.764  22.645  1.00  0.00    -0.047 A 
ATOM     20  C   UNL A   1      31.754  27.916  22.887  1.00  0.00     0.003 A 
ATOM     21  C   UNL A   1      33.620  26.486  22.334  1.00  0.00     0.049 A 
ATOM     22  C   UNL A   1      30.913  26.819  22.770  1.00  0.00     0.004 A 
ATOM     23  C   UNL A   1      31.428  25.567  22.405  1.00  0.00     0.046 A 
ENDBRANCH  16  17
ENDBRANCH  14  16
ENDBRANCH  12  14
ENDBRANCH   7  12
ENDBRANCH   4   6
ENDBRANCH   3   4
ENDBRANCH   2   3
ENDBRANCH   1   2
BRANCH   1  24
ATOM     24  O   UNL A   1      34.907  29.155  27.429  1.00  0.00    -0.374 OA
BRANCH  24  25
ATOM     25  C   UNL A   1      35.209  30.525  27.657  1.00  0.00     0.202 C 
BRANCH  25  26
ATOM     26  C   UNL A   1      33.963  31.372  27.963  1.00  0.00     0.261 C 
BRANCH  26  27
ATOM     27  O   UNL A   1      34.284  32.784  27.939  1.00  0.00    -0.460 OA
BRANCH  27  28
ATOM     28  C   UNL A   1      34.221  33.449  29.130  1.00  0.00     0.338 C 
ATOM     29  O   UNL A   1      33.277  34.128  29.504  1.00  0.00    -0.246 OA
BRANCH  28  30
ATOM     30  C   UNL A   1      35.579  33.499  29.758  1.00  0.00     0.060 A 
ATOM     31  C   UNL A   1      36.711  33.829  28.983  1.00  0.00     0.016 A 
ATOM     32  C   UNL A   1      35.743  32.822  30.958  1.00  0.00     0.016 A 
ATOM     33  C   UNL A   1      37.977  33.315  29.325  1.00  0.00     0.010 A 
ATOM     34  C   UNL A   1      36.935  32.168  31.167  1.00  0.00     0.010 A 
ATOM     35  C   UNL A   1      38.066  32.398  30.365  1.00  0.00    -0.014 A 
BRANCH  35  36
ATOM     36  C   UNL A   1      39.225  31.575  30.742  1.00  0.00     0.031 A 
ATOM     37  C   UNL A   1      39.330  30.238  30.103  1.00  0.00     0.074 A 
ATOM     38  C   UNL A   1      40.318  32.107  31.349  1.00  0.00     0.049 A 
ATOM     39  N   UNL A   1      40.274  29.401  30.344  1.00  0.00    -0.248 NA
ATOM     40  C   UNL A   1      38.347  29.697  29.157  1.00  0.00     0.031 C 
ATOM     41  C   UNL A   1      41.723  31.708  31.190  1.00  0.00     0.029 A 
ATOM     42  N   UNL A   1      40.412  33.187  32.227  1.00  0.00    -0.354 N 
ATOM     43  C   UNL A   1      40.256  28.462  29.342  1.00  0.00     0.074 A 
ATOM     44  C   UNL A   1      38.959  28.586  28.738  1.00  0.00     0.031 C 
ATOM     45  C   UNL A   1      42.484  32.333  32.107  1.00  0.00     0.029 A 
ATOM     46  C   UNL A   1      41.583  33.051  32.991  1.00  0.00     0.049 A 
ATOM     47  H   UNL A   1      39.763  33.924  32.301  1.00  0.00     0.167 HD
ATOM     48  C   UNL A   1      41.417  27.813  29.060  1.00  0.00     0.037 A 
ATOM     49  C   UNL A   1      41.519  32.995  34.347  1.00  0.00     0.037 A 
ATOM     50  C   UNL A   1      42.412  28.073  30.117  1.00  0.00     0.049 A 
ATOM     51  C   UNL A   1      41.948  31.625  34.756  1.00  0.00     0.074 A 
ATOM     52  C   UNL A   1      43.598  28.785  30.158  1.00  0.00     0.029 A 
ATOM     53  N   UNL A   1      42.062  27.828  31.452  1.00  0.00    -0.354 N 
ATOM     54  N   UNL A   1      41.896  30.618  33.927  1.00  0.00    -0.248 NA
ATOM     55  C   UNL A   1      42.571  31.283  36.027  1.00  0.00     0.031 C 
ATOM     56  C   UNL A   1      43.882  29.069  31.530  1.00  0.00     0.029 A 
ATOM     57  C   UNL A   1      42.903  28.490  32.327  1.00  0.00     0.049 A 
ATOM     58  H   UNL A   1      41.311  27.257  31.730  1.00  0.00     0.167 HD
ATOM     59  C   UNL A   1      42.540  29.560  34.465  1.00  0.00     0.074 A 
ATOM     60  C   UNL A   1      42.903  29.998  35.804  1.00  0.00     0.031 C 
ATOM     61  C   UNL A   1      42.712  28.400  33.777  1.00  0.00     0.037 A 
BRANCH  48  62
ATOM     62  C   UNL A   1      41.720  27.098  27.755  1.00  0.00     0.057 A 
ATOM     63  C   UNL A   1      41.242  25.792  27.542  1.00  0.00     0.134 A 
ATOM     64  C   UNL A   1      42.544  27.579  26.711  1.00  0.00     0.134 A 
ATOM     65  F   UNL A   1      40.471  25.176  28.450  1.00  0.00    -0.206 F 
ATOM     66  C   UNL A   1      41.543  25.040  26.394  1.00  0.00     0.040 A 
ATOM     67  C   UNL A   1      42.809  26.857  25.536  1.00  0.00     0.040 A 
ATOM     68  F   UNL A   1      43.195  28.744  26.780  1.00  0.00    -0.206 F 
ATOM     69  C   UNL A   1      42.316  25.577  25.375  1.00  0.00     0.006 A 
ENDBRANCH  48  62
BRANCH  49  70
ATOM     70  C   UNL A   1      40.420  33.857  34.872  1.00  0.00     0.057 A 
ATOM     71  C   UNL A   1      39.306  33.174  35.401  1.00  0.00     0.134 A 
ATOM     72  C   UNL A   1      40.668  35.140  35.374  1.00  0.00     0.134 A 
ATOM     73  F   UNL A   1      39.010  31.935  34.974  1.00  0.00    -0.206 F 
ATOM     74  C   UNL A   1      38.586  33.667  36.494  1.00  0.00     0.040 A 
ATOM     75  C   UNL A   1      39.950  35.640  36.474  1.00  0.00     0.040 A 
ATOM     76  F   UNL A   1      41.710  35.856  34.931  1.00  0.00    -0.206 F 
ATOM     77  C   UNL A   1      38.942  34.881  37.068  1.00  0.00     0.006 A 
ENDBRANCH  49  70
BRANCH  61  78
ATOM     78  C   UNL A   1      42.774  27.093  34.497  1.00  0.00     0.057 A 
ATOM     79  C   UNL A   1      41.629  26.318  34.764  1.00  0.00     0.134 A 
ATOM     80  C   UNL A   1      44.004  26.486  34.797  1.00  0.00     0.134 A 
ATOM     81  F   UNL A   1      40.405  26.704  34.377  1.00  0.00    -0.206 F 
ATOM     82  C   UNL A   1      41.696  25.081  35.399  1.00  0.00     0.040 A 
ATOM     83  C   UNL A   1      44.086  25.216  35.368  1.00  0.00     0.040 A 
ATOM     84  F   UNL A   1      45.173  27.080  34.517  1.00  0.00    -0.206 F 
ATOM     85  C   UNL A   1      42.930  24.523  35.701  1.00  0.00     0.006 A 
ENDBRANCH  61  78
ENDBRANCH  35  36
ENDBRANCH  28  30
ENDBRANCH  27  28
ENDBRANCH  26  27
ENDBRANCH  25  26
ENDBRANCH  24  25
ENDBRANCH   1  24
TORSDOF 18
ENDMDL
