MODEL 1
REMARK VINA RESULT:     -11.2      0.000      0.000
REMARK SMILES Cc1ccc2c(c1C)O[C@@H](C(=O)OCCOCCOC(=O)c1ccc(-c3c4nc(c(-c5c(F)cccc5F)c5ccc([nH]5)c(-c5c(F)cccc5F)c5nc(c(-c6c(F)cccc6F)c6ccc3[nH]6)C=C5)C=C4)cc1)CC2=O
REMARK SMILES IDX 17 1 16 2 15 3 14 4 13 5 11 6 12 7 10 8 1 9 2 10 3 11 7 12
REMARK SMILES IDX 4 13 6 14 8 15 5 16 9 17 77 18 76 19 78 20 18 21 19 22 20 23
REMARK SMILES IDX 21 24 22 25 23 26 75 27 24 28 74 29 25 30 26 31 27 32 68 33
REMARK SMILES IDX 28 34 73 35 67 36 69 37 29 38 72 39 66 40 65 41 30 43 56 44
REMARK SMILES IDX 39 45 55 46 40 47 43 48 54 49 70 50 41 51 42 52 53 54 71 55
REMARK SMILES IDX 44 56 31 57 32 58 37 59 33 60 34 61 36 62 38 63 35 64 57 65
REMARK SMILES IDX 58 66 63 67 59 68 60 69 62 70 64 71 61 72 45 73 46 74 51 75
REMARK SMILES IDX 47 76 48 77 50 78 52 79 49 80
REMARK H PARENT 69 42 43 53
REMARK Flexibility Score: inf
ROOT
ATOM      1  C   UNL A   1      31.117  31.985  26.440  1.00  0.00     0.202 C 
ENDROOT
BRANCH   1   2
ATOM      2  O   UNL A   1      31.846  30.769  26.601  1.00  0.00    -0.374 OA
BRANCH   2   3
ATOM      3  C   UNL A   1      31.679  29.767  25.601  1.00  0.00     0.202 C 
BRANCH   3   4
ATOM      4  C   UNL A   1      31.777  28.318  26.085  1.00  0.00     0.261 C 
BRANCH   4   5
ATOM      5  O   UNL A   1      31.824  27.390  24.984  1.00  0.00    -0.460 OA
BRANCH   5   6
ATOM      6  C   UNL A   1      31.264  26.171  25.208  1.00  0.00     0.347 C 
ATOM      7  O   UNL A   1      31.075  25.679  26.314  1.00  0.00    -0.248 OA
BRANCH   6   8
ATOM      8  C   UNL A   1      30.934  25.429  23.907  1.00  0.00     0.290 C 
ATOM      9  C   UNL A   1      34.412  20.600  25.220  1.00  0.00     0.045 C 
ATOM     10  C   UNL A   1      33.999  21.866  24.519  1.00  0.00    -0.044 A 
ATOM     11  C   UNL A   1      34.955  22.542  23.738  1.00  0.00     0.005 A 
ATOM     12  C   UNL A   1      32.701  22.403  24.648  1.00  0.00    -0.005 A 
ATOM     13  C   UNL A   1      34.631  23.725  23.074  1.00  0.00     0.016 A 
ATOM     14  C   UNL A   1      32.381  23.585  23.954  1.00  0.00     0.134 A 
ATOM     15  C   UNL A   1      31.642  21.774  25.518  1.00  0.00     0.049 C 
ATOM     16  C   UNL A   1      33.341  24.240  23.181  1.00  0.00     0.060 A 
ATOM     17  O   UNL A   1      31.086  24.023  24.049  1.00  0.00    -0.477 OA
ATOM     18  C   UNL A   1      32.975  25.477  22.471  1.00  0.00     0.170 C 
ATOM     19  C   UNL A   1      31.564  25.964  22.632  1.00  0.00     0.138 C 
ATOM     20  O   UNL A   1      33.776  26.047  21.736  1.00  0.00    -0.294 OA
ENDBRANCH   6   8
ENDBRANCH   5   6
ENDBRANCH   4   5
ENDBRANCH   3   4
ENDBRANCH   2   3
ENDBRANCH   1   2
BRANCH   1  21
ATOM     21  C   UNL A   1      31.895  33.280  26.704  1.00  0.00     0.261 C 
BRANCH  21  22
ATOM     22  O   UNL A   1      32.276  33.402  28.085  1.00  0.00    -0.460 OA
BRANCH  22  23
ATOM     23  C   UNL A   1      33.339  34.207  28.315  1.00  0.00     0.338 C 
ATOM     24  O   UNL A   1      33.329  35.413  28.518  1.00  0.00    -0.246 OA
BRANCH  23  25
ATOM     25  C   UNL A   1      34.564  33.406  28.470  1.00  0.00     0.060 A 
ATOM     26  C   UNL A   1      34.417  32.066  28.854  1.00  0.00     0.016 A 
ATOM     27  C   UNL A   1      35.830  33.988  28.386  1.00  0.00     0.016 A 
ATOM     28  C   UNL A   1      35.534  31.317  29.211  1.00  0.00     0.010 A 
ATOM     29  C   UNL A   1      36.950  33.241  28.767  1.00  0.00     0.010 A 
ATOM     30  C   UNL A   1      36.800  31.918  29.222  1.00  0.00    -0.014 A 
BRANCH  30  31
ATOM     31  C   UNL A   1      37.917  31.220  29.899  1.00  0.00     0.031 A 
ATOM     32  C   UNL A   1      38.185  31.523  31.349  1.00  0.00     0.074 A 
ATOM     33  C   UNL A   1      38.649  30.293  29.257  1.00  0.00     0.049 A 
ATOM     34  N   UNL A   1      39.082  31.014  32.154  1.00  0.00    -0.248 NA
ATOM     35  C   UNL A   1      37.315  32.532  31.976  1.00  0.00     0.031 C 
ATOM     36  C   UNL A   1      38.459  29.875  27.871  1.00  0.00     0.029 A 
ATOM     37  N   UNL A   1      39.703  29.535  29.700  1.00  0.00    -0.354 N 
ATOM     38  C   UNL A   1      38.876  31.627  33.384  1.00  0.00     0.074 A 
ATOM     39  C   UNL A   1      37.792  32.570  33.212  1.00  0.00     0.031 C 
ATOM     40  C   UNL A   1      39.377  28.939  27.570  1.00  0.00     0.029 A 
ATOM     41  C   UNL A   1      40.229  28.711  28.737  1.00  0.00     0.049 A 
ATOM     42  H   UNL A   1      40.051  29.579  30.621  1.00  0.00     0.167 HD
ATOM     43  C   UNL A   1      39.521  31.417  34.555  1.00  0.00     0.037 A 
ATOM     44  C   UNL A   1      41.287  27.879  28.793  1.00  0.00     0.037 A 
ATOM     45  C   UNL A   1      40.618  30.502  34.725  1.00  0.00     0.049 A 
ATOM     46  C   UNL A   1      42.061  27.745  30.080  1.00  0.00     0.074 A 
ATOM     47  C   UNL A   1      41.338  30.218  35.872  1.00  0.00     0.029 A 
ATOM     48  N   UNL A   1      41.163  29.732  33.710  1.00  0.00    -0.354 N 
ATOM     49  N   UNL A   1      41.836  28.303  31.245  1.00  0.00    -0.248 NA
ATOM     50  C   UNL A   1      43.237  26.863  30.054  1.00  0.00     0.031 C 
ATOM     51  C   UNL A   1      42.349  29.309  35.540  1.00  0.00     0.029 A 
ATOM     52  C   UNL A   1      42.231  28.996  34.195  1.00  0.00     0.049 A 
ATOM     53  H   UNL A   1      40.840  29.713  32.779  1.00  0.00     0.167 HD
ATOM     54  C   UNL A   1      42.824  27.820  32.095  1.00  0.00     0.074 A 
ATOM     55  C   UNL A   1      43.642  26.916  31.315  1.00  0.00     0.031 C 
ATOM     56  C   UNL A   1      43.034  28.098  33.405  1.00  0.00     0.037 A 
BRANCH  43  57
ATOM     57  C   UNL A   1      39.067  32.217  35.739  1.00  0.00     0.057 A 
ATOM     58  C   UNL A   1      38.208  31.661  36.694  1.00  0.00     0.134 A 
ATOM     59  C   UNL A   1      39.476  33.543  35.929  1.00  0.00     0.134 A 
ATOM     60  F   UNL A   1      37.779  30.396  36.569  1.00  0.00    -0.206 F 
ATOM     61  C   UNL A   1      37.772  32.395  37.798  1.00  0.00     0.040 A 
ATOM     62  C   UNL A   1      39.064  34.281  37.040  1.00  0.00     0.040 A 
ATOM     63  F   UNL A   1      40.311  34.129  35.057  1.00  0.00    -0.206 F 
ATOM     64  C   UNL A   1      38.206  33.707  37.977  1.00  0.00     0.006 A 
ENDBRANCH  43  57
BRANCH  44  65
ATOM     65  C   UNL A   1      41.700  27.112  27.592  1.00  0.00     0.057 A 
ATOM     66  C   UNL A   1      41.245  25.807  27.373  1.00  0.00     0.134 A 
ATOM     67  C   UNL A   1      42.517  27.685  26.611  1.00  0.00     0.134 A 
ATOM     68  F   UNL A   1      40.456  25.204  28.274  1.00  0.00    -0.206 F 
ATOM     69  C   UNL A   1      41.589  25.097  26.222  1.00  0.00     0.040 A 
ATOM     70  C   UNL A   1      42.852  26.995  25.446  1.00  0.00     0.040 A 
ATOM     71  F   UNL A   1      42.962  28.942  26.755  1.00  0.00    -0.206 F 
ATOM     72  C   UNL A   1      42.388  25.696  25.250  1.00  0.00     0.006 A 
ENDBRANCH  44  65
BRANCH  56  73
ATOM     73  C   UNL A   1      44.175  27.396  34.080  1.00  0.00     0.057 A 
ATOM     74  C   UNL A   1      43.989  26.144  34.680  1.00  0.00     0.134 A 
ATOM     75  C   UNL A   1      45.452  27.968  34.158  1.00  0.00     0.134 A 
ATOM     76  F   UNL A   1      42.789  25.545  34.648  1.00  0.00    -0.206 F 
ATOM     77  C   UNL A   1      45.031  25.487  35.335  1.00  0.00     0.040 A 
ATOM     78  C   UNL A   1      46.509  27.309  34.789  1.00  0.00     0.040 A 
ATOM     79  F   UNL A   1      45.699  29.158  33.590  1.00  0.00    -0.206 F 
ATOM     80  C   UNL A   1      46.298  26.066  35.385  1.00  0.00     0.006 A 
ENDBRANCH  56  73
ENDBRANCH  30  31
ENDBRANCH  23  25
ENDBRANCH  22  23
ENDBRANCH  21  22
ENDBRANCH   1  21
TORSDOF 14
ENDMDL
MODEL 2
REMARK VINA RESULT:     -11.2      1.155      2.537
REMARK SMILES Cc1ccc2c(c1C)O[C@@H](C(=O)OCCOCCOC(=O)c1ccc(-c3c4nc(c(-c5c(F)cccc5F)c5ccc([nH]5)c(-c5c(F)cccc5F)c5nc(c(-c6c(F)cccc6F)c6ccc3[nH]6)C=C5)C=C4)cc1)CC2=O
REMARK SMILES IDX 17 1 16 2 15 3 14 4 13 5 11 6 12 7 10 8 1 9 2 10 3 11 7 12
REMARK SMILES IDX 4 13 6 14 8 15 5 16 9 17 77 18 76 19 78 20 18 21 19 22 20 23
REMARK SMILES IDX 21 24 22 25 23 26 75 27 24 28 74 29 25 30 26 31 27 32 68 33
REMARK SMILES IDX 28 34 73 35 67 36 69 37 29 38 72 39 66 40 65 41 30 43 56 44
REMARK SMILES IDX 39 45 55 46 40 47 43 48 54 49 70 50 41 51 42 52 53 54 71 55
REMARK SMILES IDX 44 56 31 57 32 58 37 59 33 60 34 61 36 62 38 63 35 64 57 65
REMARK SMILES IDX 58 66 63 67 59 68 60 69 62 70 64 71 61 72 45 73 46 74 51 75
REMARK SMILES IDX 47 76 48 77 50 78 52 79 49 80
REMARK H PARENT 69 42 43 53
REMARK Flexibility Score: inf
ROOT
ATOM      1  C   UNL A   1      31.156  31.866  26.489  1.00  0.00     0.202 C 
ENDROOT
BRANCH   1   2
ATOM      2  O   UNL A   1      31.983  30.714  26.638  1.00  0.00    -0.374 OA
BRANCH   2   3
ATOM      3  C   UNL A   1      32.348  30.010  25.453  1.00  0.00     0.202 C 
BRANCH   3   4
ATOM      4  C   UNL A   1      33.367  28.883  25.633  1.00  0.00     0.261 C 
BRANCH   4   5
ATOM      5  O   UNL A   1      33.646  28.213  24.388  1.00  0.00    -0.460 OA
BRANCH   5   6
ATOM      6  C   UNL A   1      33.641  26.853  24.429  1.00  0.00     0.347 C 
ATOM      7  O   UNL A   1      34.013  26.179  25.382  1.00  0.00    -0.248 OA
BRANCH   6   8
ATOM      8  C   UNL A   1      33.163  26.229  23.112  1.00  0.00     0.290 C 
ATOM      9  C   UNL A   1      27.899  29.300  23.020  1.00  0.00     0.045 C 
ATOM     10  C   UNL A   1      28.814  28.113  23.167  1.00  0.00    -0.044 A 
ATOM     11  C   UNL A   1      28.304  26.942  23.756  1.00  0.00     0.005 A 
ATOM     12  C   UNL A   1      30.164  28.156  22.760  1.00  0.00    -0.005 A 
ATOM     13  C   UNL A   1      29.109  25.816  23.926  1.00  0.00     0.016 A 
ATOM     14  C   UNL A   1      30.958  27.005  22.916  1.00  0.00     0.134 A 
ATOM     15  C   UNL A   1      30.802  29.394  22.181  1.00  0.00     0.049 C 
ATOM     16  C   UNL A   1      30.435  25.851  23.500  1.00  0.00     0.060 A 
ATOM     17  O   UNL A   1      32.240  27.072  22.434  1.00  0.00    -0.477 OA
ATOM     18  C   UNL A   1      31.294  24.665  23.652  1.00  0.00     0.170 C 
ATOM     19  C   UNL A   1      32.709  24.781  23.163  1.00  0.00     0.138 C 
ATOM     20  O   UNL A   1      30.850  23.615  24.107  1.00  0.00    -0.294 OA
ENDBRANCH   6   8
ENDBRANCH   5   6
ENDBRANCH   4   5
ENDBRANCH   3   4
ENDBRANCH   2   3
ENDBRANCH   1   2
BRANCH   1  21
ATOM     21  C   UNL A   1      31.825  33.219  26.758  1.00  0.00     0.261 C 
BRANCH  21  22
ATOM     22  O   UNL A   1      32.378  33.289  28.084  1.00  0.00    -0.460 OA
BRANCH  22  23
ATOM     23  C   UNL A   1      33.462  34.089  28.209  1.00  0.00     0.338 C 
ATOM     24  O   UNL A   1      33.478  35.307  28.318  1.00  0.00    -0.246 OA
BRANCH  23  25
ATOM     25  C   UNL A   1      34.680  33.280  28.377  1.00  0.00     0.060 A 
ATOM     26  C   UNL A   1      34.522  31.956  28.808  1.00  0.00     0.016 A 
ATOM     27  C   UNL A   1      35.951  33.845  28.258  1.00  0.00     0.016 A 
ATOM     28  C   UNL A   1      35.636  31.207  29.178  1.00  0.00     0.010 A 
ATOM     29  C   UNL A   1      37.067  33.098  28.652  1.00  0.00     0.010 A 
ATOM     30  C   UNL A   1      36.908  31.794  29.154  1.00  0.00    -0.014 A 
BRANCH  30  31
ATOM     31  C   UNL A   1      38.025  31.106  29.842  1.00  0.00     0.031 A 
ATOM     32  C   UNL A   1      38.286  31.424  31.290  1.00  0.00     0.074 A 
ATOM     33  C   UNL A   1      38.764  30.176  29.212  1.00  0.00     0.049 A 
ATOM     34  N   UNL A   1      39.182  30.926  32.104  1.00  0.00    -0.248 NA
ATOM     35  C   UNL A   1      37.410  32.435  31.905  1.00  0.00     0.031 C 
ATOM     36  C   UNL A   1      38.581  29.745  27.828  1.00  0.00     0.029 A 
ATOM     37  N   UNL A   1      39.819  29.427  29.665  1.00  0.00    -0.354 N 
ATOM     38  C   UNL A   1      38.968  31.549  33.326  1.00  0.00     0.074 A 
ATOM     39  C   UNL A   1      37.881  32.485  33.142  1.00  0.00     0.031 C 
ATOM     40  C   UNL A   1      39.504  28.810  27.540  1.00  0.00     0.029 A 
ATOM     41  C   UNL A   1      40.353  28.597  28.712  1.00  0.00     0.049 A 
ATOM     42  H   UNL A   1      40.163  29.481  30.587  1.00  0.00     0.167 HD
ATOM     43  C   UNL A   1      39.610  31.352  34.502  1.00  0.00     0.037 A 
ATOM     44  C   UNL A   1      41.414  27.770  28.780  1.00  0.00     0.037 A 
ATOM     45  C   UNL A   1      40.710  30.443  34.685  1.00  0.00     0.049 A 
ATOM     46  C   UNL A   1      42.183  27.651  30.071  1.00  0.00     0.074 A 
ATOM     47  C   UNL A   1      41.426  30.173  35.838  1.00  0.00     0.029 A 
ATOM     48  N   UNL A   1      41.263  29.667  33.679  1.00  0.00    -0.354 N 
ATOM     49  N   UNL A   1      41.951  28.218  31.230  1.00  0.00    -0.248 NA
ATOM     50  C   UNL A   1      43.363  26.774  30.058  1.00  0.00     0.031 C 
ATOM     51  C   UNL A   1      42.443  29.266  35.518  1.00  0.00     0.029 A 
ATOM     52  C   UNL A   1      42.331  28.939  34.175  1.00  0.00     0.049 A 
ATOM     53  H   UNL A   1      40.943  29.638  32.747  1.00  0.00     0.167 HD
ATOM     54  C   UNL A   1      42.937  27.747  32.089  1.00  0.00     0.074 A 
ATOM     55  C   UNL A   1      43.762  26.839  31.320  1.00  0.00     0.031 C 
ATOM     56  C   UNL A   1      43.142  28.038  33.396  1.00  0.00     0.037 A 
BRANCH  43  57
ATOM     57  C   UNL A   1      39.147  32.161  35.677  1.00  0.00     0.057 A 
ATOM     58  C   UNL A   1      38.246  31.628  36.605  1.00  0.00     0.134 A 
ATOM     59  C   UNL A   1      39.591  33.474  35.885  1.00  0.00     0.134 A 
ATOM     60  F   UNL A   1      37.782  30.377  36.463  1.00  0.00    -0.206 F 
ATOM     61  C   UNL A   1      37.802  32.370  37.700  1.00  0.00     0.040 A 
ATOM     62  C   UNL A   1      39.171  34.219  36.987  1.00  0.00     0.040 A 
ATOM     63  F   UNL A   1      40.468  34.037  35.039  1.00  0.00    -0.206 F 
ATOM     64  C   UNL A   1      38.271  33.668  37.898  1.00  0.00     0.006 A 
ENDBRANCH  43  57
BRANCH  44  65
ATOM     65  C   UNL A   1      41.834  26.994  27.587  1.00  0.00     0.057 A 
ATOM     66  C   UNL A   1      41.341  25.706  27.348  1.00  0.00     0.134 A 
ATOM     67  C   UNL A   1      42.700  27.542  26.634  1.00  0.00     0.134 A 
ATOM     68  F   UNL A   1      40.505  25.127  28.223  1.00  0.00    -0.206 F 
ATOM     69  C   UNL A   1      41.693  24.989  26.205  1.00  0.00     0.040 A 
ATOM     70  C   UNL A   1      43.045  26.845  25.475  1.00  0.00     0.040 A 
ATOM     71  F   UNL A   1      43.184  28.782  26.796  1.00  0.00    -0.206 F 
ATOM     72  C   UNL A   1      42.542  25.563  25.259  1.00  0.00     0.006 A 
ENDBRANCH  44  65
BRANCH  56  73
ATOM     73  C   UNL A   1      44.283  27.347  34.082  1.00  0.00     0.057 A 
ATOM     74  C   UNL A   1      44.100  26.098  34.688  1.00  0.00     0.134 A 
ATOM     75  C   UNL A   1      45.555  27.928  34.165  1.00  0.00     0.134 A 
ATOM     76  F   UNL A   1      42.905  25.490  34.652  1.00  0.00    -0.206 F 
ATOM     77  C   UNL A   1      45.142  25.450  35.353  1.00  0.00     0.040 A 
ATOM     78  C   UNL A   1      46.612  27.278  34.806  1.00  0.00     0.040 A 
ATOM     79  F   UNL A   1      45.798  29.116  33.592  1.00  0.00    -0.206 F 
ATOM     80  C   UNL A   1      46.406  26.038  35.408  1.00  0.00     0.006 A 
ENDBRANCH  56  73
ENDBRANCH  30  31
ENDBRANCH  23  25
ENDBRANCH  22  23
ENDBRANCH  21  22
ENDBRANCH   1  21
TORSDOF 14
ENDMDL
MODEL 3
REMARK VINA RESULT:     -11.0      4.080      7.254
REMARK SMILES Cc1ccc2c(c1C)O[C@@H](C(=O)OCCOCCOC(=O)c1ccc(-c3c4nc(c(-c5c(F)cccc5F)c5ccc([nH]5)c(-c5c(F)cccc5F)c5nc(c(-c6c(F)cccc6F)c6ccc3[nH]6)C=C5)C=C4)cc1)CC2=O
REMARK SMILES IDX 17 1 16 2 15 3 14 4 13 5 11 6 12 7 10 8 1 9 2 10 3 11 7 12
REMARK SMILES IDX 4 13 6 14 8 15 5 16 9 17 77 18 76 19 78 20 18 21 19 22 20 23
REMARK SMILES IDX 21 24 22 25 23 26 75 27 24 28 74 29 25 30 26 31 27 32 68 33
REMARK SMILES IDX 28 34 73 35 67 36 69 37 29 38 72 39 66 40 65 41 30 43 56 44
REMARK SMILES IDX 39 45 55 46 40 47 43 48 54 49 70 50 41 51 42 52 53 54 71 55
REMARK SMILES IDX 44 56 31 57 32 58 37 59 33 60 34 61 36 62 38 63 35 64 57 65
REMARK SMILES IDX 58 66 63 67 59 68 60 69 62 70 64 71 61 72 45 73 46 74 51 75
REMARK SMILES IDX 47 76 48 77 50 78 52 79 49 80
REMARK H PARENT 69 42 43 53
REMARK Flexibility Score: inf
ROOT
ATOM      1  C   UNL A   1      35.276  20.960  24.895  1.00  0.00     0.202 C 
ENDROOT
BRANCH   1   2
ATOM      2  O   UNL A   1      35.045  21.928  23.874  1.00  0.00    -0.374 OA
BRANCH   2   3
ATOM      3  C   UNL A   1      33.694  22.159  23.482  1.00  0.00     0.202 C 
BRANCH   3   4
ATOM      4  C   UNL A   1      33.485  23.209  22.388  1.00  0.00     0.261 C 
BRANCH   4   5
ATOM      5  O   UNL A   1      34.149  24.448  22.704  1.00  0.00    -0.460 OA
BRANCH   5   6
ATOM      6  C   UNL A   1      33.554  25.579  22.237  1.00  0.00     0.347 C 
ATOM      7  O   UNL A   1      33.278  25.792  21.063  1.00  0.00    -0.248 OA
BRANCH   6   8
ATOM      8  C   UNL A   1      33.304  26.610  23.344  1.00  0.00     0.290 C 
ATOM      9  C   UNL A   1      33.275  22.484  27.830  1.00  0.00     0.045 C 
ATOM     10  C   UNL A   1      32.711  23.492  26.865  1.00  0.00    -0.044 A 
ATOM     11  C   UNL A   1      31.316  23.540  26.685  1.00  0.00     0.005 A 
ATOM     12  C   UNL A   1      33.539  24.359  26.121  1.00  0.00    -0.005 A 
ATOM     13  C   UNL A   1      30.740  24.446  25.796  1.00  0.00     0.016 A 
ATOM     14  C   UNL A   1      32.942  25.284  25.245  1.00  0.00     0.134 A 
ATOM     15  C   UNL A   1      35.044  24.323  26.208  1.00  0.00     0.049 C 
ATOM     16  C   UNL A   1      31.556  25.320  25.082  1.00  0.00     0.060 A 
ATOM     17  O   UNL A   1      33.783  26.156  24.604  1.00  0.00    -0.477 OA
ATOM     18  C   UNL A   1      30.964  26.298  24.153  1.00  0.00     0.170 C 
ATOM     19  C   UNL A   1      31.910  27.208  23.425  1.00  0.00     0.138 C 
ATOM     20  O   UNL A   1      29.747  26.397  24.029  1.00  0.00    -0.294 OA
ENDBRANCH   6   8
ENDBRANCH   5   6
ENDBRANCH   4   5
ENDBRANCH   3   4
ENDBRANCH   2   3
ENDBRANCH   1   2
BRANCH   1  21
ATOM     21  C   UNL A   1      36.705  20.416  25.001  1.00  0.00     0.261 C 
BRANCH  21  22
ATOM     22  O   UNL A   1      37.677  21.474  25.065  1.00  0.00    -0.460 OA
BRANCH  22  23
ATOM     23  C   UNL A   1      38.795  21.181  25.768  1.00  0.00     0.338 C 
ATOM     24  O   UNL A   1      39.432  20.138  25.751  1.00  0.00    -0.246 OA
BRANCH  23  25
ATOM     25  C   UNL A   1      39.287  22.377  26.471  1.00  0.00     0.060 A 
ATOM     26  C   UNL A   1      38.716  23.610  26.127  1.00  0.00     0.016 A 
ATOM     27  C   UNL A   1      40.380  22.315  27.337  1.00  0.00     0.016 A 
ATOM     28  C   UNL A   1      39.272  24.793  26.605  1.00  0.00     0.010 A 
ATOM     29  C   UNL A   1      40.953  23.507  27.798  1.00  0.00     0.010 A 
ATOM     30  C   UNL A   1      40.427  24.748  27.397  1.00  0.00    -0.014 A 
BRANCH  30  31
ATOM     31  C   UNL A   1      41.184  26.000  27.629  1.00  0.00     0.031 A 
ATOM     32  C   UNL A   1      40.516  27.117  28.385  1.00  0.00     0.074 A 
ATOM     33  C   UNL A   1      42.459  26.128  27.224  1.00  0.00     0.049 A 
ATOM     34  N   UNL A   1      40.990  28.286  28.735  1.00  0.00    -0.248 NA
ATOM     35  C   UNL A   1      39.128  26.878  28.813  1.00  0.00     0.031 C 
ATOM     36  C   UNL A   1      43.232  25.104  26.526  1.00  0.00     0.029 A 
ATOM     37  N   UNL A   1      43.326  27.182  27.348  1.00  0.00    -0.354 N 
ATOM     38  C   UNL A   1      39.967  28.913  29.435  1.00  0.00     0.074 A 
ATOM     39  C   UNL A   1      38.836  28.012  29.432  1.00  0.00     0.031 C 
ATOM     40  C   UNL A   1      44.462  25.586  26.273  1.00  0.00     0.029 A 
ATOM     41  C   UNL A   1      44.551  26.958  26.773  1.00  0.00     0.049 A 
ATOM     42  H   UNL A   1      43.093  28.023  27.807  1.00  0.00     0.167 HD
ATOM     43  C   UNL A   1      39.971  30.126  30.037  1.00  0.00     0.037 A 
ATOM     44  C   UNL A   1      45.615  27.775  26.653  1.00  0.00     0.037 A 
ATOM     45  C   UNL A   1      41.083  31.038  30.018  1.00  0.00     0.049 A 
ATOM     46  C   UNL A   1      45.556  29.164  27.235  1.00  0.00     0.074 A 
ATOM     47  C   UNL A   1      41.185  32.291  30.598  1.00  0.00     0.029 A 
ATOM     48  N   UNL A   1      42.284  30.800  29.368  1.00  0.00    -0.354 N 
ATOM     49  N   UNL A   1      44.598  29.734  27.925  1.00  0.00    -0.248 NA
ATOM     50  C   UNL A   1      46.731  30.021  27.020  1.00  0.00     0.031 C 
ATOM     51  C   UNL A   1      42.432  32.829  30.261  1.00  0.00     0.029 A 
ATOM     52  C   UNL A   1      43.123  31.893  29.507  1.00  0.00     0.049 A 
ATOM     53  H   UNL A   1      42.507  29.974  28.879  1.00  0.00     0.167 HD
ATOM     54  C   UNL A   1      45.063  31.003  28.247  1.00  0.00     0.074 A 
ATOM     55  C   UNL A   1      46.393  31.115  27.688  1.00  0.00     0.031 C 
ATOM     56  C   UNL A   1      44.446  31.988  28.945  1.00  0.00     0.037 A 
BRANCH  43  57
ATOM     57  C   UNL A   1      38.717  30.541  30.744  1.00  0.00     0.057 A 
ATOM     58  C   UNL A   1      38.522  30.237  32.096  1.00  0.00     0.134 A 
ATOM     59  C   UNL A   1      37.697  31.239  30.084  1.00  0.00     0.134 A 
ATOM     60  F   UNL A   1      39.460  29.570  32.787  1.00  0.00    -0.206 F 
ATOM     61  C   UNL A   1      37.357  30.612  32.768  1.00  0.00     0.040 A 
ATOM     62  C   UNL A   1      36.537  31.638  30.749  1.00  0.00     0.040 A 
ATOM     63  F   UNL A   1      37.830  31.574  28.791  1.00  0.00    -0.206 F 
ATOM     64  C   UNL A   1      36.363  31.321  32.095  1.00  0.00     0.006 A 
ENDBRANCH  43  57
BRANCH  44  65
ATOM     65  C   UNL A   1      46.833  27.318  25.938  1.00  0.00     0.057 A 
ATOM     66  C   UNL A   1      47.836  26.600  26.600  1.00  0.00     0.134 A 
ATOM     67  C   UNL A   1      46.997  27.545  24.568  1.00  0.00     0.134 A 
ATOM     68  F   UNL A   1      47.735  26.347  27.913  1.00  0.00    -0.206 F 
ATOM     69  C   UNL A   1      48.960  26.124  25.924  1.00  0.00     0.040 A 
ATOM     70  C   UNL A   1      48.106  27.057  23.874  1.00  0.00     0.040 A 
ATOM     71  F   UNL A   1      46.056  28.204  23.876  1.00  0.00    -0.206 F 
ATOM     72  C   UNL A   1      49.092  26.345  24.554  1.00  0.00     0.006 A 
ENDBRANCH  44  65
BRANCH  56  73
ATOM     73  C   UNL A   1      45.214  33.257  29.165  1.00  0.00     0.057 A 
ATOM     74  C   UNL A   1      46.044  33.405  30.284  1.00  0.00     0.134 A 
ATOM     75  C   UNL A   1      45.116  34.342  28.284  1.00  0.00     0.134 A 
ATOM     76  F   UNL A   1      46.177  32.406  31.170  1.00  0.00    -0.206 F 
ATOM     77  C   UNL A   1      46.747  34.587  30.520  1.00  0.00     0.040 A 
ATOM     78  C   UNL A   1      45.834  35.521  28.496  1.00  0.00     0.040 A 
ATOM     79  F   UNL A   1      44.350  34.258  27.186  1.00  0.00    -0.206 F 
ATOM     80  C   UNL A   1      46.648  35.647  29.620  1.00  0.00     0.006 A 
ENDBRANCH  56  73
ENDBRANCH  30  31
ENDBRANCH  23  25
ENDBRANCH  22  23
ENDBRANCH  21  22
ENDBRANCH   1  21
TORSDOF 14
ENDMDL
