MODEL 1
REMARK VINA RESULT:     -10.0      0.000      0.000
REMARK SMILES CCO[C@@H]1CCC[C@]([NH3+])(C(=O)OCCOCCOC(=O)c2ccc(-c3c4nc(c(-c5c(F)cccc5F)c5ccc([nH]5)c(-c5c(F)cccc5F)c5nc(c(-c6c(F)cccc6F)c6ccc3[nH]6)C=C5)C=C4)cc2)C1
REMARK SMILES IDX 15 1 14 2 13 3 12 4 10 5 11 6 8 7 4 8 5 9 75 10 6 11 7 12
REMARK SMILES IDX 3 13 2 14 1 15 9 16 16 20 17 21 18 22 19 23 20 24 21 25
REMARK SMILES IDX 22 26 74 27 23 28 73 29 24 30 25 31 26 32 67 33 27 34 72 35
REMARK SMILES IDX 66 36 68 37 28 38 71 39 65 40 64 41 29 43 55 44 38 45 54 46
REMARK SMILES IDX 39 47 42 48 53 49 69 50 40 51 41 52 52 54 70 55 43 56 30 57
REMARK SMILES IDX 31 58 36 59 32 60 33 61 35 62 37 63 34 64 56 65 57 66 62 67
REMARK SMILES IDX 58 68 59 69 61 70 63 71 60 72 44 73 45 74 50 75 46 76 47 77
REMARK SMILES IDX 49 78 51 79 48 80
REMARK H PARENT 9 17 9 18 9 19 68 42 42 53
REMARK Flexibility Score: inf
ROOT
ATOM      1  O   UNL A   1      31.935  30.644  27.051  1.00  0.00    -0.374 OA
ENDROOT
BRANCH   1   2
ATOM      2  C   UNL A   1      33.271  30.394  26.620  1.00  0.00     0.202 C 
BRANCH   2   3
ATOM      3  C   UNL A   1      33.561  29.009  26.036  1.00  0.00     0.261 C 
BRANCH   3   4
ATOM      4  O   UNL A   1      32.441  28.470  25.320  1.00  0.00    -0.459 OA
BRANCH   4   5
ATOM      5  C   UNL A   1      32.486  28.646  23.973  1.00  0.00     0.368 C 
ATOM      6  O   UNL A   1      33.461  29.070  23.356  1.00  0.00    -0.245 OA
BRANCH   5   7
ATOM      7  C   UNL A   1      31.154  28.298  23.253  1.00  0.00     0.195 C 
ATOM      8  C   UNL A   1      28.882  29.094  22.385  1.00  0.00     0.125 C 
ATOM      9  C   UNL A   1      28.173  28.085  23.296  1.00  0.00     0.032 C 
ATOM     10  C   UNL A   1      30.233  29.503  22.987  1.00  0.00     0.113 C 
ATOM     11  C   UNL A   1      29.039  26.876  23.626  1.00  0.00     0.010 C 
ATOM     12  C   UNL A   1      30.410  27.286  24.157  1.00  0.00     0.081 C 
BRANCH   8  13
ATOM     13  O   UNL A   1      28.021  30.234  22.290  1.00  0.00    -0.378 OA
BRANCH  13  14
ATOM     14  C   UNL A   1      28.162  30.989  21.088  1.00  0.00     0.157 C 
ATOM     15  C   UNL A   1      27.961  32.473  21.325  1.00  0.00     0.035 C 
ENDBRANCH  13  14
ENDBRANCH   8  13
BRANCH   7  16
ATOM     16  N   UNL A   1      31.531  27.670  21.959  1.00  0.00    -0.343 N 
ATOM     17  H   UNL A   1      30.687  27.464  21.422  1.00  0.00     0.345 HD
ATOM     18  H   UNL A   1      32.041  26.806  22.135  1.00  0.00     0.345 HD
ATOM     19  H   UNL A   1      32.121  28.312  21.430  1.00  0.00     0.345 HD
ENDBRANCH   7  16
ENDBRANCH   5   7
ENDBRANCH   4   5
ENDBRANCH   3   4
ENDBRANCH   2   3
ENDBRANCH   1   2
BRANCH   1  20
ATOM     20  C   UNL A   1      31.374  31.914  26.713  1.00  0.00     0.202 C 
BRANCH  20  21
ATOM     21  C   UNL A   1      32.308  33.129  26.811  1.00  0.00     0.261 C 
BRANCH  21  22
ATOM     22  O   UNL A   1      32.236  33.755  28.106  1.00  0.00    -0.460 OA
BRANCH  22  23
ATOM     23  C   UNL A   1      33.313  34.502  28.439  1.00  0.00     0.338 C 
ATOM     24  O   UNL A   1      33.342  35.709  28.652  1.00  0.00    -0.246 OA
BRANCH  23  25
ATOM     25  C   UNL A   1      34.471  33.632  28.707  1.00  0.00     0.060 A 
ATOM     26  C   UNL A   1      34.237  32.447  29.419  1.00  0.00     0.016 A 
ATOM     27  C   UNL A   1      35.769  33.994  28.339  1.00  0.00     0.016 A 
ATOM     28  C   UNL A   1      35.306  31.649  29.817  1.00  0.00     0.010 A 
ATOM     29  C   UNL A   1      36.842  33.196  28.749  1.00  0.00     0.010 A 
ATOM     30  C   UNL A   1      36.618  32.042  29.522  1.00  0.00    -0.014 A 
BRANCH  30  31
ATOM     31  C   UNL A   1      37.751  31.331  30.161  1.00  0.00     0.031 A 
ATOM     32  C   UNL A   1      38.068  31.616  31.603  1.00  0.00     0.074 A 
ATOM     33  C   UNL A   1      38.465  30.420  29.479  1.00  0.00     0.049 A 
ATOM     34  N   UNL A   1      39.024  31.133  32.355  1.00  0.00    -0.248 NA
ATOM     35  C   UNL A   1      37.187  32.574  32.290  1.00  0.00     0.031 C 
ATOM     36  C   UNL A   1      38.231  30.028  28.091  1.00  0.00     0.029 A 
ATOM     37  N   UNL A   1      39.541  29.661  29.868  1.00  0.00    -0.354 N 
ATOM     38  C   UNL A   1      38.861  31.729  33.600  1.00  0.00     0.074 A 
ATOM     39  C   UNL A   1      37.735  32.632  33.494  1.00  0.00     0.031 C 
ATOM     40  C   UNL A   1      39.147  29.110  27.737  1.00  0.00     0.029 A 
ATOM     41  C   UNL A   1      40.045  28.870  28.866  1.00  0.00     0.049 A 
ATOM     42  H   UNL A   1      39.914  29.682  30.779  1.00  0.00     0.167 HD
ATOM     43  C   UNL A   1      39.578  31.534  34.732  1.00  0.00     0.037 A 
ATOM     44  C   UNL A   1      41.122  28.061  28.857  1.00  0.00     0.037 A 
ATOM     45  C   UNL A   1      40.699  30.638  34.836  1.00  0.00     0.049 A 
ATOM     46  C   UNL A   1      41.947  27.913  30.107  1.00  0.00     0.074 A 
ATOM     47  C   UNL A   1      41.486  30.363  35.941  1.00  0.00     0.029 A 
ATOM     48  N   UNL A   1      41.197  29.875  33.790  1.00  0.00    -0.354 N 
ATOM     49  N   UNL A   1      41.773  28.466  31.284  1.00  0.00    -0.248 NA
ATOM     50  C   UNL A   1      43.116  27.025  30.030  1.00  0.00     0.031 C 
ATOM     51  C   UNL A   1      42.485  29.465  35.554  1.00  0.00     0.029 A 
ATOM     52  C   UNL A   1      42.294  29.146  34.219  1.00  0.00     0.049 A 
ATOM     53  H   UNL A   1      40.826  29.855  32.878  1.00  0.00     0.167 HD
ATOM     54  C   UNL A   1      42.792  27.973  32.091  1.00  0.00     0.074 A 
ATOM     55  C   UNL A   1      43.573  27.070  31.273  1.00  0.00     0.031 C 
ATOM     56  C   UNL A   1      43.057  28.245  33.393  1.00  0.00     0.037 A 
BRANCH  43  57
ATOM     57  C   UNL A   1      39.181  32.323  35.944  1.00  0.00     0.057 A 
ATOM     58  C   UNL A   1      39.694  33.603  36.193  1.00  0.00     0.134 A 
ATOM     59  C   UNL A   1      38.255  31.808  36.860  1.00  0.00     0.134 A 
ATOM     60  F   UNL A   1      40.597  34.146  35.362  1.00  0.00    -0.206 F 
ATOM     61  C   UNL A   1      39.318  34.332  37.321  1.00  0.00     0.040 A 
ATOM     62  C   UNL A   1      37.852  32.538  37.978  1.00  0.00     0.040 A 
ATOM     63  F   UNL A   1      37.723  30.589  36.678  1.00  0.00    -0.206 F 
ATOM     64  C   UNL A   1      38.388  33.803  38.214  1.00  0.00     0.006 A 
ENDBRANCH  43  57
BRANCH  44  65
ATOM     65  C   UNL A   1      41.497  27.339  27.615  1.00  0.00     0.057 A 
ATOM     66  C   UNL A   1      42.278  27.948  26.627  1.00  0.00     0.134 A 
ATOM     67  C   UNL A   1      41.064  26.029  27.379  1.00  0.00     0.134 A 
ATOM     68  F   UNL A   1      42.702  29.212  26.785  1.00  0.00    -0.206 F 
ATOM     69  C   UNL A   1      42.605  27.286  25.443  1.00  0.00     0.040 A 
ATOM     70  C   UNL A   1      41.403  25.346  26.210  1.00  0.00     0.040 A 
ATOM     71  F   UNL A   1      40.311  25.390  28.287  1.00  0.00    -0.206 F 
ATOM     72  C   UNL A   1      42.170  25.978  25.234  1.00  0.00     0.006 A 
ENDBRANCH  44  65
BRANCH  56  73
ATOM     73  C   UNL A   1      44.218  27.533  34.022  1.00  0.00     0.057 A 
ATOM     74  C   UNL A   1      44.082  26.265  34.600  1.00  0.00     0.134 A 
ATOM     75  C   UNL A   1      45.496  28.107  34.013  1.00  0.00     0.134 A 
ATOM     76  F   UNL A   1      42.882  25.667  34.652  1.00  0.00    -0.206 F 
ATOM     77  C   UNL A   1      45.173  25.601  35.164  1.00  0.00     0.040 A 
ATOM     78  C   UNL A   1      46.598  27.443  34.551  1.00  0.00     0.040 A 
ATOM     79  F   UNL A   1      45.695  29.316  33.466  1.00  0.00    -0.206 F 
ATOM     80  C   UNL A   1      46.437  26.188  35.134  1.00  0.00     0.006 A 
ENDBRANCH  56  73
ENDBRANCH  30  31
ENDBRANCH  23  25
ENDBRANCH  22  23
ENDBRANCH  21  22
ENDBRANCH  20  21
ENDBRANCH   1  20
TORSDOF 17
ENDMDL
MODEL 2
REMARK VINA RESULT:      -9.9      4.349      9.053
REMARK SMILES CCO[C@@H]1CCC[C@]([NH3+])(C(=O)OCCOCCOC(=O)c2ccc(-c3c4nc(c(-c5c(F)cccc5F)c5ccc([nH]5)c(-c5c(F)cccc5F)c5nc(c(-c6c(F)cccc6F)c6ccc3[nH]6)C=C5)C=C4)cc2)C1
REMARK SMILES IDX 15 1 14 2 13 3 12 4 10 5 11 6 8 7 4 8 5 9 75 10 6 11 7 12
REMARK SMILES IDX 3 13 2 14 1 15 9 16 16 20 17 21 18 22 19 23 20 24 21 25
REMARK SMILES IDX 22 26 74 27 23 28 73 29 24 30 25 31 26 32 67 33 27 34 72 35
REMARK SMILES IDX 66 36 68 37 28 38 71 39 65 40 64 41 29 43 55 44 38 45 54 46
REMARK SMILES IDX 39 47 42 48 53 49 69 50 40 51 41 52 52 54 70 55 43 56 30 57
REMARK SMILES IDX 31 58 36 59 32 60 33 61 35 62 37 63 34 64 56 65 57 66 62 67
REMARK SMILES IDX 58 68 59 69 61 70 63 71 60 72 44 73 45 74 50 75 46 76 47 77
REMARK SMILES IDX 49 78 51 79 48 80
REMARK H PARENT 9 17 9 18 9 19 68 42 42 53
REMARK Flexibility Score: inf
ROOT
ATOM      1  O   UNL A   1      41.922  19.976  25.969  1.00  0.00    -0.374 OA
ENDROOT
BRANCH   1   2
ATOM      2  C   UNL A   1      40.506  19.959  26.132  1.00  0.00     0.202 C 
BRANCH   2   3
ATOM      3  C   UNL A   1      39.817  21.313  26.327  1.00  0.00     0.261 C 
BRANCH   3   4
ATOM      4  O   UNL A   1      38.548  21.383  25.662  1.00  0.00    -0.459 OA
BRANCH   4   5
ATOM      5  C   UNL A   1      37.909  22.577  25.775  1.00  0.00     0.368 C 
ATOM      6  O   UNL A   1      38.464  23.646  26.022  1.00  0.00    -0.245 OA
BRANCH   5   7
ATOM      7  C   UNL A   1      36.368  22.478  25.604  1.00  0.00     0.195 C 
ATOM      8  C   UNL A   1      34.336  21.039  25.015  1.00  0.00     0.125 C 
ATOM      9  C   UNL A   1      33.987  21.991  23.864  1.00  0.00     0.032 C 
ATOM     10  C   UNL A   1      35.844  21.064  25.292  1.00  0.00     0.113 C 
ATOM     11  C   UNL A   1      34.501  23.406  24.092  1.00  0.00     0.010 C 
ATOM     12  C   UNL A   1      35.987  23.423  24.439  1.00  0.00     0.081 C 
BRANCH   8  13
ATOM     13  O   UNL A   1      33.935  19.730  24.597  1.00  0.00    -0.378 OA
BRANCH  13  14
ATOM     14  C   UNL A   1      32.892  19.148  25.378  1.00  0.00     0.157 C 
ATOM     15  C   UNL A   1      32.836  17.641  25.214  1.00  0.00     0.035 C 
ENDBRANCH  13  14
ENDBRANCH   8  13
BRANCH   7  16
ATOM     16  N   UNL A   1      35.776  22.952  26.883  1.00  0.00    -0.343 N 
ATOM     17  H   UNL A   1      35.371  22.161  27.384  1.00  0.00     0.345 HD
ATOM     18  H   UNL A   1      35.049  23.640  26.688  1.00  0.00     0.345 HD
ATOM     19  H   UNL A   1      36.504  23.380  27.456  1.00  0.00     0.345 HD
ENDBRANCH   7  16
ENDBRANCH   5   7
ENDBRANCH   4   5
ENDBRANCH   3   4
ENDBRANCH   2   3
ENDBRANCH   1   2
BRANCH   1  20
ATOM     20  C   UNL A   1      42.616  21.123  26.462  1.00  0.00     0.202 C 
BRANCH  20  21
ATOM     21  C   UNL A   1      43.687  21.729  25.545  1.00  0.00     0.261 C 
BRANCH  21  22
ATOM     22  O   UNL A   1      44.346  22.852  26.161  1.00  0.00    -0.460 OA
BRANCH  22  23
ATOM     23  C   UNL A   1      44.186  24.031  25.518  1.00  0.00     0.338 C 
ATOM     24  O   UNL A   1      44.479  24.289  24.356  1.00  0.00    -0.246 OA
BRANCH  23  25
ATOM     25  C   UNL A   1      43.417  24.966  26.358  1.00  0.00     0.060 A 
ATOM     26  C   UNL A   1      43.933  26.259  26.524  1.00  0.00     0.016 A 
ATOM     27  C   UNL A   1      42.257  24.574  27.030  1.00  0.00     0.016 A 
ATOM     28  C   UNL A   1      43.325  27.145  27.408  1.00  0.00     0.010 A 
ATOM     29  C   UNL A   1      41.653  25.462  27.925  1.00  0.00     0.010 A 
ATOM     30  C   UNL A   1      42.207  26.736  28.146  1.00  0.00    -0.014 A 
BRANCH  30  31
ATOM     31  C   UNL A   1      41.722  27.585  29.261  1.00  0.00     0.031 A 
ATOM     32  C   UNL A   1      42.428  27.518  30.587  1.00  0.00     0.074 A 
ATOM     33  C   UNL A   1      40.691  28.430  29.086  1.00  0.00     0.049 A 
ATOM     34  N   UNL A   1      42.163  28.148  31.703  1.00  0.00    -0.248 NA
ATOM     35  C   UNL A   1      43.592  26.620  30.664  1.00  0.00     0.031 C 
ATOM     36  C   UNL A   1      39.951  28.614  27.840  1.00  0.00     0.029 A 
ATOM     37  N   UNL A   1      40.086  29.288  29.969  1.00  0.00    -0.354 N 
ATOM     38  C   UNL A   1      43.122  27.721  32.613  1.00  0.00     0.074 A 
ATOM     39  C   UNL A   1      43.956  26.756  31.930  1.00  0.00     0.031 C 
ATOM     40  C   UNL A   1      38.979  29.521  28.041  1.00  0.00     0.029 A 
ATOM     41  C   UNL A   1      39.014  29.959  29.435  1.00  0.00     0.049 A 
ATOM     42  H   UNL A   1      40.392  29.412  30.897  1.00  0.00     0.167 HD
ATOM     43  C   UNL A   1      43.299  28.107  33.899  1.00  0.00     0.037 A 
ATOM     44  C   UNL A   1      38.147  30.812  30.014  1.00  0.00     0.037 A 
ATOM     45  C   UNL A   1      42.468  29.064  34.579  1.00  0.00     0.049 A 
ATOM     46  C   UNL A   1      38.321  31.173  31.465  1.00  0.00     0.074 A 
ATOM     47  C   UNL A   1      42.570  29.528  35.879  1.00  0.00     0.029 A 
ATOM     48  N   UNL A   1      41.374  29.701  34.012  1.00  0.00    -0.354 N 
ATOM     49  N   UNL A   1      39.243  30.779  32.311  1.00  0.00    -0.248 NA
ATOM     50  C   UNL A   1      37.336  32.100  32.041  1.00  0.00     0.031 C 
ATOM     51  C   UNL A   1      41.513  30.414  36.112  1.00  0.00     0.029 A 
ATOM     52  C   UNL A   1      40.779  30.537  34.943  1.00  0.00     0.049 A 
ATOM     53  H   UNL A   1      41.065  29.576  33.085  1.00  0.00     0.167 HD
ATOM     54  C   UNL A   1      38.964  31.429  33.508  1.00  0.00     0.074 A 
ATOM     55  C   UNL A   1      37.795  32.251  33.275  1.00  0.00     0.031 C 
ATOM     56  C   UNL A   1      39.618  31.353  34.693  1.00  0.00     0.037 A 
BRANCH  43  57
ATOM     57  C   UNL A   1      44.425  27.472  34.660  1.00  0.00     0.057 A 
ATOM     58  C   UNL A   1      45.681  28.083  34.767  1.00  0.00     0.134 A 
ATOM     59  C   UNL A   1      44.243  26.247  35.315  1.00  0.00     0.134 A 
ATOM     60  F   UNL A   1      45.924  29.249  34.149  1.00  0.00    -0.206 F 
ATOM     61  C   UNL A   1      46.723  27.488  35.479  1.00  0.00     0.040 A 
ATOM     62  C   UNL A   1      45.270  25.655  36.050  1.00  0.00     0.040 A 
ATOM     63  F   UNL A   1      43.064  25.611  35.254  1.00  0.00    -0.206 F 
ATOM     64  C   UNL A   1      46.516  26.273  36.130  1.00  0.00     0.006 A 
ENDBRANCH  43  57
BRANCH  44  65
ATOM     65  C   UNL A   1      37.022  31.375  29.225  1.00  0.00     0.057 A 
ATOM     66  C   UNL A   1      35.898  30.605  28.911  1.00  0.00     0.134 A 
ATOM     67  C   UNL A   1      37.056  32.692  28.750  1.00  0.00     0.134 A 
ATOM     68  F   UNL A   1      35.819  29.328  29.317  1.00  0.00    -0.206 F 
ATOM     69  C   UNL A   1      34.852  31.117  28.141  1.00  0.00     0.040 A 
ATOM     70  C   UNL A   1      36.007  33.226  28.000  1.00  0.00     0.040 A 
ATOM     71  F   UNL A   1      38.107  33.481  29.017  1.00  0.00    -0.206 F 
ATOM     72  C   UNL A   1      34.904  32.434  27.687  1.00  0.00     0.006 A 
ENDBRANCH  44  65
BRANCH  56  73
ATOM     73  C   UNL A   1      39.106  32.203  35.818  1.00  0.00     0.057 A 
ATOM     74  C   UNL A   1      38.230  31.698  36.787  1.00  0.00     0.134 A 
ATOM     75  C   UNL A   1      39.529  33.532  35.957  1.00  0.00     0.134 A 
ATOM     76  F   UNL A   1      37.779  30.437  36.703  1.00  0.00    -0.206 F 
ATOM     77  C   UNL A   1      37.776  32.491  37.842  1.00  0.00     0.040 A 
ATOM     78  C   UNL A   1      39.102  34.326  37.021  1.00  0.00     0.040 A 
ATOM     79  F   UNL A   1      40.376  34.073  35.067  1.00  0.00    -0.206 F 
ATOM     80  C   UNL A   1      38.219  33.807  37.965  1.00  0.00     0.006 A 
ENDBRANCH  56  73
ENDBRANCH  30  31
ENDBRANCH  23  25
ENDBRANCH  22  23
ENDBRANCH  21  22
ENDBRANCH  20  21
ENDBRANCH   1  20
TORSDOF 17
ENDMDL
MODEL 3
REMARK VINA RESULT:      -9.8      5.664     10.441
REMARK SMILES CCO[C@@H]1CCC[C@]([NH3+])(C(=O)OCCOCCOC(=O)c2ccc(-c3c4nc(c(-c5c(F)cccc5F)c5ccc([nH]5)c(-c5c(F)cccc5F)c5nc(c(-c6c(F)cccc6F)c6ccc3[nH]6)C=C5)C=C4)cc2)C1
REMARK SMILES IDX 15 1 14 2 13 3 12 4 10 5 11 6 8 7 4 8 5 9 75 10 6 11 7 12
REMARK SMILES IDX 3 13 2 14 1 15 9 16 16 20 17 21 18 22 19 23 20 24 21 25
REMARK SMILES IDX 22 26 74 27 23 28 73 29 24 30 25 31 26 32 67 33 27 34 72 35
REMARK SMILES IDX 66 36 68 37 28 38 71 39 65 40 64 41 29 43 55 44 38 45 54 46
REMARK SMILES IDX 39 47 42 48 53 49 69 50 40 51 41 52 52 54 70 55 43 56 30 57
REMARK SMILES IDX 31 58 36 59 32 60 33 61 35 62 37 63 34 64 56 65 57 66 62 67
REMARK SMILES IDX 58 68 59 69 61 70 63 71 60 72 44 73 45 74 50 75 46 76 47 77
REMARK SMILES IDX 49 78 51 79 48 80
REMARK H PARENT 9 17 9 18 9 19 68 42 42 53
REMARK Flexibility Score: inf
ROOT
ATOM      1  O   UNL A   1      37.351  21.693  24.079  1.00  0.00    -0.374 OA
ENDROOT
BRANCH   1   2
ATOM      2  C   UNL A   1      36.940  22.957  24.595  1.00  0.00     0.202 C 
BRANCH   2   3
ATOM      3  C   UNL A   1      36.256  22.955  25.965  1.00  0.00     0.261 C 
BRANCH   3   4
ATOM      4  O   UNL A   1      34.829  23.050  25.865  1.00  0.00    -0.459 OA
BRANCH   4   5
ATOM      5  C   UNL A   1      34.145  22.038  26.460  1.00  0.00     0.368 C 
ATOM      6  O   UNL A   1      34.361  21.622  27.596  1.00  0.00    -0.245 OA
BRANCH   5   7
ATOM      7  C   UNL A   1      33.061  21.397  25.549  1.00  0.00     0.195 C 
ATOM      8  C   UNL A   1      32.137  19.292  24.424  1.00  0.00     0.125 C 
ATOM      9  C   UNL A   1      32.320  19.941  23.047  1.00  0.00     0.032 C 
ATOM     10  C   UNL A   1      33.150  19.864  25.424  1.00  0.00     0.113 C 
ATOM     11  C   UNL A   1      32.270  21.463  23.099  1.00  0.00     0.010 C 
ATOM     12  C   UNL A   1      33.227  22.027  24.146  1.00  0.00     0.081 C 
BRANCH   8  13
ATOM     13  O   UNL A   1      32.361  17.889  24.247  1.00  0.00    -0.378 OA
BRANCH  13  14
ATOM     14  C   UNL A   1      33.136  17.549  23.099  1.00  0.00     0.157 C 
ATOM     15  C   UNL A   1      34.149  16.462  23.402  1.00  0.00     0.035 C 
ENDBRANCH  13  14
ENDBRANCH   8  13
BRANCH   7  16
ATOM     16  N   UNL A   1      31.748  21.767  26.141  1.00  0.00    -0.343 N 
ATOM     17  H   UNL A   1      31.875  22.013  27.123  1.00  0.00     0.345 HD
ATOM     18  H   UNL A   1      31.107  20.978  26.068  1.00  0.00     0.345 HD
ATOM     19  H   UNL A   1      31.362  22.566  25.638  1.00  0.00     0.345 HD
ENDBRANCH   7  16
ENDBRANCH   5   7
ENDBRANCH   4   5
ENDBRANCH   3   4
ENDBRANCH   2   3
ENDBRANCH   1   2
BRANCH   1  20
ATOM     20  C   UNL A   1      37.245  20.571  24.956  1.00  0.00     0.202 C 
BRANCH  20  21
ATOM     21  C   UNL A   1      38.475  19.659  25.062  1.00  0.00     0.261 C 
BRANCH  21  22
ATOM     22  O   UNL A   1      39.107  19.763  26.352  1.00  0.00    -0.460 OA
BRANCH  22  23
ATOM     23  C   UNL A   1      40.433  20.030  26.317  1.00  0.00     0.338 C 
ATOM     24  O   UNL A   1      41.310  19.364  25.779  1.00  0.00    -0.246 OA
BRANCH  23  25
ATOM     25  C   UNL A   1      40.696  21.369  26.872  1.00  0.00     0.060 A 
ATOM     26  C   UNL A   1      39.917  22.431  26.391  1.00  0.00     0.016 A 
ATOM     27  C   UNL A   1      41.726  21.602  27.785  1.00  0.00     0.016 A 
ATOM     28  C   UNL A   1      40.203  23.738  26.776  1.00  0.00     0.010 A 
ATOM     29  C   UNL A   1      42.019  22.917  28.163  1.00  0.00     0.010 A 
ATOM     30  C   UNL A   1      41.284  23.991  27.630  1.00  0.00    -0.014 A 
BRANCH  30  31
ATOM     31  C   UNL A   1      41.739  25.388  27.833  1.00  0.00     0.031 A 
ATOM     32  C   UNL A   1      43.078  25.803  27.291  1.00  0.00     0.074 A 
ATOM     33  C   UNL A   1      40.955  26.284  28.458  1.00  0.00     0.049 A 
ATOM     34  N   UNL A   1      43.686  26.959  27.372  1.00  0.00    -0.248 NA
ATOM     35  C   UNL A   1      43.834  24.776  26.557  1.00  0.00     0.031 C 
ATOM     36  C   UNL A   1      39.623  26.014  28.993  1.00  0.00     0.029 A 
ATOM     37  N   UNL A   1      41.177  27.605  28.753  1.00  0.00    -0.354 N 
ATOM     38  C   UNL A   1      44.894  26.798  26.704  1.00  0.00     0.074 A 
ATOM     39  C   UNL A   1      44.947  25.424  26.250  1.00  0.00     0.031 C 
ATOM     40  C   UNL A   1      39.148  27.134  29.565  1.00  0.00     0.029 A 
ATOM     41  C   UNL A   1      40.154  28.190  29.459  1.00  0.00     0.049 A 
ATOM     42  H   UNL A   1      41.991  28.089  28.484  1.00  0.00     0.167 HD
ATOM     43  C   UNL A   1      45.865  27.713  26.479  1.00  0.00     0.037 A 
ATOM     44  C   UNL A   1      40.054  29.428  29.978  1.00  0.00     0.037 A 
ATOM     45  C   UNL A   1      45.813  29.078  26.933  1.00  0.00     0.049 A 
ATOM     46  C   UNL A   1      41.178  30.409  29.775  1.00  0.00     0.074 A 
ATOM     47  C   UNL A   1      46.743  30.086  26.748  1.00  0.00     0.029 A 
ATOM     48  N   UNL A   1      44.772  29.623  27.670  1.00  0.00    -0.354 N 
ATOM     49  N   UNL A   1      42.306  30.252  29.125  1.00  0.00    -0.248 NA
ATOM     50  C   UNL A   1      41.012  31.741  30.376  1.00  0.00     0.031 C 
ATOM     51  C   UNL A   1      46.285  31.230  27.409  1.00  0.00     0.029 A 
ATOM     52  C   UNL A   1      45.048  30.948  27.966  1.00  0.00     0.049 A 
ATOM     53  H   UNL A   1      43.958  29.141  27.941  1.00  0.00     0.167 HD
ATOM     54  C   UNL A   1      42.971  31.469  29.217  1.00  0.00     0.074 A 
ATOM     55  C   UNL A   1      42.115  32.357  29.975  1.00  0.00     0.031 C 
ATOM     56  C   UNL A   1      44.182  31.820  28.717  1.00  0.00     0.037 A 
BRANCH  43  57
ATOM     57  C   UNL A   1      47.079  27.258  25.725  1.00  0.00     0.057 A 
ATOM     58  C   UNL A   1      47.242  27.522  24.359  1.00  0.00     0.134 A 
ATOM     59  C   UNL A   1      48.110  26.570  26.379  1.00  0.00     0.134 A 
ATOM     60  F   UNL A   1      46.284  28.162  23.672  1.00  0.00    -0.206 F 
ATOM     61  C   UNL A   1      48.376  27.098  23.665  1.00  0.00     0.040 A 
ATOM     62  C   UNL A   1      49.259  26.164  25.701  1.00  0.00     0.040 A 
ATOM     63  F   UNL A   1      48.017  26.289  27.687  1.00  0.00    -0.206 F 
ATOM     64  C   UNL A   1      49.393  26.423  24.338  1.00  0.00     0.006 A 
ENDBRANCH  43  57
BRANCH  44  65
ATOM     65  C   UNL A   1      38.848  29.810  30.756  1.00  0.00     0.057 A 
ATOM     66  C   UNL A   1      38.772  29.585  32.134  1.00  0.00     0.134 A 
ATOM     67  C   UNL A   1      37.737  30.392  30.133  1.00  0.00     0.134 A 
ATOM     68  F   UNL A   1      39.795  29.008  32.782  1.00  0.00    -0.206 F 
ATOM     69  C   UNL A   1      37.628  29.911  32.865  1.00  0.00     0.040 A 
ATOM     70  C   UNL A   1      36.596  30.745  30.856  1.00  0.00     0.040 A 
ATOM     71  F   UNL A   1      37.748  30.632  28.815  1.00  0.00    -0.206 F 
ATOM     72  C   UNL A   1      36.537  30.498  32.226  1.00  0.00     0.006 A 
ENDBRANCH  44  65
BRANCH  56  73
ATOM     73  C   UNL A   1      44.638  33.231  28.945  1.00  0.00     0.057 A 
ATOM     74  C   UNL A   1      45.348  33.603  30.093  1.00  0.00     0.134 A 
ATOM     75  C   UNL A   1      44.398  34.222  27.983  1.00  0.00     0.134 A 
ATOM     76  F   UNL A   1      45.599  32.704  31.057  1.00  0.00    -0.206 F 
ATOM     77  C   UNL A   1      45.788  34.914  30.285  1.00  0.00     0.040 A 
ATOM     78  C   UNL A   1      44.853  35.529  28.153  1.00  0.00     0.040 A 
ATOM     79  F   UNL A   1      43.730  33.929  26.856  1.00  0.00    -0.206 F 
ATOM     80  C   UNL A   1      45.546  35.879  29.309  1.00  0.00     0.006 A 
ENDBRANCH  56  73
ENDBRANCH  30  31
ENDBRANCH  23  25
ENDBRANCH  22  23
ENDBRANCH  21  22
ENDBRANCH  20  21
ENDBRANCH   1  20
TORSDOF 17
ENDMDL
