MODEL 1
REMARK VINA RESULT:     -11.0      0.000      0.000
REMARK SMILES COc1ccc2c(c1)c(Cc1nc(-c3ccc(C(=O)OCCOCCOC(=O)c4ccc(-c5c6nc(c(-c7c(F)cccc7F)c7ccc([nH]7)c(-c7c(F)cccc7F)c7nc(c(-c8c(F)cccc8F)c8ccc5[nH]8)C=C7)C=C6)cc4)cc3)cs1)c(C)n2C(=O)c1ccc(Cl)cc1
REMARK SMILES IDX 21 1 20 2 18 3 19 4 17 5 14 6 15 7 84 8 16 9 83 10 13 11
REMARK SMILES IDX 11 12 12 13 86 14 85 15 10 16 9 17 3 18 4 19 8 20 5 21 7 22
REMARK SMILES IDX 6 23 89 24 87 25 88 26 2 27 1 28 90 29 91 30 92 31 93 32
REMARK SMILES IDX 98 33 94 34 97 35 95 36 96 37 22 38 23 39 24 40 25 41 26 42
REMARK SMILES IDX 27 43 28 44 29 45 30 46 82 47 31 48 81 49 32 50 33 51 34 52
REMARK SMILES IDX 75 53 35 54 80 55 74 56 76 57 36 58 79 59 73 60 72 61 37 63
REMARK SMILES IDX 63 64 46 65 62 66 47 67 50 68 61 69 77 70 48 71 49 72 60 74
REMARK SMILES IDX 78 75 51 76 38 77 39 78 44 79 40 80 41 81 43 82 45 83 42 84
REMARK SMILES IDX 64 85 65 86 70 87 66 88 67 89 69 90 71 91 68 92 52 93 53 94
REMARK SMILES IDX 58 95 54 96 55 97 57 98 59 99 56 100
REMARK H PARENT 76 62 50 73
REMARK Flexibility Score: inf
ROOT
ATOM      1  C   UNL A   1      33.961  23.052  23.292  1.00  0.00     0.261 C 
ENDROOT
BRANCH   1   2
ATOM      2  O   UNL A   1      33.737  24.425  22.961  1.00  0.00    -0.460 OA
BRANCH   2   3
ATOM      3  C   UNL A   1      32.555  24.904  23.423  1.00  0.00     0.338 C 
ATOM      4  O   UNL A   1      31.452  24.402  23.278  1.00  0.00    -0.246 OA
BRANCH   3   5
ATOM      5  C   UNL A   1      32.794  26.034  24.343  1.00  0.00     0.060 A 
ATOM      6  C   UNL A   1      33.353  28.255  25.949  1.00  0.00     0.001 A 
ATOM      7  C   UNL A   1      33.883  28.169  24.656  1.00  0.00     0.011 A 
ATOM      8  C   UNL A   1      32.531  27.225  26.430  1.00  0.00     0.011 A 
ATOM      9  C   UNL A   1      33.612  27.061  23.861  1.00  0.00     0.016 A 
ATOM     10  C   UNL A   1      32.231  26.119  25.621  1.00  0.00     0.016 A 
BRANCH   6  11
ATOM     11  C   UNL A   1      33.759  29.352  26.810  1.00  0.00     0.081 A 
ATOM     12  C   UNL A   1      35.275  30.648  27.760  1.00  0.00     0.098 A 
ATOM     13  N   UNL A   1      35.059  29.450  27.255  1.00  0.00    -0.241 NA
ATOM     14  S   UNL A   1      33.868  31.622  27.945  1.00  0.00    -0.126 S 
ATOM     15  C   UNL A   1      32.942  30.407  27.160  1.00  0.00     0.095 A 
BRANCH  12  16
ATOM     16  C   UNL A   1      36.628  31.161  28.162  1.00  0.00     0.105 C 
BRANCH  16  17
ATOM     17  C   UNL A   1      37.278  30.334  29.253  1.00  0.00    -0.012 A 
ATOM     18  C   UNL A   1      39.664  27.634  27.957  1.00  0.00     0.119 A 
ATOM     19  C   UNL A   1      39.867  27.018  29.178  1.00  0.00     0.048 A 
ATOM     20  C   UNL A   1      38.817  28.740  27.887  1.00  0.00     0.057 A 
ATOM     21  C   UNL A   1      39.247  27.506  30.336  1.00  0.00     0.031 A 
ATOM     22  C   UNL A   1      38.204  29.273  29.046  1.00  0.00     0.008 A 
ATOM     23  C   UNL A   1      38.462  28.680  30.284  1.00  0.00     0.057 A 
ATOM     24  N   UNL A   1      37.821  29.445  31.279  1.00  0.00    -0.280 N 
ATOM     25  C   UNL A   1      37.052  30.425  30.623  1.00  0.00     0.028 A 
ATOM     26  C   UNL A   1      36.144  31.412  31.290  1.00  0.00     0.065 C 
BRANCH  18  27
ATOM     27  O   UNL A   1      40.238  27.271  26.772  1.00  0.00    -0.497 OA
ATOM     28  C   UNL A   1      41.051  28.249  26.138  1.00  0.00     0.278 C 
ENDBRANCH  18  27
BRANCH  24  29
ATOM     29  C   UNL A   1      37.928  29.239  32.690  1.00  0.00     0.262 C 
ATOM     30  O   UNL A   1      37.221  28.392  33.233  1.00  0.00    -0.268 OA
BRANCH  29  31
ATOM     31  C   UNL A   1      38.867  29.939  33.588  1.00  0.00     0.040 A 
ATOM     32  C   UNL A   1      40.252  29.801  33.440  1.00  0.00     0.015 A 
ATOM     33  C   UNL A   1      38.334  30.712  34.628  1.00  0.00     0.015 A 
ATOM     34  C   UNL A   1      41.101  30.357  34.402  1.00  0.00     0.021 A 
ATOM     35  C   UNL A   1      39.187  31.273  35.578  1.00  0.00     0.021 A 
ATOM     36  C   UNL A   1      40.564  31.073  35.475  1.00  0.00     0.041 A 
ATOM     37  Cl  UNL A   1      41.607  31.688  36.696  1.00  0.00    -0.084 Cl
ENDBRANCH  29  31
ENDBRANCH  24  29
ENDBRANCH  16  17
ENDBRANCH  12  16
ENDBRANCH   6  11
ENDBRANCH   3   5
ENDBRANCH   2   3
ENDBRANCH   1   2
BRANCH   1  38
ATOM     38  C   UNL A   1      33.990  22.785  24.803  1.00  0.00     0.202 C 
BRANCH  38  39
ATOM     39  O   UNL A   1      34.801  23.595  25.649  1.00  0.00    -0.374 OA
BRANCH  39  40
ATOM     40  C   UNL A   1      36.196  23.706  25.356  1.00  0.00     0.202 C 
BRANCH  40  41
ATOM     41  C   UNL A   1      37.101  22.462  25.455  1.00  0.00     0.261 C 
BRANCH  41  42
ATOM     42  O   UNL A   1      38.383  22.781  26.013  1.00  0.00    -0.460 OA
BRANCH  42  43
ATOM     43  C   UNL A   1      39.217  21.723  26.196  1.00  0.00     0.338 C 
ATOM     44  O   UNL A   1      39.196  20.651  25.616  1.00  0.00    -0.246 OA
BRANCH  43  45
ATOM     45  C   UNL A   1      40.387  22.258  26.925  1.00  0.00     0.060 A 
ATOM     46  C   UNL A   1      40.309  23.487  27.583  1.00  0.00     0.016 A 
ATOM     47  C   UNL A   1      41.632  21.673  26.631  1.00  0.00     0.016 A 
ATOM     48  C   UNL A   1      41.486  24.171  27.856  1.00  0.00     0.010 A 
ATOM     49  C   UNL A   1      42.808  22.376  26.884  1.00  0.00     0.010 A 
ATOM     50  C   UNL A   1      42.734  23.644  27.459  1.00  0.00    -0.014 A 
BRANCH  50  51
ATOM     51  C   UNL A   1      43.933  24.367  27.895  1.00  0.00     0.031 A 
ATOM     52  C   UNL A   1      44.049  24.375  29.379  1.00  0.00     0.074 A 
ATOM     53  C   UNL A   1      44.920  24.905  27.146  1.00  0.00     0.049 A 
ATOM     54  N   UNL A   1      43.923  25.385  30.173  1.00  0.00    -0.248 NA
ATOM     55  C   UNL A   1      44.144  23.075  30.059  1.00  0.00     0.031 C 
ATOM     56  C   UNL A   1      45.165  24.789  25.709  1.00  0.00     0.029 A 
ATOM     57  N   UNL A   1      45.983  25.656  27.572  1.00  0.00    -0.354 N 
ATOM     58  C   UNL A   1      44.093  24.880  31.457  1.00  0.00     0.074 A 
ATOM     59  C   UNL A   1      44.074  23.445  31.338  1.00  0.00     0.031 C 
ATOM     60  C   UNL A   1      46.402  25.270  25.422  1.00  0.00     0.029 A 
ATOM     61  C   UNL A   1      46.983  25.854  26.622  1.00  0.00     0.049 A 
ATOM     62  H   UNL A   1      46.038  26.029  28.482  1.00  0.00     0.167 HD
ATOM     63  C   UNL A   1      44.449  25.686  32.491  1.00  0.00     0.037 A 
ATOM     64  C   UNL A   1      48.199  26.430  26.821  1.00  0.00     0.037 A 
ATOM     65  C   UNL A   1      44.168  27.070  32.204  1.00  0.00     0.049 A 
ATOM     66  C   UNL A   1      48.114  27.253  28.050  1.00  0.00     0.074 A 
ATOM     67  C   UNL A   1      43.027  27.793  31.910  1.00  0.00     0.029 A 
ATOM     68  N   UNL A   1      45.215  27.879  31.842  1.00  0.00    -0.354 N 
ATOM     69  N   UNL A   1      47.438  28.361  28.137  1.00  0.00    -0.248 NA
ATOM     70  C   UNL A   1      48.448  26.619  29.315  1.00  0.00     0.031 C 
ATOM     71  C   UNL A   1      43.440  28.757  30.940  1.00  0.00     0.029 A 
ATOM     72  C   UNL A   1      44.810  28.596  30.746  1.00  0.00     0.049 A 
ATOM     73  H   UNL A   1      46.091  27.936  32.287  1.00  0.00     0.167 HD
ATOM     74  C   UNL A   1      46.873  28.322  29.401  1.00  0.00     0.074 A 
ATOM     75  C   UNL A   1      47.602  27.274  30.113  1.00  0.00     0.031 C 
ATOM     76  C   UNL A   1      45.688  28.947  29.658  1.00  0.00     0.037 A 
BRANCH  63  77
ATOM     77  C   UNL A   1      45.403  25.263  33.582  1.00  0.00     0.057 A 
ATOM     78  C   UNL A   1      44.998  24.804  34.853  1.00  0.00     0.134 A 
ATOM     79  C   UNL A   1      46.746  25.004  33.254  1.00  0.00     0.134 A 
ATOM     80  F   UNL A   1      43.739  24.909  35.293  1.00  0.00    -0.206 F 
ATOM     81  C   UNL A   1      45.849  24.105  35.713  1.00  0.00     0.040 A 
ATOM     82  C   UNL A   1      47.591  24.261  34.087  1.00  0.00     0.040 A 
ATOM     83  F   UNL A   1      47.252  25.385  32.072  1.00  0.00    -0.206 F 
ATOM     84  C   UNL A   1      47.139  23.798  35.316  1.00  0.00     0.006 A 
ENDBRANCH  63  77
BRANCH  64  85
ATOM     85  C   UNL A   1      49.514  26.148  26.196  1.00  0.00     0.057 A 
ATOM     86  C   UNL A   1      50.437  25.292  26.816  1.00  0.00     0.134 A 
ATOM     87  C   UNL A   1      50.023  26.946  25.156  1.00  0.00     0.134 A 
ATOM     88  F   UNL A   1      50.077  24.542  27.869  1.00  0.00    -0.206 F 
ATOM     89  C   UNL A   1      51.786  25.248  26.447  1.00  0.00     0.040 A 
ATOM     90  C   UNL A   1      51.374  26.913  24.777  1.00  0.00     0.040 A 
ATOM     91  F   UNL A   1      49.237  27.834  24.529  1.00  0.00    -0.206 F 
ATOM     92  C   UNL A   1      52.264  26.070  25.434  1.00  0.00     0.006 A 
ENDBRANCH  64  85
BRANCH  76  93
ATOM     93  C   UNL A   1      45.156  29.886  28.611  1.00  0.00     0.057 A 
ATOM     94  C   UNL A   1      45.337  31.262  28.788  1.00  0.00     0.134 A 
ATOM     95  C   UNL A   1      44.389  29.486  27.505  1.00  0.00     0.134 A 
ATOM     96  F   UNL A   1      46.013  31.724  29.853  1.00  0.00    -0.206 F 
ATOM     97  C   UNL A   1      44.803  32.197  27.899  1.00  0.00     0.040 A 
ATOM     98  C   UNL A   1      43.878  30.411  26.588  1.00  0.00     0.040 A 
ATOM     99  F   UNL A   1      44.074  28.199  27.306  1.00  0.00    -0.206 F 
ATOM    100  C   UNL A   1      44.082  31.773  26.787  1.00  0.00     0.006 A 
ENDBRANCH  76  93
ENDBRANCH  50  51
ENDBRANCH  43  45
ENDBRANCH  42  43
ENDBRANCH  41  42
ENDBRANCH  40  41
ENDBRANCH  39  40
ENDBRANCH  38  39
ENDBRANCH   1  38
TORSDOF 20
ENDMDL
MODEL 2
REMARK VINA RESULT:     -10.9      3.895     10.235
REMARK SMILES COc1ccc2c(c1)c(Cc1nc(-c3ccc(C(=O)OCCOCCOC(=O)c4ccc(-c5c6nc(c(-c7c(F)cccc7F)c7ccc([nH]7)c(-c7c(F)cccc7F)c7nc(c(-c8c(F)cccc8F)c8ccc5[nH]8)C=C7)C=C6)cc4)cc3)cs1)c(C)n2C(=O)c1ccc(Cl)cc1
REMARK SMILES IDX 21 1 20 2 18 3 19 4 17 5 14 6 15 7 84 8 16 9 83 10 13 11
REMARK SMILES IDX 11 12 12 13 86 14 85 15 10 16 9 17 3 18 4 19 8 20 5 21 7 22
REMARK SMILES IDX 6 23 89 24 87 25 88 26 2 27 1 28 90 29 91 30 92 31 93 32
REMARK SMILES IDX 98 33 94 34 97 35 95 36 96 37 22 38 23 39 24 40 25 41 26 42
REMARK SMILES IDX 27 43 28 44 29 45 30 46 82 47 31 48 81 49 32 50 33 51 34 52
REMARK SMILES IDX 75 53 35 54 80 55 74 56 76 57 36 58 79 59 73 60 72 61 37 63
REMARK SMILES IDX 63 64 46 65 62 66 47 67 50 68 61 69 77 70 48 71 49 72 60 74
REMARK SMILES IDX 78 75 51 76 38 77 39 78 44 79 40 80 41 81 43 82 45 83 42 84
REMARK SMILES IDX 64 85 65 86 70 87 66 88 67 89 69 90 71 91 68 92 52 93 53 94
REMARK SMILES IDX 58 95 54 96 55 97 57 98 59 99 56 100
REMARK H PARENT 76 62 50 73
REMARK Flexibility Score: inf
ROOT
ATOM      1  C   UNL A   1      31.146  26.724  24.512  1.00  0.00     0.261 C 
ENDROOT
BRANCH   1   2
ATOM      2  O   UNL A   1      31.698  25.443  24.831  1.00  0.00    -0.460 OA
BRANCH   2   3
ATOM      3  C   UNL A   1      32.285  24.832  23.771  1.00  0.00     0.338 C 
ATOM      4  O   UNL A   1      31.913  24.857  22.610  1.00  0.00    -0.246 OA
BRANCH   3   5
ATOM      5  C   UNL A   1      33.599  24.289  24.168  1.00  0.00     0.060 A 
ATOM      6  C   UNL A   1      36.091  23.387  25.064  1.00  0.00     0.001 A 
ATOM      7  C   UNL A   1      35.438  24.432  25.730  1.00  0.00     0.011 A 
ATOM      8  C   UNL A   1      35.481  22.788  23.952  1.00  0.00     0.011 A 
ATOM      9  C   UNL A   1      34.204  24.886  25.280  1.00  0.00     0.016 A 
ATOM     10  C   UNL A   1      34.223  23.223  23.511  1.00  0.00     0.016 A 
BRANCH   6  11
ATOM     11  C   UNL A   1      37.437  23.021  25.467  1.00  0.00     0.081 A 
ATOM     12  C   UNL A   1      39.257  23.268  26.695  1.00  0.00     0.098 A 
ATOM     13  N   UNL A   1      38.215  23.898  26.190  1.00  0.00    -0.241 NA
ATOM     14  S   UNL A   1      39.478  21.659  26.125  1.00  0.00    -0.126 S 
ATOM     15  C   UNL A   1      37.998  21.777  25.263  1.00  0.00     0.095 A 
BRANCH  12  16
ATOM     16  C   UNL A   1      40.207  23.873  27.689  1.00  0.00     0.105 C 
BRANCH  16  17
ATOM     17  C   UNL A   1      40.740  25.223  27.257  1.00  0.00    -0.012 A 
ATOM     18  C   UNL A   1      38.780  28.201  28.655  1.00  0.00     0.119 A 
ATOM     19  C   UNL A   1      39.422  29.167  27.903  1.00  0.00     0.048 A 
ATOM     20  C   UNL A   1      39.149  26.865  28.502  1.00  0.00     0.057 A 
ATOM     21  C   UNL A   1      40.446  28.815  27.013  1.00  0.00     0.031 A 
ATOM     22  C   UNL A   1      40.202  26.486  27.634  1.00  0.00     0.008 A 
ATOM     23  C   UNL A   1      40.885  27.475  26.925  1.00  0.00     0.057 A 
ATOM     24  N   UNL A   1      41.937  26.860  26.217  1.00  0.00    -0.280 N 
ATOM     25  C   UNL A   1      41.799  25.469  26.387  1.00  0.00     0.028 A 
ATOM     26  C   UNL A   1      42.657  24.422  25.746  1.00  0.00     0.065 C 
BRANCH  18  27
ATOM     27  O   UNL A   1      37.795  28.426  29.574  1.00  0.00    -0.497 OA
ATOM     28  C   UNL A   1      38.201  28.469  30.936  1.00  0.00     0.278 C 
ENDBRANCH  18  27
BRANCH  24  29
ATOM     29  C   UNL A   1      42.940  27.537  25.455  1.00  0.00     0.262 C 
ATOM     30  O   UNL A   1      42.647  28.021  24.364  1.00  0.00    -0.268 OA
BRANCH  29  31
ATOM     31  C   UNL A   1      44.336  27.756  25.882  1.00  0.00     0.040 A 
ATOM     32  C   UNL A   1      45.354  26.868  25.516  1.00  0.00     0.015 A 
ATOM     33  C   UNL A   1      44.610  28.856  26.705  1.00  0.00     0.015 A 
ATOM     34  C   UNL A   1      46.630  27.029  26.064  1.00  0.00     0.021 A 
ATOM     35  C   UNL A   1      45.887  29.016  27.241  1.00  0.00     0.021 A 
ATOM     36  C   UNL A   1      46.885  28.088  26.938  1.00  0.00     0.041 A 
ATOM     37  Cl  UNL A   1      48.434  28.235  27.671  1.00  0.00    -0.084 Cl
ENDBRANCH  29  31
ENDBRANCH  24  29
ENDBRANCH  16  17
ENDBRANCH  12  16
ENDBRANCH   6  11
ENDBRANCH   3   5
ENDBRANCH   2   3
ENDBRANCH   1   2
BRANCH   1  38
ATOM     38  C   UNL A   1      32.205  27.827  24.374  1.00  0.00     0.202 C 
BRANCH  38  39
ATOM     39  O   UNL A   1      33.011  28.178  25.493  1.00  0.00    -0.374 OA
BRANCH  39  40
ATOM     40  C   UNL A   1      33.193  29.564  25.797  1.00  0.00     0.202 C 
BRANCH  40  41
ATOM     41  C   UNL A   1      33.009  30.061  27.244  1.00  0.00     0.261 C 
BRANCH  41  42
ATOM     42  O   UNL A   1      34.182  30.729  27.729  1.00  0.00    -0.460 OA
BRANCH  42  43
ATOM     43  C   UNL A   1      34.088  32.084  27.809  1.00  0.00     0.338 C 
ATOM     44  O   UNL A   1      33.081  32.765  27.727  1.00  0.00    -0.246 OA
BRANCH  43  45
ATOM     45  C   UNL A   1      35.359  32.536  28.414  1.00  0.00     0.060 A 
ATOM     46  C   UNL A   1      36.485  31.711  28.397  1.00  0.00     0.016 A 
ATOM     47  C   UNL A   1      35.283  33.635  29.289  1.00  0.00     0.016 A 
ATOM     48  C   UNL A   1      37.489  31.935  29.329  1.00  0.00     0.010 A 
ATOM     49  C   UNL A   1      36.280  33.839  30.239  1.00  0.00     0.010 A 
ATOM     50  C   UNL A   1      37.365  32.964  30.287  1.00  0.00    -0.014 A 
BRANCH  50  51
ATOM     51  C   UNL A   1      38.522  33.213  31.153  1.00  0.00     0.031 A 
ATOM     52  C   UNL A   1      39.674  33.745  30.375  1.00  0.00     0.074 A 
ATOM     53  C   UNL A   1      38.616  33.110  32.497  1.00  0.00     0.049 A 
ATOM     54  N   UNL A   1      40.792  33.152  30.120  1.00  0.00    -0.248 NA
ATOM     55  C   UNL A   1      39.481  35.013  29.657  1.00  0.00     0.031 C 
ATOM     56  C   UNL A   1      37.566  32.877  33.487  1.00  0.00     0.029 A 
ATOM     57  N   UNL A   1      39.733  33.258  33.275  1.00  0.00    -0.354 N 
ATOM     58  C   UNL A   1      41.525  34.044  29.345  1.00  0.00     0.074 A 
ATOM     59  C   UNL A   1      40.619  35.097  28.967  1.00  0.00     0.031 C 
ATOM     60  C   UNL A   1      38.060  33.103  34.731  1.00  0.00     0.029 A 
ATOM     61  C   UNL A   1      39.490  33.359  34.642  1.00  0.00     0.049 A 
ATOM     62  H   UNL A   1      40.642  33.292  32.895  1.00  0.00     0.167 HD
ATOM     63  C   UNL A   1      42.877  33.952  29.251  1.00  0.00     0.037 A 
ATOM     64  C   UNL A   1      40.394  33.654  35.615  1.00  0.00     0.037 A 
ATOM     65  C   UNL A   1      43.345  32.641  29.624  1.00  0.00     0.049 A 
ATOM     66  C   UNL A   1      41.745  33.367  35.081  1.00  0.00     0.074 A 
ATOM     67  C   UNL A   1      43.131  31.358  29.155  1.00  0.00     0.029 A 
ATOM     68  N   UNL A   1      43.902  32.485  30.868  1.00  0.00    -0.354 N 
ATOM     69  N   UNL A   1      42.197  32.169  34.854  1.00  0.00    -0.248 NA
ATOM     70  C   UNL A   1      42.449  34.442  34.401  1.00  0.00     0.031 C 
ATOM     71  C   UNL A   1      43.098  30.538  30.323  1.00  0.00     0.029 A 
ATOM     72  C   UNL A   1      43.347  31.360  31.420  1.00  0.00     0.049 A 
ATOM     73  H   UNL A   1      44.575  33.070  31.284  1.00  0.00     0.167 HD
ATOM     74  C   UNL A   1      42.918  32.287  33.678  1.00  0.00     0.074 A 
ATOM     75  C   UNL A   1      43.114  33.724  33.495  1.00  0.00     0.031 C 
ATOM     76  C   UNL A   1      43.044  31.231  32.823  1.00  0.00     0.037 A 
BRANCH  63  77
ATOM     77  C   UNL A   1      43.788  35.154  29.203  1.00  0.00     0.057 A 
ATOM     78  C   UNL A   1      44.542  35.532  28.071  1.00  0.00     0.134 A 
ATOM     79  C   UNL A   1      43.673  36.140  30.199  1.00  0.00     0.134 A 
ATOM     80  F   UNL A   1      44.694  34.738  27.005  1.00  0.00    -0.206 F 
ATOM     81  C   UNL A   1      45.101  36.804  27.923  1.00  0.00     0.040 A 
ATOM     82  C   UNL A   1      44.185  37.432  30.037  1.00  0.00     0.040 A 
ATOM     83  F   UNL A   1      42.978  35.907  31.322  1.00  0.00    -0.206 F 
ATOM     84  C   UNL A   1      44.891  37.772  28.890  1.00  0.00     0.006 A 
ENDBRANCH  63  77
BRANCH  64  85
ATOM     85  C   UNL A   1      40.233  34.403  36.886  1.00  0.00     0.057 A 
ATOM     86  C   UNL A   1      39.874  33.740  38.070  1.00  0.00     0.134 A 
ATOM     87  C   UNL A   1      40.110  35.803  36.907  1.00  0.00     0.134 A 
ATOM     88  F   UNL A   1      39.880  32.401  38.136  1.00  0.00    -0.206 F 
ATOM     89  C   UNL A   1      39.399  34.421  39.197  1.00  0.00     0.040 A 
ATOM     90  C   UNL A   1      39.633  36.498  38.029  1.00  0.00     0.040 A 
ATOM     91  F   UNL A   1      40.380  36.530  35.811  1.00  0.00    -0.206 F 
ATOM     92  C   UNL A   1      39.263  35.804  39.176  1.00  0.00     0.006 A 
ENDBRANCH  64  85
BRANCH  76  93
ATOM     93  C   UNL A   1      42.605  29.880  33.319  1.00  0.00     0.057 A 
ATOM     94  C   UNL A   1      41.269  29.503  33.148  1.00  0.00     0.134 A 
ATOM     95  C   UNL A   1      43.424  28.999  34.043  1.00  0.00     0.134 A 
ATOM     96  F   UNL A   1      40.412  30.319  32.514  1.00  0.00    -0.206 F 
ATOM     97  C   UNL A   1      40.772  28.299  33.652  1.00  0.00     0.040 A 
ATOM     98  C   UNL A   1      42.947  27.775  34.523  1.00  0.00     0.040 A 
ATOM     99  F   UNL A   1      44.690  29.317  34.347  1.00  0.00    -0.206 F 
ATOM    100  C   UNL A   1      41.615  27.423  34.330  1.00  0.00     0.006 A 
ENDBRANCH  76  93
ENDBRANCH  50  51
ENDBRANCH  43  45
ENDBRANCH  42  43
ENDBRANCH  41  42
ENDBRANCH  40  41
ENDBRANCH  39  40
ENDBRANCH  38  39
ENDBRANCH   1  38
TORSDOF 20
ENDMDL
MODEL 3
REMARK VINA RESULT:     -10.5      2.156      3.400
REMARK SMILES COc1ccc2c(c1)c(Cc1nc(-c3ccc(C(=O)OCCOCCOC(=O)c4ccc(-c5c6nc(c(-c7c(F)cccc7F)c7ccc([nH]7)c(-c7c(F)cccc7F)c7nc(c(-c8c(F)cccc8F)c8ccc5[nH]8)C=C7)C=C6)cc4)cc3)cs1)c(C)n2C(=O)c1ccc(Cl)cc1
REMARK SMILES IDX 21 1 20 2 18 3 19 4 17 5 14 6 15 7 84 8 16 9 83 10 13 11
REMARK SMILES IDX 11 12 12 13 86 14 85 15 10 16 9 17 3 18 4 19 8 20 5 21 7 22
REMARK SMILES IDX 6 23 89 24 87 25 88 26 2 27 1 28 90 29 91 30 92 31 93 32
REMARK SMILES IDX 98 33 94 34 97 35 95 36 96 37 22 38 23 39 24 40 25 41 26 42
REMARK SMILES IDX 27 43 28 44 29 45 30 46 82 47 31 48 81 49 32 50 33 51 34 52
REMARK SMILES IDX 75 53 35 54 80 55 74 56 76 57 36 58 79 59 73 60 72 61 37 63
REMARK SMILES IDX 63 64 46 65 62 66 47 67 50 68 61 69 77 70 48 71 49 72 60 74
REMARK SMILES IDX 78 75 51 76 38 77 39 78 44 79 40 80 41 81 43 82 45 83 42 84
REMARK SMILES IDX 64 85 65 86 70 87 66 88 67 89 69 90 71 91 68 92 52 93 53 94
REMARK SMILES IDX 58 95 54 96 55 97 57 98 59 99 56 100
REMARK H PARENT 76 62 50 73
REMARK Flexibility Score: inf
ROOT
ATOM      1  C   UNL A   1      33.338  25.362  24.859  1.00  0.00     0.261 C 
ENDROOT
BRANCH   1   2
ATOM      2  O   UNL A   1      33.540  26.777  24.899  1.00  0.00    -0.460 OA
BRANCH   2   3
ATOM      3  C   UNL A   1      32.489  27.457  25.422  1.00  0.00     0.338 C 
ATOM      4  O   UNL A   1      31.330  27.082  25.484  1.00  0.00    -0.246 OA
BRANCH   3   5
ATOM      5  C   UNL A   1      32.970  28.660  26.130  1.00  0.00     0.060 A 
ATOM      6  C   UNL A   1      34.037  30.841  27.520  1.00  0.00     0.001 A 
ATOM      7  C   UNL A   1      34.740  29.631  27.459  1.00  0.00     0.011 A 
ATOM      8  C   UNL A   1      32.799  30.955  26.869  1.00  0.00     0.011 A 
ATOM      9  C   UNL A   1      34.206  28.545  26.776  1.00  0.00     0.016 A 
ATOM     10  C   UNL A   1      32.270  29.871  26.155  1.00  0.00     0.016 A 
BRANCH   6  11
ATOM     11  C   UNL A   1      34.548  31.916  28.351  1.00  0.00     0.081 A 
ATOM     12  C   UNL A   1      35.772  32.705  30.012  1.00  0.00     0.098 A 
ATOM     13  N   UNL A   1      35.124  31.645  29.573  1.00  0.00    -0.241 NA
ATOM     14  S   UNL A   1      35.515  34.142  29.100  1.00  0.00    -0.126 S 
ATOM     15  C   UNL A   1      34.595  33.240  27.966  1.00  0.00     0.095 A 
BRANCH  12  16
ATOM     16  C   UNL A   1      36.671  32.703  31.215  1.00  0.00     0.105 C 
BRANCH  16  17
ATOM     17  C   UNL A   1      37.893  31.825  31.044  1.00  0.00    -0.012 A 
ATOM     18  C   UNL A   1      41.111  33.754  30.279  1.00  0.00     0.119 A 
ATOM     19  C   UNL A   1      41.889  32.643  30.010  1.00  0.00     0.048 A 
ATOM     20  C   UNL A   1      39.772  33.577  30.626  1.00  0.00     0.057 A 
ATOM     21  C   UNL A   1      41.349  31.354  30.103  1.00  0.00     0.031 A 
ATOM     22  C   UNL A   1      39.210  32.284  30.759  1.00  0.00     0.008 A 
ATOM     23  C   UNL A   1      40.019  31.168  30.544  1.00  0.00     0.057 A 
ATOM     24  N   UNL A   1      39.260  30.014  30.830  1.00  0.00    -0.280 N 
ATOM     25  C   UNL A   1      37.940  30.434  31.082  1.00  0.00     0.028 A 
ATOM     26  C   UNL A   1      36.775  29.533  31.354  1.00  0.00     0.065 C 
BRANCH  18  27
ATOM     27  O   UNL A   1      41.535  35.052  30.254  1.00  0.00    -0.497 OA
ATOM     28  C   UNL A   1      42.758  35.304  29.577  1.00  0.00     0.278 C 
ENDBRANCH  18  27
BRANCH  24  29
ATOM     29  C   UNL A   1      39.752  28.672  30.839  1.00  0.00     0.262 C 
ATOM     30  O   UNL A   1      39.886  28.084  31.911  1.00  0.00    -0.268 OA
BRANCH  29  31
ATOM     31  C   UNL A   1      40.091  27.876  29.643  1.00  0.00     0.040 A 
ATOM     32  C   UNL A   1      41.298  28.069  28.961  1.00  0.00     0.015 A 
ATOM     33  C   UNL A   1      39.149  26.951  29.177  1.00  0.00     0.015 A 
ATOM     34  C   UNL A   1      41.513  27.405  27.750  1.00  0.00     0.021 A 
ATOM     35  C   UNL A   1      39.374  26.283  27.973  1.00  0.00     0.021 A 
ATOM     36  C   UNL A   1      40.543  26.531  27.253  1.00  0.00     0.041 A 
ATOM     37  Cl  UNL A   1      40.777  25.777  25.726  1.00  0.00    -0.084 Cl
ENDBRANCH  29  31
ENDBRANCH  24  29
ENDBRANCH  16  17
ENDBRANCH  12  16
ENDBRANCH   6  11
ENDBRANCH   3   5
ENDBRANCH   2   3
ENDBRANCH   1   2
BRANCH   1  38
ATOM     38  C   UNL A   1      34.351  24.576  25.703  1.00  0.00     0.202 C 
BRANCH  38  39
ATOM     39  O   UNL A   1      35.539  24.077  25.097  1.00  0.00    -0.374 OA
BRANCH  39  40
ATOM     40  C   UNL A   1      36.708  23.927  25.908  1.00  0.00     0.202 C 
BRANCH  40  41
ATOM     41  C   UNL A   1      37.669  22.749  25.655  1.00  0.00     0.261 C 
BRANCH  41  42
ATOM     42  O   UNL A   1      38.915  22.923  26.343  1.00  0.00    -0.460 OA
BRANCH  42  43
ATOM     43  C   UNL A   1      39.717  21.825  26.380  1.00  0.00     0.338 C 
ATOM     44  O   UNL A   1      39.598  20.795  25.740  1.00  0.00    -0.246 OA
BRANCH  43  45
ATOM     45  C   UNL A   1      40.971  22.268  27.027  1.00  0.00     0.060 A 
ATOM     46  C   UNL A   1      40.934  22.985  28.224  1.00  0.00     0.016 A 
ATOM     47  C   UNL A   1      42.130  22.253  26.229  1.00  0.00     0.016 A 
ATOM     48  C   UNL A   1      42.032  23.764  28.566  1.00  0.00     0.010 A 
ATOM     49  C   UNL A   1      43.216  23.057  26.564  1.00  0.00     0.010 A 
ATOM     50  C   UNL A   1      43.152  23.846  27.711  1.00  0.00    -0.014 A 
BRANCH  50  51
ATOM     51  C   UNL A   1      44.315  24.591  28.205  1.00  0.00     0.031 A 
ATOM     52  C   UNL A   1      44.380  24.567  29.692  1.00  0.00     0.074 A 
ATOM     53  C   UNL A   1      45.313  25.171  27.503  1.00  0.00     0.049 A 
ATOM     54  N   UNL A   1      44.199  25.555  30.503  1.00  0.00    -0.248 NA
ATOM     55  C   UNL A   1      44.487  23.255  30.346  1.00  0.00     0.031 C 
ATOM     56  C   UNL A   1      45.611  25.095  26.074  1.00  0.00     0.029 A 
ATOM     57  N   UNL A   1      46.340  25.940  27.982  1.00  0.00    -0.354 N 
ATOM     58  C   UNL A   1      44.339  25.025  31.781  1.00  0.00     0.074 A 
ATOM     59  C   UNL A   1      44.362  23.593  31.630  1.00  0.00     0.031 C 
ATOM     60  C   UNL A   1      46.843  25.614  25.841  1.00  0.00     0.029 A 
ATOM     61  C   UNL A   1      47.366  26.186  27.073  1.00  0.00     0.049 A 
ATOM     62  H   UNL A   1      46.353  26.293  28.902  1.00  0.00     0.167 HD
ATOM     63  C   UNL A   1      44.637  25.816  32.845  1.00  0.00     0.037 A 
ATOM     64  C   UNL A   1      48.558  26.789  27.328  1.00  0.00     0.037 A 
ATOM     65  C   UNL A   1      44.328  27.198  32.578  1.00  0.00     0.049 A 
ATOM     66  C   UNL A   1      48.409  27.581  28.570  1.00  0.00     0.074 A 
ATOM     67  C   UNL A   1      43.179  27.898  32.261  1.00  0.00     0.029 A 
ATOM     68  N   UNL A   1      45.365  28.043  32.271  1.00  0.00    -0.354 N 
ATOM     69  N   UNL A   1      47.701  28.668  28.659  1.00  0.00    -0.248 NA
ATOM     70  C   UNL A   1      48.716  26.927  29.832  1.00  0.00     0.031 C 
ATOM     71  C   UNL A   1      43.598  28.894  31.328  1.00  0.00     0.029 A 
ATOM     72  C   UNL A   1      44.979  28.774  31.178  1.00  0.00     0.049 A 
ATOM     73  H   UNL A   1      46.223  28.112  32.748  1.00  0.00     0.167 HD
ATOM     74  C   UNL A   1      47.094  28.585  29.901  1.00  0.00     0.074 A 
ATOM     75  C   UNL A   1      47.826  27.541  30.614  1.00  0.00     0.031 C 
ATOM     76  C   UNL A   1      45.884  29.173  30.130  1.00  0.00     0.037 A 
BRANCH  63  77
ATOM     77  C   UNL A   1      45.563  25.393  33.958  1.00  0.00     0.057 A 
ATOM     78  C   UNL A   1      46.947  25.168  33.795  1.00  0.00     0.134 A 
ATOM     79  C   UNL A   1      45.133  25.519  35.292  1.00  0.00     0.134 A 
ATOM     80  F   UNL A   1      47.530  25.090  32.594  1.00  0.00    -0.206 F 
ATOM     81  C   UNL A   1      47.838  25.114  34.870  1.00  0.00     0.040 A 
ATOM     82  C   UNL A   1      46.024  25.518  36.370  1.00  0.00     0.040 A 
ATOM     83  F   UNL A   1      43.842  25.741  35.580  1.00  0.00    -0.206 F 
ATOM     84  C   UNL A   1      47.385  25.328  36.160  1.00  0.00     0.006 A 
ENDBRANCH  63  77
BRANCH  64  85
ATOM     85  C   UNL A   1      49.902  26.555  26.743  1.00  0.00     0.057 A 
ATOM     86  C   UNL A   1      50.319  27.252  25.598  1.00  0.00     0.134 A 
ATOM     87  C   UNL A   1      50.672  25.432  27.090  1.00  0.00     0.134 A 
ATOM     88  F   UNL A   1      49.613  28.293  25.133  1.00  0.00    -0.206 F 
ATOM     89  C   UNL A   1      51.416  26.845  24.830  1.00  0.00     0.040 A 
ATOM     90  C   UNL A   1      51.773  25.012  26.329  1.00  0.00     0.040 A 
ATOM     91  F   UNL A   1      50.331  24.667  28.139  1.00  0.00    -0.206 F 
ATOM     92  C   UNL A   1      52.140  25.713  25.185  1.00  0.00     0.006 A 
ENDBRANCH  64  85
BRANCH  76  93
ATOM     93  C   UNL A   1      45.363  30.122  29.085  1.00  0.00     0.057 A 
ATOM     94  C   UNL A   1      45.487  31.497  29.306  1.00  0.00     0.134 A 
ATOM     95  C   UNL A   1      44.658  29.726  27.937  1.00  0.00     0.134 A 
ATOM     96  F   UNL A   1      46.100  31.953  30.411  1.00  0.00    -0.206 F 
ATOM     97  C   UNL A   1      44.958  32.438  28.419  1.00  0.00     0.040 A 
ATOM     98  C   UNL A   1      44.154  30.658  27.024  1.00  0.00     0.040 A 
ATOM     99  F   UNL A   1      44.399  28.435  27.691  1.00  0.00    -0.206 F 
ATOM    100  C   UNL A   1      44.300  32.020  27.266  1.00  0.00     0.006 A 
ENDBRANCH  76  93
ENDBRANCH  50  51
ENDBRANCH  43  45
ENDBRANCH  42  43
ENDBRANCH  41  42
ENDBRANCH  40  41
ENDBRANCH  39  40
ENDBRANCH  38  39
ENDBRANCH   1  38
TORSDOF 20
ENDMDL
