MODEL 1
REMARK VINA RESULT:     -11.6      0.000      0.000
REMARK SMILES CC1(C)S[C@H](c2ccc(-c3cccc([N+](=O)[O-])c3)o2)[NH2+][C@@H]1C(=O)OCCOCCOC(=O)c1ccc(-c2c3nc(c(-c4c(F)cccc4F)c4ccc([nH]4)c(-c4c(F)cccc4F)c4nc(c(-c5c(F)cccc5F)c5ccc2[nH]5)C=C4)C=C3)cc1
REMARK SMILES IDX 26 1 25 2 24 3 22 4 23 5 21 6 1 7 2 8 3 9 4 10 5 11 20 12
REMARK SMILES IDX 6 15 7 16 19 17 8 18 9 19 10 20 11 21 18 22 12 23 14 24
REMARK SMILES IDX 13 25 15 26 16 27 17 28 27 29 28 30 29 31 30 32 31 33 32 34
REMARK SMILES IDX 33 35 34 36 86 37 35 38 85 39 36 40 37 41 38 42 79 43 39 44
REMARK SMILES IDX 84 45 78 46 80 47 40 48 83 49 77 50 76 51 41 53 67 54 50 55
REMARK SMILES IDX 66 56 51 57 54 58 65 59 81 60 52 61 53 62 64 64 82 65 55 66
REMARK SMILES IDX 42 67 43 68 48 69 44 70 45 71 47 72 49 73 46 74 68 75 69 76
REMARK SMILES IDX 74 77 70 78 71 79 73 80 75 81 72 82 56 83 57 84 62 85 58 86
REMARK SMILES IDX 59 87 61 88 63 89 60 90
REMARK H PARENT 20 13 20 14 80 52 54 63
REMARK Flexibility Score: inf
ROOT
ATOM      1  C   UNL A   1      36.757  22.769  23.422  1.00  0.00     0.202 C 
ENDROOT
BRANCH   1   2
ATOM      2  C   UNL A   1      35.233  22.865  23.522  1.00  0.00     0.261 C 
BRANCH   2   3
ATOM      3  O   UNL A   1      34.684  24.151  23.253  1.00  0.00    -0.459 OA
BRANCH   3   4
ATOM      4  C   UNL A   1      34.321  24.861  24.367  1.00  0.00     0.366 C 
ATOM      5  O   UNL A   1      34.997  24.954  25.381  1.00  0.00    -0.245 OA
BRANCH   4   6
ATOM      6  C   UNL A   1      32.951  25.524  24.128  1.00  0.00     0.310 C 
ATOM      7  C   UNL A   1      31.326  27.373  24.782  1.00  0.00     0.030 C 
ATOM      8  C   UNL A   1      32.401  26.386  25.287  1.00  0.00     0.079 C 
ATOM      9  C   UNL A   1      33.446  27.199  26.060  1.00  0.00     0.030 C 
ATOM     10  S   UNL A   1      31.566  25.157  26.346  1.00  0.00    -0.078 SA
ATOM     11  C   UNL A   1      31.506  23.865  25.050  1.00  0.00     0.311 C 
ATOM     12  N   UNL A   1      31.940  24.480  23.788  1.00  0.00    -0.316 N 
ATOM     13  H   UNL A   1      31.143  24.908  23.316  1.00  0.00     0.348 HD
ATOM     14  H   UNL A   1      32.341  23.780  23.163  1.00  0.00     0.348 HD
BRANCH  11  15
ATOM     15  C   UNL A   1      32.247  22.618  25.456  1.00  0.00     0.172 A 
ATOM     16  C   UNL A   1      32.986  22.330  26.591  1.00  0.00     0.054 A 
ATOM     17  O   UNL A   1      32.183  21.489  24.665  1.00  0.00    -0.454 OA
ATOM     18  C   UNL A   1      33.387  20.981  26.498  1.00  0.00     0.051 A 
ATOM     19  C   UNL A   1      32.884  20.504  25.307  1.00  0.00     0.134 A 
BRANCH  19  20
ATOM     20  C   UNL A   1      32.979  19.202  24.664  1.00  0.00     0.024 A 
ATOM     21  C   UNL A   1      32.553  19.033  23.342  1.00  0.00     0.012 A 
ATOM     22  C   UNL A   1      33.635  18.141  25.296  1.00  0.00     0.097 A 
ATOM     23  C   UNL A   1      32.693  17.811  22.678  1.00  0.00     0.008 A 
ATOM     24  C   UNL A   1      33.844  16.937  24.601  1.00  0.00     0.270 A 
ATOM     25  C   UNL A   1      33.341  16.753  23.307  1.00  0.00     0.085 A 
BRANCH  24  26
ATOM     26  N   UNL A   1      34.678  15.891  25.200  1.00  0.00     0.062 N 
ATOM     27  O   UNL A   1      35.809  16.205  25.595  1.00  0.00    -0.258 OA
ATOM     28  O   UNL A   1      34.191  14.754  25.300  1.00  0.00    -0.258 OA
ENDBRANCH  24  26
ENDBRANCH  19  20
ENDBRANCH  11  15
ENDBRANCH   4   6
ENDBRANCH   3   4
ENDBRANCH   2   3
ENDBRANCH   1   2
BRANCH   1  29
ATOM     29  O   UNL A   1      37.456  22.124  24.475  1.00  0.00    -0.374 OA
BRANCH  29  30
ATOM     30  C   UNL A   1      37.248  20.726  24.667  1.00  0.00     0.202 C 
BRANCH  30  31
ATOM     31  C   UNL A   1      38.474  19.830  24.894  1.00  0.00     0.261 C 
BRANCH  31  32
ATOM     32  O   UNL A   1      39.174  20.106  26.123  1.00  0.00    -0.460 OA
BRANCH  32  33
ATOM     33  C   UNL A   1      40.508  19.863  26.087  1.00  0.00     0.338 C 
ATOM     34  O   UNL A   1      41.063  18.886  25.600  1.00  0.00    -0.246 OA
BRANCH  33  35
ATOM     35  C   UNL A   1      41.283  20.996  26.611  1.00  0.00     0.060 A 
ATOM     36  C   UNL A   1      41.319  21.185  27.999  1.00  0.00     0.016 A 
ATOM     37  C   UNL A   1      41.789  21.973  25.752  1.00  0.00     0.016 A 
ATOM     38  C   UNL A   1      41.811  22.378  28.531  1.00  0.00     0.010 A 
ATOM     39  C   UNL A   1      42.269  23.177  26.283  1.00  0.00     0.010 A 
ATOM     40  C   UNL A   1      42.241  23.401  27.671  1.00  0.00    -0.014 A 
BRANCH  40  41
ATOM     41  C   UNL A   1      42.521  24.747  28.229  1.00  0.00     0.031 A 
ATOM     42  C   UNL A   1      43.943  25.151  28.507  1.00  0.00     0.074 A 
ATOM     43  C   UNL A   1      41.522  25.610  28.475  1.00  0.00     0.049 A 
ATOM     44  N   UNL A   1      44.409  26.288  28.956  1.00  0.00    -0.248 NA
ATOM     45  C   UNL A   1      44.973  24.129  28.268  1.00  0.00     0.031 C 
ATOM     46  C   UNL A   1      40.103  25.323  28.291  1.00  0.00     0.029 A 
ATOM     47  N   UNL A   1      41.554  26.907  28.924  1.00  0.00    -0.354 N 
ATOM     48  C   UNL A   1      45.780  26.110  29.087  1.00  0.00     0.074 A 
ATOM     49  C   UNL A   1      46.072  24.757  28.661  1.00  0.00     0.031 C 
ATOM     50  C   UNL A   1      39.401  26.428  28.594  1.00  0.00     0.029 A 
ATOM     51  C   UNL A   1      40.317  27.502  28.966  1.00  0.00     0.049 A 
ATOM     52  H   UNL A   1      42.384  27.366  29.190  1.00  0.00     0.167 HD
ATOM     53  C   UNL A   1      46.709  26.986  29.541  1.00  0.00     0.037 A 
ATOM     54  C   UNL A   1      39.971  28.774  29.246  1.00  0.00     0.037 A 
ATOM     55  C   UNL A   1      46.423  28.331  29.967  1.00  0.00     0.049 A 
ATOM     56  C   UNL A   1      41.034  29.755  29.667  1.00  0.00     0.074 A 
ATOM     57  C   UNL A   1      47.300  29.288  30.451  1.00  0.00     0.029 A 
ATOM     58  N   UNL A   1      45.164  28.910  29.962  1.00  0.00    -0.354 N 
ATOM     59  N   UNL A   1      42.329  29.580  29.772  1.00  0.00    -0.248 NA
ATOM     60  C   UNL A   1      40.580  31.105  30.037  1.00  0.00     0.031 C 
ATOM     61  C   UNL A   1      46.565  30.436  30.770  1.00  0.00     0.029 A 
ATOM     62  C   UNL A   1      45.237  30.206  30.445  1.00  0.00     0.049 A 
ATOM     63  H   UNL A   1      44.340  28.466  29.658  1.00  0.00     0.167 HD
ATOM     64  C   UNL A   1      42.840  30.788  30.231  1.00  0.00     0.074 A 
ATOM     65  C   UNL A   1      41.724  31.703  30.338  1.00  0.00     0.031 C 
ATOM     66  C   UNL A   1      44.117  31.103  30.559  1.00  0.00     0.037 A 
BRANCH  53  67
ATOM     67  C   UNL A   1      48.121  26.494  29.645  1.00  0.00     0.057 A 
ATOM     68  C   UNL A   1      49.051  26.687  28.617  1.00  0.00     0.134 A 
ATOM     69  C   UNL A   1      48.557  25.830  30.799  1.00  0.00     0.134 A 
ATOM     70  F   UNL A   1      48.691  27.300  27.478  1.00  0.00    -0.206 F 
ATOM     71  C   UNL A   1      50.362  26.219  28.725  1.00  0.00     0.040 A 
ATOM     72  C   UNL A   1      49.870  25.378  30.928  1.00  0.00     0.040 A 
ATOM     73  F   UNL A   1      47.714  25.615  31.820  1.00  0.00    -0.206 F 
ATOM     74  C   UNL A   1      50.776  25.566  29.885  1.00  0.00     0.006 A 
ENDBRANCH  53  67
BRANCH  54  75
ATOM     75  C   UNL A   1      38.563  29.222  29.095  1.00  0.00     0.057 A 
ATOM     76  C   UNL A   1      38.090  29.671  27.854  1.00  0.00     0.134 A 
ATOM     77  C   UNL A   1      37.667  29.236  30.168  1.00  0.00     0.134 A 
ATOM     78  F   UNL A   1      38.913  29.717  26.795  1.00  0.00    -0.206 F 
ATOM     79  C   UNL A   1      36.782  30.128  27.690  1.00  0.00     0.040 A 
ATOM     80  C   UNL A   1      36.349  29.669  30.013  1.00  0.00     0.040 A 
ATOM     81  F   UNL A   1      38.060  28.823  31.383  1.00  0.00    -0.206 F 
ATOM     82  C   UNL A   1      35.905  30.121  28.772  1.00  0.00     0.006 A 
ENDBRANCH  54  75
BRANCH  66  83
ATOM     83  C   UNL A   1      44.368  32.486  31.082  1.00  0.00     0.057 A 
ATOM     84  C   UNL A   1      44.325  32.766  32.455  1.00  0.00     0.134 A 
ATOM     85  C   UNL A   1      44.690  33.537  30.217  1.00  0.00     0.134 A 
ATOM     86  F   UNL A   1      44.015  31.803  33.336  1.00  0.00    -0.206 F 
ATOM     87  C   UNL A   1      44.573  34.048  32.946  1.00  0.00     0.040 A 
ATOM     88  C   UNL A   1      44.960  34.820  30.697  1.00  0.00     0.040 A 
ATOM     89  F   UNL A   1      44.756  33.334  28.893  1.00  0.00    -0.206 F 
ATOM     90  C   UNL A   1      44.897  35.080  32.065  1.00  0.00     0.006 A 
ENDBRANCH  66  83
ENDBRANCH  40  41
ENDBRANCH  33  35
ENDBRANCH  32  33
ENDBRANCH  31  32
ENDBRANCH  30  31
ENDBRANCH  29  30
ENDBRANCH   1  29
TORSDOF 17
ENDMDL
MODEL 2
REMARK VINA RESULT:     -11.4      4.317      9.573
REMARK SMILES CC1(C)S[C@H](c2ccc(-c3cccc([N+](=O)[O-])c3)o2)[NH2+][C@@H]1C(=O)OCCOCCOC(=O)c1ccc(-c2c3nc(c(-c4c(F)cccc4F)c4ccc([nH]4)c(-c4c(F)cccc4F)c4nc(c(-c5c(F)cccc5F)c5ccc2[nH]5)C=C4)C=C3)cc1
REMARK SMILES IDX 26 1 25 2 24 3 22 4 23 5 21 6 1 7 2 8 3 9 4 10 5 11 20 12
REMARK SMILES IDX 6 15 7 16 19 17 8 18 9 19 10 20 11 21 18 22 12 23 14 24
REMARK SMILES IDX 13 25 15 26 16 27 17 28 27 29 28 30 29 31 30 32 31 33 32 34
REMARK SMILES IDX 33 35 34 36 86 37 35 38 85 39 36 40 37 41 38 42 79 43 39 44
REMARK SMILES IDX 84 45 78 46 80 47 40 48 83 49 77 50 76 51 41 53 67 54 50 55
REMARK SMILES IDX 66 56 51 57 54 58 65 59 81 60 52 61 53 62 64 64 82 65 55 66
REMARK SMILES IDX 42 67 43 68 48 69 44 70 45 71 47 72 49 73 46 74 68 75 69 76
REMARK SMILES IDX 74 77 70 78 71 79 73 80 75 81 72 82 56 83 57 84 62 85 58 86
REMARK SMILES IDX 59 87 61 88 63 89 60 90
REMARK H PARENT 20 13 20 14 80 52 54 63
REMARK Flexibility Score: inf
ROOT
ATOM      1  C   UNL A   1      32.479  27.969  26.166  1.00  0.00     0.202 C 
ENDROOT
BRANCH   1   2
ATOM      2  C   UNL A   1      31.971  26.587  26.583  1.00  0.00     0.261 C 
BRANCH   2   3
ATOM      3  O   UNL A   1      32.255  25.533  25.668  1.00  0.00    -0.459 OA
BRANCH   3   4
ATOM      4  C   UNL A   1      31.151  24.981  25.074  1.00  0.00     0.366 C 
ATOM      5  O   UNL A   1      30.003  25.361  25.255  1.00  0.00    -0.245 OA
BRANCH   4   6
ATOM      6  C   UNL A   1      31.589  23.834  24.143  1.00  0.00     0.310 C 
ATOM      7  C   UNL A   1      33.260  21.965  23.692  1.00  0.00     0.030 C 
ATOM      8  C   UNL A   1      33.063  23.386  24.264  1.00  0.00     0.079 C 
ATOM      9  C   UNL A   1      33.644  23.397  25.683  1.00  0.00     0.030 C 
ATOM     10  S   UNL A   1      33.932  24.548  23.157  1.00  0.00    -0.078 SA
ATOM     11  C   UNL A   1      32.413  25.082  22.284  1.00  0.00     0.311 C 
ATOM     12  N   UNL A   1      31.317  24.207  22.724  1.00  0.00    -0.316 N 
ATOM     13  H   UNL A   1      31.286  23.367  22.144  1.00  0.00     0.348 HD
ATOM     14  H   UNL A   1      30.419  24.683  22.642  1.00  0.00     0.348 HD
BRANCH  11  15
ATOM     15  C   UNL A   1      32.164  26.560  22.428  1.00  0.00     0.172 A 
ATOM     16  C   UNL A   1      33.045  27.627  22.495  1.00  0.00     0.054 A 
ATOM     17  O   UNL A   1      30.872  27.045  22.431  1.00  0.00    -0.454 OA
ATOM     18  C   UNL A   1      32.271  28.805  22.538  1.00  0.00     0.051 A 
ATOM     19  C   UNL A   1      30.952  28.410  22.504  1.00  0.00     0.134 A 
BRANCH  19  20
ATOM     20  C   UNL A   1      29.710  29.167  22.536  1.00  0.00     0.024 A 
ATOM     21  C   UNL A   1      28.534  28.578  23.015  1.00  0.00     0.012 A 
ATOM     22  C   UNL A   1      29.698  30.532  22.235  1.00  0.00     0.097 A 
ATOM     23  C   UNL A   1      27.342  29.301  23.119  1.00  0.00     0.008 A 
ATOM     24  C   UNL A   1      28.519  31.276  22.412  1.00  0.00     0.270 A 
ATOM     25  C   UNL A   1      27.329  30.657  22.816  1.00  0.00     0.085 A 
BRANCH  24  26
ATOM     26  N   UNL A   1      28.553  32.734  22.262  1.00  0.00     0.062 N 
ATOM     27  O   UNL A   1      27.846  33.243  21.382  1.00  0.00    -0.258 OA
ATOM     28  O   UNL A   1      29.272  33.375  23.044  1.00  0.00    -0.258 OA
ENDBRANCH  24  26
ENDBRANCH  19  20
ENDBRANCH  11  15
ENDBRANCH   4   6
ENDBRANCH   3   4
ENDBRANCH   2   3
ENDBRANCH   1   2
BRANCH   1  29
ATOM     29  O   UNL A   1      31.785  29.109  26.650  1.00  0.00    -0.374 OA
BRANCH  29  30
ATOM     30  C   UNL A   1      31.603  30.214  25.767  1.00  0.00     0.202 C 
BRANCH  30  31
ATOM     31  C   UNL A   1      31.635  31.632  26.355  1.00  0.00     0.261 C 
BRANCH  31  32
ATOM     32  O   UNL A   1      32.326  31.720  27.617  1.00  0.00    -0.460 OA
BRANCH  32  33
ATOM     33  C   UNL A   1      33.278  32.684  27.679  1.00  0.00     0.338 C 
ATOM     34  O   UNL A   1      33.099  33.896  27.670  1.00  0.00    -0.246 OA
BRANCH  33  35
ATOM     35  C   UNL A   1      34.618  32.115  27.884  1.00  0.00     0.060 A 
ATOM     36  C   UNL A   1      34.719  30.743  28.150  1.00  0.00     0.016 A 
ATOM     37  C   UNL A   1      35.732  32.945  28.023  1.00  0.00     0.016 A 
ATOM     38  C   UNL A   1      35.923  30.206  28.610  1.00  0.00     0.010 A 
ATOM     39  C   UNL A   1      36.935  32.411  28.498  1.00  0.00     0.010 A 
ATOM     40  C   UNL A   1      37.022  31.049  28.835  1.00  0.00    -0.014 A 
BRANCH  40  41
ATOM     41  C   UNL A   1      38.206  30.518  29.556  1.00  0.00     0.031 A 
ATOM     42  C   UNL A   1      38.402  30.860  31.008  1.00  0.00     0.074 A 
ATOM     43  C   UNL A   1      39.093  29.726  28.932  1.00  0.00     0.049 A 
ATOM     44  N   UNL A   1      39.342  30.472  31.831  1.00  0.00    -0.248 NA
ATOM     45  C   UNL A   1      37.420  31.779  31.603  1.00  0.00     0.031 C 
ATOM     46  C   UNL A   1      39.040  29.359  27.520  1.00  0.00     0.029 A 
ATOM     47  N   UNL A   1      40.208  29.083  29.411  1.00  0.00    -0.354 N 
ATOM     48  C   UNL A   1      39.087  31.125  33.030  1.00  0.00     0.074 A 
ATOM     49  C   UNL A   1      37.899  31.927  32.829  1.00  0.00     0.031 C 
ATOM     50  C   UNL A   1      40.060  28.526  27.256  1.00  0.00     0.029 A 
ATOM     51  C   UNL A   1      40.819  28.281  28.479  1.00  0.00     0.049 A 
ATOM     52  H   UNL A   1      40.535  29.187  30.334  1.00  0.00     0.167 HD
ATOM     53  C   UNL A   1      39.792  31.077  34.187  1.00  0.00     0.037 A 
ATOM     54  C   UNL A   1      41.856  27.430  28.609  1.00  0.00     0.037 A 
ATOM     55  C   UNL A   1      40.975  30.282  34.391  1.00  0.00     0.049 A 
ATOM     56  C   UNL A   1      42.572  27.329  29.930  1.00  0.00     0.074 A 
ATOM     57  C   UNL A   1      41.760  30.179  35.527  1.00  0.00     0.029 A 
ATOM     58  N   UNL A   1      41.544  29.456  33.435  1.00  0.00    -0.354 N 
ATOM     59  N   UNL A   1      42.312  27.940  31.062  1.00  0.00    -0.248 NA
ATOM     60  C   UNL A   1      43.744  26.443  29.983  1.00  0.00     0.031 C 
ATOM     61  C   UNL A   1      42.824  29.313  35.248  1.00  0.00     0.029 A 
ATOM     62  C   UNL A   1      42.677  28.848  33.951  1.00  0.00     0.049 A 
ATOM     63  H   UNL A   1      41.195  29.320  32.525  1.00  0.00     0.167 HD
ATOM     64  C   UNL A   1      43.294  27.522  31.953  1.00  0.00     0.074 A 
ATOM     65  C   UNL A   1      44.124  26.570  31.247  1.00  0.00     0.031 C 
ATOM     66  C   UNL A   1      43.503  27.912  33.234  1.00  0.00     0.037 A 
BRANCH  53  67
ATOM     67  C   UNL A   1      39.322  31.952  35.311  1.00  0.00     0.057 A 
ATOM     68  C   UNL A   1      38.445  31.485  36.296  1.00  0.00     0.134 A 
ATOM     69  C   UNL A   1      39.770  33.275  35.412  1.00  0.00     0.134 A 
ATOM     70  F   UNL A   1      37.966  30.233  36.245  1.00  0.00    -0.206 F 
ATOM     71  C   UNL A   1      38.012  32.313  37.335  1.00  0.00     0.040 A 
ATOM     72  C   UNL A   1      39.362  34.104  36.458  1.00  0.00     0.040 A 
ATOM     73  F   UNL A   1      40.612  33.781  34.499  1.00  0.00    -0.206 F 
ATOM     74  C   UNL A   1      38.475  33.625  37.420  1.00  0.00     0.006 A 
ENDBRANCH  53  67
BRANCH  54  75
ATOM     75  C   UNL A   1      42.261  26.559  27.475  1.00  0.00     0.057 A 
ATOM     76  C   UNL A   1      41.806  25.236  27.399  1.00  0.00     0.134 A 
ATOM     77  C   UNL A   1      43.116  27.005  26.463  1.00  0.00     0.134 A 
ATOM     78  F   UNL A   1      41.013  24.738  28.361  1.00  0.00    -0.206 F 
ATOM     79  C   UNL A   1      42.195  24.385  26.364  1.00  0.00     0.040 A 
ATOM     80  C   UNL A   1      43.496  26.172  25.409  1.00  0.00     0.040 A 
ATOM     81  F   UNL A   1      43.590  28.260  26.481  1.00  0.00    -0.206 F 
ATOM     82  C   UNL A   1      43.039  24.856  25.361  1.00  0.00     0.006 A 
ENDBRANCH  54  75
BRANCH  66  83
ATOM     83  C   UNL A   1      44.686  27.324  33.943  1.00  0.00     0.057 A 
ATOM     84  C   UNL A   1      44.582  26.131  34.671  1.00  0.00     0.134 A 
ATOM     85  C   UNL A   1      45.945  27.930  33.870  1.00  0.00     0.134 A 
ATOM     86  F   UNL A   1      43.401  25.505  34.786  1.00  0.00    -0.206 F 
ATOM     87  C   UNL A   1      45.685  25.573  35.320  1.00  0.00     0.040 A 
ATOM     88  C   UNL A   1      47.060  27.371  34.497  1.00  0.00     0.040 A 
ATOM     89  F   UNL A   1      46.115  29.068  33.182  1.00  0.00    -0.206 F 
ATOM     90  C   UNL A   1      46.931  26.192  35.229  1.00  0.00     0.006 A 
ENDBRANCH  66  83
ENDBRANCH  40  41
ENDBRANCH  33  35
ENDBRANCH  32  33
ENDBRANCH  31  32
ENDBRANCH  30  31
ENDBRANCH  29  30
ENDBRANCH   1  29
TORSDOF 17
ENDMDL
MODEL 3
REMARK VINA RESULT:     -11.4      0.458      5.995
REMARK SMILES CC1(C)S[C@H](c2ccc(-c3cccc([N+](=O)[O-])c3)o2)[NH2+][C@@H]1C(=O)OCCOCCOC(=O)c1ccc(-c2c3nc(c(-c4c(F)cccc4F)c4ccc([nH]4)c(-c4c(F)cccc4F)c4nc(c(-c5c(F)cccc5F)c5ccc2[nH]5)C=C4)C=C3)cc1
REMARK SMILES IDX 26 1 25 2 24 3 22 4 23 5 21 6 1 7 2 8 3 9 4 10 5 11 20 12
REMARK SMILES IDX 6 15 7 16 19 17 8 18 9 19 10 20 11 21 18 22 12 23 14 24
REMARK SMILES IDX 13 25 15 26 16 27 17 28 27 29 28 30 29 31 30 32 31 33 32 34
REMARK SMILES IDX 33 35 34 36 86 37 35 38 85 39 36 40 37 41 38 42 79 43 39 44
REMARK SMILES IDX 84 45 78 46 80 47 40 48 83 49 77 50 76 51 41 53 67 54 50 55
REMARK SMILES IDX 66 56 51 57 54 58 65 59 81 60 52 61 53 62 64 64 82 65 55 66
REMARK SMILES IDX 42 67 43 68 48 69 44 70 45 71 47 72 49 73 46 74 68 75 69 76
REMARK SMILES IDX 74 77 70 78 71 79 73 80 75 81 72 82 56 83 57 84 62 85 58 86
REMARK SMILES IDX 59 87 61 88 63 89 60 90
REMARK H PARENT 20 13 20 14 80 52 54 63
REMARK Flexibility Score: inf
ROOT
ATOM      1  C   UNL A   1      36.627  22.835  23.387  1.00  0.00     0.202 C 
ENDROOT
BRANCH   1   2
ATOM      2  C   UNL A   1      35.106  22.986  23.318  1.00  0.00     0.261 C 
BRANCH   2   3
ATOM      3  O   UNL A   1      34.632  24.320  23.164  1.00  0.00    -0.459 OA
BRANCH   3   4
ATOM      4  C   UNL A   1      34.253  24.929  24.331  1.00  0.00     0.366 C 
ATOM      5  O   UNL A   1      34.922  24.945  25.354  1.00  0.00    -0.245 OA
BRANCH   4   6
ATOM      6  C   UNL A   1      32.875  25.591  24.139  1.00  0.00     0.310 C 
ATOM      7  C   UNL A   1      31.267  27.430  24.859  1.00  0.00     0.030 C 
ATOM      8  C   UNL A   1      32.359  26.442  25.322  1.00  0.00     0.079 C 
ATOM      9  C   UNL A   1      33.426  27.250  26.070  1.00  0.00     0.030 C 
ATOM     10  S   UNL A   1      31.559  25.202  26.395  1.00  0.00    -0.078 SA
ATOM     11  C   UNL A   1      31.462  23.920  25.092  1.00  0.00     0.311 C 
ATOM     12  N   UNL A   1      31.856  24.547  23.822  1.00  0.00    -0.316 N 
ATOM     13  H   UNL A   1      31.045  24.978  23.378  1.00  0.00     0.348 HD
ATOM     14  H   UNL A   1      32.239  23.853  23.179  1.00  0.00     0.348 HD
BRANCH  11  15
ATOM     15  C   UNL A   1      32.218  22.672  25.465  1.00  0.00     0.172 A 
ATOM     16  C   UNL A   1      32.995  22.378  26.572  1.00  0.00     0.054 A 
ATOM     17  O   UNL A   1      32.128  21.548  24.668  1.00  0.00    -0.454 OA
ATOM     18  C   UNL A   1      33.394  21.030  26.456  1.00  0.00     0.051 A 
ATOM     19  C   UNL A   1      32.852  20.560  25.281  1.00  0.00     0.134 A 
BRANCH  19  20
ATOM     20  C   UNL A   1      32.927  19.263  24.626  1.00  0.00     0.024 A 
ATOM     21  C   UNL A   1      32.555  19.124  23.284  1.00  0.00     0.012 A 
ATOM     22  C   UNL A   1      33.513  18.170  25.273  1.00  0.00     0.097 A 
ATOM     23  C   UNL A   1      32.680  17.905  22.611  1.00  0.00     0.008 A 
ATOM     24  C   UNL A   1      33.708  16.967  24.573  1.00  0.00     0.270 A 
ATOM     25  C   UNL A   1      33.258  16.817  23.255  1.00  0.00     0.085 A 
BRANCH  24  26
ATOM     26  N   UNL A   1      34.474  15.883  25.196  1.00  0.00     0.062 N 
ATOM     27  O   UNL A   1      33.905  14.798  25.375  1.00  0.00    -0.258 OA
ATOM     28  O   UNL A   1      35.659  16.110  25.486  1.00  0.00    -0.258 OA
ENDBRANCH  24  26
ENDBRANCH  19  20
ENDBRANCH  11  15
ENDBRANCH   4   6
ENDBRANCH   3   4
ENDBRANCH   2   3
ENDBRANCH   1   2
BRANCH   1  29
ATOM     29  O   UNL A   1      37.156  21.571  23.753  1.00  0.00    -0.374 OA
BRANCH  29  30
ATOM     30  C   UNL A   1      37.355  21.297  25.139  1.00  0.00     0.202 C 
BRANCH  30  31
ATOM     31  C   UNL A   1      38.755  21.514  25.733  1.00  0.00     0.261 C 
BRANCH  31  32
ATOM     32  O   UNL A   1      39.268  20.369  26.441  1.00  0.00    -0.460 OA
BRANCH  32  33
ATOM     33  C   UNL A   1      40.581  20.107  26.225  1.00  0.00     0.338 C 
ATOM     34  O   UNL A   1      41.049  19.148  25.624  1.00  0.00    -0.246 OA
BRANCH  33  35
ATOM     35  C   UNL A   1      41.441  21.198  26.705  1.00  0.00     0.060 A 
ATOM     36  C   UNL A   1      41.506  21.429  28.085  1.00  0.00     0.016 A 
ATOM     37  C   UNL A   1      42.005  22.108  25.810  1.00  0.00     0.016 A 
ATOM     38  C   UNL A   1      42.088  22.600  28.572  1.00  0.00     0.010 A 
ATOM     39  C   UNL A   1      42.576  23.290  26.296  1.00  0.00     0.010 A 
ATOM     40  C   UNL A   1      42.580  23.561  27.676  1.00  0.00    -0.014 A 
BRANCH  40  41
ATOM     41  C   UNL A   1      42.962  24.901  28.186  1.00  0.00     0.031 A 
ATOM     42  C   UNL A   1      41.891  25.920  28.461  1.00  0.00     0.074 A 
ATOM     43  C   UNL A   1      44.249  25.206  28.419  1.00  0.00     0.049 A 
ATOM     44  N   UNL A   1      42.004  27.131  28.944  1.00  0.00    -0.248 NA
ATOM     45  C   UNL A   1      40.513  25.530  28.125  1.00  0.00     0.031 C 
ATOM     46  C   UNL A   1      45.381  24.324  28.152  1.00  0.00     0.029 A 
ATOM     47  N   UNL A   1      44.817  26.342  28.941  1.00  0.00    -0.354 N 
ATOM     48  C   UNL A   1      40.720  27.662  28.938  1.00  0.00     0.074 A 
ATOM     49  C   UNL A   1      39.843  26.637  28.411  1.00  0.00     0.031 C 
ATOM     50  C   UNL A   1      46.507  24.942  28.545  1.00  0.00     0.029 A 
ATOM     51  C   UNL A   1      46.175  26.246  29.112  1.00  0.00     0.049 A 
ATOM     52  H   UNL A   1      44.298  27.148  29.170  1.00  0.00     0.167 HD
ATOM     53  C   UNL A   1      40.312  28.897  29.317  1.00  0.00     0.037 A 
ATOM     54  C   UNL A   1      47.044  27.102  29.685  1.00  0.00     0.037 A 
ATOM     55  C   UNL A   1      41.180  29.920  29.839  1.00  0.00     0.049 A 
ATOM     56  C   UNL A   1      46.552  28.438  30.178  1.00  0.00     0.074 A 
ATOM     57  C   UNL A   1      40.857  31.205  30.240  1.00  0.00     0.029 A 
ATOM     58  N   UNL A   1      42.545  29.773  30.032  1.00  0.00    -0.354 N 
ATOM     59  N   UNL A   1      45.333  28.922  30.181  1.00  0.00    -0.248 NA
ATOM     60  C   UNL A   1      47.564  29.358  30.719  1.00  0.00     0.031 C 
ATOM     61  C   UNL A   1      42.033  31.848  30.645  1.00  0.00     0.029 A 
ATOM     62  C   UNL A   1      43.080  30.948  30.534  1.00  0.00     0.049 A 
ATOM     63  H   UNL A   1      43.058  28.955  29.840  1.00  0.00     0.167 HD
ATOM     64  C   UNL A   1      45.435  30.203  30.710  1.00  0.00     0.074 A 
ATOM     65  C   UNL A   1      46.825  30.404  31.061  1.00  0.00     0.031 C 
ATOM     66  C   UNL A   1      44.468  31.139  30.867  1.00  0.00     0.037 A 
BRANCH  53  67
ATOM     67  C   UNL A   1      38.861  29.225  29.131  1.00  0.00     0.057 A 
ATOM     68  C   UNL A   1      38.334  29.579  27.884  1.00  0.00     0.134 A 
ATOM     69  C   UNL A   1      37.978  29.171  30.218  1.00  0.00     0.134 A 
ATOM     70  F   UNL A   1      39.131  29.666  26.808  1.00  0.00    -0.206 F 
ATOM     71  C   UNL A   1      36.981  29.886  27.726  1.00  0.00     0.040 A 
ATOM     72  C   UNL A   1      36.620  29.454  30.068  1.00  0.00     0.040 A 
ATOM     73  F   UNL A   1      38.421  28.838  31.439  1.00  0.00    -0.206 F 
ATOM     74  C   UNL A   1      36.119  29.820  28.820  1.00  0.00     0.006 A 
ENDBRANCH  53  67
BRANCH  54  75
ATOM     75  C   UNL A   1      48.465  26.716  29.878  1.00  0.00     0.057 A 
ATOM     76  C   UNL A   1      49.438  27.095  28.942  1.00  0.00     0.134 A 
ATOM     77  C   UNL A   1      48.888  25.951  30.969  1.00  0.00     0.134 A 
ATOM     78  F   UNL A   1      49.088  27.797  27.853  1.00  0.00    -0.206 F 
ATOM     79  C   UNL A   1      50.774  26.719  29.079  1.00  0.00     0.040 A 
ATOM     80  C   UNL A   1      50.226  25.587  31.132  1.00  0.00     0.040 A 
ATOM     81  F   UNL A   1      48.005  25.552  31.898  1.00  0.00    -0.206 F 
ATOM     82  C   UNL A   1      51.172  25.968  30.182  1.00  0.00     0.006 A 
ENDBRANCH  54  75
BRANCH  66  83
ATOM     83  C   UNL A   1      44.885  32.468  31.423  1.00  0.00     0.057 A 
ATOM     84  C   UNL A   1      45.287  33.517  30.585  1.00  0.00     0.134 A 
ATOM     85  C   UNL A   1      44.850  32.716  32.800  1.00  0.00     0.134 A 
ATOM     86  F   UNL A   1      45.350  33.340  29.257  1.00  0.00    -0.206 F 
ATOM     87  C   UNL A   1      45.662  34.759  31.099  1.00  0.00     0.040 A 
ATOM     88  C   UNL A   1      45.203  33.961  33.325  1.00  0.00     0.040 A 
ATOM     89  F   UNL A   1      44.466  31.758  33.656  1.00  0.00    -0.206 F 
ATOM     90  C   UNL A   1      45.615  34.985  32.474  1.00  0.00     0.006 A 
ENDBRANCH  66  83
ENDBRANCH  40  41
ENDBRANCH  33  35
ENDBRANCH  32  33
ENDBRANCH  31  32
ENDBRANCH  30  31
ENDBRANCH  29  30
ENDBRANCH   1  29
TORSDOF 17
ENDMDL
