MODEL 1
REMARK VINA RESULT:     -11.6      0.000      0.000
REMARK SMILES CCSc1ccc(-c2cc(Cl)cc3c2O[C@@H](C(F)(F)F)C(C(=O)OCCOCCOC(=O)c2ccc(-c4c5nc(c(-c6c(F)cccc6F)c6ccc([nH]6)c(-c6c(F)cccc6F)c6nc(c(-c7c(F)cccc7F)c7ccc4[nH]7)C=C6)C=C5)cc2)=C3)cc1
REMARK SMILES IDX 26 1 25 2 24 3 22 4 23 5 21 6 8 7 9 8 14 9 10 10 13 11 15 12
REMARK SMILES IDX 11 13 12 14 87 15 16 16 7 17 4 18 5 19 89 20 6 21 88 22 3 23
REMARK SMILES IDX 2 24 1 25 17 26 18 27 19 28 20 29 27 30 28 31 29 32 30 33
REMARK SMILES IDX 31 34 32 35 33 36 34 37 86 38 35 39 85 40 36 41 37 42 38 43
REMARK SMILES IDX 79 44 39 45 84 46 78 47 80 48 40 49 83 50 77 51 76 52 41 54
REMARK SMILES IDX 67 55 50 56 66 57 51 58 54 59 65 60 81 61 52 62 53 63 64 65
REMARK SMILES IDX 82 66 55 67 42 68 43 69 48 70 44 71 45 72 47 73 49 74 46 75
REMARK SMILES IDX 68 76 69 77 74 78 70 79 71 80 73 81 75 82 72 83 56 84 57 85
REMARK SMILES IDX 62 86 58 87 59 88 61 89 63 90 60 91
REMARK H PARENT 80 53 54 64
REMARK Flexibility Score: inf
ROOT
ATOM      1  C   UNL A   1      32.025  29.766  25.527  1.00  0.00     0.202 C 
ENDROOT
BRANCH   1   2
ATOM      2  C   UNL A   1      33.250  28.921  25.141  1.00  0.00     0.261 C 
BRANCH   2   3
ATOM      3  O   UNL A   1      32.904  27.643  24.587  1.00  0.00    -0.460 OA
BRANCH   3   4
ATOM      4  C   UNL A   1      32.787  27.597  23.246  1.00  0.00     0.338 C 
ATOM      5  O   UNL A   1      33.328  28.368  22.463  1.00  0.00    -0.246 OA
BRANCH   4   6
ATOM      6  C   UNL A   1      32.057  26.393  22.782  1.00  0.00     0.087 C 
ATOM      7  C   UNL A   1      32.752  22.882  24.905  1.00  0.00     0.026 A 
ATOM      8  C   UNL A   1      34.012  23.085  25.513  1.00  0.00     0.033 A 
ATOM      9  C   UNL A   1      32.346  23.913  24.026  1.00  0.00     0.135 A 
ATOM     10  C   UNL A   1      34.927  23.996  24.985  1.00  0.00     0.042 A 
ATOM     11  C   UNL A   1      33.329  24.638  23.330  1.00  0.00     0.019 A 
ATOM     12  O   UNL A   1      31.109  24.560  24.235  1.00  0.00    -0.475 OA
ATOM     13  Cl  UNL A   1      36.477  24.160  25.707  1.00  0.00    -0.084 Cl
ATOM     14  C   UNL A   1      34.624  24.698  23.828  1.00  0.00     0.032 A 
ATOM     15  C   UNL A   1      32.914  25.523  22.221  1.00  0.00     0.027 C 
ATOM     16  C   UNL A   1      30.826  25.759  23.395  1.00  0.00     0.316 C 
BRANCH   7  17
ATOM     17  C   UNL A   1      32.458  21.410  24.676  1.00  0.00    -0.015 A 
ATOM     18  C   UNL A   1      32.842  18.600  24.105  1.00  0.00     0.007 A 
ATOM     19  C   UNL A   1      32.860  19.074  25.414  1.00  0.00     0.015 A 
ATOM     20  C   UNL A   1      32.539  19.526  23.095  1.00  0.00     0.015 A 
ATOM     21  C   UNL A   1      32.653  20.446  25.693  1.00  0.00     0.010 A 
ATOM     22  C   UNL A   1      32.346  20.898  23.371  1.00  0.00     0.010 A 
BRANCH  18  23
ATOM     23  S   UNL A   1      33.166  16.919  23.571  1.00  0.00    -0.126 SA
BRANCH  23  24
ATOM     24  C   UNL A   1      33.702  15.974  25.045  1.00  0.00     0.071 C 
ATOM     25  C   UNL A   1      32.671  14.956  25.506  1.00  0.00     0.016 C 
ENDBRANCH  23  24
ENDBRANCH  18  23
ENDBRANCH   7  17
BRANCH  16  26
ATOM     26  C   UNL A   1      29.788  26.765  23.943  1.00  0.00     0.430 C 
ATOM     27  F   UNL A   1      29.795  27.882  23.163  1.00  0.00    -0.167 F 
ATOM     28  F   UNL A   1      28.529  26.272  23.890  1.00  0.00    -0.167 F 
ATOM     29  F   UNL A   1      30.000  27.177  25.207  1.00  0.00    -0.167 F 
ENDBRANCH  16  26
ENDBRANCH   4   6
ENDBRANCH   3   4
ENDBRANCH   2   3
ENDBRANCH   1   2
BRANCH   1  30
ATOM     30  O   UNL A   1      31.946  30.289  26.846  1.00  0.00    -0.374 OA
BRANCH  30  31
ATOM     31  C   UNL A   1      32.807  31.370  27.198  1.00  0.00     0.202 C 
BRANCH  31  32
ATOM     32  C   UNL A   1      32.215  32.778  27.310  1.00  0.00     0.261 C 
BRANCH  32  33
ATOM     33  O   UNL A   1      33.202  33.820  27.309  1.00  0.00    -0.460 OA
BRANCH  33  34
ATOM     34  C   UNL A   1      33.303  34.499  28.474  1.00  0.00     0.338 C 
ATOM     35  O   UNL A   1      32.537  35.349  28.915  1.00  0.00    -0.246 OA
BRANCH  34  36
ATOM     36  C   UNL A   1      34.420  33.969  29.266  1.00  0.00     0.060 A 
ATOM     37  C   UNL A   1      35.724  34.247  28.839  1.00  0.00     0.016 A 
ATOM     38  C   UNL A   1      34.185  33.121  30.349  1.00  0.00     0.016 A 
ATOM     39  C   UNL A   1      36.805  33.645  29.476  1.00  0.00     0.010 A 
ATOM     40  C   UNL A   1      35.270  32.510  30.981  1.00  0.00     0.010 A 
ATOM     41  C   UNL A   1      36.582  32.745  30.527  1.00  0.00    -0.014 A 
BRANCH  41  42
ATOM     42  C   UNL A   1      37.708  31.947  31.063  1.00  0.00     0.031 A 
ATOM     43  C   UNL A   1      38.224  32.247  32.441  1.00  0.00     0.074 A 
ATOM     44  C   UNL A   1      38.251  30.959  30.332  1.00  0.00     0.049 A 
ATOM     45  N   UNL A   1      39.237  31.721  33.081  1.00  0.00    -0.248 NA
ATOM     46  C   UNL A   1      37.507  33.285  33.198  1.00  0.00     0.031 C 
ATOM     47  C   UNL A   1      37.808  30.556  28.998  1.00  0.00     0.029 A 
ATOM     48  N   UNL A   1      39.303  30.123  30.606  1.00  0.00    -0.354 N 
ATOM     49  C   UNL A   1      39.282  32.367  34.310  1.00  0.00     0.074 A 
ATOM     50  C   UNL A   1      38.219  33.349  34.312  1.00  0.00     0.031 C 
ATOM     51  C   UNL A   1      38.595  29.558  28.562  1.00  0.00     0.029 A 
ATOM     52  C   UNL A   1      39.616  29.280  29.570  1.00  0.00     0.049 A 
ATOM     53  H   UNL A   1      39.786  30.129  31.463  1.00  0.00     0.167 HD
ATOM     54  C   UNL A   1      40.128  32.152  35.346  1.00  0.00     0.037 A 
ATOM     55  C   UNL A   1      40.630  28.404  29.440  1.00  0.00     0.037 A 
ATOM     56  C   UNL A   1      41.187  31.177  35.332  1.00  0.00     0.049 A 
ATOM     57  C   UNL A   1      41.604  28.234  30.576  1.00  0.00     0.074 A 
ATOM     58  C   UNL A   1      42.092  30.871  36.333  1.00  0.00     0.029 A 
ATOM     59  N   UNL A   1      41.487  30.354  34.256  1.00  0.00    -0.354 N 
ATOM     60  N   UNL A   1      41.627  28.832  31.744  1.00  0.00    -0.248 NA
ATOM     61  C   UNL A   1      42.690  27.264  30.379  1.00  0.00     0.031 C 
ATOM     62  C   UNL A   1      42.975  29.904  35.842  1.00  0.00     0.029 A 
ATOM     63  C   UNL A   1      42.582  29.560  34.559  1.00  0.00     0.049 A 
ATOM     64  H   UNL A   1      40.996  30.338  33.402  1.00  0.00     0.167 HD
ATOM     65  C   UNL A   1      42.707  28.292  32.430  1.00  0.00     0.074 A 
ATOM     66  C   UNL A   1      43.306  27.307  31.551  1.00  0.00     0.031 C 
ATOM     67  C   UNL A   1      43.162  28.581  33.674  1.00  0.00     0.037 A 
BRANCH  54  68
ATOM     68  C   UNL A   1      39.957  33.008  36.569  1.00  0.00     0.057 A 
ATOM     69  C   UNL A   1      40.728  34.159  36.784  1.00  0.00     0.134 A 
ATOM     70  C   UNL A   1      38.992  32.690  37.534  1.00  0.00     0.134 A 
ATOM     71  F   UNL A   1      41.680  34.514  35.908  1.00  0.00    -0.206 F 
ATOM     72  C   UNL A   1      40.563  34.945  37.926  1.00  0.00     0.040 A 
ATOM     73  C   UNL A   1      38.798  33.486  38.664  1.00  0.00     0.040 A 
ATOM     74  F   UNL A   1      38.215  31.606  37.389  1.00  0.00    -0.206 F 
ATOM     75  C   UNL A   1      39.591  34.613  38.867  1.00  0.00     0.006 A 
ENDBRANCH  54  68
BRANCH  55  76
ATOM     76  C   UNL A   1      40.788  27.633  28.180  1.00  0.00     0.057 A 
ATOM     77  C   UNL A   1      40.205  26.370  28.023  1.00  0.00     0.134 A 
ATOM     78  C   UNL A   1      41.536  28.135  27.109  1.00  0.00     0.134 A 
ATOM     79  F   UNL A   1      39.493  25.826  29.021  1.00  0.00    -0.206 F 
ATOM     80  C   UNL A   1      40.373  25.628  26.853  1.00  0.00     0.040 A 
ATOM     81  C   UNL A   1      41.689  27.416  25.923  1.00  0.00     0.040 A 
ATOM     82  F   UNL A   1      42.118  29.340  27.195  1.00  0.00    -0.206 F 
ATOM     83  C   UNL A   1      41.114  26.154  25.796  1.00  0.00     0.006 A 
ENDBRANCH  55  76
BRANCH  67  84
ATOM     84  C   UNL A   1      44.339  27.795  34.177  1.00  0.00     0.057 A 
ATOM     85  C   UNL A   1      45.653  28.266  34.061  1.00  0.00     0.134 A 
ATOM     86  C   UNL A   1      44.150  26.567  34.824  1.00  0.00     0.134 A 
ATOM     87  F   UNL A   1      45.907  29.429  33.441  1.00  0.00    -0.206 F 
ATOM     88  C   UNL A   1      46.737  27.531  34.546  1.00  0.00     0.040 A 
ATOM     89  C   UNL A   1      45.221  25.838  35.341  1.00  0.00     0.040 A 
ATOM     90  F   UNL A   1      42.916  26.062  34.980  1.00  0.00    -0.206 F 
ATOM     91  C   UNL A   1      46.521  26.317  35.195  1.00  0.00     0.006 A 
ENDBRANCH  67  84
ENDBRANCH  41  42
ENDBRANCH  34  36
ENDBRANCH  33  34
ENDBRANCH  32  33
ENDBRANCH  31  32
ENDBRANCH  30  31
ENDBRANCH   1  30
TORSDOF 18
ENDMDL
MODEL 2
REMARK VINA RESULT:     -11.5      5.027      9.883
REMARK SMILES CCSc1ccc(-c2cc(Cl)cc3c2O[C@@H](C(F)(F)F)C(C(=O)OCCOCCOC(=O)c2ccc(-c4c5nc(c(-c6c(F)cccc6F)c6ccc([nH]6)c(-c6c(F)cccc6F)c6nc(c(-c7c(F)cccc7F)c7ccc4[nH]7)C=C6)C=C5)cc2)=C3)cc1
REMARK SMILES IDX 26 1 25 2 24 3 22 4 23 5 21 6 8 7 9 8 14 9 10 10 13 11 15 12
REMARK SMILES IDX 11 13 12 14 87 15 16 16 7 17 4 18 5 19 89 20 6 21 88 22 3 23
REMARK SMILES IDX 2 24 1 25 17 26 18 27 19 28 20 29 27 30 28 31 29 32 30 33
REMARK SMILES IDX 31 34 32 35 33 36 34 37 86 38 35 39 85 40 36 41 37 42 38 43
REMARK SMILES IDX 79 44 39 45 84 46 78 47 80 48 40 49 83 50 77 51 76 52 41 54
REMARK SMILES IDX 67 55 50 56 66 57 51 58 54 59 65 60 81 61 52 62 53 63 64 65
REMARK SMILES IDX 82 66 55 67 42 68 43 69 48 70 44 71 45 72 47 73 49 74 46 75
REMARK SMILES IDX 68 76 69 77 74 78 70 79 71 80 73 81 75 82 72 83 56 84 57 85
REMARK SMILES IDX 62 86 58 87 59 88 61 89 63 90 60 91
REMARK H PARENT 80 53 54 64
REMARK Flexibility Score: inf
ROOT
ATOM      1  C   UNL A   1      36.924  20.814  25.065  1.00  0.00     0.202 C 
ENDROOT
BRANCH   1   2
ATOM      2  C   UNL A   1      36.946  22.141  24.290  1.00  0.00     0.261 C 
BRANCH   2   3
ATOM      3  O   UNL A   1      36.195  23.183  24.931  1.00  0.00    -0.460 OA
BRANCH   3   4
ATOM      4  C   UNL A   1      34.937  23.359  24.484  1.00  0.00     0.338 C 
ATOM      5  O   UNL A   1      34.387  22.673  23.632  1.00  0.00    -0.246 OA
BRANCH   4   6
ATOM      6  C   UNL A   1      34.200  24.387  25.257  1.00  0.00     0.087 C 
ATOM      7  C   UNL A   1      30.915  26.111  23.369  1.00  0.00     0.026 A 
ATOM      8  C   UNL A   1      31.163  25.919  21.991  1.00  0.00     0.033 A 
ATOM      9  C   UNL A   1      31.965  25.700  24.224  1.00  0.00     0.135 A 
ATOM     10  C   UNL A   1      32.461  25.729  21.514  1.00  0.00     0.042 A 
ATOM     11  C   UNL A   1      33.288  25.768  23.754  1.00  0.00     0.019 A 
ATOM     12  O   UNL A   1      31.704  24.767  25.250  1.00  0.00    -0.475 OA
ATOM     13  Cl  UNL A   1      32.731  25.575  19.825  1.00  0.00    -0.084 Cl
ATOM     14  C   UNL A   1      33.537  25.760  22.387  1.00  0.00     0.032 A 
ATOM     15  C   UNL A   1      34.398  25.600  24.716  1.00  0.00     0.027 C 
ATOM     16  C   UNL A   1      32.883  24.232  25.989  1.00  0.00     0.316 C 
BRANCH   7  17
ATOM     17  C   UNL A   1      30.040  27.324  23.629  1.00  0.00    -0.015 A 
ATOM     18  C   UNL A   1      28.415  29.674  23.172  1.00  0.00     0.007 A 
ATOM     19  C   UNL A   1      27.837  28.410  23.264  1.00  0.00     0.015 A 
ATOM     20  C   UNL A   1      29.796  29.762  23.403  1.00  0.00     0.015 A 
ATOM     21  C   UNL A   1      28.632  27.264  23.507  1.00  0.00     0.010 A 
ATOM     22  C   UNL A   1      30.591  28.617  23.631  1.00  0.00     0.010 A 
BRANCH  18  23
ATOM     23  S   UNL A   1      27.573  31.210  22.789  1.00  0.00    -0.126 SA
BRANCH  23  24
ATOM     24  C   UNL A   1      28.837  32.382  22.171  1.00  0.00     0.071 C 
ATOM     25  C   UNL A   1      29.153  33.492  23.161  1.00  0.00     0.016 C 
ENDBRANCH  23  24
ENDBRANCH  18  23
ENDBRANCH   7  17
BRANCH  16  26
ATOM     26  C   UNL A   1      32.699  22.874  26.705  1.00  0.00     0.430 C 
ATOM     27  F   UNL A   1      33.858  22.546  27.345  1.00  0.00    -0.167 F 
ATOM     28  F   UNL A   1      31.742  22.930  27.659  1.00  0.00    -0.167 F 
ATOM     29  F   UNL A   1      32.398  21.838  25.901  1.00  0.00    -0.167 F 
ENDBRANCH  16  26
ENDBRANCH   4   6
ENDBRANCH   3   4
ENDBRANCH   2   3
ENDBRANCH   1   2
BRANCH   1  30
ATOM     30  O   UNL A   1      37.734  19.742  24.603  1.00  0.00    -0.374 OA
BRANCH  30  31
ATOM     31  C   UNL A   1      38.769  19.259  25.456  1.00  0.00     0.202 C 
BRANCH  31  32
ATOM     32  C   UNL A   1      39.707  20.269  26.123  1.00  0.00     0.261 C 
BRANCH  32  33
ATOM     33  O   UNL A   1      40.858  19.671  26.738  1.00  0.00    -0.460 OA
BRANCH  33  34
ATOM     34  C   UNL A   1      42.023  19.903  26.093  1.00  0.00     0.338 C 
ATOM     35  O   UNL A   1      42.538  19.228  25.209  1.00  0.00    -0.246 OA
BRANCH  34  36
ATOM     36  C   UNL A   1      42.564  21.208  26.493  1.00  0.00     0.060 A 
ATOM     37  C   UNL A   1      42.524  21.553  27.850  1.00  0.00     0.016 A 
ATOM     38  C   UNL A   1      43.001  22.122  25.534  1.00  0.00     0.016 A 
ATOM     39  C   UNL A   1      42.892  22.834  28.251  1.00  0.00     0.010 A 
ATOM     40  C   UNL A   1      43.361  23.410  25.936  1.00  0.00     0.010 A 
ATOM     41  C   UNL A   1      43.277  23.780  27.292  1.00  0.00    -0.014 A 
BRANCH  41  42
ATOM     42  C   UNL A   1      43.464  25.195  27.688  1.00  0.00     0.031 A 
ATOM     43  C   UNL A   1      44.857  25.743  27.805  1.00  0.00     0.074 A 
ATOM     44  C   UNL A   1      42.400  25.980  27.928  1.00  0.00     0.049 A 
ATOM     45  N   UNL A   1      45.254  26.926  28.197  1.00  0.00    -0.248 NA
ATOM     46  C   UNL A   1      45.952  24.832  27.435  1.00  0.00     0.031 C 
ATOM     47  C   UNL A   1      41.002  25.566  27.811  1.00  0.00     0.029 A 
ATOM     48  N   UNL A   1      42.333  27.289  28.331  1.00  0.00    -0.354 N 
ATOM     49  C   UNL A   1      46.641  26.900  28.128  1.00  0.00     0.074 A 
ATOM     50  C   UNL A   1      47.019  25.573  27.692  1.00  0.00     0.031 C 
ATOM     51  C   UNL A   1      40.214  26.599  28.152  1.00  0.00     0.029 A 
ATOM     52  C   UNL A   1      41.051  27.731  28.545  1.00  0.00     0.049 A 
ATOM     53  H   UNL A   1      43.127  27.856  28.455  1.00  0.00     0.167 HD
ATOM     54  C   UNL A   1      47.518  27.897  28.394  1.00  0.00     0.037 A 
ATOM     55  C   UNL A   1      40.607  28.905  29.030  1.00  0.00     0.037 A 
ATOM     56  C   UNL A   1      47.133  29.213  28.834  1.00  0.00     0.049 A 
ATOM     57  C   UNL A   1      41.605  29.975  29.390  1.00  0.00     0.074 A 
ATOM     58  C   UNL A   1      47.941  30.299  29.119  1.00  0.00     0.029 A 
ATOM     59  N   UNL A   1      45.825  29.617  29.059  1.00  0.00    -0.354 N 
ATOM     60  N   UNL A   1      42.913  29.951  29.301  1.00  0.00    -0.248 NA
ATOM     61  C   UNL A   1      41.063  31.236  29.914  1.00  0.00     0.031 C 
ATOM     62  C   UNL A   1      47.127  31.342  29.572  1.00  0.00     0.029 A 
ATOM     63  C   UNL A   1      45.806  30.928  29.507  1.00  0.00     0.049 A 
ATOM     64  H   UNL A   1      45.028  29.055  28.922  1.00  0.00     0.167 HD
ATOM     65  C   UNL A   1      43.349  31.199  29.728  1.00  0.00     0.074 A 
ATOM     66  C   UNL A   1      42.163  31.960  30.063  1.00  0.00     0.031 C 
ATOM     67  C   UNL A   1      44.615  31.673  29.832  1.00  0.00     0.037 A 
BRANCH  54  68
ATOM     68  C   UNL A   1      48.982  27.591  28.244  1.00  0.00     0.057 A 
ATOM     69  C   UNL A   1      49.753  27.107  29.309  1.00  0.00     0.134 A 
ATOM     70  C   UNL A   1      49.623  27.761  27.009  1.00  0.00     0.134 A 
ATOM     71  F   UNL A   1      49.206  26.934  30.522  1.00  0.00    -0.206 F 
ATOM     72  C   UNL A   1      51.113  26.829  29.159  1.00  0.00     0.040 A 
ATOM     73  C   UNL A   1      50.975  27.458  26.840  1.00  0.00     0.040 A 
ATOM     74  F   UNL A   1      48.945  28.215  25.945  1.00  0.00    -0.206 F 
ATOM     75  C   UNL A   1      51.726  26.998  27.919  1.00  0.00     0.006 A 
ENDBRANCH  54  68
BRANCH  55  76
ATOM     76  C   UNL A   1      39.151  29.127  29.220  1.00  0.00     0.057 A 
ATOM     77  C   UNL A   1      38.538  28.914  30.460  1.00  0.00     0.134 A 
ATOM     78  C   UNL A   1      38.336  29.546  28.162  1.00  0.00     0.134 A 
ATOM     79  F   UNL A   1      39.262  28.491  31.507  1.00  0.00    -0.206 F 
ATOM     80  C   UNL A   1      37.165  29.092  30.637  1.00  0.00     0.040 A 
ATOM     81  C   UNL A   1      36.966  29.756  28.332  1.00  0.00     0.040 A 
ATOM     82  F   UNL A   1      38.862  29.771  26.949  1.00  0.00    -0.206 F 
ATOM     83  C   UNL A   1      36.376  29.520  29.571  1.00  0.00     0.006 A 
ENDBRANCH  55  76
BRANCH  67  84
ATOM     84  C   UNL A   1      44.782  33.096  30.286  1.00  0.00     0.057 A 
ATOM     85  C   UNL A   1      44.758  34.171  29.389  1.00  0.00     0.134 A 
ATOM     86  C   UNL A   1      44.928  33.394  31.647  1.00  0.00     0.134 A 
ATOM     87  F   UNL A   1      44.633  33.955  28.071  1.00  0.00    -0.206 F 
ATOM     88  C   UNL A   1      44.900  35.489  29.827  1.00  0.00     0.040 A 
ATOM     89  C   UNL A   1      45.040  34.709  32.100  1.00  0.00     0.040 A 
ATOM     90  F   UNL A   1      44.948  32.413  32.562  1.00  0.00    -0.206 F 
ATOM     91  C   UNL A   1      45.034  35.761  31.187  1.00  0.00     0.006 A 
ENDBRANCH  67  84
ENDBRANCH  41  42
ENDBRANCH  34  36
ENDBRANCH  33  34
ENDBRANCH  32  33
ENDBRANCH  31  32
ENDBRANCH  30  31
ENDBRANCH   1  30
TORSDOF 18
ENDMDL
MODEL 3
REMARK VINA RESULT:     -11.5      3.542      8.519
REMARK SMILES CCSc1ccc(-c2cc(Cl)cc3c2O[C@@H](C(F)(F)F)C(C(=O)OCCOCCOC(=O)c2ccc(-c4c5nc(c(-c6c(F)cccc6F)c6ccc([nH]6)c(-c6c(F)cccc6F)c6nc(c(-c7c(F)cccc7F)c7ccc4[nH]7)C=C6)C=C5)cc2)=C3)cc1
REMARK SMILES IDX 26 1 25 2 24 3 22 4 23 5 21 6 8 7 9 8 14 9 10 10 13 11 15 12
REMARK SMILES IDX 11 13 12 14 87 15 16 16 7 17 4 18 5 19 89 20 6 21 88 22 3 23
REMARK SMILES IDX 2 24 1 25 17 26 18 27 19 28 20 29 27 30 28 31 29 32 30 33
REMARK SMILES IDX 31 34 32 35 33 36 34 37 86 38 35 39 85 40 36 41 37 42 38 43
REMARK SMILES IDX 79 44 39 45 84 46 78 47 80 48 40 49 83 50 77 51 76 52 41 54
REMARK SMILES IDX 67 55 50 56 66 57 51 58 54 59 65 60 81 61 52 62 53 63 64 65
REMARK SMILES IDX 82 66 55 67 42 68 43 69 48 70 44 71 45 72 47 73 49 74 46 75
REMARK SMILES IDX 68 76 69 77 74 78 70 79 71 80 73 81 75 82 72 83 56 84 57 85
REMARK SMILES IDX 62 86 58 87 59 88 61 89 63 90 60 91
REMARK H PARENT 80 53 54 64
REMARK Flexibility Score: inf
ROOT
ATOM      1  C   UNL A   1      37.399  21.216  25.393  1.00  0.00     0.202 C 
ENDROOT
BRANCH   1   2
ATOM      2  C   UNL A   1      36.910  22.112  24.244  1.00  0.00     0.261 C 
BRANCH   2   3
ATOM      3  O   UNL A   1      36.221  23.287  24.696  1.00  0.00    -0.460 OA
BRANCH   3   4
ATOM      4  C   UNL A   1      34.913  23.359  24.384  1.00  0.00     0.338 C 
ATOM      5  O   UNL A   1      34.325  22.595  23.629  1.00  0.00    -0.246 OA
BRANCH   4   6
ATOM      6  C   UNL A   1      34.193  24.374  25.188  1.00  0.00     0.087 C 
ATOM      7  C   UNL A   1      30.880  26.139  23.391  1.00  0.00     0.026 A 
ATOM      8  C   UNL A   1      31.103  25.971  22.005  1.00  0.00     0.033 A 
ATOM      9  C   UNL A   1      31.945  25.711  24.218  1.00  0.00     0.135 A 
ATOM     10  C   UNL A   1      32.391  25.786  21.501  1.00  0.00     0.042 A 
ATOM     11  C   UNL A   1      33.259  25.784  23.726  1.00  0.00     0.019 A 
ATOM     12  O   UNL A   1      31.699  24.761  25.233  1.00  0.00    -0.475 OA
ATOM     13  Cl  UNL A   1      32.631  25.661  19.805  1.00  0.00    -0.084 Cl
ATOM     14  C   UNL A   1      33.483  25.799  22.355  1.00  0.00     0.032 A 
ATOM     15  C   UNL A   1      34.386  25.597  24.665  1.00  0.00     0.027 C 
ATOM     16  C   UNL A   1      32.890  24.210  25.941  1.00  0.00     0.316 C 
BRANCH   7  17
ATOM     17  C   UNL A   1      30.013  27.350  23.687  1.00  0.00    -0.015 A 
ATOM     18  C   UNL A   1      28.500  29.788  23.318  1.00  0.00     0.007 A 
ATOM     19  C   UNL A   1      27.886  28.543  23.224  1.00  0.00     0.015 A 
ATOM     20  C   UNL A   1      29.853  29.806  23.689  1.00  0.00     0.015 A 
ATOM     21  C   UNL A   1      28.624  27.351  23.424  1.00  0.00     0.010 A 
ATOM     22  C   UNL A   1      30.593  28.617  23.875  1.00  0.00     0.010 A 
BRANCH  18  23
ATOM     23  S   UNL A   1      27.738  31.383  23.015  1.00  0.00    -0.126 SA
BRANCH  23  24
ATOM     24  C   UNL A   1      28.700  32.201  21.687  1.00  0.00     0.071 C 
ATOM     25  C   UNL A   1      28.029  32.110  20.326  1.00  0.00     0.016 C 
ENDBRANCH  23  24
ENDBRANCH  18  23
ENDBRANCH   7  17
BRANCH  16  26
ATOM     26  C   UNL A   1      32.715  22.840  26.637  1.00  0.00     0.430 C 
ATOM     27  F   UNL A   1      31.821  22.969  27.657  1.00  0.00    -0.167 F 
ATOM     28  F   UNL A   1      32.203  21.910  25.799  1.00  0.00    -0.167 F 
ATOM     29  F   UNL A   1      33.836  22.321  27.170  1.00  0.00    -0.167 F 
ENDBRANCH  16  26
ENDBRANCH   4   6
ENDBRANCH   3   4
ENDBRANCH   2   3
ENDBRANCH   1   2
BRANCH   1  30
ATOM     30  O   UNL A   1      38.728  20.713  25.347  1.00  0.00    -0.374 OA
BRANCH  30  31
ATOM     31  C   UNL A   1      39.710  21.319  26.185  1.00  0.00     0.202 C 
BRANCH  31  32
ATOM     32  C   UNL A   1      39.574  22.805  26.525  1.00  0.00     0.261 C 
BRANCH  32  33
ATOM     33  O   UNL A   1      40.636  23.308  27.349  1.00  0.00    -0.460 OA
BRANCH  33  34
ATOM     34  C   UNL A   1      41.243  24.416  26.869  1.00  0.00     0.338 C 
ATOM     35  O   UNL A   1      41.870  24.533  25.822  1.00  0.00    -0.246 OA
BRANCH  34  36
ATOM     36  C   UNL A   1      40.926  25.569  27.721  1.00  0.00     0.060 A 
ATOM     37  C   UNL A   1      41.902  26.562  27.881  1.00  0.00     0.016 A 
ATOM     38  C   UNL A   1      39.730  25.617  28.438  1.00  0.00     0.016 A 
ATOM     39  C   UNL A   1      41.697  27.594  28.791  1.00  0.00     0.010 A 
ATOM     40  C   UNL A   1      39.531  26.649  29.358  1.00  0.00     0.010 A 
ATOM     41  C   UNL A   1      40.527  27.622  29.561  1.00  0.00    -0.014 A 
BRANCH  41  42
ATOM     42  C   UNL A   1      40.402  28.593  30.673  1.00  0.00     0.031 A 
ATOM     43  C   UNL A   1      39.390  29.698  30.567  1.00  0.00     0.074 A 
ATOM     44  C   UNL A   1      41.174  28.477  31.767  1.00  0.00     0.049 A 
ATOM     45  N   UNL A   1      39.156  30.690  31.387  1.00  0.00    -0.248 NA
ATOM     46  C   UNL A   1      38.531  29.687  29.373  1.00  0.00     0.031 C 
ATOM     47  C   UNL A   1      42.163  27.424  31.994  1.00  0.00     0.029 A 
ATOM     48  N   UNL A   1      41.253  29.264  32.888  1.00  0.00    -0.354 N 
ATOM     49  C   UNL A   1      38.129  31.424  30.807  1.00  0.00     0.074 A 
ATOM     50  C   UNL A   1      37.811  30.784  29.548  1.00  0.00     0.031 C 
ATOM     51  C   UNL A   1      42.763  27.641  33.176  1.00  0.00     0.029 A 
ATOM     52  C   UNL A   1      42.226  28.864  33.769  1.00  0.00     0.049 A 
ATOM     53  H   UNL A   1      40.668  30.040  33.044  1.00  0.00     0.167 HD
ATOM     54  C   UNL A   1      37.503  32.525  31.286  1.00  0.00     0.037 A 
ATOM     55  C   UNL A   1      42.653  29.438  34.909  1.00  0.00     0.037 A 
ATOM     56  C   UNL A   1      37.831  33.158  32.537  1.00  0.00     0.049 A 
ATOM     57  C   UNL A   1      41.992  30.704  35.386  1.00  0.00     0.074 A 
ATOM     58  C   UNL A   1      37.251  34.269  33.120  1.00  0.00     0.029 A 
ATOM     59  N   UNL A   1      38.838  32.736  33.393  1.00  0.00    -0.354 N 
ATOM     60  N   UNL A   1      41.007  31.379  34.843  1.00  0.00    -0.248 NA
ATOM     61  C   UNL A   1      42.498  31.285  36.637  1.00  0.00     0.031 C 
ATOM     62  C   UNL A   1      37.943  34.554  34.302  1.00  0.00     0.029 A 
ATOM     63  C   UNL A   1      38.913  33.583  34.488  1.00  0.00     0.049 A 
ATOM     64  H   UNL A   1      39.415  31.952  33.245  1.00  0.00     0.167 HD
ATOM     65  C   UNL A   1      40.756  32.445  35.698  1.00  0.00     0.074 A 
ATOM     66  C   UNL A   1      41.685  32.318  36.803  1.00  0.00     0.031 C 
ATOM     67  C   UNL A   1      39.841  33.438  35.582  1.00  0.00     0.037 A 
BRANCH  54  68
ATOM     68  C   UNL A   1      36.419  33.129  30.439  1.00  0.00     0.057 A 
ATOM     69  C   UNL A   1      36.705  33.971  29.356  1.00  0.00     0.134 A 
ATOM     70  C   UNL A   1      35.071  32.846  30.696  1.00  0.00     0.134 A 
ATOM     71  F   UNL A   1      37.973  34.295  29.062  1.00  0.00    -0.206 F 
ATOM     72  C   UNL A   1      35.689  34.530  28.577  1.00  0.00     0.040 A 
ATOM     73  C   UNL A   1      34.049  33.376  29.906  1.00  0.00     0.040 A 
ATOM     74  F   UNL A   1      34.725  32.044  31.714  1.00  0.00    -0.206 F 
ATOM     75  C   UNL A   1      34.357  34.227  28.848  1.00  0.00     0.006 A 
ENDBRANCH  54  68
BRANCH  55  76
ATOM     76  C   UNL A   1      43.774  28.831  35.671  1.00  0.00     0.057 A 
ATOM     77  C   UNL A   1      45.104  29.189  35.418  1.00  0.00     0.134 A 
ATOM     78  C   UNL A   1      43.544  27.868  36.661  1.00  0.00     0.134 A 
ATOM     79  F   UNL A   1      45.391  30.090  34.467  1.00  0.00    -0.206 F 
ATOM     80  C   UNL A   1      46.164  28.600  36.110  1.00  0.00     0.040 A 
ATOM     81  C   UNL A   1      44.592  27.293  37.380  1.00  0.00     0.040 A 
ATOM     82  F   UNL A   1      42.293  27.484  36.954  1.00  0.00    -0.206 F 
ATOM     83  C   UNL A   1      45.908  27.652  37.099  1.00  0.00     0.006 A 
ENDBRANCH  55  76
BRANCH  67  84
ATOM     84  C   UNL A   1      39.767  34.442  36.698  1.00  0.00     0.057 A 
ATOM     85  C   UNL A   1      40.437  35.671  36.637  1.00  0.00     0.134 A 
ATOM     86  C   UNL A   1      38.981  34.190  37.830  1.00  0.00     0.134 A 
ATOM     87  F   UNL A   1      41.216  35.971  35.587  1.00  0.00    -0.206 F 
ATOM     88  C   UNL A   1      40.348  36.601  37.675  1.00  0.00     0.040 A 
ATOM     89  C   UNL A   1      38.860  35.124  38.859  1.00  0.00     0.040 A 
ATOM     90  F   UNL A   1      38.304  33.038  37.947  1.00  0.00    -0.206 F 
ATOM     91  C   UNL A   1      39.552  36.332  38.787  1.00  0.00     0.006 A 
ENDBRANCH  67  84
ENDBRANCH  41  42
ENDBRANCH  34  36
ENDBRANCH  33  34
ENDBRANCH  32  33
ENDBRANCH  31  32
ENDBRANCH  30  31
ENDBRANCH   1  30
TORSDOF 18
ENDMDL
