MODEL 1
REMARK VINA RESULT:     -11.3      0.000      0.000
REMARK SMILES CC(C)c1ccc([C@]2(C(=O)OCCOCCOC(=O)c3ccc(-c4c5nc(c(-c6c(F)cccc6F)c6ccc([nH]6)c(-c6c(F)cccc6F)c6nc(c(-c7c(F)cccc7F)c7ccc4[nH]7)C=C6)C=C5)cc3)CCC[C@@H]2C)cc1
REMARK SMILES IDX 14 1 13 2 12 3 11 4 9 5 10 6 8 7 74 8 77 9 75 10 76 11 78 12
REMARK SMILES IDX 7 13 4 14 5 15 80 16 6 17 79 18 2 19 1 20 3 21 15 22 16 23
REMARK SMILES IDX 17 24 18 25 19 26 20 27 21 28 73 29 22 30 72 31 23 32 24 33
REMARK SMILES IDX 25 34 66 35 26 36 71 37 65 38 67 39 27 40 70 41 64 42 63 43
REMARK SMILES IDX 28 45 54 46 37 47 53 48 38 49 41 50 52 51 68 52 39 53 40 54
REMARK SMILES IDX 51 56 69 57 42 58 29 59 30 60 35 61 31 62 32 63 34 64 36 65
REMARK SMILES IDX 33 66 55 67 56 68 61 69 57 70 58 71 60 72 62 73 59 74 43 75
REMARK SMILES IDX 44 76 49 77 45 78 46 79 48 80 50 81 47 82
REMARK H PARENT 67 44 41 55
REMARK Flexibility Score: inf
ROOT
ATOM      1  O   UNL A   1      31.649  30.054  26.490  1.00  0.00    -0.374 OA
ENDROOT
BRANCH   1   2
ATOM      2  C   UNL A   1      32.996  29.611  26.311  1.00  0.00     0.202 C 
BRANCH   2   3
ATOM      3  C   UNL A   1      33.379  28.328  27.050  1.00  0.00     0.261 C 
BRANCH   3   4
ATOM      4  O   UNL A   1      33.446  27.230  26.124  1.00  0.00    -0.463 OA
BRANCH   4   5
ATOM      5  C   UNL A   1      32.283  26.549  25.940  1.00  0.00     0.316 C 
ATOM      6  O   UNL A   1      31.562  26.175  26.859  1.00  0.00    -0.251 OA
BRANCH   5   7
ATOM      7  C   UNL A   1      31.976  26.270  24.436  1.00  0.00     0.095 C 
ATOM      8  C   UNL A   1      33.223  26.321  23.515  1.00  0.00     0.024 C 
ATOM      9  C   UNL A   1      31.618  24.751  24.358  1.00  0.00     0.008 C 
ATOM     10  C   UNL A   1      33.948  24.984  23.674  1.00  0.00     0.002 C 
ATOM     11  C   UNL A   1      32.998  24.073  24.444  1.00  0.00     0.005 C 
ATOM     12  C   UNL A   1      30.907  24.293  23.079  1.00  0.00     0.009 C 
BRANCH   7  13
ATOM     13  C   UNL A   1      30.880  27.265  24.018  1.00  0.00    -0.030 A 
ATOM     14  C   UNL A   1      28.885  29.066  23.012  1.00  0.00    -0.045 A 
ATOM     15  C   UNL A   1      30.241  29.416  23.038  1.00  0.00     0.004 A 
ATOM     16  C   UNL A   1      28.544  27.805  23.525  1.00  0.00     0.004 A 
ATOM     17  C   UNL A   1      31.217  28.532  23.519  1.00  0.00     0.005 A 
ATOM     18  C   UNL A   1      29.519  26.920  24.007  1.00  0.00     0.005 A 
BRANCH  14  19
ATOM     19  C   UNL A   1      27.799  30.004  22.489  1.00  0.00     0.013 C 
ATOM     20  C   UNL A   1      27.518  31.226  23.376  1.00  0.00     0.012 C 
ATOM     21  C   UNL A   1      28.095  30.507  21.066  1.00  0.00     0.012 C 
ENDBRANCH  14  19
ENDBRANCH   7  13
ENDBRANCH   5   7
ENDBRANCH   4   5
ENDBRANCH   3   4
ENDBRANCH   2   3
ENDBRANCH   1   2
BRANCH   1  22
ATOM     22  C   UNL A   1      31.342  31.394  26.110  1.00  0.00     0.202 C 
BRANCH  22  23
ATOM     23  C   UNL A   1      31.533  32.462  27.195  1.00  0.00     0.261 C 
BRANCH  23  24
ATOM     24  O   UNL A   1      32.652  33.329  26.930  1.00  0.00    -0.460 OA
BRANCH  24  25
ATOM     25  C   UNL A   1      33.251  33.829  28.036  1.00  0.00     0.338 C 
ATOM     26  O   UNL A   1      32.798  34.663  28.813  1.00  0.00    -0.246 OA
BRANCH  25  27
ATOM     27  C   UNL A   1      34.506  33.113  28.315  1.00  0.00     0.060 A 
ATOM     28  C   UNL A   1      34.407  31.775  28.718  1.00  0.00     0.016 A 
ATOM     29  C   UNL A   1      35.747  33.754  28.280  1.00  0.00     0.016 A 
ATOM     30  C   UNL A   1      35.543  31.087  29.138  1.00  0.00     0.010 A 
ATOM     31  C   UNL A   1      36.885  33.064  28.713  1.00  0.00     0.010 A 
ATOM     32  C   UNL A   1      36.781  31.740  29.180  1.00  0.00    -0.014 A 
BRANCH  32  33
ATOM     33  C   UNL A   1      37.921  31.082  29.864  1.00  0.00     0.031 A 
ATOM     34  C   UNL A   1      38.177  31.392  31.313  1.00  0.00     0.074 A 
ATOM     35  C   UNL A   1      38.684  30.180  29.223  1.00  0.00     0.049 A 
ATOM     36  N   UNL A   1      39.106  30.930  32.111  1.00  0.00    -0.248 NA
ATOM     37  C   UNL A   1      37.259  32.350  31.951  1.00  0.00     0.031 C 
ATOM     38  C   UNL A   1      38.511  29.762  27.834  1.00  0.00     0.029 A 
ATOM     39  N   UNL A   1      39.761  29.452  29.665  1.00  0.00    -0.354 N 
ATOM     40  C   UNL A   1      38.886  31.539  33.339  1.00  0.00     0.074 A 
ATOM     41  C   UNL A   1      37.754  32.426  33.177  1.00  0.00     0.031 C 
ATOM     42  C   UNL A   1      39.455  28.853  27.533  1.00  0.00     0.029 A 
ATOM     43  C   UNL A   1      40.312  28.646  28.700  1.00  0.00     0.049 A 
ATOM     44  H   UNL A   1      40.105  29.503  30.585  1.00  0.00     0.167 HD
ATOM     45  C   UNL A   1      39.559  31.367  34.502  1.00  0.00     0.037 A 
ATOM     46  C   UNL A   1      41.392  27.843  28.751  1.00  0.00     0.037 A 
ATOM     47  C   UNL A   1      40.683  30.484  34.667  1.00  0.00     0.049 A 
ATOM     48  C   UNL A   1      42.167  27.723  30.036  1.00  0.00     0.074 A 
ATOM     49  C   UNL A   1      41.420  30.230  35.810  1.00  0.00     0.029 A 
ATOM     50  N   UNL A   1      41.235  29.715  33.656  1.00  0.00    -0.354 N 
ATOM     51  N   UNL A   1      41.936  28.285  31.197  1.00  0.00    -0.248 NA
ATOM     52  C   UNL A   1      43.352  26.852  30.017  1.00  0.00     0.031 C 
ATOM     53  C   UNL A   1      42.447  29.339  35.480  1.00  0.00     0.029 A 
ATOM     54  C   UNL A   1      42.321  29.005  34.142  1.00  0.00     0.049 A 
ATOM     55  H   UNL A   1      40.906  29.678  32.729  1.00  0.00     0.167 HD
ATOM     56  C   UNL A   1      42.928  27.818  32.052  1.00  0.00     0.074 A 
ATOM     57  C   UNL A   1      43.757  26.918  31.277  1.00  0.00     0.031 C 
ATOM     58  C   UNL A   1      43.133  28.108  33.360  1.00  0.00     0.037 A 
BRANCH  45  59
ATOM     59  C   UNL A   1      39.107  32.171  35.685  1.00  0.00     0.057 A 
ATOM     60  C   UNL A   1      38.239  31.643  36.650  1.00  0.00     0.134 A 
ATOM     61  C   UNL A   1      39.567  33.480  35.876  1.00  0.00     0.134 A 
ATOM     62  F   UNL A   1      37.752  30.399  36.517  1.00  0.00    -0.206 F 
ATOM     63  C   UNL A   1      37.830  32.395  37.752  1.00  0.00     0.040 A 
ATOM     64  C   UNL A   1      39.183  34.234  36.984  1.00  0.00     0.040 A 
ATOM     65  F   UNL A   1      40.402  34.044  34.989  1.00  0.00    -0.206 F 
ATOM     66  C   UNL A   1      38.308  33.693  37.925  1.00  0.00     0.006 A 
ENDBRANCH  45  59
BRANCH  46  67
ATOM     67  C   UNL A   1      41.818  27.095  27.542  1.00  0.00     0.057 A 
ATOM     68  C   UNL A   1      42.630  27.687  26.569  1.00  0.00     0.134 A 
ATOM     69  C   UNL A   1      41.400  25.777  27.320  1.00  0.00     0.134 A 
ATOM     70  F   UNL A   1      43.041  28.956  26.714  1.00  0.00    -0.206 F 
ATOM     71  C   UNL A   1      43.004  27.001  25.413  1.00  0.00     0.040 A 
ATOM     72  C   UNL A   1      41.784  25.071  26.178  1.00  0.00     0.040 A 
ATOM     73  F   UNL A   1      40.618  25.154  28.214  1.00  0.00    -0.206 F 
ATOM     74  C   UNL A   1      42.584  25.686  25.217  1.00  0.00     0.006 A 
ENDBRANCH  46  67
BRANCH  58  75
ATOM     75  C   UNL A   1      44.279  27.424  34.045  1.00  0.00     0.057 A 
ATOM     76  C   UNL A   1      44.139  26.162  34.636  1.00  0.00     0.134 A 
ATOM     77  C   UNL A   1      45.548  28.017  34.076  1.00  0.00     0.134 A 
ATOM     78  F   UNL A   1      42.947  25.546  34.650  1.00  0.00    -0.206 F 
ATOM     79  C   UNL A   1      45.217  25.523  35.251  1.00  0.00     0.040 A 
ATOM     80  C   UNL A   1      46.637  27.378  34.667  1.00  0.00     0.040 A 
ATOM     81  F   UNL A   1      45.750  29.221  33.520  1.00  0.00    -0.206 F 
ATOM     82  C   UNL A   1      46.472  26.128  35.262  1.00  0.00     0.006 A 
ENDBRANCH  58  75
ENDBRANCH  32  33
ENDBRANCH  25  27
ENDBRANCH  24  25
ENDBRANCH  23  24
ENDBRANCH  22  23
ENDBRANCH   1  22
TORSDOF 16
ENDMDL
MODEL 2
REMARK VINA RESULT:     -10.9      4.658      9.993
REMARK SMILES CC(C)c1ccc([C@]2(C(=O)OCCOCCOC(=O)c3ccc(-c4c5nc(c(-c6c(F)cccc6F)c6ccc([nH]6)c(-c6c(F)cccc6F)c6nc(c(-c7c(F)cccc7F)c7ccc4[nH]7)C=C6)C=C5)cc3)CCC[C@@H]2C)cc1
REMARK SMILES IDX 14 1 13 2 12 3 11 4 9 5 10 6 8 7 74 8 77 9 75 10 76 11 78 12
REMARK SMILES IDX 7 13 4 14 5 15 80 16 6 17 79 18 2 19 1 20 3 21 15 22 16 23
REMARK SMILES IDX 17 24 18 25 19 26 20 27 21 28 73 29 22 30 72 31 23 32 24 33
REMARK SMILES IDX 25 34 66 35 26 36 71 37 65 38 67 39 27 40 70 41 64 42 63 43
REMARK SMILES IDX 28 45 54 46 37 47 53 48 38 49 41 50 52 51 68 52 39 53 40 54
REMARK SMILES IDX 51 56 69 57 42 58 29 59 30 60 35 61 31 62 32 63 34 64 36 65
REMARK SMILES IDX 33 66 55 67 56 68 61 69 57 70 58 71 60 72 62 73 59 74 43 75
REMARK SMILES IDX 44 76 49 77 45 78 46 79 48 80 50 81 47 82
REMARK H PARENT 67 44 41 55
REMARK Flexibility Score: inf
ROOT
ATOM      1  O   UNL A   1      37.976  21.011  24.385  1.00  0.00    -0.374 OA
ENDROOT
BRANCH   1   2
ATOM      2  C   UNL A   1      37.046  22.017  24.792  1.00  0.00     0.202 C 
BRANCH   2   3
ATOM      3  C   UNL A   1      36.528  22.933  23.682  1.00  0.00     0.261 C 
BRANCH   3   4
ATOM      4  O   UNL A   1      35.687  23.956  24.242  1.00  0.00    -0.463 OA
BRANCH   4   5
ATOM      5  C   UNL A   1      34.481  24.120  23.634  1.00  0.00     0.316 C 
ATOM      6  O   UNL A   1      34.353  24.468  22.465  1.00  0.00    -0.251 OA
BRANCH   5   7
ATOM      7  C   UNL A   1      33.279  23.841  24.589  1.00  0.00     0.095 C 
ATOM      8  C   UNL A   1      33.485  24.362  26.035  1.00  0.00     0.024 C 
ATOM      9  C   UNL A   1      32.132  24.783  24.101  1.00  0.00     0.008 C 
ATOM     10  C   UNL A   1      33.194  25.864  26.013  1.00  0.00     0.002 C 
ATOM     11  C   UNL A   1      32.560  26.154  24.656  1.00  0.00     0.005 C 
ATOM     12  C   UNL A   1      30.725  24.447  24.606  1.00  0.00     0.009 C 
BRANCH   7  13
ATOM     13  C   UNL A   1      33.010  22.328  24.528  1.00  0.00    -0.030 A 
ATOM     14  C   UNL A   1      32.711  19.484  24.297  1.00  0.00    -0.045 A 
ATOM     15  C   UNL A   1      32.395  20.341  23.235  1.00  0.00     0.004 A 
ATOM     16  C   UNL A   1      33.154  20.081  25.487  1.00  0.00     0.004 A 
ATOM     17  C   UNL A   1      32.552  21.730  23.345  1.00  0.00     0.005 A 
ATOM     18  C   UNL A   1      33.310  21.471  25.598  1.00  0.00     0.005 A 
BRANCH  14  19
ATOM     19  C   UNL A   1      32.557  17.966  24.208  1.00  0.00     0.013 C 
ATOM     20  C   UNL A   1      33.531  17.273  23.243  1.00  0.00     0.012 C 
ATOM     21  C   UNL A   1      32.682  17.284  25.580  1.00  0.00     0.012 C 
ENDBRANCH  14  19
ENDBRANCH   7  13
ENDBRANCH   5   7
ENDBRANCH   4   5
ENDBRANCH   3   4
ENDBRANCH   2   3
ENDBRANCH   1   2
BRANCH   1  22
ATOM     22  C   UNL A   1      37.848  19.719  24.977  1.00  0.00     0.202 C 
BRANCH  22  23
ATOM     23  C   UNL A   1      38.995  19.283  25.897  1.00  0.00     0.261 C 
BRANCH  23  24
ATOM     24  O   UNL A   1      40.292  19.500  25.310  1.00  0.00    -0.460 OA
BRANCH  24  25
ATOM     25  C   UNL A   1      41.296  19.653  26.204  1.00  0.00     0.338 C 
ATOM     26  O   UNL A   1      42.160  18.832  26.497  1.00  0.00    -0.246 OA
BRANCH  25  27
ATOM     27  C   UNL A   1      41.342  21.038  26.701  1.00  0.00     0.060 A 
ATOM     28  C   UNL A   1      41.002  22.055  25.801  1.00  0.00     0.016 A 
ATOM     29  C   UNL A   1      41.800  21.348  27.984  1.00  0.00     0.016 A 
ATOM     30  C   UNL A   1      41.167  23.390  26.162  1.00  0.00     0.010 A 
ATOM     31  C   UNL A   1      41.976  22.690  28.340  1.00  0.00     0.010 A 
ATOM     32  C   UNL A   1      41.696  23.715  27.417  1.00  0.00    -0.014 A 
BRANCH  32  33
ATOM     33  C   UNL A   1      42.103  25.116  27.688  1.00  0.00     0.031 A 
ATOM     34  C   UNL A   1      43.453  25.585  27.219  1.00  0.00     0.074 A 
ATOM     35  C   UNL A   1      41.264  25.974  28.291  1.00  0.00     0.049 A 
ATOM     36  N   UNL A   1      44.011  26.762  27.338  1.00  0.00    -0.248 NA
ATOM     37  C   UNL A   1      44.286  24.593  26.519  1.00  0.00     0.031 C 
ATOM     38  C   UNL A   1      39.915  25.654  28.752  1.00  0.00     0.029 A 
ATOM     39  N   UNL A   1      41.428  27.297  28.618  1.00  0.00    -0.354 N 
ATOM     40  C   UNL A   1      45.256  26.654  26.731  1.00  0.00     0.074 A 
ATOM     41  C   UNL A   1      45.385  25.289  26.269  1.00  0.00     0.031 C 
ATOM     42  C   UNL A   1      39.373  26.752  29.310  1.00  0.00     0.029 A 
ATOM     43  C   UNL A   1      40.348  27.842  29.266  1.00  0.00     0.049 A 
ATOM     44  H   UNL A   1      42.243  27.807  28.407  1.00  0.00     0.167 HD
ATOM     45  C   UNL A   1      46.202  27.608  26.562  1.00  0.00     0.037 A 
ATOM     46  C   UNL A   1      40.171  29.075  29.779  1.00  0.00     0.037 A 
ATOM     47  C   UNL A   1      46.076  28.967  27.018  1.00  0.00     0.049 A 
ATOM     48  C   UNL A   1      41.268  30.099  29.641  1.00  0.00     0.074 A 
ATOM     49  C   UNL A   1      46.973  30.011  26.880  1.00  0.00     0.029 A 
ATOM     50  N   UNL A   1      44.982  29.468  27.707  1.00  0.00    -0.354 N 
ATOM     51  N   UNL A   1      42.430  29.991  29.045  1.00  0.00    -0.248 NA
ATOM     52  C   UNL A   1      41.024  31.416  30.246  1.00  0.00     0.031 C 
ATOM     53  C   UNL A   1      46.441  31.133  27.524  1.00  0.00     0.029 A 
ATOM     54  C   UNL A   1      45.193  30.800  28.023  1.00  0.00     0.049 A 
ATOM     55  H   UNL A   1      44.175  28.954  27.937  1.00  0.00     0.167 HD
ATOM     56  C   UNL A   1      43.044  31.231  29.180  1.00  0.00     0.074 A 
ATOM     57  C   UNL A   1      42.121  32.078  29.906  1.00  0.00     0.031 C 
ATOM     58  C   UNL A   1      44.262  31.632  28.741  1.00  0.00     0.037 A 
BRANCH  45  59
ATOM     59  C   UNL A   1      47.471  27.205  25.873  1.00  0.00     0.057 A 
ATOM     60  C   UNL A   1      47.647  27.372  24.492  1.00  0.00     0.134 A 
ATOM     61  C   UNL A   1      48.540  26.670  26.601  1.00  0.00     0.134 A 
ATOM     62  F   UNL A   1      46.655  27.867  23.736  1.00  0.00    -0.206 F 
ATOM     63  C   UNL A   1      48.834  27.002  23.858  1.00  0.00     0.040 A 
ATOM     64  C   UNL A   1      49.740  26.316  25.983  1.00  0.00     0.040 A 
ATOM     65  F   UNL A   1      48.437  26.486  27.926  1.00  0.00    -0.206 F 
ATOM     66  C   UNL A   1      49.888  26.479  24.606  1.00  0.00     0.006 A 
ENDBRANCH  45  59
BRANCH  46  67
ATOM     67  C   UNL A   1      38.910  29.412  30.483  1.00  0.00     0.057 A 
ATOM     68  C   UNL A   1      37.846  30.028  29.815  1.00  0.00     0.134 A 
ATOM     69  C   UNL A   1      38.748  29.148  31.848  1.00  0.00     0.134 A 
ATOM     70  F   UNL A   1      37.951  30.329  28.512  1.00  0.00    -0.206 F 
ATOM     71  C   UNL A   1      36.671  30.380  30.480  1.00  0.00     0.040 A 
ATOM     72  C   UNL A   1      37.570  29.474  32.522  1.00  0.00     0.040 A 
ATOM     73  F   UNL A   1      39.733  28.561  32.546  1.00  0.00    -0.206 F 
ATOM     74  C   UNL A   1      36.529  30.098  31.838  1.00  0.00     0.006 A 
ENDBRANCH  46  67
BRANCH  58  75
ATOM     75  C   UNL A   1      44.655  33.055  29.006  1.00  0.00     0.057 A 
ATOM     76  C   UNL A   1      45.340  33.428  30.170  1.00  0.00     0.134 A 
ATOM     77  C   UNL A   1      44.383  34.057  28.066  1.00  0.00     0.134 A 
ATOM     78  F   UNL A   1      45.621  32.517  31.114  1.00  0.00    -0.206 F 
ATOM     79  C   UNL A   1      45.723  34.751  30.397  1.00  0.00     0.040 A 
ATOM     80  C   UNL A   1      44.781  35.378  28.271  1.00  0.00     0.040 A 
ATOM     81  F   UNL A   1      43.737  33.764  26.927  1.00  0.00    -0.206 F 
ATOM     82  C   UNL A   1      45.449  35.729  29.443  1.00  0.00     0.006 A 
ENDBRANCH  58  75
ENDBRANCH  32  33
ENDBRANCH  25  27
ENDBRANCH  24  25
ENDBRANCH  23  24
ENDBRANCH  22  23
ENDBRANCH   1  22
TORSDOF 16
ENDMDL
MODEL 3
REMARK VINA RESULT:     -10.9      1.805      3.940
REMARK SMILES CC(C)c1ccc([C@]2(C(=O)OCCOCCOC(=O)c3ccc(-c4c5nc(c(-c6c(F)cccc6F)c6ccc([nH]6)c(-c6c(F)cccc6F)c6nc(c(-c7c(F)cccc7F)c7ccc4[nH]7)C=C6)C=C5)cc3)CCC[C@@H]2C)cc1
REMARK SMILES IDX 14 1 13 2 12 3 11 4 9 5 10 6 8 7 74 8 77 9 75 10 76 11 78 12
REMARK SMILES IDX 7 13 4 14 5 15 80 16 6 17 79 18 2 19 1 20 3 21 15 22 16 23
REMARK SMILES IDX 17 24 18 25 19 26 20 27 21 28 73 29 22 30 72 31 23 32 24 33
REMARK SMILES IDX 25 34 66 35 26 36 71 37 65 38 67 39 27 40 70 41 64 42 63 43
REMARK SMILES IDX 28 45 54 46 37 47 53 48 38 49 41 50 52 51 68 52 39 53 40 54
REMARK SMILES IDX 51 56 69 57 42 58 29 59 30 60 35 61 31 62 32 63 34 64 36 65
REMARK SMILES IDX 33 66 55 67 56 68 61 69 57 70 58 71 60 72 62 73 59 74 43 75
REMARK SMILES IDX 44 76 49 77 45 78 46 79 48 80 50 81 47 82
REMARK H PARENT 67 44 41 55
REMARK Flexibility Score: inf
ROOT
ATOM      1  O   UNL A   1      33.338  28.243  24.861  1.00  0.00    -0.374 OA
ENDROOT
BRANCH   1   2
ATOM      2  C   UNL A   1      33.533  28.640  23.502  1.00  0.00     0.202 C 
BRANCH   2   3
ATOM      3  C   UNL A   1      33.744  27.503  22.500  1.00  0.00     0.261 C 
BRANCH   3   4
ATOM      4  O   UNL A   1      32.663  26.559  22.594  1.00  0.00    -0.463 OA
BRANCH   4   5
ATOM      5  C   UNL A   1      32.992  25.266  22.330  1.00  0.00     0.316 C 
ATOM      6  O   UNL A   1      33.296  24.858  21.214  1.00  0.00    -0.251 OA
BRANCH   5   7
ATOM      7  C   UNL A   1      32.916  24.352  23.591  1.00  0.00     0.095 C 
ATOM      8  C   UNL A   1      32.005  24.904  24.719  1.00  0.00     0.024 C 
ATOM      9  C   UNL A   1      32.101  23.095  23.148  1.00  0.00     0.008 C 
ATOM     10  C   UNL A   1      30.563  24.578  24.326  1.00  0.00     0.002 C 
ATOM     11  C   UNL A   1      30.651  23.614  23.147  1.00  0.00     0.005 C 
ATOM     12  C   UNL A   1      32.201  21.870  24.064  1.00  0.00     0.009 C 
BRANCH   7  13
ATOM     13  C   UNL A   1      34.364  24.115  24.052  1.00  0.00    -0.030 A 
ATOM     14  C   UNL A   1      36.982  23.505  25.057  1.00  0.00    -0.045 A 
ATOM     15  C   UNL A   1      36.095  24.322  25.771  1.00  0.00     0.004 A 
ATOM     16  C   UNL A   1      36.541  23.021  23.816  1.00  0.00     0.004 A 
ATOM     17  C   UNL A   1      34.813  24.610  25.285  1.00  0.00     0.005 A 
ATOM     18  C   UNL A   1      35.258  23.310  23.328  1.00  0.00     0.005 A 
BRANCH  14  19
ATOM     19  C   UNL A   1      38.383  23.166  25.562  1.00  0.00     0.013 C 
ATOM     20  C   UNL A   1      38.813  23.920  26.830  1.00  0.00     0.012 C 
ATOM     21  C   UNL A   1      38.566  21.661  25.817  1.00  0.00     0.012 C 
ENDBRANCH  14  19
ENDBRANCH   7  13
ENDBRANCH   5   7
ENDBRANCH   4   5
ENDBRANCH   3   4
ENDBRANCH   2   3
ENDBRANCH   1   2
BRANCH   1  22
ATOM     22  C   UNL A   1      32.192  28.757  25.537  1.00  0.00     0.202 C 
BRANCH  22  23
ATOM     23  C   UNL A   1      32.212  30.258  25.853  1.00  0.00     0.261 C 
BRANCH  23  24
ATOM     24  O   UNL A   1      32.502  30.531  27.236  1.00  0.00    -0.460 OA
BRANCH  24  25
ATOM     25  C   UNL A   1      33.286  31.614  27.444  1.00  0.00     0.338 C 
ATOM     26  O   UNL A   1      32.938  32.791  27.465  1.00  0.00    -0.246 OA
BRANCH  25  27
ATOM     27  C   UNL A   1      34.649  31.203  27.820  1.00  0.00     0.060 A 
ATOM     28  C   UNL A   1      34.859  29.845  28.089  1.00  0.00     0.016 A 
ATOM     29  C   UNL A   1      35.678  32.131  28.002  1.00  0.00     0.016 A 
ATOM     30  C   UNL A   1      36.085  29.414  28.592  1.00  0.00     0.010 A 
ATOM     31  C   UNL A   1      36.905  31.698  28.519  1.00  0.00     0.010 A 
ATOM     32  C   UNL A   1      37.100  30.344  28.851  1.00  0.00    -0.014 A 
BRANCH  32  33
ATOM     33  C   UNL A   1      38.294  29.913  29.618  1.00  0.00     0.031 A 
ATOM     34  C   UNL A   1      38.495  30.443  31.011  1.00  0.00     0.074 A 
ATOM     35  C   UNL A   1      39.159  29.021  29.106  1.00  0.00     0.049 A 
ATOM     36  N   UNL A   1      39.457  30.198  31.863  1.00  0.00    -0.248 NA
ATOM     37  C   UNL A   1      37.470  31.374  31.512  1.00  0.00     0.031 C 
ATOM     38  C   UNL A   1      39.052  28.401  27.787  1.00  0.00     0.029 A 
ATOM     39  N   UNL A   1      40.301  28.481  29.642  1.00  0.00    -0.354 N 
ATOM     40  C   UNL A   1      39.156  30.940  32.997  1.00  0.00     0.074 A 
ATOM     41  C   UNL A   1      37.937  31.669  32.717  1.00  0.00     0.031 C 
ATOM     42  C   UNL A   1      40.092  27.567  27.612  1.00  0.00     0.029 A 
ATOM     43  C   UNL A   1      40.949  27.615  28.796  1.00  0.00     0.049 A 
ATOM     44  H   UNL A   1      40.625  28.694  30.546  1.00  0.00     0.167 HD
ATOM     45  C   UNL A   1      39.826  31.002  34.172  1.00  0.00     0.037 A 
ATOM     46  C   UNL A   1      42.109  26.949  28.955  1.00  0.00     0.037 A 
ATOM     47  C   UNL A   1      41.037  30.277  34.456  1.00  0.00     0.049 A 
ATOM     48  C   UNL A   1      42.875  27.089  30.244  1.00  0.00     0.074 A 
ATOM     49  C   UNL A   1      41.781  30.263  35.622  1.00  0.00     0.029 A 
ATOM     50  N   UNL A   1      41.683  29.443  33.558  1.00  0.00    -0.354 N 
ATOM     51  N   UNL A   1      42.568  27.776  31.318  1.00  0.00    -0.248 NA
ATOM     52  C   UNL A   1      44.146  26.358  30.343  1.00  0.00     0.031 C 
ATOM     53  C   UNL A   1      42.902  29.452  35.415  1.00  0.00     0.029 A 
ATOM     54  C   UNL A   1      42.832  28.927  34.136  1.00  0.00     0.049 A 
ATOM     55  H   UNL A   1      41.372  29.244  32.645  1.00  0.00     0.167 HD
ATOM     56  C   UNL A   1      43.592  27.541  32.227  1.00  0.00     0.074 A 
ATOM     57  C   UNL A   1      44.525  26.638  31.582  1.00  0.00     0.031 C 
ATOM     58  C   UNL A   1      43.746  28.026  33.483  1.00  0.00     0.037 A 
BRANCH  45  59
ATOM     59  C   UNL A   1      39.274  31.905  35.234  1.00  0.00     0.057 A 
ATOM     60  C   UNL A   1      39.537  33.282  35.243  1.00  0.00     0.134 A 
ATOM     61  C   UNL A   1      38.447  31.399  36.244  1.00  0.00     0.134 A 
ATOM     62  F   UNL A   1      40.334  33.827  34.310  1.00  0.00    -0.206 F 
ATOM     63  C   UNL A   1      39.014  34.119  36.229  1.00  0.00     0.040 A 
ATOM     64  C   UNL A   1      37.899  32.228  37.223  1.00  0.00     0.040 A 
ATOM     65  F   UNL A   1      38.154  30.090  36.291  1.00  0.00    -0.206 F 
ATOM     66  C   UNL A   1      38.186  33.592  37.220  1.00  0.00     0.006 A 
ENDBRANCH  45  59
BRANCH  46  67
ATOM     67  C   UNL A   1      42.630  26.094  27.859  1.00  0.00     0.057 A 
ATOM     68  C   UNL A   1      43.401  26.631  26.823  1.00  0.00     0.134 A 
ATOM     69  C   UNL A   1      42.346  24.724  27.810  1.00  0.00     0.134 A 
ATOM     70  F   UNL A   1      43.685  27.942  26.801  1.00  0.00    -0.206 F 
ATOM     71  C   UNL A   1      43.863  25.839  25.770  1.00  0.00     0.040 A 
ATOM     72  C   UNL A   1      42.820  23.915  26.776  1.00  0.00     0.040 A 
ATOM     73  F   UNL A   1      41.609  24.150  28.773  1.00  0.00    -0.206 F 
ATOM     74  C   UNL A   1      43.577  24.475  25.748  1.00  0.00     0.006 A 
ENDBRANCH  46  67
BRANCH  58  75
ATOM     75  C   UNL A   1      44.949  27.570  34.255  1.00  0.00     0.057 A 
ATOM     76  C   UNL A   1      44.931  26.403  35.030  1.00  0.00     0.134 A 
ATOM     77  C   UNL A   1      46.153  28.284  34.186  1.00  0.00     0.134 A 
ATOM     78  F   UNL A   1      43.807  25.682  35.146  1.00  0.00    -0.206 F 
ATOM     79  C   UNL A   1      46.063  25.974  35.726  1.00  0.00     0.040 A 
ATOM     80  C   UNL A   1      47.296  27.852  34.858  1.00  0.00     0.040 A 
ATOM     81  F   UNL A   1      46.239  29.405  33.454  1.00  0.00    -0.206 F 
ATOM     82  C   UNL A   1      47.252  26.696  35.636  1.00  0.00     0.006 A 
ENDBRANCH  58  75
ENDBRANCH  32  33
ENDBRANCH  25  27
ENDBRANCH  24  25
ENDBRANCH  23  24
ENDBRANCH  22  23
ENDBRANCH   1  22
TORSDOF 16
ENDMDL
