MODEL 1
REMARK VINA RESULT:      -9.3      0.000      0.000
REMARK SMILES CCN(C(=O)C[NH2+][C@@](C)(C(=O)OCCOCCOC(=O)c1ccc(-c2c3nc(c(-c4c(F)cccc4F)c4ccc([nH]4)c(-c4c(F)cccc4F)c4nc(c(-c5c(F)cccc5F)c5ccc2[nH]5)C=C4)C=C3)cc1)C(F)(F)F)C1CC1
REMARK SMILES IDX 13 1 12 2 10 3 11 4 8 5 9 6 7 7 6 10 4 11 5 12 3 13 2 14
REMARK SMILES IDX 1 15 79 16 80 17 81 18 75 19 76 20 77 21 78 22 14 23 15 24
REMARK SMILES IDX 16 25 17 26 18 27 19 28 20 29 21 30 22 31 74 32 23 33 73 34
REMARK SMILES IDX 24 35 25 36 26 37 67 38 27 39 72 40 66 41 68 42 28 43 71 44
REMARK SMILES IDX 65 45 64 46 29 48 55 49 38 50 54 51 39 52 42 53 53 54 69 55
REMARK SMILES IDX 40 56 41 57 52 59 70 60 43 61 30 62 31 63 36 64 32 65 33 66
REMARK SMILES IDX 35 67 37 68 34 69 56 70 57 71 62 72 58 73 59 74 61 75 63 76
REMARK SMILES IDX 60 77 44 78 45 79 50 80 46 81 47 82 49 83 51 84 48 85
REMARK H PARENT 7 8 7 9 68 47 42 58
REMARK Flexibility Score: inf
ROOT
ATOM      1  C   UNL A   1      31.454  28.566  25.209  1.00  0.00     0.261 C 
ENDROOT
BRANCH   1   2
ATOM      2  O   UNL A   1      31.677  27.148  25.335  1.00  0.00    -0.458 OA
BRANCH   2   3
ATOM      3  C   UNL A   1      30.836  26.354  24.602  1.00  0.00     0.377 C 
ATOM      4  O   UNL A   1      29.659  26.176  24.898  1.00  0.00    -0.244 OA
BRANCH   3   5
ATOM      5  C   UNL A   1      31.533  25.636  23.432  1.00  0.00     0.287 C 
ATOM      6  C   UNL A   1      30.685  24.381  23.161  1.00  0.00     0.103 C 
BRANCH   5   7
ATOM      7  N   UNL A   1      32.958  25.245  23.795  1.00  0.00    -0.317 N 
ATOM      8  H   UNL A   1      33.508  26.098  23.906  1.00  0.00     0.347 HD
ATOM      9  H   UNL A   1      32.910  24.701  24.656  1.00  0.00     0.347 HD
BRANCH   7  10
ATOM     10  C   UNL A   1      33.614  24.395  22.781  1.00  0.00     0.363 C 
BRANCH  10  11
ATOM     11  C   UNL A   1      34.487  23.321  23.459  1.00  0.00     0.277 C 
ATOM     12  O   UNL A   1      35.578  23.044  22.950  1.00  0.00    -0.268 OA
BRANCH  11  13
ATOM     13  N   UNL A   1      34.024  22.751  24.647  1.00  0.00    -0.335 N 
BRANCH  13  14
ATOM     14  C   UNL A   1      34.494  23.180  25.976  1.00  0.00     0.116 C 
ATOM     15  C   UNL A   1      33.449  22.970  27.067  1.00  0.00     0.027 C 
ENDBRANCH  13  14
BRANCH  13  16
ATOM     16  C   UNL A   1      32.962  21.758  24.648  1.00  0.00     0.085 C 
ATOM     17  C   UNL A   1      32.416  21.017  23.458  1.00  0.00     0.027 C 
ATOM     18  C   UNL A   1      33.332  20.311  24.407  1.00  0.00     0.027 C 
ENDBRANCH  13  16
ENDBRANCH  11  13
ENDBRANCH  10  11
ENDBRANCH   7  10
ENDBRANCH   5   7
BRANCH   5  19
ATOM     19  C   UNL A   1      31.406  26.635  22.252  1.00  0.00     0.455 C 
ATOM     20  F   UNL A   1      31.348  25.995  21.059  1.00  0.00    -0.164 F 
ATOM     21  F   UNL A   1      30.255  27.355  22.358  1.00  0.00    -0.164 F 
ATOM     22  F   UNL A   1      32.399  27.545  22.191  1.00  0.00    -0.164 F 
ENDBRANCH   5  19
ENDBRANCH   3   5
ENDBRANCH   2   3
ENDBRANCH   1   2
BRANCH   1  23
ATOM     23  C   UNL A   1      32.741  29.395  25.249  1.00  0.00     0.202 C 
BRANCH  23  24
ATOM     24  O   UNL A   1      32.718  30.621  25.975  1.00  0.00    -0.374 OA
BRANCH  24  25
ATOM     25  C   UNL A   1      31.451  31.199  26.268  1.00  0.00     0.202 C 
BRANCH  25  26
ATOM     26  C   UNL A   1      31.428  32.582  26.929  1.00  0.00     0.261 C 
BRANCH  26  27
ATOM     27  O   UNL A   1      32.649  33.327  26.781  1.00  0.00    -0.460 OA
BRANCH  27  28
ATOM     28  C   UNL A   1      33.108  33.888  27.924  1.00  0.00     0.338 C 
ATOM     29  O   UNL A   1      32.553  34.737  28.614  1.00  0.00    -0.246 OA
BRANCH  28  30
ATOM     30  C   UNL A   1      34.349  33.228  28.363  1.00  0.00     0.060 A 
ATOM     31  C   UNL A   1      34.267  31.889  28.766  1.00  0.00     0.016 A 
ATOM     32  C   UNL A   1      35.546  33.934  28.484  1.00  0.00     0.016 A 
ATOM     33  C   UNL A   1      35.377  31.260  29.326  1.00  0.00     0.010 A 
ATOM     34  C   UNL A   1      36.658  33.303  29.058  1.00  0.00     0.010 A 
ATOM     35  C   UNL A   1      36.570  31.973  29.508  1.00  0.00    -0.014 A 
BRANCH  35  36
ATOM     36  C   UNL A   1      37.680  31.353  30.273  1.00  0.00     0.031 A 
ATOM     37  C   UNL A   1      38.585  30.364  29.593  1.00  0.00     0.074 A 
ATOM     38  C   UNL A   1      37.906  31.701  31.553  1.00  0.00     0.049 A 
ATOM     39  N   UNL A   1      39.619  29.720  30.071  1.00  0.00    -0.248 NA
ATOM     40  C   UNL A   1      38.282  30.058  28.186  1.00  0.00     0.031 C 
ATOM     41  C   UNL A   1      37.119  32.669  32.315  1.00  0.00     0.029 A 
ATOM     42  N   UNL A   1      38.865  31.274  32.435  1.00  0.00    -0.354 N 
ATOM     43  C   UNL A   1      40.094  28.938  29.027  1.00  0.00     0.074 A 
ATOM     44  C   UNL A   1      39.216  29.163  27.898  1.00  0.00     0.031 C 
ATOM     45  C   UNL A   1      37.625  32.758  33.557  1.00  0.00     0.029 A 
ATOM     46  C   UNL A   1      38.755  31.839  33.682  1.00  0.00     0.049 A 
ATOM     47  H   UNL A   1      39.567  30.626  32.197  1.00  0.00     0.167 HD
ATOM     48  C   UNL A   1      41.169  28.114  29.007  1.00  0.00     0.037 A 
ATOM     49  C   UNL A   1      39.476  31.628  34.800  1.00  0.00     0.037 A 
ATOM     50  C   UNL A   1      42.041  27.885  30.129  1.00  0.00     0.049 A 
ATOM     51  C   UNL A   1      40.628  30.660  34.770  1.00  0.00     0.074 A 
ATOM     52  C   UNL A   1      43.170  27.086  30.196  1.00  0.00     0.029 A 
ATOM     53  N   UNL A   1      41.875  28.449  31.384  1.00  0.00    -0.354 N 
ATOM     54  N   UNL A   1      41.089  29.955  33.766  1.00  0.00    -0.248 NA
ATOM     55  C   UNL A   1      41.361  30.463  36.029  1.00  0.00     0.031 C 
ATOM     56  C   UNL A   1      43.663  27.134  31.505  1.00  0.00     0.029 A 
ATOM     57  C   UNL A   1      42.865  27.995  32.240  1.00  0.00     0.049 A 
ATOM     58  H   UNL A   1      41.160  29.077  31.631  1.00  0.00     0.167 HD
ATOM     59  C   UNL A   1      42.178  29.250  34.264  1.00  0.00     0.074 A 
ATOM     60  C   UNL A   1      42.316  29.622  35.657  1.00  0.00     0.031 C 
ATOM     61  C   UNL A   1      42.992  28.375  33.624  1.00  0.00     0.037 A 
BRANCH  48  62
ATOM     62  C   UNL A   1      41.450  27.380  27.729  1.00  0.00     0.057 A 
ATOM     63  C   UNL A   1      42.235  27.941  26.714  1.00  0.00     0.134 A 
ATOM     64  C   UNL A   1      40.954  26.087  27.525  1.00  0.00     0.134 A 
ATOM     65  F   UNL A   1      42.730  29.182  26.843  1.00  0.00    -0.206 F 
ATOM     66  C   UNL A   1      42.501  27.248  25.531  1.00  0.00     0.040 A 
ATOM     67  C   UNL A   1      41.232  25.376  26.356  1.00  0.00     0.040 A 
ATOM     68  F   UNL A   1      40.200  25.490  28.460  1.00  0.00    -0.206 F 
ATOM     69  C   UNL A   1      42.003  25.959  25.352  1.00  0.00     0.006 A 
ENDBRANCH  48  62
BRANCH  49  70
ATOM     70  C   UNL A   1      39.126  32.345  36.052  1.00  0.00     0.057 A 
ATOM     71  C   UNL A   1      39.638  33.617  36.327  1.00  0.00     0.134 A 
ATOM     72  C   UNL A   1      38.281  31.766  37.006  1.00  0.00     0.134 A 
ATOM     73  F   UNL A   1      40.472  34.210  35.460  1.00  0.00    -0.206 F 
ATOM     74  C   UNL A   1      39.333  34.284  37.514  1.00  0.00     0.040 A 
ATOM     75  C   UNL A   1      37.950  32.431  38.188  1.00  0.00     0.040 A 
ATOM     76  F   UNL A   1      37.759  30.549  36.800  1.00  0.00    -0.206 F 
ATOM     77  C   UNL A   1      38.482  33.693  38.446  1.00  0.00     0.006 A 
ENDBRANCH  49  70
BRANCH  61  78
ATOM     78  C   UNL A   1      44.119  27.779  34.416  1.00  0.00     0.057 A 
ATOM     79  C   UNL A   1      43.987  26.552  35.080  1.00  0.00     0.134 A 
ATOM     80  C   UNL A   1      45.361  28.422  34.484  1.00  0.00     0.134 A 
ATOM     81  F   UNL A   1      42.818  25.894  35.064  1.00  0.00    -0.206 F 
ATOM     82  C   UNL A   1      45.046  25.996  35.800  1.00  0.00     0.040 A 
ATOM     83  C   UNL A   1      46.434  27.865  35.182  1.00  0.00     0.040 A 
ATOM     84  F   UNL A   1      45.556  29.596  33.864  1.00  0.00    -0.206 F 
ATOM     85  C   UNL A   1      46.276  26.650  35.846  1.00  0.00     0.006 A 
ENDBRANCH  61  78
ENDBRANCH  35  36
ENDBRANCH  28  30
ENDBRANCH  27  28
ENDBRANCH  26  27
ENDBRANCH  25  26
ENDBRANCH  24  25
ENDBRANCH  23  24
ENDBRANCH   1  23
TORSDOF 21
ENDMDL
MODEL 2
REMARK VINA RESULT:      -9.2      1.929      7.144
REMARK SMILES CCN(C(=O)C[NH2+][C@@](C)(C(=O)OCCOCCOC(=O)c1ccc(-c2c3nc(c(-c4c(F)cccc4F)c4ccc([nH]4)c(-c4c(F)cccc4F)c4nc(c(-c5c(F)cccc5F)c5ccc2[nH]5)C=C4)C=C3)cc1)C(F)(F)F)C1CC1
REMARK SMILES IDX 13 1 12 2 10 3 11 4 8 5 9 6 7 7 6 10 4 11 5 12 3 13 2 14
REMARK SMILES IDX 1 15 79 16 80 17 81 18 75 19 76 20 77 21 78 22 14 23 15 24
REMARK SMILES IDX 16 25 17 26 18 27 19 28 20 29 21 30 22 31 74 32 23 33 73 34
REMARK SMILES IDX 24 35 25 36 26 37 67 38 27 39 72 40 66 41 68 42 28 43 71 44
REMARK SMILES IDX 65 45 64 46 29 48 55 49 38 50 54 51 39 52 42 53 53 54 69 55
REMARK SMILES IDX 40 56 41 57 52 59 70 60 43 61 30 62 31 63 36 64 32 65 33 66
REMARK SMILES IDX 35 67 37 68 34 69 56 70 57 71 62 72 58 73 59 74 61 75 63 76
REMARK SMILES IDX 60 77 44 78 45 79 50 80 46 81 47 82 49 83 51 84 48 85
REMARK H PARENT 7 8 7 9 68 47 42 58
REMARK Flexibility Score: inf
ROOT
ATOM      1  C   UNL A   1      33.549  29.513  25.359  1.00  0.00     0.261 C 
ENDROOT
BRANCH   1   2
ATOM      2  O   UNL A   1      33.383  28.128  24.998  1.00  0.00    -0.458 OA
BRANCH   2   3
ATOM      3  C   UNL A   1      32.109  27.758  24.661  1.00  0.00     0.377 C 
ATOM      4  O   UNL A   1      31.208  27.641  25.484  1.00  0.00    -0.244 OA
BRANCH   3   5
ATOM      5  C   UNL A   1      31.944  27.413  23.170  1.00  0.00     0.287 C 
ATOM      6  C   UNL A   1      33.077  28.165  22.449  1.00  0.00     0.103 C 
BRANCH   5   7
ATOM      7  N   UNL A   1      30.589  27.866  22.646  1.00  0.00    -0.317 N 
ATOM      8  H   UNL A   1      30.358  27.308  21.823  1.00  0.00     0.347 HD
ATOM      9  H   UNL A   1      29.917  27.737  23.402  1.00  0.00     0.347 HD
BRANCH   7  10
ATOM     10  C   UNL A   1      30.549  29.294  22.268  1.00  0.00     0.363 C 
BRANCH  10  11
ATOM     11  C   UNL A   1      29.607  30.074  23.206  1.00  0.00     0.277 C 
ATOM     12  O   UNL A   1      30.031  30.409  24.317  1.00  0.00    -0.268 OA
BRANCH  11  13
ATOM     13  N   UNL A   1      28.337  30.411  22.732  1.00  0.00    -0.335 N 
BRANCH  13  14
ATOM     14  C   UNL A   1      27.313  29.402  22.406  1.00  0.00     0.116 C 
ATOM     15  C   UNL A   1      27.105  28.389  23.527  1.00  0.00     0.027 C 
ENDBRANCH  13  14
BRANCH  13  16
ATOM     16  C   UNL A   1      27.909  31.796  22.627  1.00  0.00     0.085 C 
ATOM     17  C   UNL A   1      28.791  33.011  22.544  1.00  0.00     0.027 C 
ATOM     18  C   UNL A   1      28.109  32.511  21.309  1.00  0.00     0.027 C 
ENDBRANCH  13  16
ENDBRANCH  11  13
ENDBRANCH  10  11
ENDBRANCH   7  10
ENDBRANCH   5   7
BRANCH   5  19
ATOM     19  C   UNL A   1      32.192  25.883  23.110  1.00  0.00     0.455 C 
ATOM     20  F   UNL A   1      31.118  25.220  22.617  1.00  0.00    -0.164 F 
ATOM     21  F   UNL A   1      33.233  25.601  22.279  1.00  0.00    -0.164 F 
ATOM     22  F   UNL A   1      32.517  25.330  24.297  1.00  0.00    -0.164 F 
ENDBRANCH   5  19
ENDBRANCH   3   5
ENDBRANCH   2   3
ENDBRANCH   1   2
BRANCH   1  23
ATOM     23  C   UNL A   1      33.850  29.728  26.845  1.00  0.00     0.202 C 
BRANCH  23  24
ATOM     24  O   UNL A   1      32.957  30.549  27.592  1.00  0.00    -0.374 OA
BRANCH  24  25
ATOM     25  C   UNL A   1      31.960  31.271  26.877  1.00  0.00     0.202 C 
BRANCH  25  26
ATOM     26  C   UNL A   1      31.861  32.783  27.112  1.00  0.00     0.261 C 
BRANCH  26  27
ATOM     27  O   UNL A   1      33.131  33.453  27.186  1.00  0.00    -0.460 OA
BRANCH  27  28
ATOM     28  C   UNL A   1      33.308  34.201  28.300  1.00  0.00     0.338 C 
ATOM     29  O   UNL A   1      32.593  35.110  28.711  1.00  0.00    -0.246 OA
BRANCH  28  30
ATOM     30  C   UNL A   1      34.433  33.686  29.097  1.00  0.00     0.060 A 
ATOM     31  C   UNL A   1      35.726  34.088  28.736  1.00  0.00     0.016 A 
ATOM     32  C   UNL A   1      34.239  32.741  30.106  1.00  0.00     0.016 A 
ATOM     33  C   UNL A   1      36.833  33.519  29.361  1.00  0.00     0.010 A 
ATOM     34  C   UNL A   1      35.355  32.162  30.725  1.00  0.00     0.010 A 
ATOM     35  C   UNL A   1      36.656  32.527  30.335  1.00  0.00    -0.014 A 
BRANCH  35  36
ATOM     36  C   UNL A   1      37.839  31.798  30.855  1.00  0.00     0.031 A 
ATOM     37  C   UNL A   1      38.351  32.108  32.234  1.00  0.00     0.074 A 
ATOM     38  C   UNL A   1      38.428  30.838  30.120  1.00  0.00     0.049 A 
ATOM     39  N   UNL A   1      39.356  31.579  32.885  1.00  0.00    -0.248 NA
ATOM     40  C   UNL A   1      37.634  33.154  32.980  1.00  0.00     0.031 C 
ATOM     41  C   UNL A   1      38.010  30.424  28.782  1.00  0.00     0.029 A 
ATOM     42  N   UNL A   1      39.508  30.038  30.400  1.00  0.00    -0.354 N 
ATOM     43  C   UNL A   1      39.392  32.223  34.115  1.00  0.00     0.074 A 
ATOM     44  C   UNL A   1      38.327  33.203  34.109  1.00  0.00     0.031 C 
ATOM     45  C   UNL A   1      38.830  29.449  28.352  1.00  0.00     0.029 A 
ATOM     46  C   UNL A   1      39.841  29.187  29.376  1.00  0.00     0.049 A 
ATOM     47  H   UNL A   1      39.997  30.071  31.254  1.00  0.00     0.167 HD
ATOM     48  C   UNL A   1      40.229  32.009  35.158  1.00  0.00     0.037 A 
ATOM     49  C   UNL A   1      40.854  28.307  29.270  1.00  0.00     0.037 A 
ATOM     50  C   UNL A   1      41.290  31.038  35.165  1.00  0.00     0.049 A 
ATOM     51  C   UNL A   1      41.809  28.132  30.420  1.00  0.00     0.074 A 
ATOM     52  C   UNL A   1      42.175  30.733  36.187  1.00  0.00     0.029 A 
ATOM     53  N   UNL A   1      41.618  30.219  34.095  1.00  0.00    -0.354 N 
ATOM     54  N   UNL A   1      41.810  28.719  31.591  1.00  0.00    -0.248 NA
ATOM     55  C   UNL A   1      42.904  27.167  30.232  1.00  0.00     0.031 C 
ATOM     56  C   UNL A   1      43.065  29.760  35.719  1.00  0.00     0.029 A 
ATOM     57  C   UNL A   1      42.707  29.428  34.422  1.00  0.00     0.049 A 
ATOM     58  H   UNL A   1      41.147  30.203  33.232  1.00  0.00     0.167 HD
ATOM     59  C   UNL A   1      42.885  28.181  32.287  1.00  0.00     0.074 A 
ATOM     60  C   UNL A   1      43.508  27.211  31.412  1.00  0.00     0.031 C 
ATOM     61  C   UNL A   1      43.316  28.465  33.541  1.00  0.00     0.037 A 
BRANCH  48  62
ATOM     62  C   UNL A   1      40.040  32.863  36.377  1.00  0.00     0.057 A 
ATOM     63  C   UNL A   1      40.808  34.014  36.596  1.00  0.00     0.134 A 
ATOM     64  C   UNL A   1      39.061  32.548  37.326  1.00  0.00     0.134 A 
ATOM     65  F   UNL A   1      41.772  34.365  35.731  1.00  0.00    -0.206 F 
ATOM     66  C   UNL A   1      40.622  34.809  37.729  1.00  0.00     0.040 A 
ATOM     67  C   UNL A   1      38.850  33.347  38.451  1.00  0.00     0.040 A 
ATOM     68  F   UNL A   1      38.289  31.462  37.173  1.00  0.00    -0.206 F 
ATOM     69  C   UNL A   1      39.636  34.480  38.657  1.00  0.00     0.006 A 
ENDBRANCH  48  62
BRANCH  49  70
ATOM     70  C   UNL A   1      41.025  27.521  28.022  1.00  0.00     0.057 A 
ATOM     71  C   UNL A   1      41.774  28.016  26.950  1.00  0.00     0.134 A 
ATOM     72  C   UNL A   1      40.429  26.264  27.870  1.00  0.00     0.134 A 
ATOM     73  F   UNL A   1      42.348  29.225  27.029  1.00  0.00    -0.206 F 
ATOM     74  C   UNL A   1      41.915  27.293  25.764  1.00  0.00     0.040 A 
ATOM     75  C   UNL A   1      40.580  25.520  26.699  1.00  0.00     0.040 A 
ATOM     76  F   UNL A   1      39.698  25.736  28.863  1.00  0.00    -0.206 F 
ATOM     77  C   UNL A   1      41.321  26.038  25.639  1.00  0.00     0.006 A 
ENDBRANCH  49  70
BRANCH  61  78
ATOM     78  C   UNL A   1      44.501  27.698  34.050  1.00  0.00     0.057 A 
ATOM     79  C   UNL A   1      45.805  28.199  33.944  1.00  0.00     0.134 A 
ATOM     80  C   UNL A   1      44.333  26.462  34.686  1.00  0.00     0.134 A 
ATOM     81  F   UNL A   1      46.035  29.372  33.334  1.00  0.00    -0.206 F 
ATOM     82  C   UNL A   1      46.901  27.488  34.436  1.00  0.00     0.040 A 
ATOM     83  C   UNL A   1      45.418  25.752  35.202  1.00  0.00     0.040 A 
ATOM     84  F   UNL A   1      43.109  25.930  34.826  1.00  0.00    -0.206 F 
ATOM     85  C   UNL A   1      46.708  26.263  35.073  1.00  0.00     0.006 A 
ENDBRANCH  61  78
ENDBRANCH  35  36
ENDBRANCH  28  30
ENDBRANCH  27  28
ENDBRANCH  26  27
ENDBRANCH  25  26
ENDBRANCH  24  25
ENDBRANCH  23  24
ENDBRANCH   1  23
TORSDOF 21
ENDMDL
MODEL 3
REMARK VINA RESULT:      -9.0      1.111      6.307
REMARK SMILES CCN(C(=O)C[NH2+][C@@](C)(C(=O)OCCOCCOC(=O)c1ccc(-c2c3nc(c(-c4c(F)cccc4F)c4ccc([nH]4)c(-c4c(F)cccc4F)c4nc(c(-c5c(F)cccc5F)c5ccc2[nH]5)C=C4)C=C3)cc1)C(F)(F)F)C1CC1
REMARK SMILES IDX 13 1 12 2 10 3 11 4 8 5 9 6 7 7 6 10 4 11 5 12 3 13 2 14
REMARK SMILES IDX 1 15 79 16 80 17 81 18 75 19 76 20 77 21 78 22 14 23 15 24
REMARK SMILES IDX 16 25 17 26 18 27 19 28 20 29 21 30 22 31 74 32 23 33 73 34
REMARK SMILES IDX 24 35 25 36 26 37 67 38 27 39 72 40 66 41 68 42 28 43 71 44
REMARK SMILES IDX 65 45 64 46 29 48 55 49 38 50 54 51 39 52 42 53 53 54 69 55
REMARK SMILES IDX 40 56 41 57 52 59 70 60 43 61 30 62 31 63 36 64 32 65 33 66
REMARK SMILES IDX 35 67 37 68 34 69 56 70 57 71 62 72 58 73 59 74 61 75 63 76
REMARK SMILES IDX 60 77 44 78 45 79 50 80 46 81 47 82 49 83 51 84 48 85
REMARK H PARENT 7 8 7 9 68 47 42 58
REMARK Flexibility Score: inf
ROOT
ATOM      1  C   UNL A   1      33.139  29.728  25.228  1.00  0.00     0.261 C 
ENDROOT
BRANCH   1   2
ATOM      2  O   UNL A   1      32.891  28.475  24.562  1.00  0.00    -0.458 OA
BRANCH   2   3
ATOM      3  C   UNL A   1      31.574  28.117  24.456  1.00  0.00     0.377 C 
ATOM      4  O   UNL A   1      30.674  28.929  24.271  1.00  0.00    -0.244 OA
BRANCH   3   5
ATOM      5  C   UNL A   1      31.326  26.615  24.685  1.00  0.00     0.287 C 
ATOM      6  C   UNL A   1      30.867  26.495  26.149  1.00  0.00     0.103 C 
BRANCH   5   7
ATOM      7  N   UNL A   1      32.595  25.805  24.459  1.00  0.00    -0.317 N 
ATOM      8  H   UNL A   1      32.344  24.942  23.976  1.00  0.00     0.347 HD
ATOM      9  H   UNL A   1      33.227  26.387  23.909  1.00  0.00     0.347 HD
BRANCH   7  10
ATOM     10  C   UNL A   1      33.303  25.455  25.707  1.00  0.00     0.363 C 
BRANCH  10  11
ATOM     11  C   UNL A   1      33.585  23.941  25.761  1.00  0.00     0.277 C 
ATOM     12  O   UNL A   1      34.757  23.559  25.690  1.00  0.00    -0.268 OA
BRANCH  11  13
ATOM     13  N   UNL A   1      32.502  23.076  25.941  1.00  0.00    -0.335 N 
BRANCH  13  14
ATOM     14  C   UNL A   1      31.665  23.086  27.153  1.00  0.00     0.116 C 
ATOM     15  C   UNL A   1      30.182  22.905  26.848  1.00  0.00     0.027 C 
ENDBRANCH  13  14
BRANCH  13  16
ATOM     16  C   UNL A   1      32.069  22.173  24.887  1.00  0.00     0.085 C 
ATOM     17  C   UNL A   1      32.873  21.714  23.703  1.00  0.00     0.027 C 
ATOM     18  C   UNL A   1      32.653  20.779  24.850  1.00  0.00     0.027 C 
ENDBRANCH  13  16
ENDBRANCH  11  13
ENDBRANCH  10  11
ENDBRANCH   7  10
ENDBRANCH   5   7
BRANCH   5  19
ATOM     19  C   UNL A   1      30.154  26.280  23.727  1.00  0.00     0.455 C 
ATOM     20  F   UNL A   1      30.370  26.767  22.481  1.00  0.00    -0.164 F 
ATOM     21  F   UNL A   1      30.017  24.932  23.593  1.00  0.00    -0.164 F 
ATOM     22  F   UNL A   1      28.952  26.726  24.147  1.00  0.00    -0.164 F 
ENDBRANCH   5  19
ENDBRANCH   3   5
ENDBRANCH   2   3
ENDBRANCH   1   2
BRANCH   1  23
ATOM     23  C   UNL A   1      32.930  29.669  26.744  1.00  0.00     0.202 C 
BRANCH  23  24
ATOM     24  O   UNL A   1      31.995  30.576  27.322  1.00  0.00    -0.374 OA
BRANCH  24  25
ATOM     25  C   UNL A   1      31.444  31.587  26.486  1.00  0.00     0.202 C 
BRANCH  25  26
ATOM     26  C   UNL A   1      31.648  33.050  26.897  1.00  0.00     0.261 C 
BRANCH  26  27
ATOM     27  O   UNL A   1      33.020  33.413  27.125  1.00  0.00    -0.460 OA
BRANCH  27  28
ATOM     28  C   UNL A   1      33.224  34.190  28.215  1.00  0.00     0.338 C 
ATOM     29  O   UNL A   1      32.538  35.131  28.600  1.00  0.00    -0.246 OA
BRANCH  28  30
ATOM     30  C   UNL A   1      34.336  33.665  29.024  1.00  0.00     0.060 A 
ATOM     31  C   UNL A   1      35.639  34.022  28.650  1.00  0.00     0.016 A 
ATOM     32  C   UNL A   1      34.119  32.753  30.058  1.00  0.00     0.016 A 
ATOM     33  C   UNL A   1      36.732  33.440  29.288  1.00  0.00     0.010 A 
ATOM     34  C   UNL A   1      35.220  32.161  30.690  1.00  0.00     0.010 A 
ATOM     35  C   UNL A   1      36.530  32.479  30.289  1.00  0.00    -0.014 A 
BRANCH  35  36
ATOM     36  C   UNL A   1      37.694  31.733  30.827  1.00  0.00     0.031 A 
ATOM     37  C   UNL A   1      38.162  32.004  32.229  1.00  0.00     0.074 A 
ATOM     38  C   UNL A   1      38.304  30.790  30.085  1.00  0.00     0.049 A 
ATOM     39  N   UNL A   1      39.145  31.454  32.897  1.00  0.00    -0.248 NA
ATOM     40  C   UNL A   1      37.425  33.033  32.980  1.00  0.00     0.031 C 
ATOM     41  C   UNL A   1      37.927  30.414  28.724  1.00  0.00     0.029 A 
ATOM     42  N   UNL A   1      39.371  29.980  30.378  1.00  0.00    -0.354 N 
ATOM     43  C   UNL A   1      39.143  32.065  34.145  1.00  0.00     0.074 A 
ATOM     44  C   UNL A   1      38.082  33.049  34.131  1.00  0.00     0.031 C 
ATOM     45  C   UNL A   1      38.758  29.448  28.295  1.00  0.00     0.029 A 
ATOM     46  C   UNL A   1      39.735  29.156  29.342  1.00  0.00     0.049 A 
ATOM     47  H   UNL A   1      39.833  29.989  31.248  1.00  0.00     0.167 HD
ATOM     48  C   UNL A   1      39.945  31.821  35.208  1.00  0.00     0.037 A 
ATOM     49  C   UNL A   1      40.749  28.275  29.245  1.00  0.00     0.037 A 
ATOM     50  C   UNL A   1      41.004  30.846  35.223  1.00  0.00     0.049 A 
ATOM     51  C   UNL A   1      41.666  28.066  30.420  1.00  0.00     0.074 A 
ATOM     52  C   UNL A   1      41.855  30.511  36.263  1.00  0.00     0.029 A 
ATOM     53  N   UNL A   1      41.363  30.055  34.142  1.00  0.00    -0.354 N 
ATOM     54  N   UNL A   1      41.631  28.622  31.606  1.00  0.00    -0.248 NA
ATOM     55  C   UNL A   1      42.764  27.103  30.241  1.00  0.00     0.031 C 
ATOM     56  C   UNL A   1      42.757  29.547  35.798  1.00  0.00     0.029 A 
ATOM     57  C   UNL A   1      42.439  29.252  34.482  1.00  0.00     0.049 A 
ATOM     58  H   UNL A   1      40.920  30.063  33.264  1.00  0.00     0.167 HD
ATOM     59  C   UNL A   1      42.682  28.062  32.321  1.00  0.00     0.074 A 
ATOM     60  C   UNL A   1      43.330  27.113  31.440  1.00  0.00     0.031 C 
ATOM     61  C   UNL A   1      43.074  28.310  33.595  1.00  0.00     0.037 A 
BRANCH  48  62
ATOM     62  C   UNL A   1      39.721  32.642  36.443  1.00  0.00     0.057 A 
ATOM     63  C   UNL A   1      38.669  32.370  37.327  1.00  0.00     0.134 A 
ATOM     64  C   UNL A   1      40.583  33.696  36.767  1.00  0.00     0.134 A 
ATOM     65  F   UNL A   1      37.800  31.381  37.068  1.00  0.00    -0.206 F 
ATOM     66  C   UNL A   1      38.470  33.133  38.480  1.00  0.00     0.040 A 
ATOM     67  C   UNL A   1      40.408  34.451  37.928  1.00  0.00     0.040 A 
ATOM     68  F   UNL A   1      41.612  34.005  35.964  1.00  0.00    -0.206 F 
ATOM     69  C   UNL A   1      39.346  34.174  38.786  1.00  0.00     0.006 A 
ENDBRANCH  48  62
BRANCH  49  70
ATOM     70  C   UNL A   1      40.957  27.522  27.983  1.00  0.00     0.057 A 
ATOM     71  C   UNL A   1      41.761  28.032  26.958  1.00  0.00     0.134 A 
ATOM     72  C   UNL A   1      40.343  26.282  27.769  1.00  0.00     0.134 A 
ATOM     73  F   UNL A   1      42.355  29.226  27.097  1.00  0.00    -0.206 F 
ATOM     74  C   UNL A   1      41.939  27.341  25.758  1.00  0.00     0.040 A 
ATOM     75  C   UNL A   1      40.529  25.570  26.583  1.00  0.00     0.040 A 
ATOM     76  F   UNL A   1      39.560  25.742  28.713  1.00  0.00    -0.206 F 
ATOM     77  C   UNL A   1      41.326  26.103  25.571  1.00  0.00     0.006 A 
ENDBRANCH  49  70
BRANCH  61  78
ATOM     78  C   UNL A   1      44.240  27.526  34.120  1.00  0.00     0.057 A 
ATOM     79  C   UNL A   1      44.077  26.265  34.709  1.00  0.00     0.134 A 
ATOM     80  C   UNL A   1      45.545  28.021  34.002  1.00  0.00     0.134 A 
ATOM     81  F   UNL A   1      42.852  25.741  34.863  1.00  0.00    -0.206 F 
ATOM     82  C   UNL A   1      45.169  25.534  35.179  1.00  0.00     0.040 A 
ATOM     83  C   UNL A   1      46.646  27.289  34.448  1.00  0.00     0.040 A 
ATOM     84  F   UNL A   1      45.770  29.219  33.441  1.00  0.00    -0.206 F 
ATOM     85  C   UNL A   1      46.459  26.043  35.043  1.00  0.00     0.006 A 
ENDBRANCH  61  78
ENDBRANCH  35  36
ENDBRANCH  28  30
ENDBRANCH  27  28
ENDBRANCH  26  27
ENDBRANCH  25  26
ENDBRANCH  24  25
ENDBRANCH  23  24
ENDBRANCH   1  23
TORSDOF 21
ENDMDL
