MODEL 1
REMARK VINA RESULT:     -11.7      0.000      0.000
REMARK SMILES Cc1c(NC(=O)N[C@H]2CCOC2)cccc1C(=O)OCCOCCOC(=O)c1ccc(-c2c3nc(c(-c4c(F)cccc4F)c4ccc([nH]4)c(-c4c(F)cccc4F)c4nc(c(-c5c(F)cccc5F)c5ccc2[nH]5)C=C4)C=C3)cc1
REMARK SMILES IDX 22 1 21 2 20 3 19 4 17 5 18 6 16 7 1 8 2 9 3 10 13 11 15 12
REMARK SMILES IDX 14 13 4 14 5 15 6 17 7 18 8 20 9 21 12 22 10 23 11 24 23 25
REMARK SMILES IDX 24 26 25 27 26 28 27 29 28 30 29 31 81 32 30 33 80 34 31 35
REMARK SMILES IDX 32 36 33 37 74 38 34 39 79 40 73 41 75 42 35 43 78 44 72 45
REMARK SMILES IDX 71 46 36 48 62 49 45 50 61 51 46 52 49 53 60 54 76 55 47 56
REMARK SMILES IDX 48 57 59 59 77 60 50 61 37 62 38 63 43 64 39 65 40 66 42 67
REMARK SMILES IDX 44 68 41 69 63 70 64 71 69 72 65 73 66 74 68 75 70 76 67 77
REMARK SMILES IDX 51 78 52 79 57 80 53 81 54 82 56 83 58 84 55 85
REMARK H PARENT 4 16 7 19 75 47 49 58
REMARK Flexibility Score: inf
ROOT
ATOM      1  O   UNL A   1      31.839  28.924  26.327  1.00  0.00    -0.374 OA
ENDROOT
BRANCH   1   2
ATOM      2  C   UNL A   1      31.695  29.973  25.388  1.00  0.00     0.202 C 
BRANCH   2   3
ATOM      3  C   UNL A   1      30.889  29.354  24.309  1.00  0.00     0.261 C 
BRANCH   3   4
ATOM      4  O   UNL A   1      31.743  28.751  23.325  1.00  0.00    -0.460 OA
BRANCH   4   5
ATOM      5  C   UNL A   1      31.585  27.495  22.848  1.00  0.00     0.338 C 
ATOM      6  O   UNL A   1      31.095  27.164  21.794  1.00  0.00    -0.246 OA
BRANCH   5   7
ATOM      7  C   UNL A   1      32.115  26.543  23.882  1.00  0.00     0.065 A 
ATOM      8  C   UNL A   1      29.825  25.473  24.409  1.00  0.00     0.047 C 
ATOM      9  C   UNL A   1      31.309  25.649  24.640  1.00  0.00    -0.013 A 
ATOM     10  C   UNL A   1      31.903  25.042  25.763  1.00  0.00     0.046 A 
ATOM     11  C   UNL A   1      33.288  25.121  25.986  1.00  0.00     0.026 A 
ATOM     12  C   UNL A   1      33.496  26.654  24.145  1.00  0.00     0.016 A 
ATOM     13  C   UNL A   1      34.085  25.921  25.172  1.00  0.00     0.003 A 
BRANCH  10  14
ATOM     14  N   UNL A   1      31.071  24.519  26.766  1.00  0.00    -0.308 N 
ATOM     15  C   UNL A   1      30.456  23.310  26.841  1.00  0.00     0.319 C 
ATOM     16  H   UNL A   1      30.908  25.119  27.530  1.00  0.00     0.171 HD
ATOM     17  O   UNL A   1      29.542  23.148  27.650  1.00  0.00    -0.248 OA
ATOM     18  N   UNL A   1      30.900  22.233  26.137  1.00  0.00    -0.333 N 
ATOM     19  H   UNL A   1      30.257  21.496  26.028  1.00  0.00     0.165 HD
BRANCH  18  20
ATOM     20  C   UNL A   1      32.199  22.036  25.529  1.00  0.00     0.112 C 
ATOM     21  C   UNL A   1      33.273  21.500  26.445  1.00  0.00     0.056 C 
ATOM     22  C   UNL A   1      32.324  21.109  24.335  1.00  0.00     0.185 C 
ATOM     23  C   UNL A   1      34.380  21.340  25.423  1.00  0.00     0.162 C 
ATOM     24  O   UNL A   1      33.739  20.808  24.244  1.00  0.00    -0.379 OA
ENDBRANCH  18  20
ENDBRANCH  10  14
ENDBRANCH   5   7
ENDBRANCH   4   5
ENDBRANCH   3   4
ENDBRANCH   2   3
ENDBRANCH   1   2
BRANCH   1  25
ATOM     25  C   UNL A   1      32.762  29.158  27.361  1.00  0.00     0.202 C 
BRANCH  25  26
ATOM     26  C   UNL A   1      33.949  29.997  26.878  1.00  0.00     0.261 C 
BRANCH  26  27
ATOM     27  O   UNL A   1      34.133  31.131  27.758  1.00  0.00    -0.460 OA
BRANCH  27  28
ATOM     28  C   UNL A   1      35.420  31.496  28.025  1.00  0.00     0.338 C 
ATOM     29  O   UNL A   1      35.887  32.611  27.849  1.00  0.00    -0.246 OA
BRANCH  28  30
ATOM     30  C   UNL A   1      36.261  30.281  28.266  1.00  0.00     0.060 A 
ATOM     31  C   UNL A   1      36.290  29.678  29.540  1.00  0.00     0.016 A 
ATOM     32  C   UNL A   1      37.263  29.992  27.345  1.00  0.00     0.016 A 
ATOM     33  C   UNL A   1      37.413  28.938  29.949  1.00  0.00     0.010 A 
ATOM     34  C   UNL A   1      38.411  29.378  27.796  1.00  0.00     0.010 A 
ATOM     35  C   UNL A   1      38.517  28.875  29.104  1.00  0.00    -0.014 A 
BRANCH  35  36
ATOM     36  C   UNL A   1      39.868  28.409  29.449  1.00  0.00     0.031 A 
ATOM     37  C   UNL A   1      40.274  27.078  28.936  1.00  0.00     0.074 A 
ATOM     38  C   UNL A   1      40.816  29.264  29.921  1.00  0.00     0.049 A 
ATOM     39  N   UNL A   1      41.409  26.536  29.189  1.00  0.00    -0.248 NA
ATOM     40  C   UNL A   1      39.424  26.211  28.114  1.00  0.00     0.031 C 
ATOM     41  C   UNL A   1      42.275  29.170  29.794  1.00  0.00     0.029 A 
ATOM     42  N   UNL A   1      40.665  30.462  30.630  1.00  0.00    -0.354 N 
ATOM     43  C   UNL A   1      41.579  25.475  28.334  1.00  0.00     0.074 A 
ATOM     44  C   UNL A   1      40.274  25.234  27.783  1.00  0.00     0.031 C 
ATOM     45  C   UNL A   1      42.865  30.047  30.628  1.00  0.00     0.029 A 
ATOM     46  C   UNL A   1      41.810  30.662  31.412  1.00  0.00     0.049 A 
ATOM     47  H   UNL A   1      39.884  31.062  30.586  1.00  0.00     0.167 HD
ATOM     48  C   UNL A   1      42.849  25.025  28.138  1.00  0.00     0.037 A 
ATOM     49  C   UNL A   1      41.711  30.751  32.763  1.00  0.00     0.037 A 
ATOM     50  C   UNL A   1      43.757  25.661  29.106  1.00  0.00     0.049 A 
ATOM     51  C   UNL A   1      42.414  29.552  33.322  1.00  0.00     0.074 A 
ATOM     52  C   UNL A   1      44.735  26.634  29.011  1.00  0.00     0.029 A 
ATOM     53  N   UNL A   1      43.470  25.532  30.469  1.00  0.00    -0.354 N 
ATOM     54  N   UNL A   1      42.539  28.441  32.642  1.00  0.00    -0.248 NA
ATOM     55  C   UNL A   1      43.185  29.553  34.559  1.00  0.00     0.031 C 
ATOM     56  C   UNL A   1      44.946  27.164  30.324  1.00  0.00     0.029 A 
ATOM     57  C   UNL A   1      44.127  26.487  31.220  1.00  0.00     0.049 A 
ATOM     58  H   UNL A   1      42.873  24.845  30.846  1.00  0.00     0.167 HD
ATOM     59  C   UNL A   1      43.483  27.665  33.236  1.00  0.00     0.074 A 
ATOM     60  C   UNL A   1      43.811  28.367  34.467  1.00  0.00     0.031 C 
ATOM     61  C   UNL A   1      43.976  26.527  32.674  1.00  0.00     0.037 A 
BRANCH  48  62
ATOM     62  C   UNL A   1      43.315  24.129  27.007  1.00  0.00     0.057 A 
ATOM     63  C   UNL A   1      43.671  24.692  25.765  1.00  0.00     0.134 A 
ATOM     64  C   UNL A   1      43.362  22.719  27.026  1.00  0.00     0.134 A 
ATOM     65  F   UNL A   1      43.652  26.018  25.569  1.00  0.00    -0.206 F 
ATOM     66  C   UNL A   1      44.051  23.924  24.652  1.00  0.00     0.040 A 
ATOM     67  C   UNL A   1      43.783  21.942  25.935  1.00  0.00     0.040 A 
ATOM     68  F   UNL A   1      42.955  21.998  28.075  1.00  0.00    -0.206 F 
ATOM     69  C   UNL A   1      44.124  22.542  24.737  1.00  0.00     0.006 A 
ENDBRANCH  48  62
BRANCH  49  70
ATOM     70  C   UNL A   1      40.442  31.428  33.175  1.00  0.00     0.057 A 
ATOM     71  C   UNL A   1      39.408  30.593  33.655  1.00  0.00     0.134 A 
ATOM     72  C   UNL A   1      40.416  32.757  33.613  1.00  0.00     0.134 A 
ATOM     73  F   UNL A   1      39.375  29.297  33.302  1.00  0.00    -0.206 F 
ATOM     74  C   UNL A   1      38.490  31.014  34.627  1.00  0.00     0.040 A 
ATOM     75  C   UNL A   1      39.505  33.186  34.596  1.00  0.00     0.040 A 
ATOM     76  F   UNL A   1      41.366  33.621  33.229  1.00  0.00    -0.206 F 
ATOM     77  C   UNL A   1      38.570  32.304  35.138  1.00  0.00     0.006 A 
ENDBRANCH  49  70
BRANCH  61  78
ATOM     78  C   UNL A   1      44.391  25.359  33.520  1.00  0.00     0.057 A 
ATOM     79  C   UNL A   1      45.706  24.861  33.543  1.00  0.00     0.134 A 
ATOM     80  C   UNL A   1      43.527  24.824  34.494  1.00  0.00     0.134 A 
ATOM     81  F   UNL A   1      46.675  25.374  32.773  1.00  0.00    -0.206 F 
ATOM     82  C   UNL A   1      46.107  23.844  34.410  1.00  0.00     0.040 A 
ATOM     83  C   UNL A   1      43.938  23.860  35.414  1.00  0.00     0.040 A 
ATOM     84  F   UNL A   1      42.259  25.242  34.628  1.00  0.00    -0.206 F 
ATOM     85  C   UNL A   1      45.225  23.348  35.357  1.00  0.00     0.006 A 
ENDBRANCH  61  78
ENDBRANCH  35  36
ENDBRANCH  28  30
ENDBRANCH  27  28
ENDBRANCH  26  27
ENDBRANCH  25  26
ENDBRANCH   1  25
TORSDOF 16
ENDMDL
MODEL 2
REMARK VINA RESULT:     -11.6      1.195      2.531
REMARK SMILES Cc1c(NC(=O)N[C@H]2CCOC2)cccc1C(=O)OCCOCCOC(=O)c1ccc(-c2c3nc(c(-c4c(F)cccc4F)c4ccc([nH]4)c(-c4c(F)cccc4F)c4nc(c(-c5c(F)cccc5F)c5ccc2[nH]5)C=C4)C=C3)cc1
REMARK SMILES IDX 22 1 21 2 20 3 19 4 17 5 18 6 16 7 1 8 2 9 3 10 13 11 15 12
REMARK SMILES IDX 14 13 4 14 5 15 6 17 7 18 8 20 9 21 12 22 10 23 11 24 23 25
REMARK SMILES IDX 24 26 25 27 26 28 27 29 28 30 29 31 81 32 30 33 80 34 31 35
REMARK SMILES IDX 32 36 33 37 74 38 34 39 79 40 73 41 75 42 35 43 78 44 72 45
REMARK SMILES IDX 71 46 36 48 62 49 45 50 61 51 46 52 49 53 60 54 76 55 47 56
REMARK SMILES IDX 48 57 59 59 77 60 50 61 37 62 38 63 43 64 39 65 40 66 42 67
REMARK SMILES IDX 44 68 41 69 63 70 64 71 69 72 65 73 66 74 68 75 70 76 67 77
REMARK SMILES IDX 51 78 52 79 57 80 53 81 54 82 56 83 58 84 55 85
REMARK H PARENT 4 16 7 19 75 47 49 58
REMARK Flexibility Score: inf
ROOT
ATOM      1  O   UNL A   1      31.781  28.857  26.157  1.00  0.00    -0.374 OA
ENDROOT
BRANCH   1   2
ATOM      2  C   UNL A   1      32.832  27.938  25.930  1.00  0.00     0.202 C 
BRANCH   2   3
ATOM      3  C   UNL A   1      32.553  27.434  24.564  1.00  0.00     0.261 C 
BRANCH   3   4
ATOM      4  O   UNL A   1      32.911  26.048  24.457  1.00  0.00    -0.460 OA
BRANCH   4   5
ATOM      5  C   UNL A   1      33.649  25.529  23.449  1.00  0.00     0.338 C 
ATOM      6  O   UNL A   1      33.776  25.965  22.328  1.00  0.00    -0.246 OA
BRANCH   5   7
ATOM      7  C   UNL A   1      34.294  24.271  23.955  1.00  0.00     0.065 A 
ATOM      8  C   UNL A   1      32.903  22.682  22.470  1.00  0.00     0.047 C 
ATOM      9  C   UNL A   1      33.923  22.958  23.551  1.00  0.00    -0.013 A 
ATOM     10  C   UNL A   1      34.408  21.886  24.324  1.00  0.00     0.046 A 
ATOM     11  C   UNL A   1      35.404  22.081  25.296  1.00  0.00     0.026 A 
ATOM     12  C   UNL A   1      35.259  24.458  24.967  1.00  0.00     0.016 A 
ATOM     13  C   UNL A   1      35.835  23.366  25.611  1.00  0.00     0.003 A 
BRANCH  10  14
ATOM     14  N   UNL A   1      33.748  20.649  24.251  1.00  0.00    -0.308 N 
ATOM     15  C   UNL A   1      32.923  20.050  25.149  1.00  0.00     0.319 C 
ATOM     16  H   UNL A   1      33.907  20.138  23.424  1.00  0.00     0.171 HD
ATOM     17  O   UNL A   1      32.677  18.849  25.034  1.00  0.00    -0.248 OA
ATOM     18  N   UNL A   1      32.259  20.762  26.101  1.00  0.00    -0.333 N 
ATOM     19  H   UNL A   1      31.917  20.244  26.864  1.00  0.00     0.165 HD
BRANCH  18  20
ATOM     20  C   UNL A   1      31.994  22.185  26.131  1.00  0.00     0.112 C 
ATOM     21  C   UNL A   1      30.539  22.578  26.044  1.00  0.00     0.056 C 
ATOM     22  C   UNL A   1      32.462  23.000  27.321  1.00  0.00     0.185 C 
ATOM     23  C   UNL A   1      30.701  24.074  26.223  1.00  0.00     0.162 C 
ATOM     24  O   UNL A   1      31.702  24.231  27.251  1.00  0.00    -0.379 OA
ENDBRANCH  18  20
ENDBRANCH  10  14
ENDBRANCH   5   7
ENDBRANCH   4   5
ENDBRANCH   3   4
ENDBRANCH   2   3
ENDBRANCH   1   2
BRANCH   1  25
ATOM     25  C   UNL A   1      32.170  30.113  26.656  1.00  0.00     0.202 C 
BRANCH  25  26
ATOM     26  C   UNL A   1      33.686  30.196  26.852  1.00  0.00     0.261 C 
BRANCH  26  27
ATOM     27  O   UNL A   1      33.991  31.169  27.879  1.00  0.00    -0.460 OA
BRANCH  27  28
ATOM     28  C   UNL A   1      35.299  31.538  28.005  1.00  0.00     0.338 C 
ATOM     29  O   UNL A   1      35.749  32.641  27.736  1.00  0.00    -0.246 OA
BRANCH  28  30
ATOM     30  C   UNL A   1      36.156  30.330  28.219  1.00  0.00     0.060 A 
ATOM     31  C   UNL A   1      36.192  29.697  29.479  1.00  0.00     0.016 A 
ATOM     32  C   UNL A   1      37.163  30.076  27.293  1.00  0.00     0.016 A 
ATOM     33  C   UNL A   1      37.325  28.962  29.872  1.00  0.00     0.010 A 
ATOM     34  C   UNL A   1      38.319  29.468  27.732  1.00  0.00     0.010 A 
ATOM     35  C   UNL A   1      38.430  28.935  29.028  1.00  0.00    -0.014 A 
BRANCH  35  36
ATOM     36  C   UNL A   1      39.788  28.481  29.364  1.00  0.00     0.031 A 
ATOM     37  C   UNL A   1      40.186  27.136  28.883  1.00  0.00     0.074 A 
ATOM     38  C   UNL A   1      40.741  29.349  29.797  1.00  0.00     0.049 A 
ATOM     39  N   UNL A   1      41.326  26.602  29.132  1.00  0.00    -0.248 NA
ATOM     40  C   UNL A   1      39.325  26.246  28.099  1.00  0.00     0.031 C 
ATOM     41  C   UNL A   1      42.198  29.253  29.649  1.00  0.00     0.029 A 
ATOM     42  N   UNL A   1      40.600  30.566  30.474  1.00  0.00    -0.354 N 
ATOM     43  C   UNL A   1      41.484  25.518  28.305  1.00  0.00     0.074 A 
ATOM     44  C   UNL A   1      40.171  25.261  27.782  1.00  0.00     0.031 C 
ATOM     45  C   UNL A   1      42.800  30.153  30.449  1.00  0.00     0.029 A 
ATOM     46  C   UNL A   1      41.757  30.789  31.233  1.00  0.00     0.049 A 
ATOM     47  H   UNL A   1      39.818  31.164  30.426  1.00  0.00     0.167 HD
ATOM     48  C   UNL A   1      42.751  25.063  28.102  1.00  0.00     0.037 A 
ATOM     49  C   UNL A   1      41.679  30.916  32.582  1.00  0.00     0.037 A 
ATOM     50  C   UNL A   1      43.674  25.727  29.037  1.00  0.00     0.049 A 
ATOM     51  C   UNL A   1      42.393  29.733  33.163  1.00  0.00     0.074 A 
ATOM     52  C   UNL A   1      44.649  26.698  28.899  1.00  0.00     0.029 A 
ATOM     53  N   UNL A   1      43.408  25.635  30.407  1.00  0.00    -0.354 N 
ATOM     54  N   UNL A   1      42.508  28.603  32.513  1.00  0.00    -0.248 NA
ATOM     55  C   UNL A   1      43.183  29.769  34.388  1.00  0.00     0.031 C 
ATOM     56  C   UNL A   1      44.880  27.264  30.193  1.00  0.00     0.029 A 
ATOM     57  C   UNL A   1      44.076  26.612  31.121  1.00  0.00     0.049 A 
ATOM     58  H   UNL A   1      42.818  24.959  30.812  1.00  0.00     0.167 HD
ATOM     59  C   UNL A   1      43.462  27.846  33.113  1.00  0.00     0.074 A 
ATOM     60  C   UNL A   1      43.809  28.581  34.319  1.00  0.00     0.031 C 
ATOM     61  C   UNL A   1      43.948  26.693  32.575  1.00  0.00     0.037 A 
BRANCH  48  62
ATOM     62  C   UNL A   1      43.200  24.136  26.989  1.00  0.00     0.057 A 
ATOM     63  C   UNL A   1      43.002  22.746  27.109  1.00  0.00     0.134 A 
ATOM     64  C   UNL A   1      43.899  24.512  25.822  1.00  0.00     0.134 A 
ATOM     65  F   UNL A   1      42.380  22.219  28.174  1.00  0.00    -0.206 F 
ATOM     66  C   UNL A   1      43.447  21.819  26.152  1.00  0.00     0.040 A 
ATOM     67  C   UNL A   1      44.309  23.600  24.836  1.00  0.00     0.040 A 
ATOM     68  F   UNL A   1      44.280  25.769  25.583  1.00  0.00    -0.206 F 
ATOM     69  C   UNL A   1      44.090  22.244  25.000  1.00  0.00     0.006 A 
ENDBRANCH  48  62
BRANCH  49  70
ATOM     70  C   UNL A   1      40.416  31.603  32.995  1.00  0.00     0.057 A 
ATOM     71  C   UNL A   1      40.363  33.001  32.788  1.00  0.00     0.134 A 
ATOM     72  C   UNL A   1      39.185  30.938  33.037  1.00  0.00     0.134 A 
ATOM     73  F   UNL A   1      41.501  33.711  32.710  1.00  0.00    -0.206 F 
ATOM     74  C   UNL A   1      39.169  33.673  32.495  1.00  0.00     0.040 A 
ATOM     75  C   UNL A   1      37.983  31.603  32.734  1.00  0.00     0.040 A 
ATOM     76  F   UNL A   1      39.135  29.609  33.207  1.00  0.00    -0.206 F 
ATOM     77  C   UNL A   1      37.977  32.961  32.418  1.00  0.00     0.006 A 
ENDBRANCH  49  70
BRANCH  61  78
ATOM     78  C   UNL A   1      44.378  25.549  33.447  1.00  0.00     0.057 A 
ATOM     79  C   UNL A   1      43.514  24.914  34.357  1.00  0.00     0.134 A 
ATOM     80  C   UNL A   1      45.620  24.914  33.253  1.00  0.00     0.134 A 
ATOM     81  F   UNL A   1      42.249  25.320  34.538  1.00  0.00    -0.206 F 
ATOM     82  C   UNL A   1      43.889  23.785  35.085  1.00  0.00     0.040 A 
ATOM     83  C   UNL A   1      45.977  23.744  33.921  1.00  0.00     0.040 A 
ATOM     84  F   UNL A   1      46.525  25.374  32.376  1.00  0.00    -0.206 F 
ATOM     85  C   UNL A   1      45.121  23.190  34.860  1.00  0.00     0.006 A 
ENDBRANCH  61  78
ENDBRANCH  35  36
ENDBRANCH  28  30
ENDBRANCH  27  28
ENDBRANCH  26  27
ENDBRANCH  25  26
ENDBRANCH   1  25
TORSDOF 16
ENDMDL
MODEL 3
REMARK VINA RESULT:     -11.4      1.467      2.706
REMARK SMILES Cc1c(NC(=O)N[C@H]2CCOC2)cccc1C(=O)OCCOCCOC(=O)c1ccc(-c2c3nc(c(-c4c(F)cccc4F)c4ccc([nH]4)c(-c4c(F)cccc4F)c4nc(c(-c5c(F)cccc5F)c5ccc2[nH]5)C=C4)C=C3)cc1
REMARK SMILES IDX 22 1 21 2 20 3 19 4 17 5 18 6 16 7 1 8 2 9 3 10 13 11 15 12
REMARK SMILES IDX 14 13 4 14 5 15 6 17 7 18 8 20 9 21 12 22 10 23 11 24 23 25
REMARK SMILES IDX 24 26 25 27 26 28 27 29 28 30 29 31 81 32 30 33 80 34 31 35
REMARK SMILES IDX 32 36 33 37 74 38 34 39 79 40 73 41 75 42 35 43 78 44 72 45
REMARK SMILES IDX 71 46 36 48 62 49 45 50 61 51 46 52 49 53 60 54 76 55 47 56
REMARK SMILES IDX 48 57 59 59 77 60 50 61 37 62 38 63 43 64 39 65 40 66 42 67
REMARK SMILES IDX 44 68 41 69 63 70 64 71 69 72 65 73 66 74 68 75 70 76 67 77
REMARK SMILES IDX 51 78 52 79 57 80 53 81 54 82 56 83 58 84 55 85
REMARK H PARENT 4 16 7 19 75 47 49 58
REMARK Flexibility Score: inf
ROOT
ATOM      1  O   UNL A   1      32.981  28.303  26.701  1.00  0.00    -0.374 OA
ENDROOT
BRANCH   1   2
ATOM      2  C   UNL A   1      32.297  27.591  25.687  1.00  0.00     0.202 C 
BRANCH   2   3
ATOM      3  C   UNL A   1      31.358  26.733  26.449  1.00  0.00     0.261 C 
BRANCH   3   4
ATOM      4  O   UNL A   1      31.014  25.565  25.689  1.00  0.00    -0.460 OA
BRANCH   4   5
ATOM      5  C   UNL A   1      31.002  24.309  26.189  1.00  0.00     0.338 C 
ATOM      6  O   UNL A   1      30.518  23.936  27.233  1.00  0.00    -0.246 OA
BRANCH   5   7
ATOM      7  C   UNL A   1      31.728  23.422  25.218  1.00  0.00     0.065 A 
ATOM      8  C   UNL A   1      33.726  22.950  26.783  1.00  0.00     0.047 C 
ATOM      9  C   UNL A   1      33.002  22.837  25.461  1.00  0.00    -0.013 A 
ATOM     10  C   UNL A   1      33.677  22.284  24.356  1.00  0.00     0.046 A 
ATOM     11  C   UNL A   1      33.027  22.097  23.125  1.00  0.00     0.026 A 
ATOM     12  C   UNL A   1      31.104  23.273  23.962  1.00  0.00     0.016 A 
ATOM     13  C   UNL A   1      31.737  22.584  22.931  1.00  0.00     0.003 A 
BRANCH  10  14
ATOM     14  N   UNL A   1      35.066  22.098  24.438  1.00  0.00    -0.308 N 
ATOM     15  C   UNL A   1      35.775  21.100  25.029  1.00  0.00     0.319 C 
ATOM     16  H   UNL A   1      35.608  22.795  24.003  1.00  0.00     0.171 HD
ATOM     17  O   UNL A   1      36.976  21.262  25.245  1.00  0.00    -0.248 OA
ATOM     18  N   UNL A   1      35.228  19.879  25.275  1.00  0.00    -0.333 N 
ATOM     19  H   UNL A   1      35.698  19.323  25.937  1.00  0.00     0.165 HD
BRANCH  18  20
ATOM     20  C   UNL A   1      34.042  19.294  24.685  1.00  0.00     0.112 C 
ATOM     21  C   UNL A   1      34.231  17.938  24.049  1.00  0.00     0.056 C 
ATOM     22  C   UNL A   1      32.823  19.057  25.555  1.00  0.00     0.185 C 
ATOM     23  C   UNL A   1      32.788  17.659  23.683  1.00  0.00     0.162 C 
ATOM     24  O   UNL A   1      32.011  18.116  24.811  1.00  0.00    -0.379 OA
ENDBRANCH  18  20
ENDBRANCH  10  14
ENDBRANCH   5   7
ENDBRANCH   4   5
ENDBRANCH   3   4
ENDBRANCH   2   3
ENDBRANCH   1   2
BRANCH   1  25
ATOM     25  C   UNL A   1      33.514  29.545  26.316  1.00  0.00     0.202 C 
BRANCH  25  26
ATOM     26  C   UNL A   1      33.530  30.538  27.482  1.00  0.00     0.261 C 
BRANCH  26  27
ATOM     27  O   UNL A   1      34.605  31.489  27.297  1.00  0.00    -0.460 OA
BRANCH  27  28
ATOM     28  C   UNL A   1      35.465  31.653  28.344  1.00  0.00     0.338 C 
ATOM     29  O   UNL A   1      35.708  32.715  28.896  1.00  0.00    -0.246 OA
BRANCH  28  30
ATOM     30  C   UNL A   1      36.299  30.423  28.521  1.00  0.00     0.060 A 
ATOM     31  C   UNL A   1      36.308  29.742  29.757  1.00  0.00     0.016 A 
ATOM     32  C   UNL A   1      37.314  30.189  27.600  1.00  0.00     0.016 A 
ATOM     33  C   UNL A   1      37.424  28.974  30.135  1.00  0.00     0.010 A 
ATOM     34  C   UNL A   1      38.455  29.545  28.029  1.00  0.00     0.010 A 
ATOM     35  C   UNL A   1      38.540  28.961  29.305  1.00  0.00    -0.014 A 
BRANCH  35  36
ATOM     36  C   UNL A   1      39.885  28.472  29.640  1.00  0.00     0.031 A 
ATOM     37  C   UNL A   1      40.284  27.158  29.079  1.00  0.00     0.074 A 
ATOM     38  C   UNL A   1      40.837  29.300  30.151  1.00  0.00     0.049 A 
ATOM     39  N   UNL A   1      41.413  26.597  29.318  1.00  0.00    -0.248 NA
ATOM     40  C   UNL A   1      39.433  26.331  28.219  1.00  0.00     0.031 C 
ATOM     41  C   UNL A   1      42.296  29.199  30.029  1.00  0.00     0.029 A 
ATOM     42  N   UNL A   1      40.690  30.471  30.904  1.00  0.00    -0.354 N 
ATOM     43  C   UNL A   1      41.580  25.569  28.424  1.00  0.00     0.074 A 
ATOM     44  C   UNL A   1      40.277  25.360  27.856  1.00  0.00     0.031 C 
ATOM     45  C   UNL A   1      42.887  30.038  30.900  1.00  0.00     0.029 A 
ATOM     46  C   UNL A   1      41.832  30.631  31.701  1.00  0.00     0.049 A 
ATOM     47  H   UNL A   1      39.915  31.078  30.878  1.00  0.00     0.167 HD
ATOM     48  C   UNL A   1      42.848  25.116  28.219  1.00  0.00     0.037 A 
ATOM     49  C   UNL A   1      41.724  30.669  33.054  1.00  0.00     0.037 A 
ATOM     50  C   UNL A   1      43.755  25.707  29.216  1.00  0.00     0.049 A 
ATOM     51  C   UNL A   1      42.414  29.443  33.570  1.00  0.00     0.074 A 
ATOM     52  C   UNL A   1      44.740  26.675  29.165  1.00  0.00     0.029 A 
ATOM     53  N   UNL A   1      43.457  25.527  30.571  1.00  0.00    -0.354 N 
ATOM     54  N   UNL A   1      42.535  28.358  32.849  1.00  0.00    -0.248 NA
ATOM     55  C   UNL A   1      43.176  29.390  34.812  1.00  0.00     0.031 C 
ATOM     56  C   UNL A   1      44.947  27.152  30.499  1.00  0.00     0.029 A 
ATOM     57  C   UNL A   1      44.117  26.448  31.363  1.00  0.00     0.049 A 
ATOM     58  H   UNL A   1      42.852  24.832  30.918  1.00  0.00     0.167 HD
ATOM     59  C   UNL A   1      43.468  27.553  33.419  1.00  0.00     0.074 A 
ATOM     60  C   UNL A   1      43.794  28.204  34.678  1.00  0.00     0.031 C 
ATOM     61  C   UNL A   1      43.956  26.433  32.816  1.00  0.00     0.037 A 
BRANCH  48  62
ATOM     62  C   UNL A   1      43.314  24.260  27.057  1.00  0.00     0.057 A 
ATOM     63  C   UNL A   1      43.918  24.865  25.936  1.00  0.00     0.134 A 
ATOM     64  C   UNL A   1      43.136  22.867  26.924  1.00  0.00     0.134 A 
ATOM     65  F   UNL A   1      44.133  26.188  25.888  1.00  0.00    -0.206 F 
ATOM     66  C   UNL A   1      44.317  24.148  24.796  1.00  0.00     0.040 A 
ATOM     67  C   UNL A   1      43.572  22.132  25.810  1.00  0.00     0.040 A 
ATOM     68  F   UNL A   1      42.484  22.133  27.830  1.00  0.00    -0.206 F 
ATOM     69  C   UNL A   1      44.160  22.772  24.735  1.00  0.00     0.006 A 
ENDBRANCH  48  62
BRANCH  49  70
ATOM     70  C   UNL A   1      40.458  31.341  33.483  1.00  0.00     0.057 A 
ATOM     71  C   UNL A   1      40.439  32.752  33.415  1.00  0.00     0.134 A 
ATOM     72  C   UNL A   1      39.215  30.702  33.409  1.00  0.00     0.134 A 
ATOM     73  F   UNL A   1      41.592  33.442  33.454  1.00  0.00    -0.206 F 
ATOM     74  C   UNL A   1      39.271  33.477  33.144  1.00  0.00     0.040 A 
ATOM     75  C   UNL A   1      38.038  31.420  33.128  1.00  0.00     0.040 A 
ATOM     76  F   UNL A   1      39.133  29.365  33.444  1.00  0.00    -0.206 F 
ATOM     77  C   UNL A   1      38.070  32.803  32.949  1.00  0.00     0.006 A 
ENDBRANCH  49  70
BRANCH  61  78
ATOM     78  C   UNL A   1      44.356  25.230  33.619  1.00  0.00     0.057 A 
ATOM     79  C   UNL A   1      43.482  24.578  34.507  1.00  0.00     0.134 A 
ATOM     80  C   UNL A   1      45.572  24.564  33.374  1.00  0.00     0.134 A 
ATOM     81  F   UNL A   1      42.235  25.017  34.729  1.00  0.00    -0.206 F 
ATOM     82  C   UNL A   1      43.826  23.399  35.168  1.00  0.00     0.040 A 
ATOM     83  C   UNL A   1      45.896  23.347  33.973  1.00  0.00     0.040 A 
ATOM     84  F   UNL A   1      46.482  25.038  32.509  1.00  0.00    -0.206 F 
ATOM     85  C   UNL A   1      45.033  22.774  34.894  1.00  0.00     0.006 A 
ENDBRANCH  61  78
ENDBRANCH  35  36
ENDBRANCH  28  30
ENDBRANCH  27  28
ENDBRANCH  26  27
ENDBRANCH  25  26
ENDBRANCH   1  25
TORSDOF 16
ENDMDL
