MODEL 1
REMARK VINA RESULT:     -10.7      0.000      0.000
REMARK SMILES [NH3+][C@@H](CC1=C[C@H](S)c2ccccc2C1)C(=O)OCCOCCOC(=O)c1ccc(-c2c3nc(c(-c4c(F)cccc4F)c4ccc([nH]4)c(-c4c(F)cccc4F)c4nc(c(-c5c(F)cccc5F)c5ccc2[nH]5)C=C4)C=C3)cc1
REMARK SMILES IDX 19 1 18 2 17 3 15 4 16 5 2 6 1 7 3 11 4 12 5 13 14 14 6 15
REMARK SMILES IDX 13 16 8 17 12 18 9 19 11 20 10 21 7 22 20 24 21 25 22 26
REMARK SMILES IDX 23 27 24 28 25 29 26 30 27 31 79 32 28 33 78 34 29 35 30 36
REMARK SMILES IDX 31 37 72 38 32 39 77 40 71 41 73 42 33 43 76 44 70 45 69 46
REMARK SMILES IDX 34 48 60 49 43 50 59 51 44 52 47 53 58 54 74 55 45 56 46 57
REMARK SMILES IDX 57 59 75 60 48 61 35 62 36 63 41 64 37 65 38 66 40 67 42 68
REMARK SMILES IDX 39 69 61 70 62 71 67 72 63 73 64 74 66 75 68 76 65 77 49 78
REMARK SMILES IDX 50 79 55 80 51 81 52 82 54 83 56 84 53 85
REMARK H PARENT 1 8 1 9 1 10 7 23 73 47 47 58
REMARK Flexibility Score: inf
ROOT
ATOM      1  C   UNL A   1      46.099  20.122  24.732  1.00  0.00     0.202 C 
ENDROOT
BRANCH   1   2
ATOM      2  C   UNL A   1      45.227  18.900  25.023  1.00  0.00     0.261 C 
BRANCH   2   3
ATOM      3  O   UNL A   1      43.871  19.133  24.610  1.00  0.00    -0.459 OA
BRANCH   3   4
ATOM      4  C   UNL A   1      42.918  18.979  25.572  1.00  0.00     0.365 C 
ATOM      5  O   UNL A   1      42.423  17.907  25.902  1.00  0.00    -0.245 OA
BRANCH   4   6
ATOM      6  C   UNL A   1      42.486  20.317  26.180  1.00  0.00     0.295 C 
BRANCH   6   7
ATOM      7  N   UNL A   1      42.845  21.501  25.367  1.00  0.00    -0.346 N 
ATOM      8  H   UNL A   1      43.817  21.426  25.066  1.00  0.00     0.345 HD
ATOM      9  H   UNL A   1      42.726  22.346  25.927  1.00  0.00     0.345 HD
ATOM     10  H   UNL A   1      42.238  21.548  24.549  1.00  0.00     0.345 HD
ENDBRANCH   6   7
BRANCH   6  11
ATOM     11  C   UNL A   1      41.023  20.243  26.643  1.00  0.00     0.108 C 
BRANCH  11  12
ATOM     12  C   UNL A   1      40.011  21.346  26.361  1.00  0.00    -0.062 C 
ATOM     13  C   UNL A   1      40.184  22.672  26.528  1.00  0.00    -0.009 C 
ATOM     14  C   UNL A   1      38.698  20.801  25.843  1.00  0.00     0.066 C 
ATOM     15  C   UNL A   1      39.128  23.726  26.294  1.00  0.00     0.096 C 
ATOM     16  C   UNL A   1      37.620  21.814  25.559  1.00  0.00    -0.039 A 
ATOM     17  C   UNL A   1      37.810  23.191  25.776  1.00  0.00    -0.028 A 
ATOM     18  C   UNL A   1      36.394  21.348  25.054  1.00  0.00     0.004 A 
ATOM     19  C   UNL A   1      36.756  24.073  25.473  1.00  0.00     0.005 A 
ATOM     20  C   UNL A   1      35.357  22.233  24.778  1.00  0.00     0.000 A 
ATOM     21  C   UNL A   1      35.537  23.594  24.992  1.00  0.00     0.000 A 
BRANCH  15  22
ATOM     22  S   UNL A   1      38.922  24.608  27.889  1.00  0.00    -0.167 SA
ATOM     23  H   UNL A   1      39.909  24.233  28.746  1.00  0.00     0.103 HD
ENDBRANCH  15  22
ENDBRANCH  11  12
ENDBRANCH   6  11
ENDBRANCH   4   6
ENDBRANCH   3   4
ENDBRANCH   2   3
ENDBRANCH   1   2
BRANCH   1  24
ATOM     24  O   UNL A   1      46.052  21.190  25.677  1.00  0.00    -0.374 OA
BRANCH  24  25
ATOM     25  C   UNL A   1      46.254  22.516  25.195  1.00  0.00     0.202 C 
BRANCH  25  26
ATOM     26  C   UNL A   1      45.293  23.028  24.114  1.00  0.00     0.261 C 
BRANCH  26  27
ATOM     27  O   UNL A   1      44.387  24.041  24.584  1.00  0.00    -0.460 OA
BRANCH  27  28
ATOM     28  C   UNL A   1      44.991  25.172  25.026  1.00  0.00     0.338 C 
ATOM     29  O   UNL A   1      46.015  25.683  24.594  1.00  0.00    -0.246 OA
BRANCH  28  30
ATOM     30  C   UNL A   1      44.146  25.833  26.039  1.00  0.00     0.060 A 
ATOM     31  C   UNL A   1      43.217  25.117  26.795  1.00  0.00     0.016 A 
ATOM     32  C   UNL A   1      44.345  27.201  26.270  1.00  0.00     0.016 A 
ATOM     33  C   UNL A   1      42.520  25.769  27.814  1.00  0.00     0.010 A 
ATOM     34  C   UNL A   1      43.655  27.847  27.295  1.00  0.00     0.010 A 
ATOM     35  C   UNL A   1      42.756  27.129  28.093  1.00  0.00    -0.014 A 
BRANCH  35  36
ATOM     36  C   UNL A   1      42.155  27.744  29.303  1.00  0.00     0.031 A 
ATOM     37  C   UNL A   1      42.780  27.598  30.657  1.00  0.00     0.074 A 
ATOM     38  C   UNL A   1      41.019  28.453  29.162  1.00  0.00     0.049 A 
ATOM     39  N   UNL A   1      42.456  28.187  31.780  1.00  0.00    -0.248 NA
ATOM     40  C   UNL A   1      43.906  26.660  30.770  1.00  0.00     0.031 C 
ATOM     41  C   UNL A   1      40.275  28.608  27.910  1.00  0.00     0.029 A 
ATOM     42  N   UNL A   1      40.300  29.188  30.070  1.00  0.00    -0.354 N 
ATOM     43  C   UNL A   1      43.355  27.719  32.729  1.00  0.00     0.074 A 
ATOM     44  C   UNL A   1      44.194  26.743  32.062  1.00  0.00     0.031 C 
ATOM     45  C   UNL A   1      39.233  29.428  28.118  1.00  0.00     0.029 A 
ATOM     46  C   UNL A   1      39.222  29.836  29.518  1.00  0.00     0.049 A 
ATOM     47  H   UNL A   1      40.535  29.247  31.024  1.00  0.00     0.167 HD
ATOM     48  C   UNL A   1      43.486  28.091  34.027  1.00  0.00     0.037 A 
ATOM     49  C   UNL A   1      38.332  30.679  30.077  1.00  0.00     0.037 A 
ATOM     50  C   UNL A   1      42.627  29.038  34.694  1.00  0.00     0.049 A 
ATOM     51  C   UNL A   1      38.481  31.046  31.526  1.00  0.00     0.074 A 
ATOM     52  C   UNL A   1      42.700  29.503  35.996  1.00  0.00     0.029 A 
ATOM     53  N   UNL A   1      41.525  29.651  34.116  1.00  0.00    -0.354 N 
ATOM     54  N   UNL A   1      39.402  30.680  32.386  1.00  0.00    -0.248 NA
ATOM     55  C   UNL A   1      37.470  31.956  32.081  1.00  0.00     0.031 C 
ATOM     56  C   UNL A   1      41.613  30.357  36.220  1.00  0.00     0.029 A 
ATOM     57  C   UNL A   1      40.893  30.467  35.042  1.00  0.00     0.049 A 
ATOM     58  H   UNL A   1      41.234  29.525  33.184  1.00  0.00     0.167 HD
ATOM     59  C   UNL A   1      39.092  31.328  33.574  1.00  0.00     0.074 A 
ATOM     60  C   UNL A   1      37.919  32.137  33.314  1.00  0.00     0.031 C 
ATOM     61  C   UNL A   1      39.716  31.256  34.776  1.00  0.00     0.037 A 
BRANCH  48  62
ATOM     62  C   UNL A   1      44.617  27.477  34.801  1.00  0.00     0.057 A 
ATOM     63  C   UNL A   1      45.886  28.067  34.832  1.00  0.00     0.134 A 
ATOM     64  C   UNL A   1      44.447  26.278  35.505  1.00  0.00     0.134 A 
ATOM     65  F   UNL A   1      46.126  29.206  34.166  1.00  0.00    -0.206 F 
ATOM     66  C   UNL A   1      46.939  27.490  35.545  1.00  0.00     0.040 A 
ATOM     67  C   UNL A   1      45.482  25.708  36.248  1.00  0.00     0.040 A 
ATOM     68  F   UNL A   1      43.256  25.660  35.507  1.00  0.00    -0.206 F 
ATOM     69  C   UNL A   1      46.736  26.315  36.266  1.00  0.00     0.006 A 
ENDBRANCH  48  62
BRANCH  49  70
ATOM     70  C   UNL A   1      37.232  31.254  29.262  1.00  0.00     0.057 A 
ATOM     71  C   UNL A   1      36.068  30.526  28.994  1.00  0.00     0.134 A 
ATOM     72  C   UNL A   1      37.302  32.563  28.770  1.00  0.00     0.134 A 
ATOM     73  F   UNL A   1      35.941  29.264  29.430  1.00  0.00    -0.206 F 
ATOM     74  C   UNL A   1      35.010  31.079  28.270  1.00  0.00     0.040 A 
ATOM     75  C   UNL A   1      36.241  33.139  28.071  1.00  0.00     0.040 A 
ATOM     76  F   UNL A   1      38.385  33.318  29.009  1.00  0.00    -0.206 F 
ATOM     77  C   UNL A   1      35.090  32.394  27.818  1.00  0.00     0.006 A 
ENDBRANCH  49  70
BRANCH  61  78
ATOM     78  C   UNL A   1      39.139  32.086  35.888  1.00  0.00     0.057 A 
ATOM     79  C   UNL A   1      39.490  33.434  36.034  1.00  0.00     0.134 A 
ATOM     80  C   UNL A   1      38.224  31.555  36.810  1.00  0.00     0.134 A 
ATOM     81  F   UNL A   1      40.366  34.006  35.194  1.00  0.00    -0.206 F 
ATOM     82  C   UNL A   1      38.946  34.226  37.048  1.00  0.00     0.040 A 
ATOM     83  C   UNL A   1      37.650  32.346  37.807  1.00  0.00     0.040 A 
ATOM     84  F   UNL A   1      37.832  30.275  36.719  1.00  0.00    -0.206 F 
ATOM     85  C   UNL A   1      38.014  33.685  37.929  1.00  0.00     0.006 A 
ENDBRANCH  61  78
ENDBRANCH  35  36
ENDBRANCH  28  30
ENDBRANCH  27  28
ENDBRANCH  26  27
ENDBRANCH  25  26
ENDBRANCH  24  25
ENDBRANCH   1  24
TORSDOF 18
ENDMDL
MODEL 2
REMARK VINA RESULT:     -10.5      1.938      3.238
REMARK SMILES [NH3+][C@@H](CC1=C[C@H](S)c2ccccc2C1)C(=O)OCCOCCOC(=O)c1ccc(-c2c3nc(c(-c4c(F)cccc4F)c4ccc([nH]4)c(-c4c(F)cccc4F)c4nc(c(-c5c(F)cccc5F)c5ccc2[nH]5)C=C4)C=C3)cc1
REMARK SMILES IDX 19 1 18 2 17 3 15 4 16 5 2 6 1 7 3 11 4 12 5 13 14 14 6 15
REMARK SMILES IDX 13 16 8 17 12 18 9 19 11 20 10 21 7 22 20 24 21 25 22 26
REMARK SMILES IDX 23 27 24 28 25 29 26 30 27 31 79 32 28 33 78 34 29 35 30 36
REMARK SMILES IDX 31 37 72 38 32 39 77 40 71 41 73 42 33 43 76 44 70 45 69 46
REMARK SMILES IDX 34 48 60 49 43 50 59 51 44 52 47 53 58 54 74 55 45 56 46 57
REMARK SMILES IDX 57 59 75 60 48 61 35 62 36 63 41 64 37 65 38 66 40 67 42 68
REMARK SMILES IDX 39 69 61 70 62 71 67 72 63 73 64 74 66 75 68 76 65 77 49 78
REMARK SMILES IDX 50 79 55 80 51 81 52 82 54 83 56 84 53 85
REMARK H PARENT 1 8 1 9 1 10 7 23 73 47 47 58
REMARK Flexibility Score: inf
ROOT
ATOM      1  C   UNL A   1      41.383  21.234  26.503  1.00  0.00     0.202 C 
ENDROOT
BRANCH   1   2
ATOM      2  C   UNL A   1      40.369  22.172  27.159  1.00  0.00     0.261 C 
BRANCH   2   3
ATOM      3  O   UNL A   1      39.251  22.403  26.287  1.00  0.00    -0.459 OA
BRANCH   3   4
ATOM      4  C   UNL A   1      38.560  23.559  26.495  1.00  0.00     0.365 C 
ATOM      5  O   UNL A   1      38.844  24.404  27.337  1.00  0.00    -0.245 OA
BRANCH   4   6
ATOM      6  C   UNL A   1      37.338  23.677  25.579  1.00  0.00     0.295 C 
BRANCH   6   7
ATOM      7  N   UNL A   1      37.561  23.189  24.198  1.00  0.00    -0.346 N 
ATOM      8  H   UNL A   1      38.423  22.644  24.165  1.00  0.00     0.345 HD
ATOM      9  H   UNL A   1      37.636  23.985  23.564  1.00  0.00     0.345 HD
ATOM     10  H   UNL A   1      36.777  22.602  23.915  1.00  0.00     0.345 HD
ENDBRANCH   6   7
BRANCH   6  11
ATOM     11  C   UNL A   1      36.088  23.131  26.285  1.00  0.00     0.108 C 
BRANCH  11  12
ATOM     12  C   UNL A   1      35.013  22.330  25.562  1.00  0.00    -0.062 C 
ATOM     13  C   UNL A   1      33.853  22.792  25.057  1.00  0.00    -0.009 C 
ATOM     14  C   UNL A   1      35.372  20.864  25.447  1.00  0.00     0.066 C 
ATOM     15  C   UNL A   1      32.788  21.947  24.402  1.00  0.00     0.096 C 
ATOM     16  C   UNL A   1      34.358  19.980  24.769  1.00  0.00    -0.039 A 
ATOM     17  C   UNL A   1      33.136  20.479  24.281  1.00  0.00    -0.028 A 
ATOM     18  C   UNL A   1      34.666  18.617  24.622  1.00  0.00     0.004 A 
ATOM     19  C   UNL A   1      32.249  19.588  23.649  1.00  0.00     0.005 A 
ATOM     20  C   UNL A   1      33.769  17.748  24.011  1.00  0.00     0.000 A 
ATOM     21  C   UNL A   1      32.558  18.233  23.529  1.00  0.00     0.000 A 
BRANCH  15  22
ATOM     22  S   UNL A   1      31.257  22.203  25.379  1.00  0.00    -0.167 SA
ATOM     23  H   UNL A   1      30.364  22.917  24.643  1.00  0.00     0.103 HD
ENDBRANCH  15  22
ENDBRANCH  11  12
ENDBRANCH   6  11
ENDBRANCH   4   6
ENDBRANCH   3   4
ENDBRANCH   2   3
ENDBRANCH   1   2
BRANCH   1  24
ATOM     24  O   UNL A   1      42.111  21.749  25.388  1.00  0.00    -0.374 OA
BRANCH  24  25
ATOM     25  C   UNL A   1      43.534  21.662  25.423  1.00  0.00     0.202 C 
BRANCH  25  26
ATOM     26  C   UNL A   1      44.322  22.629  24.531  1.00  0.00     0.261 C 
BRANCH  26  27
ATOM     27  O   UNL A   1      43.741  23.942  24.455  1.00  0.00    -0.460 OA
BRANCH  27  28
ATOM     28  C   UNL A   1      44.498  24.924  25.006  1.00  0.00     0.338 C 
ATOM     29  O   UNL A   1      45.620  25.274  24.665  1.00  0.00    -0.246 OA
BRANCH  28  30
ATOM     30  C   UNL A   1      43.714  25.661  26.015  1.00  0.00     0.060 A 
ATOM     31  C   UNL A   1      42.666  25.057  26.711  1.00  0.00     0.016 A 
ATOM     32  C   UNL A   1      44.092  26.979  26.306  1.00  0.00     0.016 A 
ATOM     33  C   UNL A   1      42.027  25.764  27.731  1.00  0.00     0.010 A 
ATOM     34  C   UNL A   1      43.458  27.680  27.332  1.00  0.00     0.010 A 
ATOM     35  C   UNL A   1      42.439  27.067  28.071  1.00  0.00    -0.014 A 
BRANCH  35  36
ATOM     36  C   UNL A   1      41.882  27.718  29.283  1.00  0.00     0.031 A 
ATOM     37  C   UNL A   1      42.538  27.584  30.624  1.00  0.00     0.074 A 
ATOM     38  C   UNL A   1      40.758  28.450  29.157  1.00  0.00     0.049 A 
ATOM     39  N   UNL A   1      42.256  28.202  31.743  1.00  0.00    -0.248 NA
ATOM     40  C   UNL A   1      43.646  26.624  30.727  1.00  0.00     0.031 C 
ATOM     41  C   UNL A   1      39.987  28.598  27.922  1.00  0.00     0.029 A 
ATOM     42  N   UNL A   1      40.080  29.218  30.068  1.00  0.00    -0.354 N 
ATOM     43  C   UNL A   1      43.168  27.732  32.678  1.00  0.00     0.074 A 
ATOM     44  C   UNL A   1      43.969  26.725  32.009  1.00  0.00     0.031 C 
ATOM     45  C   UNL A   1      38.969  29.445  28.139  1.00  0.00     0.029 A 
ATOM     46  C   UNL A   1      39.001  29.880  29.531  1.00  0.00     0.049 A 
ATOM     47  H   UNL A   1      40.339  29.290  31.015  1.00  0.00     0.167 HD
ATOM     48  C   UNL A   1      43.340  28.125  33.965  1.00  0.00     0.037 A 
ATOM     49  C   UNL A   1      38.145  30.752  30.096  1.00  0.00     0.037 A 
ATOM     50  C   UNL A   1      42.520  29.103  34.634  1.00  0.00     0.049 A 
ATOM     51  C   UNL A   1      38.339  31.143  31.533  1.00  0.00     0.074 A 
ATOM     52  C   UNL A   1      42.635  29.592  35.925  1.00  0.00     0.029 A 
ATOM     53  N   UNL A   1      41.417  29.730  34.072  1.00  0.00    -0.354 N 
ATOM     54  N   UNL A   1      39.273  30.773  32.376  1.00  0.00    -0.248 NA
ATOM     55  C   UNL A   1      37.362  32.086  32.096  1.00  0.00     0.031 C 
ATOM     56  C   UNL A   1      41.574  30.473  36.160  1.00  0.00     0.029 A 
ATOM     57  C   UNL A   1      40.826  30.577  34.999  1.00  0.00     0.049 A 
ATOM     58  H   UNL A   1      41.100  29.593  33.151  1.00  0.00     0.167 HD
ATOM     59  C   UNL A   1      39.008  31.450  33.560  1.00  0.00     0.074 A 
ATOM     60  C   UNL A   1      37.847  32.280  33.313  1.00  0.00     0.031 C 
ATOM     61  C   UNL A   1      39.660  31.387  34.746  1.00  0.00     0.037 A 
BRANCH  48  62
ATOM     62  C   UNL A   1      44.477  27.501  34.722  1.00  0.00     0.057 A 
ATOM     63  C   UNL A   1      45.758  28.063  34.711  1.00  0.00     0.134 A 
ATOM     64  C   UNL A   1      44.299  26.318  35.452  1.00  0.00     0.134 A 
ATOM     65  F   UNL A   1      46.006  29.185  34.019  1.00  0.00    -0.206 F 
ATOM     66  C   UNL A   1      46.817  27.477  35.409  1.00  0.00     0.040 A 
ATOM     67  C   UNL A   1      45.340  25.740  36.180  1.00  0.00     0.040 A 
ATOM     68  F   UNL A   1      43.096  25.727  35.495  1.00  0.00    -0.206 F 
ATOM     69  C   UNL A   1      46.607  26.320  36.156  1.00  0.00     0.006 A 
ENDBRANCH  48  62
BRANCH  49  70
ATOM     70  C   UNL A   1      37.038  31.336  29.298  1.00  0.00     0.057 A 
ATOM     71  C   UNL A   1      37.113  32.641  28.795  1.00  0.00     0.134 A 
ATOM     72  C   UNL A   1      35.897  30.588  28.983  1.00  0.00     0.134 A 
ATOM     73  F   UNL A   1      38.175  33.413  29.068  1.00  0.00    -0.206 F 
ATOM     74  C   UNL A   1      36.097  33.178  28.004  1.00  0.00     0.040 A 
ATOM     75  C   UNL A   1      34.887  31.102  28.167  1.00  0.00     0.040 A 
ATOM     76  F   UNL A   1      35.775  29.326  29.420  1.00  0.00    -0.206 F 
ATOM     77  C   UNL A   1      34.985  32.403  27.677  1.00  0.00     0.006 A 
ENDBRANCH  49  70
BRANCH  61  78
ATOM     78  C   UNL A   1      39.130  32.250  35.856  1.00  0.00     0.057 A 
ATOM     79  C   UNL A   1      38.213  31.741  36.785  1.00  0.00     0.134 A 
ATOM     80  C   UNL A   1      39.535  33.584  36.016  1.00  0.00     0.134 A 
ATOM     81  F   UNL A   1      37.775  30.477  36.688  1.00  0.00    -0.206 F 
ATOM     82  C   UNL A   1      37.727  32.522  37.836  1.00  0.00     0.040 A 
ATOM     83  C   UNL A   1      39.081  34.362  37.082  1.00  0.00     0.040 A 
ATOM     84  F   UNL A   1      40.422  34.130  35.172  1.00  0.00    -0.206 F 
ATOM     85  C   UNL A   1      38.171  33.832  37.994  1.00  0.00     0.006 A 
ENDBRANCH  61  78
ENDBRANCH  35  36
ENDBRANCH  28  30
ENDBRANCH  27  28
ENDBRANCH  26  27
ENDBRANCH  25  26
ENDBRANCH  24  25
ENDBRANCH   1  24
TORSDOF 18
ENDMDL
MODEL 3
REMARK VINA RESULT:     -10.5      1.373      2.370
REMARK SMILES [NH3+][C@@H](CC1=C[C@H](S)c2ccccc2C1)C(=O)OCCOCCOC(=O)c1ccc(-c2c3nc(c(-c4c(F)cccc4F)c4ccc([nH]4)c(-c4c(F)cccc4F)c4nc(c(-c5c(F)cccc5F)c5ccc2[nH]5)C=C4)C=C3)cc1
REMARK SMILES IDX 19 1 18 2 17 3 15 4 16 5 2 6 1 7 3 11 4 12 5 13 14 14 6 15
REMARK SMILES IDX 13 16 8 17 12 18 9 19 11 20 10 21 7 22 20 24 21 25 22 26
REMARK SMILES IDX 23 27 24 28 25 29 26 30 27 31 79 32 28 33 78 34 29 35 30 36
REMARK SMILES IDX 31 37 72 38 32 39 77 40 71 41 73 42 33 43 76 44 70 45 69 46
REMARK SMILES IDX 34 48 60 49 43 50 59 51 44 52 47 53 58 54 74 55 45 56 46 57
REMARK SMILES IDX 57 59 75 60 48 61 35 62 36 63 41 64 37 65 38 66 40 67 42 68
REMARK SMILES IDX 39 69 61 70 62 71 67 72 63 73 64 74 66 75 68 76 65 77 49 78
REMARK SMILES IDX 50 79 55 80 51 81 52 82 54 83 56 84 53 85
REMARK H PARENT 1 8 1 9 1 10 7 23 73 47 47 58
REMARK Flexibility Score: inf
ROOT
ATOM      1  C   UNL A   1      43.201  19.547  25.635  1.00  0.00     0.202 C 
ENDROOT
BRANCH   1   2
ATOM      2  C   UNL A   1      41.794  19.707  26.212  1.00  0.00     0.261 C 
BRANCH   2   3
ATOM      3  O   UNL A   1      41.258  21.001  25.897  1.00  0.00    -0.459 OA
BRANCH   3   4
ATOM      4  C   UNL A   1      40.619  21.648  26.913  1.00  0.00     0.365 C 
ATOM      5  O   UNL A   1      40.995  21.662  28.080  1.00  0.00    -0.245 OA
BRANCH   4   6
ATOM      6  C   UNL A   1      39.331  22.333  26.446  1.00  0.00     0.295 C 
BRANCH   6   7
ATOM      7  N   UNL A   1      39.484  23.773  26.135  1.00  0.00    -0.346 N 
ATOM      8  H   UNL A   1      38.598  24.251  26.298  1.00  0.00     0.345 HD
ATOM      9  H   UNL A   1      39.757  23.883  25.158  1.00  0.00     0.345 HD
ATOM     10  H   UNL A   1      40.203  24.175  26.736  1.00  0.00     0.345 HD
ENDBRANCH   6   7
BRANCH   6  11
ATOM     11  C   UNL A   1      38.641  21.487  25.365  1.00  0.00     0.108 C 
BRANCH  11  12
ATOM     12  C   UNL A   1      37.216  21.750  24.894  1.00  0.00    -0.062 C 
ATOM     13  C   UNL A   1      36.739  22.881  24.337  1.00  0.00    -0.009 C 
ATOM     14  C   UNL A   1      36.310  20.559  25.116  1.00  0.00     0.066 C 
ATOM     15  C   UNL A   1      35.301  23.118  23.943  1.00  0.00     0.096 C 
ATOM     16  C   UNL A   1      34.870  20.731  24.706  1.00  0.00    -0.039 A 
ATOM     17  C   UNL A   1      34.385  21.934  24.160  1.00  0.00    -0.028 A 
ATOM     18  C   UNL A   1      34.003  19.639  24.875  1.00  0.00     0.004 A 
ATOM     19  C   UNL A   1      33.029  22.008  23.792  1.00  0.00     0.005 A 
ATOM     20  C   UNL A   1      32.661  19.736  24.521  1.00  0.00     0.000 A 
ATOM     21  C   UNL A   1      32.174  20.922  23.985  1.00  0.00     0.000 A 
BRANCH  15  22
ATOM     22  S   UNL A   1      34.746  24.589  24.889  1.00  0.00    -0.167 SA
ATOM     23  H   UNL A   1      34.765  25.682  24.080  1.00  0.00     0.103 HD
ENDBRANCH  15  22
ENDBRANCH  11  12
ENDBRANCH   6  11
ENDBRANCH   4   6
ENDBRANCH   3   4
ENDBRANCH   2   3
ENDBRANCH   1   2
BRANCH   1  24
ATOM     24  O   UNL A   1      43.630  20.533  24.695  1.00  0.00    -0.374 OA
BRANCH  24  25
ATOM     25  C   UNL A   1      44.998  20.933  24.727  1.00  0.00     0.202 C 
BRANCH  25  26
ATOM     26  C   UNL A   1      45.345  22.191  25.534  1.00  0.00     0.261 C 
BRANCH  26  27
ATOM     27  O   UNL A   1      44.231  23.082  25.716  1.00  0.00    -0.460 OA
BRANCH  27  28
ATOM     28  C   UNL A   1      44.523  24.392  25.524  1.00  0.00     0.338 C 
ATOM     29  O   UNL A   1      45.195  24.877  24.624  1.00  0.00    -0.246 OA
BRANCH  28  30
ATOM     30  C   UNL A   1      43.773  25.224  26.484  1.00  0.00     0.060 A 
ATOM     31  C   UNL A   1      42.676  24.721  27.184  1.00  0.00     0.016 A 
ATOM     32  C   UNL A   1      44.233  26.525  26.726  1.00  0.00     0.016 A 
ATOM     33  C   UNL A   1      42.068  25.514  28.160  1.00  0.00     0.010 A 
ATOM     34  C   UNL A   1      43.631  27.311  27.709  1.00  0.00     0.010 A 
ATOM     35  C   UNL A   1      42.559  26.800  28.453  1.00  0.00    -0.014 A 
BRANCH  35  36
ATOM     36  C   UNL A   1      42.027  27.539  29.624  1.00  0.00     0.031 A 
ATOM     37  C   UNL A   1      42.677  27.457  30.972  1.00  0.00     0.074 A 
ATOM     38  C   UNL A   1      40.932  28.304  29.454  1.00  0.00     0.049 A 
ATOM     39  N   UNL A   1      42.417  28.147  32.054  1.00  0.00    -0.248 NA
ATOM     40  C   UNL A   1      43.748  26.463  31.132  1.00  0.00     0.031 C 
ATOM     41  C   UNL A   1      40.167  28.410  28.210  1.00  0.00     0.029 A 
ATOM     42  N   UNL A   1      40.281  29.147  30.318  1.00  0.00    -0.354 N 
ATOM     43  C   UNL A   1      43.310  27.697  33.016  1.00  0.00     0.074 A 
ATOM     44  C   UNL A   1      44.074  26.625  32.408  1.00  0.00     0.031 C 
ATOM     45  C   UNL A   1      39.181  29.305  28.376  1.00  0.00     0.029 A 
ATOM     46  C   UNL A   1      39.229  29.817  29.742  1.00  0.00     0.049 A 
ATOM     47  H   UNL A   1      40.543  29.262  31.260  1.00  0.00     0.167 HD
ATOM     48  C   UNL A   1      43.496  28.156  34.279  1.00  0.00     0.037 A 
ATOM     49  C   UNL A   1      38.406  30.751  30.253  1.00  0.00     0.037 A 
ATOM     50  C   UNL A   1      42.713  29.200  34.890  1.00  0.00     0.049 A 
ATOM     51  C   UNL A   1      38.613  31.215  31.667  1.00  0.00     0.074 A 
ATOM     52  C   UNL A   1      42.846  29.757  36.151  1.00  0.00     0.029 A 
ATOM     53  N   UNL A   1      41.634  29.835  34.290  1.00  0.00    -0.354 N 
ATOM     54  N   UNL A   1      39.533  30.860  32.532  1.00  0.00    -0.248 NA
ATOM     55  C   UNL A   1      37.672  32.224  32.172  1.00  0.00     0.031 C 
ATOM     56  C   UNL A   1      41.818  30.689  36.333  1.00  0.00     0.029 A 
ATOM     57  C   UNL A   1      41.075  30.755  35.166  1.00  0.00     0.049 A 
ATOM     58  H   UNL A   1      41.313  29.658  33.377  1.00  0.00     0.167 HD
ATOM     59  C   UNL A   1      39.292  31.612  33.675  1.00  0.00     0.074 A 
ATOM     60  C   UNL A   1      38.163  32.469  33.378  1.00  0.00     0.031 C 
ATOM     61  C   UNL A   1      39.941  31.592  34.864  1.00  0.00     0.037 A 
BRANCH  48  62
ATOM     62  C   UNL A   1      44.609  27.534  35.074  1.00  0.00     0.057 A 
ATOM     63  C   UNL A   1      44.387  26.424  35.897  1.00  0.00     0.134 A 
ATOM     64  C   UNL A   1      45.907  28.059  35.036  1.00  0.00     0.134 A 
ATOM     65  F   UNL A   1      43.165  25.880  35.996  1.00  0.00    -0.206 F 
ATOM     66  C   UNL A   1      45.421  25.853  36.643  1.00  0.00     0.040 A 
ATOM     67  C   UNL A   1      46.956  27.478  35.751  1.00  0.00     0.040 A 
ATOM     68  F   UNL A   1      46.181  29.127  34.273  1.00  0.00    -0.206 F 
ATOM     69  C   UNL A   1      46.712  26.372  36.561  1.00  0.00     0.006 A 
ENDBRANCH  48  62
BRANCH  49  70
ATOM     70  C   UNL A   1      37.321  31.330  29.420  1.00  0.00     0.057 A 
ATOM     71  C   UNL A   1      36.127  30.636  29.196  1.00  0.00     0.134 A 
ATOM     72  C   UNL A   1      37.437  32.611  28.866  1.00  0.00     0.134 A 
ATOM     73  F   UNL A   1      35.956  29.402  29.692  1.00  0.00    -0.206 F 
ATOM     74  C   UNL A   1      35.085  31.195  28.454  1.00  0.00     0.040 A 
ATOM     75  C   UNL A   1      36.392  33.195  28.149  1.00  0.00     0.040 A 
ATOM     76  F   UNL A   1      38.551  33.333  29.061  1.00  0.00    -0.206 F 
ATOM     77  C   UNL A   1      35.212  32.484  27.939  1.00  0.00     0.006 A 
ENDBRANCH  49  70
BRANCH  61  78
ATOM     78  C   UNL A   1      39.442  32.536  35.923  1.00  0.00     0.057 A 
ATOM     79  C   UNL A   1      38.406  32.161  36.788  1.00  0.00     0.134 A 
ATOM     80  C   UNL A   1      39.995  33.813  36.096  1.00  0.00     0.134 A 
ATOM     81  F   UNL A   1      37.824  30.958  36.674  1.00  0.00    -0.206 F 
ATOM     82  C   UNL A   1      37.945  33.016  37.791  1.00  0.00     0.040 A 
ATOM     83  C   UNL A   1      39.565  34.663  37.116  1.00  0.00     0.040 A 
ATOM     84  F   UNL A   1      41.001  34.231  35.312  1.00  0.00    -0.206 F 
ATOM     85  C   UNL A   1      38.535  34.266  37.966  1.00  0.00     0.006 A 
ENDBRANCH  61  78
ENDBRANCH  35  36
ENDBRANCH  28  30
ENDBRANCH  27  28
ENDBRANCH  26  27
ENDBRANCH  25  26
ENDBRANCH  24  25
ENDBRANCH   1  24
TORSDOF 18
ENDMDL
