MODEL 1
REMARK VINA RESULT:     -11.2      0.000      0.000
REMARK SMILES C=C1c2ccccc2C(=O)N1[C@](C)(C(=O)OCCOCCOC(=O)c1ccc(-c2c3nc(c(-c4c(F)cccc4F)c4ccc([nH]4)c(-c4c(F)cccc4F)c4nc(c(-c5c(F)cccc5F)c5ccc2[nH]5)C=C4)C=C3)cc1)C(F)(F)F
REMARK SMILES IDX 20 1 19 2 18 3 17 4 16 5 14 6 15 7 12 8 13 9 11 10 1 11 2 12
REMARK SMILES IDX 3 13 4 14 8 15 9 16 5 17 7 18 10 19 6 20 79 21 80 22 81 23
REMARK SMILES IDX 82 24 21 25 22 26 23 27 24 28 25 29 26 30 78 31 27 32 77 33
REMARK SMILES IDX 28 34 29 35 30 36 71 37 31 38 76 39 70 40 72 41 32 42 75 43
REMARK SMILES IDX 69 44 68 45 33 47 59 48 42 49 58 50 43 51 46 52 57 53 73 54
REMARK SMILES IDX 44 55 45 56 56 58 74 59 47 60 34 61 35 62 40 63 36 64 37 65
REMARK SMILES IDX 39 66 41 67 38 68 60 69 61 70 66 71 62 72 63 73 65 74 67 75
REMARK SMILES IDX 64 76 48 77 49 78 54 79 50 80 51 81 53 82 55 83 52 84
REMARK H PARENT 72 46 46 57
REMARK Flexibility Score: inf
ROOT
ATOM      1  C   UNL A   1      31.384  32.042  26.588  1.00  0.00     0.202 C 
ENDROOT
BRANCH   1   2
ATOM      2  O   UNL A   1      32.075  30.801  26.697  1.00  0.00    -0.374 OA
BRANCH   2   3
ATOM      3  C   UNL A   1      31.783  29.777  25.748  1.00  0.00     0.202 C 
BRANCH   3   4
ATOM      4  C   UNL A   1      32.907  29.333  24.811  1.00  0.00     0.261 C 
BRANCH   4   5
ATOM      5  O   UNL A   1      32.574  28.092  24.171  1.00  0.00    -0.461 OA
BRANCH   5   6
ATOM      6  C   UNL A   1      32.915  26.957  24.842  1.00  0.00     0.341 C 
ATOM      7  O   UNL A   1      33.814  26.910  25.675  1.00  0.00    -0.249 OA
BRANCH   6   8
ATOM      8  C   UNL A   1      32.130  25.728  24.366  1.00  0.00     0.238 C 
ATOM      9  C   UNL A   1      31.610  25.787  22.907  1.00  0.00     0.058 C 
BRANCH   8  10
ATOM     10  N   UNL A   1      33.124  24.633  24.505  1.00  0.00    -0.283 N 
ATOM     11  C   UNL A   1      32.784  23.626  26.743  1.00  0.00     0.038 C 
ATOM     12  C   UNL A   1      33.420  23.806  25.584  1.00  0.00     0.046 C 
ATOM     13  C   UNL A   1      34.645  23.072  25.233  1.00  0.00     0.010 A 
ATOM     14  C   UNL A   1      35.432  22.169  25.925  1.00  0.00     0.011 A 
ATOM     15  C   UNL A   1      35.018  23.455  23.949  1.00  0.00     0.049 A 
ATOM     16  C   UNL A   1      34.056  24.443  23.472  1.00  0.00     0.260 C 
ATOM     17  C   UNL A   1      36.584  21.671  25.300  1.00  0.00     0.001 A 
ATOM     18  C   UNL A   1      36.148  22.986  23.305  1.00  0.00     0.014 A 
ATOM     19  O   UNL A   1      34.134  24.995  22.394  1.00  0.00    -0.269 OA
ATOM     20  C   UNL A   1      36.939  22.076  24.001  1.00  0.00     0.001 A 
ENDBRANCH   8  10
BRANCH   8  21
ATOM     21  C   UNL A   1      30.884  25.748  25.264  1.00  0.00     0.422 C 
ATOM     22  F   UNL A   1      29.915  26.557  24.758  1.00  0.00    -0.168 F 
ATOM     23  F   UNL A   1      30.318  24.514  25.334  1.00  0.00    -0.168 F 
ATOM     24  F   UNL A   1      31.091  26.166  26.528  1.00  0.00    -0.168 F 
ENDBRANCH   8  21
ENDBRANCH   6   8
ENDBRANCH   5   6
ENDBRANCH   4   5
ENDBRANCH   3   4
ENDBRANCH   2   3
ENDBRANCH   1   2
BRANCH   1  25
ATOM     25  C   UNL A   1      32.165  33.347  26.795  1.00  0.00     0.261 C 
BRANCH  25  26
ATOM     26  O   UNL A   1      32.211  33.788  28.161  1.00  0.00    -0.460 OA
BRANCH  26  27
ATOM     27  C   UNL A   1      33.292  34.552  28.455  1.00  0.00     0.338 C 
ATOM     28  O   UNL A   1      33.314  35.755  28.659  1.00  0.00    -0.246 OA
BRANCH  27  29
ATOM     29  C   UNL A   1      34.476  33.706  28.680  1.00  0.00     0.060 A 
ATOM     30  C   UNL A   1      34.260  32.418  29.187  1.00  0.00     0.016 A 
ATOM     31  C   UNL A   1      35.771  34.201  28.520  1.00  0.00     0.016 A 
ATOM     32  C   UNL A   1      35.339  31.635  29.583  1.00  0.00     0.010 A 
ATOM     33  C   UNL A   1      36.854  33.415  28.929  1.00  0.00     0.010 A 
ATOM     34  C   UNL A   1      36.639  32.146  29.498  1.00  0.00    -0.014 A 
BRANCH  34  35
ATOM     35  C   UNL A   1      37.750  31.408  30.145  1.00  0.00     0.031 A 
ATOM     36  C   UNL A   1      38.053  31.664  31.595  1.00  0.00     0.074 A 
ATOM     37  C   UNL A   1      38.448  30.485  29.459  1.00  0.00     0.049 A 
ATOM     38  N   UNL A   1      38.996  31.159  32.349  1.00  0.00    -0.248 NA
ATOM     39  C   UNL A   1      37.175  32.620  32.290  1.00  0.00     0.031 C 
ATOM     40  C   UNL A   1      38.214  30.114  28.065  1.00  0.00     0.029 A 
ATOM     41  N   UNL A   1      39.500  29.695  29.847  1.00  0.00    -0.354 N 
ATOM     42  C   UNL A   1      38.831  31.741  33.601  1.00  0.00     0.074 A 
ATOM     43  C   UNL A   1      37.719  32.661  33.497  1.00  0.00     0.031 C 
ATOM     44  C   UNL A   1      39.104  29.171  27.711  1.00  0.00     0.029 A 
ATOM     45  C   UNL A   1      39.993  28.904  28.840  1.00  0.00     0.049 A 
ATOM     46  H   UNL A   1      39.867  29.697  30.762  1.00  0.00     0.167 HD
ATOM     47  C   UNL A   1      39.537  31.518  34.735  1.00  0.00     0.037 A 
ATOM     48  C   UNL A   1      41.056  28.078  28.825  1.00  0.00     0.037 A 
ATOM     49  C   UNL A   1      40.641  30.599  34.832  1.00  0.00     0.049 A 
ATOM     50  C   UNL A   1      41.877  27.914  30.077  1.00  0.00     0.074 A 
ATOM     51  C   UNL A   1      41.412  30.292  35.940  1.00  0.00     0.029 A 
ATOM     52  N   UNL A   1      41.136  29.845  33.778  1.00  0.00    -0.354 N 
ATOM     53  N   UNL A   1      41.703  28.452  31.261  1.00  0.00    -0.248 NA
ATOM     54  C   UNL A   1      43.045  27.024  29.991  1.00  0.00     0.031 C 
ATOM     55  C   UNL A   1      42.411  29.398  35.542  1.00  0.00     0.029 A 
ATOM     56  C   UNL A   1      42.222  29.097  34.203  1.00  0.00     0.049 A 
ATOM     57  H   UNL A   1      40.770  29.842  32.865  1.00  0.00     0.167 HD
ATOM     58  C   UNL A   1      42.715  27.942  32.065  1.00  0.00     0.074 A 
ATOM     59  C   UNL A   1      43.489  27.040  31.239  1.00  0.00     0.031 C 
ATOM     60  C   UNL A   1      42.980  28.196  33.371  1.00  0.00     0.037 A 
BRANCH  47  61
ATOM     61  C   UNL A   1      39.155  32.303  35.958  1.00  0.00     0.057 A 
ATOM     62  C   UNL A   1      39.645  33.594  36.195  1.00  0.00     0.134 A 
ATOM     63  C   UNL A   1      38.254  31.774  36.891  1.00  0.00     0.134 A 
ATOM     64  F   UNL A   1      40.521  34.157  35.349  1.00  0.00    -0.206 F 
ATOM     65  C   UNL A   1      39.268  34.321  37.328  1.00  0.00     0.040 A 
ATOM     66  C   UNL A   1      37.847  32.502  38.010  1.00  0.00     0.040 A 
ATOM     67  F   UNL A   1      37.743  30.545  36.723  1.00  0.00    -0.206 F 
ATOM     68  C   UNL A   1      38.360  33.778  38.234  1.00  0.00     0.006 A 
ENDBRANCH  47  61
BRANCH  48  69
ATOM     69  C   UNL A   1      41.425  27.357  27.579  1.00  0.00     0.057 A 
ATOM     70  C   UNL A   1      41.004  26.042  27.349  1.00  0.00     0.134 A 
ATOM     71  C   UNL A   1      42.235  27.955  26.605  1.00  0.00     0.134 A 
ATOM     72  F   UNL A   1      40.246  25.407  28.254  1.00  0.00    -0.206 F 
ATOM     73  C   UNL A   1      41.395  25.339  26.208  1.00  0.00     0.040 A 
ATOM     74  C   UNL A   1      42.608  27.273  25.445  1.00  0.00     0.040 A 
ATOM     75  F   UNL A   1      42.672  29.212  26.764  1.00  0.00    -0.206 F 
ATOM     76  C   UNL A   1      42.195  25.957  25.249  1.00  0.00     0.006 A 
ENDBRANCH  48  69
BRANCH  60  77
ATOM     77  C   UNL A   1      44.126  27.457  34.000  1.00  0.00     0.057 A 
ATOM     78  C   UNL A   1      45.422  27.989  34.041  1.00  0.00     0.134 A 
ATOM     79  C   UNL A   1      43.922  26.211  34.608  1.00  0.00     0.134 A 
ATOM     80  F   UNL A   1      45.690  29.172  33.469  1.00  0.00    -0.206 F 
ATOM     81  C   UNL A   1      46.476  27.296  34.638  1.00  0.00     0.040 A 
ATOM     82  C   UNL A   1      44.961  25.524  35.237  1.00  0.00     0.040 A 
ATOM     83  F   UNL A   1      42.704  25.647  34.616  1.00  0.00    -0.206 F 
ATOM     84  C   UNL A   1      46.246  26.063  35.245  1.00  0.00     0.006 A 
ENDBRANCH  60  77
ENDBRANCH  34  35
ENDBRANCH  27  29
ENDBRANCH  26  27
ENDBRANCH  25  26
ENDBRANCH   1  25
TORSDOF 16
ENDMDL
MODEL 2
REMARK VINA RESULT:     -11.2      1.580      3.367
REMARK SMILES C=C1c2ccccc2C(=O)N1[C@](C)(C(=O)OCCOCCOC(=O)c1ccc(-c2c3nc(c(-c4c(F)cccc4F)c4ccc([nH]4)c(-c4c(F)cccc4F)c4nc(c(-c5c(F)cccc5F)c5ccc2[nH]5)C=C4)C=C3)cc1)C(F)(F)F
REMARK SMILES IDX 20 1 19 2 18 3 17 4 16 5 14 6 15 7 12 8 13 9 11 10 1 11 2 12
REMARK SMILES IDX 3 13 4 14 8 15 9 16 5 17 7 18 10 19 6 20 79 21 80 22 81 23
REMARK SMILES IDX 82 24 21 25 22 26 23 27 24 28 25 29 26 30 78 31 27 32 77 33
REMARK SMILES IDX 28 34 29 35 30 36 71 37 31 38 76 39 70 40 72 41 32 42 75 43
REMARK SMILES IDX 69 44 68 45 33 47 59 48 42 49 58 50 43 51 46 52 57 53 73 54
REMARK SMILES IDX 44 55 45 56 56 58 74 59 47 60 34 61 35 62 40 63 36 64 37 65
REMARK SMILES IDX 39 66 41 67 38 68 60 69 61 70 66 71 62 72 63 73 65 74 67 75
REMARK SMILES IDX 64 76 48 77 49 78 54 79 50 80 51 81 53 82 55 83 52 84
REMARK H PARENT 72 46 46 57
REMARK Flexibility Score: inf
ROOT
ATOM      1  C   UNL A   1      31.403  32.034  26.639  1.00  0.00     0.202 C 
ENDROOT
BRANCH   1   2
ATOM      2  O   UNL A   1      32.174  30.849  26.815  1.00  0.00    -0.374 OA
BRANCH   2   3
ATOM      3  C   UNL A   1      31.757  29.662  26.143  1.00  0.00     0.202 C 
BRANCH   3   4
ATOM      4  C   UNL A   1      31.806  28.347  26.923  1.00  0.00     0.261 C 
BRANCH   4   5
ATOM      5  O   UNL A   1      32.479  27.332  26.164  1.00  0.00    -0.461 OA
BRANCH   5   6
ATOM      6  C   UNL A   1      31.815  26.154  26.010  1.00  0.00     0.341 C 
ATOM      7  O   UNL A   1      31.281  25.554  26.937  1.00  0.00    -0.249 OA
BRANCH   6   8
ATOM      8  C   UNL A   1      31.900  25.607  24.580  1.00  0.00     0.238 C 
ATOM      9  C   UNL A   1      31.247  24.219  24.352  1.00  0.00     0.058 C 
BRANCH   8  10
ATOM     10  N   UNL A   1      31.181  26.640  23.792  1.00  0.00    -0.283 N 
ATOM     11  C   UNL A   1      32.897  27.948  22.574  1.00  0.00     0.038 C 
ATOM     12  C   UNL A   1      31.662  27.680  23.003  1.00  0.00     0.046 C 
ATOM     13  C   UNL A   1      30.508  28.523  22.660  1.00  0.00     0.010 A 
ATOM     14  C   UNL A   1      30.384  29.710  21.960  1.00  0.00     0.011 A 
ATOM     15  C   UNL A   1      29.375  27.942  23.220  1.00  0.00     0.049 A 
ATOM     16  C   UNL A   1      29.788  26.741  23.938  1.00  0.00     0.260 C 
ATOM     17  C   UNL A   1      29.110  30.286  21.843  1.00  0.00     0.001 A 
ATOM     18  C   UNL A   1      28.107  28.484  23.125  1.00  0.00     0.014 A 
ATOM     19  O   UNL A   1      29.026  26.034  24.564  1.00  0.00    -0.269 OA
ATOM     20  C   UNL A   1      27.981  29.678  22.421  1.00  0.00     0.001 A 
ENDBRANCH   8  10
BRANCH   8  21
ATOM     21  C   UNL A   1      33.409  25.404  24.378  1.00  0.00     0.422 C 
ATOM     22  F   UNL A   1      33.897  24.426  25.188  1.00  0.00    -0.168 F 
ATOM     23  F   UNL A   1      33.676  24.987  23.112  1.00  0.00    -0.168 F 
ATOM     24  F   UNL A   1      34.173  26.490  24.611  1.00  0.00    -0.168 F 
ENDBRANCH   8  21
ENDBRANCH   6   8
ENDBRANCH   5   6
ENDBRANCH   4   5
ENDBRANCH   3   4
ENDBRANCH   2   3
ENDBRANCH   1   2
BRANCH   1  25
ATOM     25  C   UNL A   1      32.072  33.396  26.869  1.00  0.00     0.261 C 
BRANCH  25  26
ATOM     26  O   UNL A   1      32.197  33.756  28.255  1.00  0.00    -0.460 OA
BRANCH  26  27
ATOM     27  C   UNL A   1      33.274  34.535  28.525  1.00  0.00     0.338 C 
ATOM     28  O   UNL A   1      33.287  35.740  28.711  1.00  0.00    -0.246 OA
BRANCH  27  29
ATOM     29  C   UNL A   1      34.469  33.703  28.747  1.00  0.00     0.060 A 
ATOM     30  C   UNL A   1      34.267  32.397  29.212  1.00  0.00     0.016 A 
ATOM     31  C   UNL A   1      35.757  34.225  28.625  1.00  0.00     0.016 A 
ATOM     32  C   UNL A   1      35.352  31.622  29.605  1.00  0.00     0.010 A 
ATOM     33  C   UNL A   1      36.846  33.448  29.031  1.00  0.00     0.010 A 
ATOM     34  C   UNL A   1      36.644  32.158  29.560  1.00  0.00    -0.014 A 
BRANCH  34  35
ATOM     35  C   UNL A   1      37.756  31.421  30.205  1.00  0.00     0.031 A 
ATOM     36  C   UNL A   1      38.060  31.677  31.655  1.00  0.00     0.074 A 
ATOM     37  C   UNL A   1      38.455  30.500  29.518  1.00  0.00     0.049 A 
ATOM     38  N   UNL A   1      39.004  31.173  32.408  1.00  0.00    -0.248 NA
ATOM     39  C   UNL A   1      37.181  32.631  32.351  1.00  0.00     0.031 C 
ATOM     40  C   UNL A   1      38.222  30.129  28.124  1.00  0.00     0.029 A 
ATOM     41  N   UNL A   1      39.509  29.712  29.905  1.00  0.00    -0.354 N 
ATOM     42  C   UNL A   1      38.839  31.753  33.660  1.00  0.00     0.074 A 
ATOM     43  C   UNL A   1      37.726  32.672  33.558  1.00  0.00     0.031 C 
ATOM     44  C   UNL A   1      39.113  29.188  27.769  1.00  0.00     0.029 A 
ATOM     45  C   UNL A   1      40.002  28.921  28.897  1.00  0.00     0.049 A 
ATOM     46  H   UNL A   1      39.876  29.713  30.820  1.00  0.00     0.167 HD
ATOM     47  C   UNL A   1      39.546  31.531  34.794  1.00  0.00     0.037 A 
ATOM     48  C   UNL A   1      41.067  28.097  28.881  1.00  0.00     0.037 A 
ATOM     49  C   UNL A   1      40.651  30.613  34.890  1.00  0.00     0.049 A 
ATOM     50  C   UNL A   1      41.889  27.933  30.133  1.00  0.00     0.074 A 
ATOM     51  C   UNL A   1      41.423  30.306  35.997  1.00  0.00     0.029 A 
ATOM     52  N   UNL A   1      41.147  29.861  33.836  1.00  0.00    -0.354 N 
ATOM     53  N   UNL A   1      41.715  28.470  31.317  1.00  0.00    -0.248 NA
ATOM     54  C   UNL A   1      43.057  27.045  30.045  1.00  0.00     0.031 C 
ATOM     55  C   UNL A   1      42.423  29.414  35.598  1.00  0.00     0.029 A 
ATOM     56  C   UNL A   1      42.235  29.114  34.259  1.00  0.00     0.049 A 
ATOM     57  H   UNL A   1      40.781  29.858  32.922  1.00  0.00     0.167 HD
ATOM     58  C   UNL A   1      42.727  27.961  32.120  1.00  0.00     0.074 A 
ATOM     59  C   UNL A   1      43.503  27.060  31.293  1.00  0.00     0.031 C 
ATOM     60  C   UNL A   1      42.992  28.214  33.426  1.00  0.00     0.037 A 
BRANCH  47  61
ATOM     61  C   UNL A   1      39.164  32.315  36.018  1.00  0.00     0.057 A 
ATOM     62  C   UNL A   1      39.662  33.602  36.262  1.00  0.00     0.134 A 
ATOM     63  C   UNL A   1      38.255  31.789  36.944  1.00  0.00     0.134 A 
ATOM     64  F   UNL A   1      40.546  34.160  35.422  1.00  0.00    -0.206 F 
ATOM     65  C   UNL A   1      39.285  34.328  37.395  1.00  0.00     0.040 A 
ATOM     66  C   UNL A   1      37.847  32.516  38.064  1.00  0.00     0.040 A 
ATOM     67  F   UNL A   1      37.735  30.565  36.770  1.00  0.00    -0.206 F 
ATOM     68  C   UNL A   1      38.369  33.788  38.294  1.00  0.00     0.006 A 
ENDBRANCH  47  61
BRANCH  48  69
ATOM     69  C   UNL A   1      41.436  27.377  27.635  1.00  0.00     0.057 A 
ATOM     70  C   UNL A   1      42.221  27.984  26.649  1.00  0.00     0.134 A 
ATOM     71  C   UNL A   1      40.983  26.074  27.387  1.00  0.00     0.134 A 
ATOM     72  F   UNL A   1      42.665  29.237  26.817  1.00  0.00    -0.206 F 
ATOM     73  C   UNL A   1      42.522  27.333  25.451  1.00  0.00     0.040 A 
ATOM     74  C   UNL A   1      41.302  25.401  26.207  1.00  0.00     0.040 A 
ATOM     75  F   UNL A   1      40.227  25.435  28.291  1.00  0.00    -0.206 F 
ATOM     76  C   UNL A   1      42.066  26.035  25.230  1.00  0.00     0.006 A 
ENDBRANCH  48  69
BRANCH  60  77
ATOM     77  C   UNL A   1      44.141  27.477  34.054  1.00  0.00     0.057 A 
ATOM     78  C   UNL A   1      43.988  26.204  34.618  1.00  0.00     0.134 A 
ATOM     79  C   UNL A   1      45.427  28.035  34.061  1.00  0.00     0.134 A 
ATOM     80  F   UNL A   1      42.783  25.616  34.656  1.00  0.00    -0.206 F 
ATOM     81  C   UNL A   1      45.066  25.526  35.190  1.00  0.00     0.040 A 
ATOM     82  C   UNL A   1      46.517  27.352  34.600  1.00  0.00     0.040 A 
ATOM     83  F   UNL A   1      45.647  29.246  33.528  1.00  0.00    -0.206 F 
ATOM     84  C   UNL A   1      46.337  26.097  35.176  1.00  0.00     0.006 A 
ENDBRANCH  60  77
ENDBRANCH  34  35
ENDBRANCH  27  29
ENDBRANCH  26  27
ENDBRANCH  25  26
ENDBRANCH   1  25
TORSDOF 16
ENDMDL
MODEL 3
REMARK VINA RESULT:     -11.0      1.716      6.997
REMARK SMILES C=C1c2ccccc2C(=O)N1[C@](C)(C(=O)OCCOCCOC(=O)c1ccc(-c2c3nc(c(-c4c(F)cccc4F)c4ccc([nH]4)c(-c4c(F)cccc4F)c4nc(c(-c5c(F)cccc5F)c5ccc2[nH]5)C=C4)C=C3)cc1)C(F)(F)F
REMARK SMILES IDX 20 1 19 2 18 3 17 4 16 5 14 6 15 7 12 8 13 9 11 10 1 11 2 12
REMARK SMILES IDX 3 13 4 14 8 15 9 16 5 17 7 18 10 19 6 20 79 21 80 22 81 23
REMARK SMILES IDX 82 24 21 25 22 26 23 27 24 28 25 29 26 30 78 31 27 32 77 33
REMARK SMILES IDX 28 34 29 35 30 36 71 37 31 38 76 39 70 40 72 41 32 42 75 43
REMARK SMILES IDX 69 44 68 45 33 47 59 48 42 49 58 50 43 51 46 52 57 53 73 54
REMARK SMILES IDX 44 55 45 56 56 58 74 59 47 60 34 61 35 62 40 63 36 64 37 65
REMARK SMILES IDX 39 66 41 67 38 68 60 69 61 70 66 71 62 72 63 73 65 74 67 75
REMARK SMILES IDX 64 76 48 77 49 78 54 79 50 80 51 81 53 82 55 83 52 84
REMARK H PARENT 72 46 46 57
REMARK Flexibility Score: inf
ROOT
ATOM      1  C   UNL A   1      31.430  31.059  26.478  1.00  0.00     0.202 C 
ENDROOT
BRANCH   1   2
ATOM      2  O   UNL A   1      32.611  30.415  26.008  1.00  0.00    -0.374 OA
BRANCH   2   3
ATOM      3  C   UNL A   1      33.045  29.227  26.669  1.00  0.00     0.202 C 
BRANCH   3   4
ATOM      4  C   UNL A   1      31.974  28.236  27.128  1.00  0.00     0.261 C 
BRANCH   4   5
ATOM      5  O   UNL A   1      31.308  27.651  25.999  1.00  0.00    -0.461 OA
BRANCH   5   6
ATOM      6  C   UNL A   1      31.319  26.291  25.931  1.00  0.00     0.341 C 
ATOM      7  O   UNL A   1      31.317  25.566  26.920  1.00  0.00    -0.249 OA
BRANCH   6   8
ATOM      8  C   UNL A   1      31.442  25.770  24.494  1.00  0.00     0.238 C 
ATOM      9  C   UNL A   1      30.750  24.412  24.210  1.00  0.00     0.058 C 
BRANCH   8  10
ATOM     10  N   UNL A   1      30.793  26.845  23.700  1.00  0.00    -0.283 N 
ATOM     11  C   UNL A   1      32.606  28.184  22.673  1.00  0.00     0.038 C 
ATOM     12  C   UNL A   1      31.340  27.912  22.996  1.00  0.00     0.046 C 
ATOM     13  C   UNL A   1      30.222  28.782  22.605  1.00  0.00     0.010 A 
ATOM     14  C   UNL A   1      30.160  29.999  21.950  1.00  0.00     0.011 A 
ATOM     15  C   UNL A   1      29.046  28.190  23.052  1.00  0.00     0.049 A 
ATOM     16  C   UNL A   1      29.394  26.955  23.746  1.00  0.00     0.260 C 
ATOM     17  C   UNL A   1      28.904  30.594  21.763  1.00  0.00     0.001 A 
ATOM     18  C   UNL A   1      27.793  28.750  22.886  1.00  0.00     0.014 A 
ATOM     19  O   UNL A   1      28.581  26.230  24.282  1.00  0.00    -0.269 OA
ATOM     20  C   UNL A   1      27.730  29.975  22.227  1.00  0.00     0.001 A 
ENDBRANCH   8  10
BRANCH   8  21
ATOM     21  C   UNL A   1      32.951  25.517  24.348  1.00  0.00     0.422 C 
ATOM     22  F   UNL A   1      33.683  26.533  24.879  1.00  0.00    -0.168 F 
ATOM     23  F   UNL A   1      33.324  24.408  25.039  1.00  0.00    -0.168 F 
ATOM     24  F   UNL A   1      33.390  25.367  23.082  1.00  0.00    -0.168 F 
ENDBRANCH   8  21
ENDBRANCH   6   8
ENDBRANCH   5   6
ENDBRANCH   4   5
ENDBRANCH   3   4
ENDBRANCH   2   3
ENDBRANCH   1   2
BRANCH   1  25
ATOM     25  C   UNL A   1      31.490  32.549  26.840  1.00  0.00     0.261 C 
BRANCH  25  26
ATOM     26  O   UNL A   1      32.794  33.133  26.688  1.00  0.00    -0.460 OA
BRANCH  26  27
ATOM     27  C   UNL A   1      33.291  33.670  27.829  1.00  0.00     0.338 C 
ATOM     28  O   UNL A   1      32.755  34.492  28.554  1.00  0.00    -0.246 OA
BRANCH  27  29
ATOM     29  C   UNL A   1      34.543  32.998  28.214  1.00  0.00     0.060 A 
ATOM     30  C   UNL A   1      34.447  31.691  28.708  1.00  0.00     0.016 A 
ATOM     31  C   UNL A   1      35.766  33.670  28.210  1.00  0.00     0.016 A 
ATOM     32  C   UNL A   1      35.565  31.066  29.248  1.00  0.00     0.010 A 
ATOM     33  C   UNL A   1      36.887  33.043  28.764  1.00  0.00     0.010 A 
ATOM     34  C   UNL A   1      36.781  31.754  29.320  1.00  0.00    -0.014 A 
BRANCH  34  35
ATOM     35  C   UNL A   1      37.894  31.177  30.112  1.00  0.00     0.031 A 
ATOM     36  C   UNL A   1      38.816  30.183  29.462  1.00  0.00     0.074 A 
ATOM     37  C   UNL A   1      38.108  31.572  31.379  1.00  0.00     0.049 A 
ATOM     38  N   UNL A   1      39.827  29.529  29.973  1.00  0.00    -0.248 NA
ATOM     39  C   UNL A   1      38.562  29.884  28.042  1.00  0.00     0.031 C 
ATOM     40  C   UNL A   1      37.313  32.564  32.100  1.00  0.00     0.029 A 
ATOM     41  N   UNL A   1      39.059  31.178  32.286  1.00  0.00    -0.354 N 
ATOM     42  C   UNL A   1      40.325  28.737  28.945  1.00  0.00     0.074 A 
ATOM     43  C   UNL A   1      39.484  28.966  27.790  1.00  0.00     0.031 C 
ATOM     44  C   UNL A   1      37.807  32.697  33.343  1.00  0.00     0.029 A 
ATOM     45  C   UNL A   1      38.924  31.772  33.516  1.00  0.00     0.049 A 
ATOM     46  H   UNL A   1      39.771  30.531  32.073  1.00  0.00     0.167 HD
ATOM     47  C   UNL A   1      41.391  27.903  28.961  1.00  0.00     0.037 A 
ATOM     48  C   UNL A   1      39.608  31.569  34.658  1.00  0.00     0.037 A 
ATOM     49  C   UNL A   1      42.225  27.682  30.114  1.00  0.00     0.049 A 
ATOM     50  C   UNL A   1      40.737  30.572  34.672  1.00  0.00     0.074 A 
ATOM     51  C   UNL A   1      43.339  26.867  30.229  1.00  0.00     0.029 A 
ATOM     52  N   UNL A   1      42.031  28.271  31.354  1.00  0.00    -0.354 N 
ATOM     53  N   UNL A   1      41.213  29.843  33.692  1.00  0.00    -0.248 NA
ATOM     54  C   UNL A   1      41.426  30.371  35.955  1.00  0.00     0.031 C 
ATOM     55  C   UNL A   1      43.781  26.918  31.554  1.00  0.00     0.029 A 
ATOM     56  C   UNL A   1      42.986  27.814  32.249  1.00  0.00     0.049 A 
ATOM     57  H   UNL A   1      41.321  28.918  31.568  1.00  0.00     0.167 HD
ATOM     58  C   UNL A   1      42.273  29.124  34.229  1.00  0.00     0.074 A 
ATOM     59  C   UNL A   1      42.381  29.517  35.618  1.00  0.00     0.031 C 
ATOM     60  C   UNL A   1      43.086  28.220  33.628  1.00  0.00     0.037 A 
BRANCH  47  61
ATOM     61  C   UNL A   1      41.702  27.145  27.702  1.00  0.00     0.057 A 
ATOM     62  C   UNL A   1      41.192  25.862  27.461  1.00  0.00     0.134 A 
ATOM     63  C   UNL A   1      42.492  27.723  26.700  1.00  0.00     0.134 A 
ATOM     64  F   UNL A   1      40.440  25.244  28.384  1.00  0.00    -0.206 F 
ATOM     65  C   UNL A   1      41.474  25.175  26.278  1.00  0.00     0.040 A 
ATOM     66  C   UNL A   1      42.756  27.059  25.501  1.00  0.00     0.040 A 
ATOM     67  F   UNL A   1      43.008  28.951  26.862  1.00  0.00    -0.206 F 
ATOM     68  C   UNL A   1      42.251  25.777  25.291  1.00  0.00     0.006 A 
ENDBRANCH  47  61
BRANCH  48  69
ATOM     69  C   UNL A   1      39.236  32.308  35.892  1.00  0.00     0.057 A 
ATOM     70  C   UNL A   1      38.335  31.771  36.818  1.00  0.00     0.134 A 
ATOM     71  C   UNL A   1      39.749  33.584  36.158  1.00  0.00     0.134 A 
ATOM     72  F   UNL A   1      37.792  30.563  36.608  1.00  0.00    -0.206 F 
ATOM     73  C   UNL A   1      37.938  32.484  37.950  1.00  0.00     0.040 A 
ATOM     74  C   UNL A   1      39.384  34.296  37.302  1.00  0.00     0.040 A 
ATOM     75  F   UNL A   1      40.617  34.156  35.312  1.00  0.00    -0.206 F 
ATOM     76  C   UNL A   1      38.467  33.750  38.197  1.00  0.00     0.006 A 
ENDBRANCH  48  69
BRANCH  60  77
ATOM     77  C   UNL A   1      44.192  27.627  34.455  1.00  0.00     0.057 A 
ATOM     78  C   UNL A   1      44.038  26.418  35.146  1.00  0.00     0.134 A 
ATOM     79  C   UNL A   1      45.442  28.257  34.530  1.00  0.00     0.134 A 
ATOM     80  F   UNL A   1      42.864  25.768  35.127  1.00  0.00    -0.206 F 
ATOM     81  C   UNL A   1      45.077  25.873  35.903  1.00  0.00     0.040 A 
ATOM     82  C   UNL A   1      46.497  27.705  35.256  1.00  0.00     0.040 A 
ATOM     83  F   UNL A   1      45.663  29.412  33.883  1.00  0.00    -0.206 F 
ATOM     84  C   UNL A   1      46.313  26.513  35.953  1.00  0.00     0.006 A 
ENDBRANCH  60  77
ENDBRANCH  34  35
ENDBRANCH  27  29
ENDBRANCH  26  27
ENDBRANCH  25  26
ENDBRANCH   1  25
TORSDOF 16
ENDMDL
