MODEL 1
REMARK VINA RESULT:     -11.3      0.000      0.000
REMARK SMILES Cc1cccc(NC(=O)[C@H]2C=C[C@@H]([NH3+])C2)c1C(=O)OCCOCCOC(=O)c1ccc(-c2c3nc(c(-c4c(F)cccc4F)c4ccc([nH]4)c(-c4c(F)cccc4F)c4nc(c(-c5c(F)cccc5F)c5ccc2[nH]5)C=C4)C=C3)cc1
REMARK SMILES IDX 21 1 20 2 19 3 17 4 18 5 16 6 1 7 2 8 3 9 4 10 6 11 5 12
REMARK SMILES IDX 7 13 8 14 9 16 10 17 11 18 15 19 12 20 13 21 14 22 22 26
REMARK SMILES IDX 23 27 24 28 25 29 26 30 27 31 28 32 29 33 81 34 30 35 80 36
REMARK SMILES IDX 31 37 32 38 33 39 74 40 34 41 79 42 73 43 75 44 35 45 78 46
REMARK SMILES IDX 72 47 71 48 36 50 62 51 45 52 61 53 46 54 49 55 60 56 76 57
REMARK SMILES IDX 47 58 48 59 59 61 77 62 50 63 37 64 38 65 43 66 39 67 40 68
REMARK SMILES IDX 42 69 44 70 41 71 63 72 64 73 69 74 65 75 66 76 68 77 70 78
REMARK SMILES IDX 67 79 51 80 52 81 57 82 53 83 54 84 56 85 58 86 55 87
REMARK H PARENT 7 15 14 23 14 24 14 25 75 49 49 60
REMARK Flexibility Score: inf
ROOT
ATOM      1  C   UNL A   1      32.292  29.062  25.875  1.00  0.00     0.202 C 
ENDROOT
BRANCH   1   2
ATOM      2  C   UNL A   1      31.471  27.899  26.363  1.00  0.00     0.261 C 
BRANCH   2   3
ATOM      3  O   UNL A   1      32.263  26.712  26.311  1.00  0.00    -0.460 OA
BRANCH   3   4
ATOM      4  C   UNL A   1      31.658  25.539  26.000  1.00  0.00     0.340 C 
ATOM      5  O   UNL A   1      30.789  24.976  26.641  1.00  0.00    -0.246 OA
BRANCH   4   6
ATOM      6  C   UNL A   1      32.011  25.231  24.589  1.00  0.00     0.086 A 
ATOM      7  C   UNL A   1      34.410  24.338  25.135  1.00  0.00     0.045 C 
ATOM      8  C   UNL A   1      33.326  24.835  24.212  1.00  0.00    -0.034 A 
ATOM      9  C   UNL A   1      33.692  24.943  22.866  1.00  0.00     0.004 A 
ATOM     10  C   UNL A   1      32.818  25.494  21.945  1.00  0.00     0.002 A 
ATOM     11  C   UNL A   1      31.052  25.593  23.605  1.00  0.00     0.056 A 
ATOM     12  C   UNL A   1      31.524  25.838  22.329  1.00  0.00     0.027 A 
BRANCH  11  13
ATOM     13  N   UNL A   1      29.687  25.754  23.937  1.00  0.00    -0.325 N 
ATOM     14  C   UNL A   1      28.728  26.702  23.764  1.00  0.00     0.231 C 
ATOM     15  H   UNL A   1      29.338  24.971  24.423  1.00  0.00     0.169 HD
ATOM     16  O   UNL A   1      27.653  26.476  24.349  1.00  0.00    -0.274 OA
BRANCH  14  17
ATOM     17  C   UNL A   1      28.814  28.021  22.973  1.00  0.00     0.107 C 
ATOM     18  C   UNL A   1      27.547  28.818  23.064  1.00  0.00    -0.012 C 
ATOM     19  C   UNL A   1      29.931  29.049  23.180  1.00  0.00     0.087 C 
ATOM     20  C   UNL A   1      27.790  30.131  23.139  1.00  0.00     0.033 C 
ATOM     21  C   UNL A   1      29.253  30.438  23.111  1.00  0.00     0.205 C 
BRANCH  21  22
ATOM     22  N   UNL A   1      29.626  31.326  24.199  1.00  0.00    -0.352 N 
ATOM     23  H   UNL A   1      29.402  30.883  25.091  1.00  0.00     0.345 HD
ATOM     24  H   UNL A   1      29.111  32.202  24.116  1.00  0.00     0.345 HD
ATOM     25  H   UNL A   1      30.628  31.514  24.156  1.00  0.00     0.345 HD
ENDBRANCH  21  22
ENDBRANCH  14  17
ENDBRANCH  11  13
ENDBRANCH   4   6
ENDBRANCH   3   4
ENDBRANCH   2   3
ENDBRANCH   1   2
BRANCH   1  26
ATOM     26  O   UNL A   1      31.587  30.231  26.273  1.00  0.00    -0.374 OA
BRANCH  26  27
ATOM     27  C   UNL A   1      32.375  31.239  26.884  1.00  0.00     0.202 C 
BRANCH  27  28
ATOM     28  C   UNL A   1      33.804  30.779  27.218  1.00  0.00     0.261 C 
BRANCH  28  29
ATOM     29  O   UNL A   1      34.296  31.528  28.349  1.00  0.00    -0.460 OA
BRANCH  29  30
ATOM     30  C   UNL A   1      35.620  31.840  28.340  1.00  0.00     0.338 C 
ATOM     31  O   UNL A   1      36.097  32.919  28.016  1.00  0.00    -0.246 OA
BRANCH  30  32
ATOM     32  C   UNL A   1      36.428  30.595  28.493  1.00  0.00     0.060 A 
ATOM     33  C   UNL A   1      36.411  29.892  29.714  1.00  0.00     0.016 A 
ATOM     34  C   UNL A   1      37.428  30.332  27.556  1.00  0.00     0.016 A 
ATOM     35  C   UNL A   1      37.477  29.044  30.056  1.00  0.00     0.010 A 
ATOM     36  C   UNL A   1      38.509  29.556  27.928  1.00  0.00     0.010 A 
ATOM     37  C   UNL A   1      38.565  28.938  29.189  1.00  0.00    -0.014 A 
BRANCH  37  38
ATOM     38  C   UNL A   1      39.886  28.390  29.528  1.00  0.00     0.031 A 
ATOM     39  C   UNL A   1      40.280  27.053  29.021  1.00  0.00     0.074 A 
ATOM     40  C   UNL A   1      40.853  29.217  29.997  1.00  0.00     0.049 A 
ATOM     41  N   UNL A   1      41.394  26.481  29.323  1.00  0.00    -0.248 NA
ATOM     42  C   UNL A   1      39.441  26.210  28.167  1.00  0.00     0.031 C 
ATOM     43  C   UNL A   1      42.301  29.096  29.805  1.00  0.00     0.029 A 
ATOM     44  N   UNL A   1      40.730  30.375  30.773  1.00  0.00    -0.354 N 
ATOM     45  C   UNL A   1      41.582  25.444  28.445  1.00  0.00     0.074 A 
ATOM     46  C   UNL A   1      40.285  25.216  27.866  1.00  0.00     0.031 C 
ATOM     47  C   UNL A   1      42.939  29.959  30.611  1.00  0.00     0.029 A 
ATOM     48  C   UNL A   1      41.938  30.573  31.462  1.00  0.00     0.049 A 
ATOM     49  H   UNL A   1      39.934  30.952  30.827  1.00  0.00     0.167 HD
ATOM     50  C   UNL A   1      42.855  25.004  28.229  1.00  0.00     0.037 A 
ATOM     51  C   UNL A   1      41.962  30.650  32.819  1.00  0.00     0.037 A 
ATOM     52  C   UNL A   1      43.786  25.598  29.202  1.00  0.00     0.049 A 
ATOM     53  C   UNL A   1      42.719  29.476  33.366  1.00  0.00     0.074 A 
ATOM     54  C   UNL A   1      44.827  26.505  29.107  1.00  0.00     0.029 A 
ATOM     55  N   UNL A   1      43.517  25.458  30.567  1.00  0.00    -0.354 N 
ATOM     56  N   UNL A   1      42.925  28.399  32.656  1.00  0.00    -0.248 NA
ATOM     57  C   UNL A   1      43.371  29.414  34.669  1.00  0.00     0.031 C 
ATOM     58  C   UNL A   1      45.103  26.987  30.421  1.00  0.00     0.029 A 
ATOM     59  C   UNL A   1      44.270  26.337  31.321  1.00  0.00     0.049 A 
ATOM     60  H   UNL A   1      42.873  24.816  30.942  1.00  0.00     0.167 HD
ATOM     61  C   UNL A   1      43.742  27.551  33.329  1.00  0.00     0.074 A 
ATOM     62  C   UNL A   1      43.968  28.207  34.604  1.00  0.00     0.031 C 
ATOM     63  C   UNL A   1      44.154  26.376  32.779  1.00  0.00     0.037 A 
BRANCH  50  64
ATOM     64  C   UNL A   1      43.300  24.146  27.059  1.00  0.00     0.057 A 
ATOM     65  C   UNL A   1      43.089  22.753  27.078  1.00  0.00     0.134 A 
ATOM     66  C   UNL A   1      44.011  24.599  25.927  1.00  0.00     0.134 A 
ATOM     67  F   UNL A   1      42.467  22.155  28.105  1.00  0.00    -0.206 F 
ATOM     68  C   UNL A   1      43.515  21.896  26.049  1.00  0.00     0.040 A 
ATOM     69  C   UNL A   1      44.395  23.762  24.867  1.00  0.00     0.040 A 
ATOM     70  F   UNL A   1      44.432  25.861  25.801  1.00  0.00    -0.206 F 
ATOM     71  C   UNL A   1      44.151  22.401  24.925  1.00  0.00     0.006 A 
ENDBRANCH  50  64
BRANCH  51  72
ATOM     72  C   UNL A   1      40.775  31.370  33.356  1.00  0.00     0.057 A 
ATOM     73  C   UNL A   1      40.780  32.774  33.218  1.00  0.00     0.134 A 
ATOM     74  C   UNL A   1      39.520  30.758  33.465  1.00  0.00     0.134 A 
ATOM     75  F   UNL A   1      41.947  33.430  33.091  1.00  0.00    -0.206 F 
ATOM     76  C   UNL A   1      39.605  33.515  33.057  1.00  0.00     0.040 A 
ATOM     77  C   UNL A   1      38.333  31.493  33.301  1.00  0.00     0.040 A 
ATOM     78  F   UNL A   1      39.418  29.426  33.576  1.00  0.00    -0.206 F 
ATOM     79  C   UNL A   1      38.375  32.866  33.057  1.00  0.00     0.006 A 
ENDBRANCH  51  72
BRANCH  63  80
ATOM     80  C   UNL A   1      44.528  25.183  33.608  1.00  0.00     0.057 A 
ATOM     81  C   UNL A   1      43.615  24.515  34.442  1.00  0.00     0.134 A 
ATOM     82  C   UNL A   1      45.770  24.544  33.437  1.00  0.00     0.134 A 
ATOM     83  F   UNL A   1      42.355  24.949  34.603  1.00  0.00    -0.206 F 
ATOM     84  C   UNL A   1      43.933  23.328  35.105  1.00  0.00     0.040 A 
ATOM     85  C   UNL A   1      46.079  23.328  34.049  1.00  0.00     0.040 A 
ATOM     86  F   UNL A   1      46.719  25.052  32.637  1.00  0.00    -0.206 F 
ATOM     87  C   UNL A   1      45.165  22.723  34.899  1.00  0.00     0.006 A 
ENDBRANCH  63  80
ENDBRANCH  37  38
ENDBRANCH  30  32
ENDBRANCH  29  30
ENDBRANCH  28  29
ENDBRANCH  27  28
ENDBRANCH  26  27
ENDBRANCH   1  26
TORSDOF 17
ENDMDL
MODEL 2
REMARK VINA RESULT:     -11.2      1.631      3.039
REMARK SMILES Cc1cccc(NC(=O)[C@H]2C=C[C@@H]([NH3+])C2)c1C(=O)OCCOCCOC(=O)c1ccc(-c2c3nc(c(-c4c(F)cccc4F)c4ccc([nH]4)c(-c4c(F)cccc4F)c4nc(c(-c5c(F)cccc5F)c5ccc2[nH]5)C=C4)C=C3)cc1
REMARK SMILES IDX 21 1 20 2 19 3 17 4 18 5 16 6 1 7 2 8 3 9 4 10 6 11 5 12
REMARK SMILES IDX 7 13 8 14 9 16 10 17 11 18 15 19 12 20 13 21 14 22 22 26
REMARK SMILES IDX 23 27 24 28 25 29 26 30 27 31 28 32 29 33 81 34 30 35 80 36
REMARK SMILES IDX 31 37 32 38 33 39 74 40 34 41 79 42 73 43 75 44 35 45 78 46
REMARK SMILES IDX 72 47 71 48 36 50 62 51 45 52 61 53 46 54 49 55 60 56 76 57
REMARK SMILES IDX 47 58 48 59 59 61 77 62 50 63 37 64 38 65 43 66 39 67 40 68
REMARK SMILES IDX 42 69 44 70 41 71 63 72 64 73 69 74 65 75 66 76 68 77 70 78
REMARK SMILES IDX 67 79 51 80 52 81 57 82 53 83 54 84 56 85 58 86 55 87
REMARK H PARENT 7 15 14 23 14 24 14 25 75 49 49 60
REMARK Flexibility Score: inf
ROOT
ATOM      1  C   UNL A   1      33.912  28.313  25.679  1.00  0.00     0.202 C 
ENDROOT
BRANCH   1   2
ATOM      2  C   UNL A   1      34.062  28.232  24.184  1.00  0.00     0.261 C 
BRANCH   2   3
ATOM      3  O   UNL A   1      33.522  26.992  23.725  1.00  0.00    -0.460 OA
BRANCH   3   4
ATOM      4  C   UNL A   1      32.960  26.942  22.493  1.00  0.00     0.340 C 
ATOM      5  O   UNL A   1      33.543  26.814  21.432  1.00  0.00    -0.246 OA
BRANCH   4   6
ATOM      6  C   UNL A   1      31.499  26.749  22.691  1.00  0.00     0.086 A 
ATOM      7  C   UNL A   1      30.882  29.272  22.364  1.00  0.00     0.045 C 
ATOM      8  C   UNL A   1      30.601  27.850  22.784  1.00  0.00    -0.034 A 
ATOM      9  C   UNL A   1      29.341  27.634  23.351  1.00  0.00     0.004 A 
ATOM     10  C   UNL A   1      29.013  26.396  23.876  1.00  0.00     0.002 A 
ATOM     11  C   UNL A   1      31.077  25.437  23.036  1.00  0.00     0.056 A 
ATOM     12  C   UNL A   1      29.892  25.324  23.739  1.00  0.00     0.027 A 
BRANCH  11  13
ATOM     13  N   UNL A   1      31.868  24.308  22.724  1.00  0.00    -0.325 N 
ATOM     14  C   UNL A   1      32.436  23.276  23.404  1.00  0.00     0.231 C 
ATOM     15  H   UNL A   1      32.058  24.254  21.759  1.00  0.00     0.169 HD
ATOM     16  O   UNL A   1      33.182  22.547  22.725  1.00  0.00    -0.274 OA
BRANCH  14  17
ATOM     17  C   UNL A   1      32.302  22.919  24.896  1.00  0.00     0.107 C 
ATOM     18  C   UNL A   1      32.674  24.066  25.786  1.00  0.00    -0.012 C 
ATOM     19  C   UNL A   1      31.014  22.358  25.509  1.00  0.00     0.087 C 
ATOM     20  C   UNL A   1      31.888  24.133  26.867  1.00  0.00     0.033 C 
ATOM     21  C   UNL A   1      30.860  23.049  26.886  1.00  0.00     0.205 C 
BRANCH  21  22
ATOM     22  N   UNL A   1      29.530  23.587  27.123  1.00  0.00    -0.352 N 
ATOM     23  H   UNL A   1      29.589  24.357  27.791  1.00  0.00     0.345 HD
ATOM     24  H   UNL A   1      28.930  22.855  27.502  1.00  0.00     0.345 HD
ATOM     25  H   UNL A   1      29.139  23.928  26.245  1.00  0.00     0.345 HD
ENDBRANCH  21  22
ENDBRANCH  14  17
ENDBRANCH  11  13
ENDBRANCH   4   6
ENDBRANCH   3   4
ENDBRANCH   2   3
ENDBRANCH   1   2
BRANCH   1  26
ATOM     26  O   UNL A   1      32.854  29.232  25.916  1.00  0.00    -0.374 OA
BRANCH  26  27
ATOM     27  C   UNL A   1      32.756  29.719  27.244  1.00  0.00     0.202 C 
BRANCH  27  28
ATOM     28  C   UNL A   1      33.109  31.210  27.376  1.00  0.00     0.261 C 
BRANCH  28  29
ATOM     29  O   UNL A   1      34.536  31.378  27.247  1.00  0.00    -0.460 OA
BRANCH  29  30
ATOM     30  C   UNL A   1      35.239  31.511  28.403  1.00  0.00     0.338 C 
ATOM     31  O   UNL A   1      35.334  32.534  29.068  1.00  0.00    -0.246 OA
BRANCH  30  32
ATOM     32  C   UNL A   1      36.122  30.323  28.592  1.00  0.00     0.060 A 
ATOM     33  C   UNL A   1      36.195  29.696  29.852  1.00  0.00     0.016 A 
ATOM     34  C   UNL A   1      37.096  30.058  27.629  1.00  0.00     0.016 A 
ATOM     35  C   UNL A   1      37.320  28.928  30.195  1.00  0.00     0.010 A 
ATOM     36  C   UNL A   1      38.233  29.365  27.997  1.00  0.00     0.010 A 
ATOM     37  C   UNL A   1      38.376  28.829  29.288  1.00  0.00    -0.014 A 
BRANCH  37  38
ATOM     38  C   UNL A   1      39.738  28.375  29.600  1.00  0.00     0.031 A 
ATOM     39  C   UNL A   1      40.218  27.072  29.077  1.00  0.00     0.074 A 
ATOM     40  C   UNL A   1      40.653  29.266  30.057  1.00  0.00     0.049 A 
ATOM     41  N   UNL A   1      41.374  26.579  29.355  1.00  0.00    -0.248 NA
ATOM     42  C   UNL A   1      39.425  26.176  28.232  1.00  0.00     0.031 C 
ATOM     43  C   UNL A   1      42.101  29.249  29.838  1.00  0.00     0.029 A 
ATOM     44  N   UNL A   1      40.461  30.407  30.843  1.00  0.00    -0.354 N 
ATOM     45  C   UNL A   1      41.620  25.563  28.466  1.00  0.00     0.074 A 
ATOM     46  C   UNL A   1      40.332  25.247  27.909  1.00  0.00     0.031 C 
ATOM     47  C   UNL A   1      42.691  30.151  30.639  1.00  0.00     0.029 A 
ATOM     48  C   UNL A   1      41.665  30.688  31.512  1.00  0.00     0.049 A 
ATOM     49  H   UNL A   1      39.627  30.926  30.916  1.00  0.00     0.167 HD
ATOM     50  C   UNL A   1      42.916  25.217  28.225  1.00  0.00     0.037 A 
ATOM     51  C   UNL A   1      41.708  30.758  32.869  1.00  0.00     0.037 A 
ATOM     52  C   UNL A   1      43.821  25.870  29.184  1.00  0.00     0.049 A 
ATOM     53  C   UNL A   1      42.557  29.638  33.394  1.00  0.00     0.074 A 
ATOM     54  C   UNL A   1      44.792  26.849  29.077  1.00  0.00     0.029 A 
ATOM     55  N   UNL A   1      43.587  25.704  30.554  1.00  0.00    -0.354 N 
ATOM     56  N   UNL A   1      42.826  28.583  32.673  1.00  0.00    -0.248 NA
ATOM     57  C   UNL A   1      43.235  29.615  34.685  1.00  0.00     0.031 C 
ATOM     58  C   UNL A   1      45.057  27.343  30.389  1.00  0.00     0.029 A 
ATOM     59  C   UNL A   1      44.290  26.630  31.300  1.00  0.00     0.049 A 
ATOM     60  H   UNL A   1      42.997  25.015  30.935  1.00  0.00     0.167 HD
ATOM     61  C   UNL A   1      43.713  27.792  33.325  1.00  0.00     0.074 A 
ATOM     62  C   UNL A   1      43.915  28.455  34.600  1.00  0.00     0.031 C 
ATOM     63  C   UNL A   1      44.198  26.652  32.760  1.00  0.00     0.037 A 
BRANCH  50  64
ATOM     64  C   UNL A   1      43.400  24.399  27.041  1.00  0.00     0.057 A 
ATOM     65  C   UNL A   1      44.280  23.316  27.237  1.00  0.00     0.134 A 
ATOM     66  C   UNL A   1      43.116  24.663  25.684  1.00  0.00     0.134 A 
ATOM     67  F   UNL A   1      44.687  22.961  28.465  1.00  0.00    -0.206 F 
ATOM     68  C   UNL A   1      44.801  22.547  26.183  1.00  0.00     0.040 A 
ATOM     69  C   UNL A   1      43.586  23.869  24.625  1.00  0.00     0.040 A 
ATOM     70  F   UNL A   1      42.420  25.734  25.292  1.00  0.00    -0.206 F 
ATOM     71  C   UNL A   1      44.437  22.806  24.871  1.00  0.00     0.006 A 
ENDBRANCH  50  64
BRANCH  51  72
ATOM     72  C   UNL A   1      40.482  31.389  33.432  1.00  0.00     0.057 A 
ATOM     73  C   UNL A   1      39.535  30.513  34.003  1.00  0.00     0.134 A 
ATOM     74  C   UNL A   1      40.471  32.710  33.896  1.00  0.00     0.134 A 
ATOM     75  F   UNL A   1      39.497  29.226  33.619  1.00  0.00    -0.206 F 
ATOM     76  C   UNL A   1      38.717  30.891  35.073  1.00  0.00     0.040 A 
ATOM     77  C   UNL A   1      39.656  33.098  34.973  1.00  0.00     0.040 A 
ATOM     78  F   UNL A   1      41.352  33.605  33.426  1.00  0.00    -0.206 F 
ATOM     79  C   UNL A   1      38.806  32.179  35.589  1.00  0.00     0.006 A 
ENDBRANCH  51  72
BRANCH  63  80
ATOM     80  C   UNL A   1      44.671  25.484  33.574  1.00  0.00     0.057 A 
ATOM     81  C   UNL A   1      43.802  24.676  34.327  1.00  0.00     0.134 A 
ATOM     82  C   UNL A   1      45.992  25.013  33.462  1.00  0.00     0.134 A 
ATOM     83  F   UNL A   1      42.491  24.942  34.422  1.00  0.00    -0.206 F 
ATOM     84  C   UNL A   1      44.230  23.513  34.972  1.00  0.00     0.040 A 
ATOM     85  C   UNL A   1      46.417  23.822  34.055  1.00  0.00     0.040 A 
ATOM     86  F   UNL A   1      46.914  25.666  32.740  1.00  0.00    -0.206 F 
ATOM     87  C   UNL A   1      45.538  23.075  34.826  1.00  0.00     0.006 A 
ENDBRANCH  63  80
ENDBRANCH  37  38
ENDBRANCH  30  32
ENDBRANCH  29  30
ENDBRANCH  28  29
ENDBRANCH  27  28
ENDBRANCH  26  27
ENDBRANCH   1  26
TORSDOF 17
ENDMDL
MODEL 3
REMARK VINA RESULT:     -11.1      1.120      1.769
REMARK SMILES Cc1cccc(NC(=O)[C@H]2C=C[C@@H]([NH3+])C2)c1C(=O)OCCOCCOC(=O)c1ccc(-c2c3nc(c(-c4c(F)cccc4F)c4ccc([nH]4)c(-c4c(F)cccc4F)c4nc(c(-c5c(F)cccc5F)c5ccc2[nH]5)C=C4)C=C3)cc1
REMARK SMILES IDX 21 1 20 2 19 3 17 4 18 5 16 6 1 7 2 8 3 9 4 10 6 11 5 12
REMARK SMILES IDX 7 13 8 14 9 16 10 17 11 18 15 19 12 20 13 21 14 22 22 26
REMARK SMILES IDX 23 27 24 28 25 29 26 30 27 31 28 32 29 33 81 34 30 35 80 36
REMARK SMILES IDX 31 37 32 38 33 39 74 40 34 41 79 42 73 43 75 44 35 45 78 46
REMARK SMILES IDX 72 47 71 48 36 50 62 51 45 52 61 53 46 54 49 55 60 56 76 57
REMARK SMILES IDX 47 58 48 59 59 61 77 62 50 63 37 64 38 65 43 66 39 67 40 68
REMARK SMILES IDX 42 69 44 70 41 71 63 72 64 73 69 74 65 75 66 76 68 77 70 78
REMARK SMILES IDX 67 79 51 80 52 81 57 82 53 83 54 84 56 85 58 86 55 87
REMARK H PARENT 7 15 14 23 14 24 14 25 75 49 49 60
REMARK Flexibility Score: inf
ROOT
ATOM      1  C   UNL A   1      31.818  28.224  27.547  1.00  0.00     0.202 C 
ENDROOT
BRANCH   1   2
ATOM      2  C   UNL A   1      32.174  27.030  26.704  1.00  0.00     0.261 C 
BRANCH   2   3
ATOM      3  O   UNL A   1      30.992  26.274  26.439  1.00  0.00    -0.460 OA
BRANCH   3   4
ATOM      4  C   UNL A   1      31.089  24.926  26.341  1.00  0.00     0.340 C 
ATOM      5  O   UNL A   1      30.637  24.106  27.120  1.00  0.00    -0.246 OA
BRANCH   4   6
ATOM      6  C   UNL A   1      31.558  24.624  24.963  1.00  0.00     0.086 A 
ATOM      7  C   UNL A   1      33.722  23.363  25.722  1.00  0.00     0.045 C 
ATOM      8  C   UNL A   1      32.837  24.052  24.713  1.00  0.00    -0.034 A 
ATOM      9  C   UNL A   1      33.372  24.156  23.425  1.00  0.00     0.004 A 
ATOM     10  C   UNL A   1      32.701  24.867  22.444  1.00  0.00     0.002 A 
ATOM     11  C   UNL A   1      30.783  25.163  23.900  1.00  0.00     0.056 A 
ATOM     12  C   UNL A   1      31.433  25.384  22.700  1.00  0.00     0.027 A 
BRANCH  11  13
ATOM     13  N   UNL A   1      29.426  25.511  24.088  1.00  0.00    -0.325 N 
ATOM     14  C   UNL A   1      28.631  26.582  23.823  1.00  0.00     0.231 C 
ATOM     15  H   UNL A   1      28.923  24.786  24.525  1.00  0.00     0.169 HD
ATOM     16  O   UNL A   1      27.479  26.509  24.288  1.00  0.00    -0.274 OA
BRANCH  14  17
ATOM     17  C   UNL A   1      28.981  27.873  23.060  1.00  0.00     0.107 C 
ATOM     18  C   UNL A   1      27.811  28.805  22.959  1.00  0.00    -0.012 C 
ATOM     19  C   UNL A   1      30.161  28.775  23.439  1.00  0.00     0.087 C 
ATOM     20  C   UNL A   1      28.183  30.085  23.075  1.00  0.00     0.033 C 
ATOM     21  C   UNL A   1      29.658  30.230  23.272  1.00  0.00     0.205 C 
BRANCH  21  22
ATOM     22  N   UNL A   1      29.957  31.085  24.408  1.00  0.00    -0.352 N 
ATOM     23  H   UNL A   1      30.675  30.646  24.985  1.00  0.00     0.345 HD
ATOM     24  H   UNL A   1      29.113  31.222  24.963  1.00  0.00     0.345 HD
ATOM     25  H   UNL A   1      30.296  31.988  24.074  1.00  0.00     0.345 HD
ENDBRANCH  21  22
ENDBRANCH  14  17
ENDBRANCH  11  13
ENDBRANCH   4   6
ENDBRANCH   3   4
ENDBRANCH   2   3
ENDBRANCH   1   2
BRANCH   1  26
ATOM     26  O   UNL A   1      31.593  29.292  26.635  1.00  0.00    -0.374 OA
BRANCH  26  27
ATOM     27  C   UNL A   1      32.360  30.462  26.865  1.00  0.00     0.202 C 
BRANCH  27  28
ATOM     28  C   UNL A   1      33.808  30.169  27.293  1.00  0.00     0.261 C 
BRANCH  28  29
ATOM     29  O   UNL A   1      34.508  31.413  27.497  1.00  0.00    -0.460 OA
BRANCH  29  30
ATOM     30  C   UNL A   1      35.291  31.494  28.605  1.00  0.00     0.338 C 
ATOM     31  O   UNL A   1      35.382  32.464  29.347  1.00  0.00    -0.246 OA
BRANCH  30  32
ATOM     32  C   UNL A   1      36.251  30.352  28.625  1.00  0.00     0.060 A 
ATOM     33  C   UNL A   1      36.459  29.631  29.818  1.00  0.00     0.016 A 
ATOM     34  C   UNL A   1      37.158  30.225  27.573  1.00  0.00     0.016 A 
ATOM     35  C   UNL A   1      37.649  28.908  30.009  1.00  0.00     0.010 A 
ATOM     36  C   UNL A   1      38.357  29.576  27.794  1.00  0.00     0.010 A 
ATOM     37  C   UNL A   1      38.632  28.948  29.020  1.00  0.00    -0.014 A 
BRANCH  37  38
ATOM     38  C   UNL A   1      40.038  28.554  29.189  1.00  0.00     0.031 A 
ATOM     39  C   UNL A   1      40.454  27.163  28.887  1.00  0.00     0.074 A 
ATOM     40  C   UNL A   1      40.994  29.511  29.282  1.00  0.00     0.049 A 
ATOM     41  N   UNL A   1      41.652  26.726  29.066  1.00  0.00    -0.248 NA
ATOM     42  C   UNL A   1      39.553  26.115  28.402  1.00  0.00     0.031 C 
ATOM     43  C   UNL A   1      42.386  29.429  28.831  1.00  0.00     0.029 A 
ATOM     44  N   UNL A   1      40.910  30.799  29.823  1.00  0.00    -0.354 N 
ATOM     45  C   UNL A   1      41.771  25.539  28.389  1.00  0.00     0.074 A 
ATOM     46  C   UNL A   1      40.416  25.126  28.139  1.00  0.00     0.031 C 
ATOM     47  C   UNL A   1      43.079  30.475  29.306  1.00  0.00     0.029 A 
ATOM     48  C   UNL A   1      42.201  31.202  30.203  1.00  0.00     0.049 A 
ATOM     49  H   UNL A   1      40.087  31.331  29.921  1.00  0.00     0.167 HD
ATOM     50  C   UNL A   1      43.016  25.131  28.014  1.00  0.00     0.037 A 
ATOM     51  C   UNL A   1      42.469  31.565  31.485  1.00  0.00     0.037 A 
ATOM     52  C   UNL A   1      44.052  25.965  28.643  1.00  0.00     0.049 A 
ATOM     53  C   UNL A   1      43.420  30.575  32.089  1.00  0.00     0.074 A 
ATOM     54  C   UNL A   1      44.968  26.885  28.164  1.00  0.00     0.029 A 
ATOM     55  N   UNL A   1      44.055  26.104  30.035  1.00  0.00    -0.354 N 
ATOM     56  N   UNL A   1      43.590  29.385  31.579  1.00  0.00    -0.248 NA
ATOM     57  C   UNL A   1      44.305  30.824  33.221  1.00  0.00     0.031 C 
ATOM     58  C   UNL A   1      45.437  27.649  29.275  1.00  0.00     0.029 A 
ATOM     59  C   UNL A   1      44.850  27.161  30.433  1.00  0.00     0.049 A 
ATOM     60  H   UNL A   1      43.555  25.522  30.650  1.00  0.00     0.167 HD
ATOM     61  C   UNL A   1      44.593  28.742  32.227  1.00  0.00     0.074 A 
ATOM     62  C   UNL A   1      44.990  29.664  33.276  1.00  0.00     0.031 C 
ATOM     63  C   UNL A   1      45.003  27.501  31.848  1.00  0.00     0.037 A 
BRANCH  50  64
ATOM     64  C   UNL A   1      43.315  24.070  26.970  1.00  0.00     0.057 A 
ATOM     65  C   UNL A   1      43.644  24.443  25.651  1.00  0.00     0.134 A 
ATOM     66  C   UNL A   1      43.220  22.675  27.161  1.00  0.00     0.134 A 
ATOM     67  F   UNL A   1      43.731  25.732  25.292  1.00  0.00    -0.206 F 
ATOM     68  C   UNL A   1      43.888  23.512  24.627  1.00  0.00     0.040 A 
ATOM     69  C   UNL A   1      43.514  21.734  26.161  1.00  0.00     0.040 A 
ATOM     70  F   UNL A   1      42.779  22.135  28.301  1.00  0.00    -0.206 F 
ATOM     71  C   UNL A   1      43.847  22.150  24.884  1.00  0.00     0.006 A 
ENDBRANCH  50  64
BRANCH  51  72
ATOM     72  C   UNL A   1      41.340  32.319  32.096  1.00  0.00     0.057 A 
ATOM     73  C   UNL A   1      40.573  31.625  33.055  1.00  0.00     0.134 A 
ATOM     74  C   UNL A   1      41.342  33.716  32.189  1.00  0.00     0.134 A 
ATOM     75  F   UNL A   1      40.536  30.282  33.040  1.00  0.00    -0.206 F 
ATOM     76  C   UNL A   1      39.955  32.273  34.130  1.00  0.00     0.040 A 
ATOM     77  C   UNL A   1      40.728  34.376  33.267  1.00  0.00     0.040 A 
ATOM     78  F   UNL A   1      42.063  34.455  31.333  1.00  0.00    -0.206 F 
ATOM     79  C   UNL A   1      40.067  33.653  34.260  1.00  0.00     0.006 A 
ENDBRANCH  51  72
BRANCH  63  80
ATOM     80  C   UNL A   1      45.634  26.532  32.805  1.00  0.00     0.057 A 
ATOM     81  C   UNL A   1      44.896  25.807  33.756  1.00  0.00     0.134 A 
ATOM     82  C   UNL A   1      46.980  26.146  32.659  1.00  0.00     0.134 A 
ATOM     83  F   UNL A   1      43.577  25.990  33.917  1.00  0.00    -0.206 F 
ATOM     84  C   UNL A   1      45.469  24.810  34.549  1.00  0.00     0.040 A 
ATOM     85  C   UNL A   1      47.548  25.112  33.406  1.00  0.00     0.040 A 
ATOM     86  F   UNL A   1      47.787  26.727  31.760  1.00  0.00    -0.206 F 
ATOM     87  C   UNL A   1      46.796  24.450  34.366  1.00  0.00     0.006 A 
ENDBRANCH  63  80
ENDBRANCH  37  38
ENDBRANCH  30  32
ENDBRANCH  29  30
ENDBRANCH  28  29
ENDBRANCH  27  28
ENDBRANCH  26  27
ENDBRANCH   1  26
TORSDOF 17
ENDMDL
