MODEL 1
REMARK VINA RESULT:     -11.8      0.000      0.000
REMARK SMILES COc1ccc2c(c1)c(CC(=O)OCCOCCOC(=O)c1ccc(-c3c4nc(c(-c5c(F)cccc5F)c5ccc([nH]5)c(-c5c(F)cccc5F)c5nc(c(-c6c(F)cccc6F)c6ccc3[nH]6)C=C5)C=C4)cc1)c(C)n2Cc1ccn(C(F)F)c(=O)c1
REMARK SMILES IDX 15 1 14 2 13 3 11 4 12 5 10 6 9 7 3 8 4 9 8 10 5 11 7 12
REMARK SMILES IDX 6 13 78 14 76 15 77 16 2 17 1 18 79 19 80 20 81 21 89 22
REMARK SMILES IDX 82 23 87 24 83 25 88 26 84 27 85 28 86 29 16 30 17 31 18 32
REMARK SMILES IDX 19 33 20 34 21 35 22 36 23 37 75 38 24 39 74 40 25 41 26 42
REMARK SMILES IDX 27 43 68 44 28 45 73 46 67 47 69 48 29 49 72 50 66 51 65 52
REMARK SMILES IDX 30 54 56 55 39 56 55 57 40 58 43 59 54 60 70 61 41 62 42 63
REMARK SMILES IDX 53 65 71 66 44 67 31 68 32 69 37 70 33 71 34 72 36 73 38 74
REMARK SMILES IDX 35 75 57 76 58 77 63 78 59 79 60 80 62 81 64 82 61 83 45 84
REMARK SMILES IDX 46 85 51 86 47 87 48 88 50 89 52 90 49 91
REMARK H PARENT 69 53 43 64
REMARK Flexibility Score: inf
ROOT
ATOM      1  C   UNL A   1      31.356  28.919  23.909  1.00  0.00     0.202 C 
ENDROOT
BRANCH   1   2
ATOM      2  C   UNL A   1      32.594  28.169  23.383  1.00  0.00     0.261 C 
BRANCH   2   3
ATOM      3  O   UNL A   1      32.330  27.160  22.393  1.00  0.00    -0.463 OA
BRANCH   3   4
ATOM      4  C   UNL A   1      33.237  26.148  22.363  1.00  0.00     0.310 C 
ATOM      5  O   UNL A   1      33.538  25.532  21.340  1.00  0.00    -0.252 OA
BRANCH   4   6
ATOM      6  C   UNL A   1      33.912  25.810  23.675  1.00  0.00     0.160 C 
BRANCH   6   7
ATOM      7  C   UNL A   1      33.729  24.447  24.289  1.00  0.00    -0.008 A 
ATOM      8  C   UNL A   1      36.957  22.698  25.378  1.00  0.00     0.119 A 
ATOM      9  C   UNL A   1      36.346  21.592  25.954  1.00  0.00     0.048 A 
ATOM     10  C   UNL A   1      36.175  23.665  24.740  1.00  0.00     0.057 A 
ATOM     11  C   UNL A   1      34.950  21.426  25.889  1.00  0.00     0.031 A 
ATOM     12  C   UNL A   1      34.766  23.571  24.736  1.00  0.00     0.007 A 
ATOM     13  C   UNL A   1      34.171  22.426  25.271  1.00  0.00     0.049 A 
ATOM     14  N   UNL A   1      32.805  22.529  25.031  1.00  0.00    -0.340 N 
ATOM     15  C   UNL A   1      32.551  23.710  24.342  1.00  0.00     0.020 A 
ATOM     16  C   UNL A   1      31.242  24.073  23.736  1.00  0.00     0.065 C 
BRANCH   8  17
ATOM     17  O   UNL A   1      38.274  23.044  25.509  1.00  0.00    -0.497 OA
ATOM     18  C   UNL A   1      39.118  22.125  26.185  1.00  0.00     0.278 C 
ENDBRANCH   8  17
BRANCH  14  19
ATOM     19  C   UNL A   1      31.833  21.455  25.304  1.00  0.00     0.158 C 
BRANCH  19  20
ATOM     20  C   UNL A   1      32.224  20.103  24.749  1.00  0.00    -0.021 A 
ATOM     21  C   UNL A   1      32.690  19.080  25.665  1.00  0.00     0.024 A 
ATOM     22  C   UNL A   1      32.108  19.781  23.448  1.00  0.00     0.077 A 
ATOM     23  C   UNL A   1      33.232  17.947  25.211  1.00  0.00     0.095 A 
ATOM     24  C   UNL A   1      32.603  18.466  22.934  1.00  0.00     0.255 A 
ATOM     25  N   UNL A   1      33.249  17.664  23.862  1.00  0.00    -0.258 N 
ATOM     26  O   UNL A   1      32.435  18.198  21.749  1.00  0.00    -0.269 OA
BRANCH  25  27
ATOM     27  C   UNL A   1      33.879  16.460  23.383  1.00  0.00     0.451 C 
ATOM     28  F   UNL A   1      34.767  16.734  22.398  1.00  0.00    -0.185 F 
ATOM     29  F   UNL A   1      34.537  15.824  24.383  1.00  0.00    -0.185 F 
ENDBRANCH  25  27
ENDBRANCH  19  20
ENDBRANCH  14  19
ENDBRANCH   6   7
ENDBRANCH   4   6
ENDBRANCH   3   4
ENDBRANCH   2   3
ENDBRANCH   1   2
BRANCH   1  30
ATOM     30  O   UNL A   1      31.420  29.673  25.111  1.00  0.00    -0.374 OA
BRANCH  30  31
ATOM     31  C   UNL A   1      32.710  29.921  25.666  1.00  0.00     0.202 C 
BRANCH  31  32
ATOM     32  C   UNL A   1      32.856  30.781  26.937  1.00  0.00     0.261 C 
BRANCH  32  33
ATOM     33  O   UNL A   1      34.016  30.458  27.700  1.00  0.00    -0.460 OA
BRANCH  33  34
ATOM     34  C   UNL A   1      34.710  31.533  28.155  1.00  0.00     0.338 C 
ATOM     35  O   UNL A   1      34.291  32.650  28.415  1.00  0.00    -0.246 OA
BRANCH  34  36
ATOM     36  C   UNL A   1      35.944  30.948  28.693  1.00  0.00     0.060 A 
ATOM     37  C   UNL A   1      37.007  31.780  29.054  1.00  0.00     0.016 A 
ATOM     38  C   UNL A   1      36.128  29.579  28.441  1.00  0.00     0.016 A 
ATOM     39  C   UNL A   1      38.286  31.244  29.062  1.00  0.00     0.010 A 
ATOM     40  C   UNL A   1      37.413  29.056  28.422  1.00  0.00     0.010 A 
ATOM     41  C   UNL A   1      38.492  29.899  28.696  1.00  0.00    -0.014 A 
BRANCH  41  42
ATOM     42  C   UNL A   1      39.820  29.335  28.934  1.00  0.00     0.031 A 
ATOM     43  C   UNL A   1      40.112  29.315  30.392  1.00  0.00     0.074 A 
ATOM     44  C   UNL A   1      40.647  28.768  28.033  1.00  0.00     0.049 A 
ATOM     45  N   UNL A   1      41.012  29.997  31.019  1.00  0.00    -0.248 NA
ATOM     46  C   UNL A   1      39.152  28.626  31.276  1.00  0.00     0.031 C 
ATOM     47  C   UNL A   1      40.409  28.493  26.617  1.00  0.00     0.029 A 
ATOM     48  N   UNL A   1      41.886  28.224  28.237  1.00  0.00    -0.354 N 
ATOM     49  C   UNL A   1      40.860  29.663  32.360  1.00  0.00     0.074 A 
ATOM     50  C   UNL A   1      39.596  28.987  32.478  1.00  0.00     0.031 C 
ATOM     51  C   UNL A   1      41.362  27.647  26.157  1.00  0.00     0.029 A 
ATOM     52  C   UNL A   1      42.339  27.403  27.207  1.00  0.00     0.049 A 
ATOM     53  H   UNL A   1      42.416  28.401  29.048  1.00  0.00     0.167 HD
ATOM     54  C   UNL A   1      41.915  29.721  33.213  1.00  0.00     0.037 A 
ATOM     55  C   UNL A   1      43.402  26.555  27.241  1.00  0.00     0.037 A 
ATOM     56  C   UNL A   1      42.960  30.568  32.695  1.00  0.00     0.049 A 
ATOM     57  C   UNL A   1      44.281  26.976  28.358  1.00  0.00     0.074 A 
ATOM     58  C   UNL A   1      43.044  31.895  32.318  1.00  0.00     0.029 A 
ATOM     59  N   UNL A   1      44.058  29.955  32.145  1.00  0.00    -0.354 N 
ATOM     60  N   UNL A   1      44.997  28.062  28.341  1.00  0.00    -0.248 NA
ATOM     61  C   UNL A   1      44.017  26.423  29.677  1.00  0.00     0.031 C 
ATOM     62  C   UNL A   1      43.908  31.905  31.182  1.00  0.00     0.029 A 
ATOM     63  C   UNL A   1      44.349  30.600  30.972  1.00  0.00     0.049 A 
ATOM     64  H   UNL A   1      44.548  29.192  32.525  1.00  0.00     0.167 HD
ATOM     65  C   UNL A   1      44.860  28.585  29.616  1.00  0.00     0.074 A 
ATOM     66  C   UNL A   1      44.329  27.487  30.423  1.00  0.00     0.031 C 
ATOM     67  C   UNL A   1      44.911  29.933  29.824  1.00  0.00     0.037 A 
BRANCH  54  68
ATOM     68  C   UNL A   1      42.173  28.669  34.265  1.00  0.00     0.057 A 
ATOM     69  C   UNL A   1      41.907  28.836  35.641  1.00  0.00     0.134 A 
ATOM     70  C   UNL A   1      42.377  27.341  33.852  1.00  0.00     0.134 A 
ATOM     71  F   UNL A   1      41.624  30.023  36.188  1.00  0.00    -0.206 F 
ATOM     72  C   UNL A   1      41.806  27.763  36.529  1.00  0.00     0.040 A 
ATOM     73  C   UNL A   1      42.225  26.257  34.724  1.00  0.00     0.040 A 
ATOM     74  F   UNL A   1      42.632  27.052  32.567  1.00  0.00    -0.206 F 
ATOM     75  C   UNL A   1      41.925  26.466  36.065  1.00  0.00     0.006 A 
ENDBRANCH  54  68
BRANCH  55  76
ATOM     76  C   UNL A   1      43.609  25.251  26.558  1.00  0.00     0.057 A 
ATOM     77  C   UNL A   1      44.442  25.140  25.433  1.00  0.00     0.134 A 
ATOM     78  C   UNL A   1      42.772  24.149  26.806  1.00  0.00     0.134 A 
ATOM     79  F   UNL A   1      45.230  26.157  25.054  1.00  0.00    -0.206 F 
ATOM     80  C   UNL A   1      44.430  24.020  24.593  1.00  0.00     0.040 A 
ATOM     81  C   UNL A   1      42.744  23.022  25.969  1.00  0.00     0.040 A 
ATOM     82  F   UNL A   1      41.904  24.166  27.828  1.00  0.00    -0.206 F 
ATOM     83  C   UNL A   1      43.568  22.961  24.850  1.00  0.00     0.006 A 
ENDBRANCH  55  76
BRANCH  67  84
ATOM     84  C   UNL A   1      45.388  30.786  28.682  1.00  0.00     0.057 A 
ATOM     85  C   UNL A   1      46.698  31.275  28.710  1.00  0.00     0.134 A 
ATOM     86  C   UNL A   1      44.582  31.199  27.608  1.00  0.00     0.134 A 
ATOM     87  F   UNL A   1      47.509  30.977  29.738  1.00  0.00    -0.206 F 
ATOM     88  C   UNL A   1      47.198  32.101  27.702  1.00  0.00     0.040 A 
ATOM     89  C   UNL A   1      45.082  31.994  26.573  1.00  0.00     0.040 A 
ATOM     90  F   UNL A   1      43.284  30.878  27.550  1.00  0.00    -0.206 F 
ATOM     91  C   UNL A   1      46.396  32.447  26.618  1.00  0.00     0.006 A 
ENDBRANCH  67  84
ENDBRANCH  41  42
ENDBRANCH  34  36
ENDBRANCH  33  34
ENDBRANCH  32  33
ENDBRANCH  31  32
ENDBRANCH  30  31
ENDBRANCH   1  30
TORSDOF 19
ENDMDL
MODEL 2
REMARK VINA RESULT:     -11.4      2.415      4.148
REMARK SMILES COc1ccc2c(c1)c(CC(=O)OCCOCCOC(=O)c1ccc(-c3c4nc(c(-c5c(F)cccc5F)c5ccc([nH]5)c(-c5c(F)cccc5F)c5nc(c(-c6c(F)cccc6F)c6ccc3[nH]6)C=C5)C=C4)cc1)c(C)n2Cc1ccn(C(F)F)c(=O)c1
REMARK SMILES IDX 15 1 14 2 13 3 11 4 12 5 10 6 9 7 3 8 4 9 8 10 5 11 7 12
REMARK SMILES IDX 6 13 78 14 76 15 77 16 2 17 1 18 79 19 80 20 81 21 89 22
REMARK SMILES IDX 82 23 87 24 83 25 88 26 84 27 85 28 86 29 16 30 17 31 18 32
REMARK SMILES IDX 19 33 20 34 21 35 22 36 23 37 75 38 24 39 74 40 25 41 26 42
REMARK SMILES IDX 27 43 68 44 28 45 73 46 67 47 69 48 29 49 72 50 66 51 65 52
REMARK SMILES IDX 30 54 56 55 39 56 55 57 40 58 43 59 54 60 70 61 41 62 42 63
REMARK SMILES IDX 53 65 71 66 44 67 31 68 32 69 37 70 33 71 34 72 36 73 38 74
REMARK SMILES IDX 35 75 57 76 58 77 63 78 59 79 60 80 62 81 64 82 61 83 45 84
REMARK SMILES IDX 46 85 51 86 47 87 48 88 50 89 52 90 49 91
REMARK H PARENT 69 53 43 64
REMARK Flexibility Score: inf
ROOT
ATOM      1  C   UNL A   1      33.911  31.535  27.915  1.00  0.00     0.202 C 
ENDROOT
BRANCH   1   2
ATOM      2  C   UNL A   1      33.209  30.685  26.841  1.00  0.00     0.261 C 
BRANCH   2   3
ATOM      3  O   UNL A   1      32.380  29.621  27.340  1.00  0.00    -0.463 OA
BRANCH   3   4
ATOM      4  C   UNL A   1      32.861  28.372  27.104  1.00  0.00     0.310 C 
ATOM      5  O   UNL A   1      34.060  28.113  26.992  1.00  0.00    -0.252 OA
BRANCH   4   6
ATOM      6  C   UNL A   1      31.836  27.263  27.009  1.00  0.00     0.160 C 
BRANCH   6   7
ATOM      7  C   UNL A   1      31.846  26.324  25.831  1.00  0.00    -0.008 A 
ATOM      8  C   UNL A   1      30.874  27.898  22.478  1.00  0.00     0.119 A 
ATOM      9  C   UNL A   1      31.113  26.770  21.704  1.00  0.00     0.048 A 
ATOM     10  C   UNL A   1      31.023  27.827  23.865  1.00  0.00     0.057 A 
ATOM     11  C   UNL A   1      31.488  25.553  22.302  1.00  0.00     0.031 A 
ATOM     12  C   UNL A   1      31.484  26.645  24.486  1.00  0.00     0.007 A 
ATOM     13  C   UNL A   1      31.666  25.505  23.700  1.00  0.00     0.049 A 
ATOM     14  N   UNL A   1      31.997  24.466  24.564  1.00  0.00    -0.340 N 
ATOM     15  C   UNL A   1      32.004  24.943  25.870  1.00  0.00     0.020 A 
ATOM     16  C   UNL A   1      32.116  24.090  27.083  1.00  0.00     0.065 C 
BRANCH   8  17
ATOM     17  O   UNL A   1      30.657  29.162  22.004  1.00  0.00    -0.497 OA
ATOM     18  C   UNL A   1      29.382  29.735  22.250  1.00  0.00     0.278 C 
ENDBRANCH   8  17
BRANCH  14  19
ATOM     19  C   UNL A   1      32.125  23.056  24.152  1.00  0.00     0.158 C 
BRANCH  19  20
ATOM     20  C   UNL A   1      33.548  22.542  24.116  1.00  0.00    -0.021 A 
ATOM     21  C   UNL A   1      33.866  21.317  24.820  1.00  0.00     0.024 A 
ATOM     22  C   UNL A   1      34.527  23.140  23.413  1.00  0.00     0.077 A 
ATOM     23  C   UNL A   1      35.133  20.928  24.986  1.00  0.00     0.095 A 
ATOM     24  C   UNL A   1      35.939  22.651  23.492  1.00  0.00     0.255 A 
ATOM     25  N   UNL A   1      36.166  21.616  24.386  1.00  0.00    -0.258 N 
ATOM     26  O   UNL A   1      36.789  23.199  22.799  1.00  0.00    -0.269 OA
BRANCH  25  27
ATOM     27  C   UNL A   1      37.531  21.215  24.612  1.00  0.00     0.451 C 
ATOM     28  F   UNL A   1      38.152  22.062  25.466  1.00  0.00    -0.185 F 
ATOM     29  F   UNL A   1      37.591  19.966  25.135  1.00  0.00    -0.185 F 
ENDBRANCH  25  27
ENDBRANCH  19  20
ENDBRANCH  14  19
ENDBRANCH   6   7
ENDBRANCH   4   6
ENDBRANCH   3   4
ENDBRANCH   2   3
ENDBRANCH   1   2
BRANCH   1  30
ATOM     30  O   UNL A   1      33.677  32.933  28.002  1.00  0.00    -0.374 OA
BRANCH  30  31
ATOM     31  C   UNL A   1      34.815  33.785  28.123  1.00  0.00     0.202 C 
BRANCH  31  32
ATOM     32  C   UNL A   1      35.466  34.020  29.500  1.00  0.00     0.261 C 
BRANCH  32  33
ATOM     33  O   UNL A   1      36.585  33.171  29.742  1.00  0.00    -0.460 OA
BRANCH  33  34
ATOM     34  C   UNL A   1      36.322  32.103  30.538  1.00  0.00     0.338 C 
ATOM     35  O   UNL A   1      35.299  31.853  31.157  1.00  0.00    -0.246 OA
BRANCH  34  36
ATOM     36  C   UNL A   1      37.328  31.113  30.136  1.00  0.00     0.060 A 
ATOM     37  C   UNL A   1      37.098  29.754  30.369  1.00  0.00     0.016 A 
ATOM     38  C   UNL A   1      38.619  31.616  29.906  1.00  0.00     0.016 A 
ATOM     39  C   UNL A   1      38.194  28.911  30.471  1.00  0.00     0.010 A 
ATOM     40  C   UNL A   1      39.713  30.773  30.040  1.00  0.00     0.010 A 
ATOM     41  C   UNL A   1      39.499  29.430  30.359  1.00  0.00    -0.014 A 
BRANCH  41  42
ATOM     42  C   UNL A   1      40.596  28.469  30.256  1.00  0.00     0.031 A 
ATOM     43  C   UNL A   1      41.255  28.304  31.579  1.00  0.00     0.074 A 
ATOM     44  C   UNL A   1      40.924  27.704  29.196  1.00  0.00     0.049 A 
ATOM     45  N   UNL A   1      42.459  28.645  31.901  1.00  0.00    -0.248 NA
ATOM     46  C   UNL A   1      40.410  27.920  32.725  1.00  0.00     0.031 C 
ATOM     47  C   UNL A   1      40.233  27.571  27.914  1.00  0.00     0.029 A 
ATOM     48  N   UNL A   1      41.937  26.792  29.083  1.00  0.00    -0.354 N 
ATOM     49  C   UNL A   1      42.584  28.326  33.248  1.00  0.00     0.074 A 
ATOM     50  C   UNL A   1      41.256  28.079  33.741  1.00  0.00     0.031 C 
ATOM     51  C   UNL A   1      40.710  26.485  27.257  1.00  0.00     0.029 A 
ATOM     52  C   UNL A   1      41.810  25.909  28.014  1.00  0.00     0.049 A 
ATOM     53  H   UNL A   1      42.697  26.763  29.709  1.00  0.00     0.167 HD
ATOM     54  C   UNL A   1      43.796  28.019  33.778  1.00  0.00     0.037 A 
ATOM     55  C   UNL A   1      42.521  24.768  27.802  1.00  0.00     0.037 A 
ATOM     56  C   UNL A   1      44.869  28.513  32.951  1.00  0.00     0.049 A 
ATOM     57  C   UNL A   1      43.759  24.850  28.614  1.00  0.00     0.074 A 
ATOM     58  C   UNL A   1      45.256  29.759  32.497  1.00  0.00     0.029 A 
ATOM     59  N   UNL A   1      45.525  27.606  32.157  1.00  0.00    -0.354 N 
ATOM     60  N   UNL A   1      44.744  25.656  28.346  1.00  0.00    -0.248 NA
ATOM     61  C   UNL A   1      43.708  24.360  29.983  1.00  0.00     0.031 C 
ATOM     62  C   UNL A   1      45.733  29.539  31.169  1.00  0.00     0.029 A 
ATOM     63  C   UNL A   1      45.669  28.170  30.916  1.00  0.00     0.049 A 
ATOM     64  H   UNL A   1      45.837  26.714  32.429  1.00  0.00     0.167 HD
ATOM     65  C   UNL A   1      45.133  26.148  29.581  1.00  0.00     0.074 A 
ATOM     66  C   UNL A   1      44.528  25.244  30.558  1.00  0.00     0.031 C 
ATOM     67  C   UNL A   1      45.657  27.403  29.696  1.00  0.00     0.037 A 
BRANCH  54  68
ATOM     68  C   UNL A   1      43.991  26.901  34.774  1.00  0.00     0.057 A 
ATOM     69  C   UNL A   1      44.208  27.093  36.156  1.00  0.00     0.134 A 
ATOM     70  C   UNL A   1      43.620  25.597  34.403  1.00  0.00     0.134 A 
ATOM     71  F   UNL A   1      44.502  28.285  36.686  1.00  0.00    -0.206 F 
ATOM     72  C   UNL A   1      44.026  26.081  37.099  1.00  0.00     0.040 A 
ATOM     73  C   UNL A   1      43.383  24.591  35.347  1.00  0.00     0.040 A 
ATOM     74  F   UNL A   1      43.379  25.289  33.120  1.00  0.00    -0.206 F 
ATOM     75  C   UNL A   1      43.573  24.836  36.702  1.00  0.00     0.006 A 
ENDBRANCH  54  68
BRANCH  55  76
ATOM     76  C   UNL A   1      42.116  23.492  27.158  1.00  0.00     0.057 A 
ATOM     77  C   UNL A   1      40.955  22.809  27.556  1.00  0.00     0.134 A 
ATOM     78  C   UNL A   1      43.004  22.760  26.350  1.00  0.00     0.134 A 
ATOM     79  F   UNL A   1      40.070  23.378  28.388  1.00  0.00    -0.206 F 
ATOM     80  C   UNL A   1      40.701  21.481  27.196  1.00  0.00     0.040 A 
ATOM     81  C   UNL A   1      42.765  21.426  25.987  1.00  0.00     0.040 A 
ATOM     82  F   UNL A   1      44.165  23.299  25.948  1.00  0.00    -0.206 F 
ATOM     83  C   UNL A   1      41.614  20.778  26.421  1.00  0.00     0.006 A 
ENDBRANCH  55  76
BRANCH  67  84
ATOM     84  C   UNL A   1      46.044  28.104  28.424  1.00  0.00     0.057 A 
ATOM     85  C   UNL A   1      47.379  28.057  28.010  1.00  0.00     0.134 A 
ATOM     86  C   UNL A   1      45.168  28.879  27.646  1.00  0.00     0.134 A 
ATOM     87  F   UNL A   1      48.289  27.390  28.737  1.00  0.00    -0.206 F 
ATOM     88  C   UNL A   1      47.818  28.714  26.859  1.00  0.00     0.040 A 
ATOM     89  C   UNL A   1      45.585  29.509  26.471  1.00  0.00     0.040 A 
ATOM     90  F   UNL A   1      43.898  29.079  28.020  1.00  0.00    -0.206 F 
ATOM     91  C   UNL A   1      46.916  29.427  26.073  1.00  0.00     0.006 A 
ENDBRANCH  67  84
ENDBRANCH  41  42
ENDBRANCH  34  36
ENDBRANCH  33  34
ENDBRANCH  32  33
ENDBRANCH  31  32
ENDBRANCH  30  31
ENDBRANCH   1  30
TORSDOF 19
ENDMDL
MODEL 3
REMARK VINA RESULT:     -11.2      2.204      3.208
REMARK SMILES COc1ccc2c(c1)c(CC(=O)OCCOCCOC(=O)c1ccc(-c3c4nc(c(-c5c(F)cccc5F)c5ccc([nH]5)c(-c5c(F)cccc5F)c5nc(c(-c6c(F)cccc6F)c6ccc3[nH]6)C=C5)C=C4)cc1)c(C)n2Cc1ccn(C(F)F)c(=O)c1
REMARK SMILES IDX 15 1 14 2 13 3 11 4 12 5 10 6 9 7 3 8 4 9 8 10 5 11 7 12
REMARK SMILES IDX 6 13 78 14 76 15 77 16 2 17 1 18 79 19 80 20 81 21 89 22
REMARK SMILES IDX 82 23 87 24 83 25 88 26 84 27 85 28 86 29 16 30 17 31 18 32
REMARK SMILES IDX 19 33 20 34 21 35 22 36 23 37 75 38 24 39 74 40 25 41 26 42
REMARK SMILES IDX 27 43 68 44 28 45 73 46 67 47 69 48 29 49 72 50 66 51 65 52
REMARK SMILES IDX 30 54 56 55 39 56 55 57 40 58 43 59 54 60 70 61 41 62 42 63
REMARK SMILES IDX 53 65 71 66 44 67 31 68 32 69 37 70 33 71 34 72 36 73 38 74
REMARK SMILES IDX 35 75 57 76 58 77 63 78 59 79 60 80 62 81 64 82 61 83 45 84
REMARK SMILES IDX 46 85 51 86 47 87 48 88 50 89 52 90 49 91
REMARK H PARENT 69 53 43 64
REMARK Flexibility Score: inf
ROOT
ATOM      1  C   UNL A   1      32.188  29.456  26.746  1.00  0.00     0.202 C 
ENDROOT
BRANCH   1   2
ATOM      2  C   UNL A   1      32.495  29.041  25.296  1.00  0.00     0.261 C 
BRANCH   2   3
ATOM      3  O   UNL A   1      31.973  27.761  24.896  1.00  0.00    -0.463 OA
BRANCH   3   4
ATOM      4  C   UNL A   1      32.918  26.860  24.519  1.00  0.00     0.310 C 
ATOM      5  O   UNL A   1      33.581  26.959  23.486  1.00  0.00    -0.252 OA
BRANCH   4   6
ATOM      6  C   UNL A   1      33.158  25.701  25.463  1.00  0.00     0.160 C 
BRANCH   6   7
ATOM      7  C   UNL A   1      33.326  24.306  24.919  1.00  0.00    -0.008 A 
ATOM      8  C   UNL A   1      36.888  22.910  25.072  1.00  0.00     0.119 A 
ATOM      9  C   UNL A   1      36.576  21.641  24.600  1.00  0.00     0.048 A 
ATOM     10  C   UNL A   1      35.888  23.883  25.147  1.00  0.00     0.057 A 
ATOM     11  C   UNL A   1      35.269  21.331  24.182  1.00  0.00     0.031 A 
ATOM     12  C   UNL A   1      34.550  23.575  24.819  1.00  0.00     0.007 A 
ATOM     13  C   UNL A   1      34.263  22.313  24.294  1.00  0.00     0.049 A 
ATOM     14  N   UNL A   1      32.917  22.315  23.945  1.00  0.00    -0.340 N 
ATOM     15  C   UNL A   1      32.374  23.562  24.230  1.00  0.00     0.020 A 
ATOM     16  C   UNL A   1      31.018  24.012  23.814  1.00  0.00     0.065 C 
BRANCH   8  17
ATOM     17  O   UNL A   1      38.073  23.281  25.645  1.00  0.00    -0.497 OA
ATOM     18  C   UNL A   1      38.002  23.972  26.883  1.00  0.00     0.278 C 
ENDBRANCH   8  17
BRANCH  14  19
ATOM     19  C   UNL A   1      32.250  21.220  23.216  1.00  0.00     0.158 C 
BRANCH  19  20
ATOM     20  C   UNL A   1      32.540  19.839  23.760  1.00  0.00    -0.021 A 
ATOM     21  C   UNL A   1      32.414  19.609  25.186  1.00  0.00     0.024 A 
ATOM     22  C   UNL A   1      32.859  18.792  22.977  1.00  0.00     0.077 A 
ATOM     23  C   UNL A   1      32.847  18.473  25.740  1.00  0.00     0.095 A 
ATOM     24  C   UNL A   1      33.236  17.472  23.572  1.00  0.00     0.255 A 
ATOM     25  N   UNL A   1      33.311  17.438  24.956  1.00  0.00    -0.258 N 
ATOM     26  O   UNL A   1      33.474  16.535  22.819  1.00  0.00    -0.269 OA
BRANCH  25  27
ATOM     27  C   UNL A   1      33.819  16.238  25.569  1.00  0.00     0.451 C 
ATOM     28  F   UNL A   1      33.125  15.150  25.160  1.00  0.00    -0.185 F 
ATOM     29  F   UNL A   1      35.126  16.049  25.259  1.00  0.00    -0.185 F 
ENDBRANCH  25  27
ENDBRANCH  19  20
ENDBRANCH  14  19
ENDBRANCH   6   7
ENDBRANCH   4   6
ENDBRANCH   3   4
ENDBRANCH   2   3
ENDBRANCH   1   2
BRANCH   1  30
ATOM     30  O   UNL A   1      33.228  29.871  27.619  1.00  0.00    -0.374 OA
BRANCH  30  31
ATOM     31  C   UNL A   1      33.898  31.092  27.310  1.00  0.00     0.202 C 
BRANCH  31  32
ATOM     32  C   UNL A   1      35.009  31.623  28.238  1.00  0.00     0.261 C 
BRANCH  32  33
ATOM     33  O   UNL A   1      36.231  30.898  28.120  1.00  0.00    -0.460 OA
BRANCH  33  34
ATOM     34  C   UNL A   1      37.334  31.580  28.521  1.00  0.00     0.338 C 
ATOM     35  O   UNL A   1      37.417  32.749  28.868  1.00  0.00    -0.246 OA
BRANCH  34  36
ATOM     36  C   UNL A   1      38.284  30.523  28.884  1.00  0.00     0.060 A 
ATOM     37  C   UNL A   1      39.548  30.863  29.374  1.00  0.00     0.016 A 
ATOM     38  C   UNL A   1      38.016  29.253  28.347  1.00  0.00     0.016 A 
ATOM     39  C   UNL A   1      40.577  29.945  29.228  1.00  0.00     0.010 A 
ATOM     40  C   UNL A   1      39.056  28.352  28.176  1.00  0.00     0.010 A 
ATOM     41  C   UNL A   1      40.342  28.714  28.583  1.00  0.00    -0.014 A 
BRANCH  41  42
ATOM     42  C   UNL A   1      41.399  27.707  28.654  1.00  0.00     0.031 A 
ATOM     43  C   UNL A   1      42.128  27.822  29.945  1.00  0.00     0.074 A 
ATOM     44  C   UNL A   1      41.640  26.704  27.786  1.00  0.00     0.049 A 
ATOM     45  N   UNL A   1      43.358  28.173  30.120  1.00  0.00    -0.248 NA
ATOM     46  C   UNL A   1      41.337  27.750  31.189  1.00  0.00     0.031 C 
ATOM     47  C   UNL A   1      40.873  26.310  26.605  1.00  0.00     0.029 A 
ATOM     48  N   UNL A   1      42.616  25.746  27.839  1.00  0.00    -0.354 N 
ATOM     49  C   UNL A   1      43.550  28.168  31.497  1.00  0.00     0.074 A 
ATOM     50  C   UNL A   1      42.246  28.100  32.097  1.00  0.00     0.031 C 
ATOM     51  C   UNL A   1      41.275  25.083  26.196  1.00  0.00     0.029 A 
ATOM     52  C   UNL A   1      42.398  24.647  27.012  1.00  0.00     0.049 A 
ATOM     53  H   UNL A   1      43.409  25.828  28.417  1.00  0.00     0.167 HD
ATOM     54  C   UNL A   1      44.780  27.936  32.025  1.00  0.00     0.037 A 
ATOM     55  C   UNL A   1      43.059  23.457  27.037  1.00  0.00     0.037 A 
ATOM     56  C   UNL A   1      45.819  28.178  31.055  1.00  0.00     0.049 A 
ATOM     57  C   UNL A   1      44.343  23.668  27.747  1.00  0.00     0.074 A 
ATOM     58  C   UNL A   1      46.220  29.267  30.305  1.00  0.00     0.029 A 
ATOM     59  N   UNL A   1      46.399  27.084  30.462  1.00  0.00    -0.354 N 
ATOM     60  N   UNL A   1      45.337  24.346  27.251  1.00  0.00    -0.248 NA
ATOM     61  C   UNL A   1      44.355  23.509  29.192  1.00  0.00     0.031 C 
ATOM     62  C   UNL A   1      46.612  28.726  29.044  1.00  0.00     0.029 A 
ATOM     63  C   UNL A   1      46.489  27.340  29.119  1.00  0.00     0.049 A 
ATOM     64  H   UNL A   1      46.696  26.266  30.919  1.00  0.00     0.167 HD
ATOM     65  C   UNL A   1      45.811  25.091  28.318  1.00  0.00     0.074 A 
ATOM     66  C   UNL A   1      45.235  24.464  29.507  1.00  0.00     0.031 C 
ATOM     67  C   UNL A   1      46.382  26.314  28.112  1.00  0.00     0.037 A 
BRANCH  54  68
ATOM     68  C   UNL A   1      44.995  27.070  33.242  1.00  0.00     0.057 A 
ATOM     69  C   UNL A   1      45.392  27.557  34.507  1.00  0.00     0.134 A 
ATOM     70  C   UNL A   1      44.472  25.766  33.242  1.00  0.00     0.134 A 
ATOM     71  F   UNL A   1      45.848  28.799  34.697  1.00  0.00    -0.206 F 
ATOM     72  C   UNL A   1      45.237  26.823  35.684  1.00  0.00     0.040 A 
ATOM     73  C   UNL A   1      44.263  25.044  34.423  1.00  0.00     0.040 A 
ATOM     74  F   UNL A   1      44.054  25.194  32.103  1.00  0.00    -0.206 F 
ATOM     75  C   UNL A   1      44.634  25.579  35.651  1.00  0.00     0.006 A 
ENDBRANCH  54  68
BRANCH  55  76
ATOM     76  C   UNL A   1      42.575  22.087  26.728  1.00  0.00     0.057 A 
ATOM     77  C   UNL A   1      41.583  21.469  27.506  1.00  0.00     0.134 A 
ATOM     78  C   UNL A   1      43.277  21.239  25.852  1.00  0.00     0.134 A 
ATOM     79  F   UNL A   1      40.900  22.159  28.429  1.00  0.00    -0.206 F 
ATOM     80  C   UNL A   1      41.319  20.096  27.439  1.00  0.00     0.040 A 
ATOM     81  C   UNL A   1      43.026  19.860  25.778  1.00  0.00     0.040 A 
ATOM     82  F   UNL A   1      44.275  21.715  25.092  1.00  0.00    -0.206 F 
ATOM     83  C   UNL A   1      42.051  19.282  26.584  1.00  0.00     0.006 A 
ENDBRANCH  55  76
BRANCH  67  84
ATOM     84  C   UNL A   1      46.718  26.685  26.695  1.00  0.00     0.057 A 
ATOM     85  C   UNL A   1      47.979  26.349  26.193  1.00  0.00     0.134 A 
ATOM     86  C   UNL A   1      45.876  27.423  25.846  1.00  0.00     0.134 A 
ATOM     87  F   UNL A   1      48.864  25.700  26.967  1.00  0.00    -0.206 F 
ATOM     88  C   UNL A   1      48.373  26.692  24.898  1.00  0.00     0.040 A 
ATOM     89  C   UNL A   1      46.243  27.739  24.536  1.00  0.00     0.040 A 
ATOM     90  F   UNL A   1      44.696  27.890  26.273  1.00  0.00    -0.206 F 
ATOM     91  C   UNL A   1      47.496  27.372  24.057  1.00  0.00     0.006 A 
ENDBRANCH  67  84
ENDBRANCH  41  42
ENDBRANCH  34  36
ENDBRANCH  33  34
ENDBRANCH  32  33
ENDBRANCH  31  32
ENDBRANCH  30  31
ENDBRANCH   1  30
TORSDOF 19
ENDMDL
