MODEL 1
REMARK VINA RESULT:     -10.7      0.000      0.000
REMARK SMILES O=C(OCCOCCOC(=O)[C@@H](c1ccccc1)N1C(=O)/C(=C\c2ccc(-c3ccc(F)cc3)o2)SC1=S)c1ccc(-c2c3nc(c(-c4c(F)cccc4F)c4ccc([nH]4)c(-c4c(F)cccc4F)c4nc(c(-c5c(F)cccc5F)c5ccc2[nH]5)C=C4)C=C3)cc1
REMARK SMILES IDX 7 1 6 2 5 3 4 4 3 5 2 6 1 7 39 8 40 9 92 10 41 11 91 12
REMARK SMILES IDX 42 13 43 14 44 15 85 16 45 17 90 18 84 19 86 20 46 21 89 22
REMARK SMILES IDX 83 23 82 24 47 26 73 27 56 28 72 29 57 30 60 31 71 32 87 33
REMARK SMILES IDX 58 34 59 35 70 37 88 38 61 39 48 40 49 41 54 42 50 43 51 44
REMARK SMILES IDX 53 45 55 46 52 47 74 48 75 49 80 50 76 51 77 52 79 53 81 54
REMARK SMILES IDX 78 55 62 56 63 57 68 58 64 59 65 60 67 61 69 62 66 63 8 64
REMARK SMILES IDX 9 65 10 66 11 67 12 68 13 69 14 70 18 71 15 72 17 73 16 74
REMARK SMILES IDX 19 75 20 76 37 77 21 78 22 79 36 80 38 81 23 82 24 83 25 84
REMARK SMILES IDX 35 85 26 86 27 87 28 88 29 89 34 90 30 91 33 92 31 93 32 94
REMARK H PARENT 86 25 60 36
REMARK Flexibility Score: inf
ROOT
ATOM      1  C   UNL A   1      35.736  31.918  32.268  1.00  0.00     0.202 C 
ENDROOT
BRANCH   1   2
ATOM      2  O   UNL A   1      35.509  33.171  31.626  1.00  0.00    -0.374 OA
BRANCH   2   3
ATOM      3  C   UNL A   1      35.846  33.313  30.249  1.00  0.00     0.202 C 
BRANCH   3   4
ATOM      4  C   UNL A   1      34.787  32.919  29.217  1.00  0.00     0.261 C 
BRANCH   4   5
ATOM      5  O   UNL A   1      34.638  31.493  29.134  1.00  0.00    -0.460 OA
BRANCH   5   6
ATOM      6  C   UNL A   1      35.180  30.696  28.181  1.00  0.00     0.338 C 
ATOM      7  O   UNL A   1      34.547  30.449  27.159  1.00  0.00    -0.246 OA
BRANCH   6   8
ATOM      8  C   UNL A   1      36.534  30.100  28.340  1.00  0.00     0.060 A 
ATOM      9  C   UNL A   1      37.483  30.091  27.321  1.00  0.00     0.016 A 
ATOM     10  C   UNL A   1      36.912  29.617  29.595  1.00  0.00     0.016 A 
ATOM     11  C   UNL A   1      38.747  29.592  27.485  1.00  0.00     0.010 A 
ATOM     12  C   UNL A   1      38.216  29.163  29.802  1.00  0.00     0.010 A 
ATOM     13  C   UNL A   1      39.132  29.175  28.742  1.00  0.00    -0.014 A 
BRANCH  13  14
ATOM     14  C   UNL A   1      40.514  28.716  28.849  1.00  0.00     0.031 A 
ATOM     15  C   UNL A   1      41.516  29.664  29.398  1.00  0.00     0.074 A 
ATOM     16  C   UNL A   1      40.778  27.418  28.613  1.00  0.00     0.049 A 
ATOM     17  N   UNL A   1      42.807  29.536  29.470  1.00  0.00    -0.248 NA
ATOM     18  C   UNL A   1      40.995  30.928  29.955  1.00  0.00     0.031 C 
ATOM     19  C   UNL A   1      39.779  26.397  28.266  1.00  0.00     0.029 A 
ATOM     20  N   UNL A   1      41.953  26.725  28.656  1.00  0.00    -0.354 N 
ATOM     21  C   UNL A   1      43.263  30.724  30.013  1.00  0.00     0.074 A 
ATOM     22  C   UNL A   1      42.113  31.552  30.291  1.00  0.00     0.031 C 
ATOM     23  C   UNL A   1      40.391  25.212  28.120  1.00  0.00     0.029 A 
ATOM     24  C   UNL A   1      41.823  25.416  28.260  1.00  0.00     0.049 A 
ATOM     25  H   UNL A   1      42.807  27.123  28.941  1.00  0.00     0.167 HD
ATOM     26  C   UNL A   1      44.548  31.080  30.215  1.00  0.00     0.037 A 
ATOM     27  C   UNL A   1      42.780  24.519  27.963  1.00  0.00     0.037 A 
ATOM     28  C   UNL A   1      45.645  30.198  29.929  1.00  0.00     0.049 A 
ATOM     29  C   UNL A   1      44.205  24.985  28.090  1.00  0.00     0.074 A 
ATOM     30  C   UNL A   1      46.998  30.433  30.053  1.00  0.00     0.029 A 
ATOM     31  N   UNL A   1      45.496  28.900  29.454  1.00  0.00    -0.354 N 
ATOM     32  N   UNL A   1      44.658  26.135  28.535  1.00  0.00    -0.248 NA
ATOM     33  C   UNL A   1      45.247  24.056  27.644  1.00  0.00     0.031 C 
ATOM     34  C   UNL A   1      47.669  29.296  29.592  1.00  0.00     0.029 A 
ATOM     35  C   UNL A   1      46.735  28.333  29.237  1.00  0.00     0.049 A 
ATOM     36  H   UNL A   1      44.633  28.451  29.295  1.00  0.00     0.167 HD
ATOM     37  C   UNL A   1      46.038  26.067  28.432  1.00  0.00     0.074 A 
ATOM     38  C   UNL A   1      46.346  24.749  27.909  1.00  0.00     0.031 C 
ATOM     39  C   UNL A   1      46.972  27.005  28.725  1.00  0.00     0.037 A 
BRANCH  26  40
ATOM     40  C   UNL A   1      44.815  32.488  30.645  1.00  0.00     0.057 A 
ATOM     41  C   UNL A   1      44.980  33.539  29.736  1.00  0.00     0.134 A 
ATOM     42  C   UNL A   1      44.922  32.786  32.009  1.00  0.00     0.134 A 
ATOM     43  F   UNL A   1      44.928  33.312  28.416  1.00  0.00    -0.206 F 
ATOM     44  C   UNL A   1      45.250  34.839  30.171  1.00  0.00     0.040 A 
ATOM     45  C   UNL A   1      45.170  34.083  32.457  1.00  0.00     0.040 A 
ATOM     46  F   UNL A   1      44.797  31.818  32.930  1.00  0.00    -0.206 F 
ATOM     47  C   UNL A   1      45.337  35.115  31.536  1.00  0.00     0.006 A 
ENDBRANCH  26  40
BRANCH  27  48
ATOM     48  C   UNL A   1      42.435  23.184  27.408  1.00  0.00     0.057 A 
ATOM     49  C   UNL A   1      42.191  22.086  28.240  1.00  0.00     0.134 A 
ATOM     50  C   UNL A   1      42.390  22.958  26.024  1.00  0.00     0.134 A 
ATOM     51  F   UNL A   1      42.234  22.226  29.572  1.00  0.00    -0.206 F 
ATOM     52  C   UNL A   1      41.947  20.811  27.719  1.00  0.00     0.040 A 
ATOM     53  C   UNL A   1      42.114  21.698  25.490  1.00  0.00     0.040 A 
ATOM     54  F   UNL A   1      42.613  23.962  25.163  1.00  0.00    -0.206 F 
ATOM     55  C   UNL A   1      41.906  20.616  26.341  1.00  0.00     0.006 A 
ENDBRANCH  27  48
BRANCH  39  56
ATOM     56  C   UNL A   1      48.400  26.620  28.502  1.00  0.00     0.057 A 
ATOM     57  C   UNL A   1      49.134  25.937  29.478  1.00  0.00     0.134 A 
ATOM     58  C   UNL A   1      49.014  26.866  27.268  1.00  0.00     0.134 A 
ATOM     59  F   UNL A   1      48.600  25.691  30.684  1.00  0.00    -0.206 F 
ATOM     60  C   UNL A   1      50.440  25.519  29.236  1.00  0.00     0.040 A 
ATOM     61  C   UNL A   1      50.308  26.424  27.004  1.00  0.00     0.040 A 
ATOM     62  F   UNL A   1      48.352  27.508  26.293  1.00  0.00    -0.206 F 
ATOM     63  C   UNL A   1      51.025  25.750  27.991  1.00  0.00     0.006 A 
ENDBRANCH  39  56
ENDBRANCH  13  14
ENDBRANCH   6   8
ENDBRANCH   5   6
ENDBRANCH   4   5
ENDBRANCH   3   4
ENDBRANCH   2   3
ENDBRANCH   1   2
BRANCH   1  64
ATOM     64  C   UNL A   1      36.453  32.177  33.595  1.00  0.00     0.261 C 
BRANCH  64  65
ATOM     65  O   UNL A   1      37.484  33.155  33.372  1.00  0.00    -0.461 OA
BRANCH  65  66
ATOM     66  C   UNL A   1      38.720  32.634  33.101  1.00  0.00     0.334 C 
ATOM     67  O   UNL A   1      39.299  32.744  32.027  1.00  0.00    -0.249 OA
BRANCH  66  68
ATOM     68  C   UNL A   1      39.274  31.828  34.306  1.00  0.00     0.232 C 
BRANCH  68  69
ATOM     69  C   UNL A   1      40.148  30.657  33.864  1.00  0.00    -0.014 A 
ATOM     70  C   UNL A   1      39.535  29.535  33.275  1.00  0.00     0.006 A 
ATOM     71  C   UNL A   1      41.558  30.676  33.914  1.00  0.00     0.006 A 
ATOM     72  C   UNL A   1      40.296  28.483  32.755  1.00  0.00     0.000 A 
ATOM     73  C   UNL A   1      42.318  29.628  33.385  1.00  0.00     0.000 A 
ATOM     74  C   UNL A   1      41.687  28.532  32.809  1.00  0.00     0.000 A 
ENDBRANCH  68  69
BRANCH  68  75
ATOM     75  N   UNL A   1      39.804  32.859  35.210  1.00  0.00    -0.274 N 
ATOM     76  C   UNL A   1      39.575  32.587  36.552  1.00  0.00     0.267 C 
ATOM     77  C   UNL A   1      40.537  33.993  34.986  1.00  0.00     0.149 C 
ATOM     78  O   UNL A   1      39.457  31.474  37.020  1.00  0.00    -0.268 OA
ATOM     79  C   UNL A   1      39.549  33.854  37.316  1.00  0.00     0.084 C 
ATOM     80  S   UNL A   1      40.480  35.012  36.437  1.00  0.00    -0.054 SA
ATOM     81  S   UNL A   1      41.443  34.456  33.670  1.00  0.00    -0.052 S 
ATOM     82  C   UNL A   1      38.804  34.160  38.386  1.00  0.00     0.068 C 
BRANCH  82  83
ATOM     83  C   UNL A   1      37.883  33.286  39.031  1.00  0.00     0.128 A 
ATOM     84  C   UNL A   1      36.713  32.683  38.581  1.00  0.00     0.051 A 
ATOM     85  O   UNL A   1      38.100  32.828  40.319  1.00  0.00    -0.457 OA
ATOM     86  C   UNL A   1      36.192  31.884  39.622  1.00  0.00     0.051 A 
ATOM     87  C   UNL A   1      37.093  31.974  40.655  1.00  0.00     0.134 A 
BRANCH  87  88
ATOM     88  C   UNL A   1      37.207  31.287  41.928  1.00  0.00     0.017 A 
ATOM     89  C   UNL A   1      38.090  30.214  42.112  1.00  0.00     0.015 A 
ATOM     90  C   UNL A   1      36.414  31.713  43.006  1.00  0.00     0.015 A 
ATOM     91  C   UNL A   1      38.177  29.581  43.357  1.00  0.00     0.040 A 
ATOM     92  C   UNL A   1      36.492  31.073  44.243  1.00  0.00     0.040 A 
ATOM     93  C   UNL A   1      37.373  30.014  44.407  1.00  0.00     0.123 A 
ATOM     94  F   UNL A   1      37.451  29.400  45.596  1.00  0.00    -0.207 F 
ENDBRANCH  87  88
ENDBRANCH  82  83
ENDBRANCH  68  75
ENDBRANCH  66  68
ENDBRANCH  65  66
ENDBRANCH  64  65
ENDBRANCH   1  64
TORSDOF 18
ENDMDL
MODEL 2
REMARK VINA RESULT:     -10.7      8.513     12.489
REMARK SMILES O=C(OCCOCCOC(=O)[C@@H](c1ccccc1)N1C(=O)/C(=C\c2ccc(-c3ccc(F)cc3)o2)SC1=S)c1ccc(-c2c3nc(c(-c4c(F)cccc4F)c4ccc([nH]4)c(-c4c(F)cccc4F)c4nc(c(-c5c(F)cccc5F)c5ccc2[nH]5)C=C4)C=C3)cc1
REMARK SMILES IDX 7 1 6 2 5 3 4 4 3 5 2 6 1 7 39 8 40 9 92 10 41 11 91 12
REMARK SMILES IDX 42 13 43 14 44 15 85 16 45 17 90 18 84 19 86 20 46 21 89 22
REMARK SMILES IDX 83 23 82 24 47 26 73 27 56 28 72 29 57 30 60 31 71 32 87 33
REMARK SMILES IDX 58 34 59 35 70 37 88 38 61 39 48 40 49 41 54 42 50 43 51 44
REMARK SMILES IDX 53 45 55 46 52 47 74 48 75 49 80 50 76 51 77 52 79 53 81 54
REMARK SMILES IDX 78 55 62 56 63 57 68 58 64 59 65 60 67 61 69 62 66 63 8 64
REMARK SMILES IDX 9 65 10 66 11 67 12 68 13 69 14 70 18 71 15 72 17 73 16 74
REMARK SMILES IDX 19 75 20 76 37 77 21 78 22 79 36 80 38 81 23 82 24 83 25 84
REMARK SMILES IDX 35 85 26 86 27 87 28 88 29 89 34 90 30 91 33 92 31 93 32 94
REMARK H PARENT 86 25 60 36
REMARK Flexibility Score: inf
ROOT
ATOM      1  C   UNL A   1      45.060  24.401  39.412  1.00  0.00     0.202 C 
ENDROOT
BRANCH   1   2
ATOM      2  O   UNL A   1      45.727  25.548  39.935  1.00  0.00    -0.374 OA
BRANCH   2   3
ATOM      3  C   UNL A   1      45.180  26.839  39.685  1.00  0.00     0.202 C 
BRANCH   3   4
ATOM      4  C   UNL A   1      46.036  27.828  38.890  1.00  0.00     0.261 C 
BRANCH   4   5
ATOM      5  O   UNL A   1      46.822  27.159  37.891  1.00  0.00    -0.460 OA
BRANCH   5   6
ATOM      6  C   UNL A   1      46.339  26.563  36.774  1.00  0.00     0.338 C 
ATOM      7  O   UNL A   1      46.699  25.427  36.482  1.00  0.00    -0.246 OA
BRANCH   6   8
ATOM      8  C   UNL A   1      45.375  27.254  35.876  1.00  0.00     0.060 A 
ATOM      9  C   UNL A   1      43.997  27.068  35.954  1.00  0.00     0.016 A 
ATOM     10  C   UNL A   1      45.860  28.211  34.980  1.00  0.00     0.016 A 
ATOM     11  C   UNL A   1      43.108  27.745  35.163  1.00  0.00     0.010 A 
ATOM     12  C   UNL A   1      44.965  28.960  34.211  1.00  0.00     0.010 A 
ATOM     13  C   UNL A   1      43.588  28.731  34.327  1.00  0.00    -0.014 A 
BRANCH  13  14
ATOM     14  C   UNL A   1      42.572  29.451  33.566  1.00  0.00     0.031 A 
ATOM     15  C   UNL A   1      42.069  30.731  34.124  1.00  0.00     0.074 A 
ATOM     16  C   UNL A   1      42.272  29.017  32.329  1.00  0.00     0.049 A 
ATOM     17  N   UNL A   1      41.089  31.476  33.704  1.00  0.00    -0.248 NA
ATOM     18  C   UNL A   1      42.769  31.255  35.313  1.00  0.00     0.031 C 
ATOM     19  C   UNL A   1      42.898  27.870  31.655  1.00  0.00     0.029 A 
ATOM     20  N   UNL A   1      41.390  29.498  31.404  1.00  0.00    -0.354 N 
ATOM     21  C   UNL A   1      41.008  32.518  34.612  1.00  0.00     0.074 A 
ATOM     22  C   UNL A   1      42.058  32.338  35.587  1.00  0.00     0.031 C 
ATOM     23  C   UNL A   1      42.370  27.736  30.429  1.00  0.00     0.029 A 
ATOM     24  C   UNL A   1      41.307  28.715  30.278  1.00  0.00     0.049 A 
ATOM     25  H   UNL A   1      40.867  30.322  31.532  1.00  0.00     0.167 HD
ATOM     26  C   UNL A   1      40.093  33.508  34.624  1.00  0.00     0.037 A 
ATOM     27  C   UNL A   1      40.402  28.750  29.285  1.00  0.00     0.037 A 
ATOM     28  C   UNL A   1      39.082  33.635  33.611  1.00  0.00     0.049 A 
ATOM     29  C   UNL A   1      39.326  29.797  29.387  1.00  0.00     0.074 A 
ATOM     30  C   UNL A   1      38.071  34.568  33.511  1.00  0.00     0.029 A 
ATOM     31  N   UNL A   1      38.966  32.784  32.517  1.00  0.00    -0.354 N 
ATOM     32  N   UNL A   1      39.189  30.751  30.281  1.00  0.00    -0.248 NA
ATOM     33  C   UNL A   1      38.265  29.757  28.378  1.00  0.00     0.031 C 
ATOM     34  C   UNL A   1      37.304  34.241  32.388  1.00  0.00     0.029 A 
ATOM     35  C   UNL A   1      37.872  33.143  31.756  1.00  0.00     0.049 A 
ATOM     36  H   UNL A   1      39.575  32.037  32.315  1.00  0.00     0.167 HD
ATOM     37  C   UNL A   1      38.031  31.430  29.938  1.00  0.00     0.074 A 
ATOM     38  C   UNL A   1      37.522  30.795  28.736  1.00  0.00     0.031 C 
ATOM     39  C   UNL A   1      37.426  32.473  30.559  1.00  0.00     0.037 A 
BRANCH  26  40
ATOM     40  C   UNL A   1      40.084  34.425  35.805  1.00  0.00     0.057 A 
ATOM     41  C   UNL A   1      40.793  35.631  35.833  1.00  0.00     0.134 A 
ATOM     42  C   UNL A   1      39.354  34.075  36.948  1.00  0.00     0.134 A 
ATOM     43  F   UNL A   1      41.543  36.005  34.787  1.00  0.00    -0.206 F 
ATOM     44  C   UNL A   1      40.780  36.455  36.962  1.00  0.00     0.040 A 
ATOM     45  C   UNL A   1      39.316  34.898  38.073  1.00  0.00     0.040 A 
ATOM     46  F   UNL A   1      38.671  32.920  36.993  1.00  0.00    -0.206 F 
ATOM     47  C   UNL A   1      40.033  36.092  38.083  1.00  0.00     0.006 A 
ENDBRANCH  26  40
BRANCH  27  48
ATOM     48  C   UNL A   1      40.394  27.716  28.216  1.00  0.00     0.057 A 
ATOM     49  C   UNL A   1      39.714  26.505  28.374  1.00  0.00     0.134 A 
ATOM     50  C   UNL A   1      41.112  27.895  27.023  1.00  0.00     0.134 A 
ATOM     51  F   UNL A   1      39.022  26.261  29.496  1.00  0.00    -0.206 F 
ATOM     52  C   UNL A   1      39.771  25.499  27.404  1.00  0.00     0.040 A 
ATOM     53  C   UNL A   1      41.149  26.913  26.031  1.00  0.00     0.040 A 
ATOM     54  F   UNL A   1      41.788  29.031  26.799  1.00  0.00    -0.206 F 
ATOM     55  C   UNL A   1      40.489  25.703  26.227  1.00  0.00     0.006 A 
ENDBRANCH  27  48
BRANCH  39  56
ATOM     56  C   UNL A   1      36.171  32.989  29.931  1.00  0.00     0.057 A 
ATOM     57  C   UNL A   1      34.915  32.743  30.498  1.00  0.00     0.134 A 
ATOM     58  C   UNL A   1      36.232  33.804  28.795  1.00  0.00     0.134 A 
ATOM     59  F   UNL A   1      34.797  31.954  31.576  1.00  0.00    -0.206 F 
ATOM     60  C   UNL A   1      33.757  33.286  29.947  1.00  0.00     0.040 A 
ATOM     61  C   UNL A   1      35.085  34.379  28.255  1.00  0.00     0.040 A 
ATOM     62  F   UNL A   1      37.411  34.081  28.217  1.00  0.00    -0.206 F 
ATOM     63  C   UNL A   1      33.842  34.118  28.831  1.00  0.00     0.006 A 
ENDBRANCH  39  56
ENDBRANCH  13  14
ENDBRANCH   6   8
ENDBRANCH   5   6
ENDBRANCH   4   5
ENDBRANCH   3   4
ENDBRANCH   2   3
ENDBRANCH   1   2
BRANCH   1  64
ATOM     64  C   UNL A   1      45.278  23.232  40.378  1.00  0.00     0.261 C 
BRANCH  64  65
ATOM     65  O   UNL A   1      45.287  22.011  39.619  1.00  0.00    -0.461 OA
BRANCH  65  66
ATOM     66  C   UNL A   1      46.515  21.421  39.498  1.00  0.00     0.334 C 
ATOM     67  O   UNL A   1      47.547  21.855  39.996  1.00  0.00    -0.249 OA
BRANCH  66  68
ATOM     68  C   UNL A   1      46.453  20.160  38.595  1.00  0.00     0.232 C 
BRANCH  68  69
ATOM     69  C   UNL A   1      46.548  20.508  37.111  1.00  0.00    -0.014 A 
ATOM     70  C   UNL A   1      46.241  19.516  36.159  1.00  0.00     0.006 A 
ATOM     71  C   UNL A   1      46.826  21.805  36.632  1.00  0.00     0.006 A 
ATOM     72  C   UNL A   1      46.208  19.810  34.793  1.00  0.00     0.000 A 
ATOM     73  C   UNL A   1      46.782  22.100  35.265  1.00  0.00     0.000 A 
ATOM     74  C   UNL A   1      46.476  21.102  34.347  1.00  0.00     0.000 A 
ENDBRANCH  68  69
BRANCH  68  75
ATOM     75  N   UNL A   1      47.414  19.233  39.210  1.00  0.00    -0.274 N 
ATOM     76  C   UNL A   1      46.812  18.143  39.825  1.00  0.00     0.267 C 
ATOM     77  C   UNL A   1      48.782  19.203  39.231  1.00  0.00     0.149 C 
ATOM     78  O   UNL A   1      45.745  17.668  39.498  1.00  0.00    -0.268 OA
ATOM     79  C   UNL A   1      47.697  17.630  40.895  1.00  0.00     0.084 C 
ATOM     80  S   UNL A   1      49.315  18.079  40.496  1.00  0.00    -0.054 SA
ATOM     81  S   UNL A   1      49.897  19.968  38.262  1.00  0.00    -0.052 S 
ATOM     82  C   UNL A   1      47.346  17.088  42.069  1.00  0.00     0.068 C 
BRANCH  82  83
ATOM     83  C   UNL A   1      46.010  16.870  42.515  1.00  0.00     0.128 A 
ATOM     84  C   UNL A   1      45.201  17.587  43.387  1.00  0.00     0.051 A 
ATOM     85  O   UNL A   1      45.246  15.824  42.026  1.00  0.00    -0.457 OA
ATOM     86  C   UNL A   1      43.945  16.946  43.462  1.00  0.00     0.051 A 
ATOM     87  C   UNL A   1      44.005  15.892  42.585  1.00  0.00     0.134 A 
BRANCH  87  88
ATOM     88  C   UNL A   1      43.012  14.950  42.102  1.00  0.00     0.017 A 
ATOM     89  C   UNL A   1      42.484  15.032  40.807  1.00  0.00     0.015 A 
ATOM     90  C   UNL A   1      42.573  13.925  42.956  1.00  0.00     0.015 A 
ATOM     91  C   UNL A   1      41.532  14.102  40.375  1.00  0.00     0.040 A 
ATOM     92  C   UNL A   1      41.614  13.006  42.529  1.00  0.00     0.040 A 
ATOM     93  C   UNL A   1      41.104  13.102  41.243  1.00  0.00     0.123 A 
ATOM     94  F   UNL A   1      40.186  12.218  40.831  1.00  0.00    -0.207 F 
ENDBRANCH  87  88
ENDBRANCH  82  83
ENDBRANCH  68  75
ENDBRANCH  66  68
ENDBRANCH  65  66
ENDBRANCH  64  65
ENDBRANCH   1  64
TORSDOF 18
ENDMDL
MODEL 3
REMARK VINA RESULT:     -10.7      3.761      8.674
REMARK SMILES O=C(OCCOCCOC(=O)[C@@H](c1ccccc1)N1C(=O)/C(=C\c2ccc(-c3ccc(F)cc3)o2)SC1=S)c1ccc(-c2c3nc(c(-c4c(F)cccc4F)c4ccc([nH]4)c(-c4c(F)cccc4F)c4nc(c(-c5c(F)cccc5F)c5ccc2[nH]5)C=C4)C=C3)cc1
REMARK SMILES IDX 7 1 6 2 5 3 4 4 3 5 2 6 1 7 39 8 40 9 92 10 41 11 91 12
REMARK SMILES IDX 42 13 43 14 44 15 85 16 45 17 90 18 84 19 86 20 46 21 89 22
REMARK SMILES IDX 83 23 82 24 47 26 73 27 56 28 72 29 57 30 60 31 71 32 87 33
REMARK SMILES IDX 58 34 59 35 70 37 88 38 61 39 48 40 49 41 54 42 50 43 51 44
REMARK SMILES IDX 53 45 55 46 52 47 74 48 75 49 80 50 76 51 77 52 79 53 81 54
REMARK SMILES IDX 78 55 62 56 63 57 68 58 64 59 65 60 67 61 69 62 66 63 8 64
REMARK SMILES IDX 9 65 10 66 11 67 12 68 13 69 14 70 18 71 15 72 17 73 16 74
REMARK SMILES IDX 19 75 20 76 37 77 21 78 22 79 36 80 38 81 23 82 24 83 25 84
REMARK SMILES IDX 35 85 26 86 27 87 28 88 29 89 34 90 30 91 33 92 31 93 32 94
REMARK H PARENT 86 25 60 36
REMARK Flexibility Score: inf
ROOT
ATOM      1  C   UNL A   1      41.882  35.358  29.718  1.00  0.00     0.202 C 
ENDROOT
BRANCH   1   2
ATOM      2  O   UNL A   1      42.853  35.662  30.718  1.00  0.00    -0.374 OA
BRANCH   2   3
ATOM      3  C   UNL A   1      43.960  36.491  30.375  1.00  0.00     0.202 C 
BRANCH   3   4
ATOM      4  C   UNL A   1      44.829  37.020  31.518  1.00  0.00     0.261 C 
BRANCH   4   5
ATOM      5  O   UNL A   1      45.989  36.199  31.721  1.00  0.00    -0.460 OA
BRANCH   5   6
ATOM      6  C   UNL A   1      46.621  35.474  30.765  1.00  0.00     0.338 C 
ATOM      7  O   UNL A   1      47.639  35.912  30.239  1.00  0.00    -0.246 OA
BRANCH   6   8
ATOM      8  C   UNL A   1      46.109  34.148  30.326  1.00  0.00     0.060 A 
ATOM      9  C   UNL A   1      45.830  33.845  28.997  1.00  0.00     0.016 A 
ATOM     10  C   UNL A   1      45.997  33.125  31.272  1.00  0.00     0.016 A 
ATOM     11  C   UNL A   1      45.410  32.608  28.587  1.00  0.00     0.010 A 
ATOM     12  C   UNL A   1      45.634  31.839  30.865  1.00  0.00     0.010 A 
ATOM     13  C   UNL A   1      45.362  31.588  29.514  1.00  0.00    -0.014 A 
BRANCH  13  14
ATOM     14  C   UNL A   1      44.968  30.286  28.986  1.00  0.00     0.031 A 
ATOM     15  C   UNL A   1      43.517  29.978  28.917  1.00  0.00     0.074 A 
ATOM     16  C   UNL A   1      45.915  29.506  28.432  1.00  0.00     0.049 A 
ATOM     17  N   UNL A   1      42.935  28.857  28.612  1.00  0.00    -0.248 NA
ATOM     18  C   UNL A   1      42.591  31.086  29.222  1.00  0.00     0.031 C 
ATOM     19  C   UNL A   1      47.335  29.862  28.294  1.00  0.00     0.029 A 
ATOM     20  N   UNL A   1      45.829  28.272  27.857  1.00  0.00    -0.354 N 
ATOM     21  C   UNL A   1      41.579  29.100  28.754  1.00  0.00     0.074 A 
ATOM     22  C   UNL A   1      41.416  30.483  29.135  1.00  0.00     0.031 C 
ATOM     23  C   UNL A   1      47.983  28.860  27.681  1.00  0.00     0.029 A 
ATOM     24  C   UNL A   1      47.050  27.764  27.482  1.00  0.00     0.049 A 
ATOM     25  H   UNL A   1      44.979  27.793  27.724  1.00  0.00     0.167 HD
ATOM     26  C   UNL A   1      40.579  28.207  28.608  1.00  0.00     0.037 A 
ATOM     27  C   UNL A   1      47.370  26.514  27.105  1.00  0.00     0.037 A 
ATOM     28  C   UNL A   1      40.814  26.847  28.211  1.00  0.00     0.049 A 
ATOM     29  C   UNL A   1      46.248  25.513  27.063  1.00  0.00     0.074 A 
ATOM     30  C   UNL A   1      39.903  25.823  28.054  1.00  0.00     0.029 A 
ATOM     31  N   UNL A   1      42.069  26.329  27.910  1.00  0.00    -0.354 N 
ATOM     32  N   UNL A   1      44.964  25.707  27.265  1.00  0.00    -0.248 NA
ATOM     33  C   UNL A   1      46.612  24.122  26.778  1.00  0.00     0.031 C 
ATOM     34  C   UNL A   1      40.617  24.669  27.719  1.00  0.00     0.029 A 
ATOM     35  C   UNL A   1      41.964  24.987  27.609  1.00  0.00     0.049 A 
ATOM     36  H   UNL A   1      42.908  26.845  27.912  1.00  0.00     0.167 HD
ATOM     37  C   UNL A   1      44.364  24.466  27.125  1.00  0.00     0.074 A 
ATOM     38  C   UNL A   1      45.424  23.532  26.791  1.00  0.00     0.031 C 
ATOM     39  C   UNL A   1      43.063  24.115  27.271  1.00  0.00     0.037 A 
BRANCH  26  40
ATOM     40  C   UNL A   1      39.201  28.646  28.989  1.00  0.00     0.057 A 
ATOM     41  C   UNL A   1      38.663  28.430  30.263  1.00  0.00     0.134 A 
ATOM     42  C   UNL A   1      38.393  29.289  28.043  1.00  0.00     0.134 A 
ATOM     43  F   UNL A   1      39.371  27.786  31.202  1.00  0.00    -0.206 F 
ATOM     44  C   UNL A   1      37.364  28.835  30.580  1.00  0.00     0.040 A 
ATOM     45  C   UNL A   1      37.102  29.716  28.354  1.00  0.00     0.040 A 
ATOM     46  F   UNL A   1      38.842  29.505  26.797  1.00  0.00    -0.206 F 
ATOM     47  C   UNL A   1      36.583  29.487  29.626  1.00  0.00     0.006 A 
ENDBRANCH  26  40
BRANCH  27  48
ATOM     48  C   UNL A   1      48.785  26.119  26.877  1.00  0.00     0.057 A 
ATOM     49  C   UNL A   1      49.590  25.643  27.917  1.00  0.00     0.134 A 
ATOM     50  C   UNL A   1      49.386  26.255  25.616  1.00  0.00     0.134 A 
ATOM     51  F   UNL A   1      49.085  25.504  29.151  1.00  0.00    -0.206 F 
ATOM     52  C   UNL A   1      50.942  25.348  27.722  1.00  0.00     0.040 A 
ATOM     53  C   UNL A   1      50.726  25.931  25.399  1.00  0.00     0.040 A 
ATOM     54  F   UNL A   1      48.678  26.705  24.569  1.00  0.00    -0.206 F 
ATOM     55  C   UNL A   1      51.513  25.489  26.459  1.00  0.00     0.006 A 
ENDBRANCH  27  48
BRANCH  39  56
ATOM     56  C   UNL A   1      42.729  22.674  27.049  1.00  0.00     0.057 A 
ATOM     57  C   UNL A   1      42.449  21.815  28.118  1.00  0.00     0.134 A 
ATOM     58  C   UNL A   1      42.611  22.167  25.750  1.00  0.00     0.134 A 
ATOM     59  F   UNL A   1      42.563  22.244  29.384  1.00  0.00    -0.206 F 
ATOM     60  C   UNL A   1      42.069  20.493  27.900  1.00  0.00     0.040 A 
ATOM     61  C   UNL A   1      42.202  20.857  25.519  1.00  0.00     0.040 A 
ATOM     62  F   UNL A   1      42.858  22.950  24.688  1.00  0.00    -0.206 F 
ATOM     63  C   UNL A   1      41.932  20.015  26.597  1.00  0.00     0.006 A 
ENDBRANCH  39  56
ENDBRANCH  13  14
ENDBRANCH   6   8
ENDBRANCH   5   6
ENDBRANCH   4   5
ENDBRANCH   3   4
ENDBRANCH   2   3
ENDBRANCH   1   2
BRANCH   1  64
ATOM     64  C   UNL A   1      41.055  34.162  30.197  1.00  0.00     0.261 C 
BRANCH  64  65
ATOM     65  O   UNL A   1      39.884  34.659  30.868  1.00  0.00    -0.461 OA
BRANCH  65  66
ATOM     66  C   UNL A   1      39.718  34.201  32.147  1.00  0.00     0.334 C 
ATOM     67  O   UNL A   1      40.234  34.704  33.137  1.00  0.00    -0.249 OA
BRANCH  66  68
ATOM     68  C   UNL A   1      38.841  32.921  32.183  1.00  0.00     0.232 C 
BRANCH  68  69
ATOM     69  C   UNL A   1      39.591  31.724  32.762  1.00  0.00    -0.014 A 
ATOM     70  C   UNL A   1      38.867  30.751  33.480  1.00  0.00     0.006 A 
ATOM     71  C   UNL A   1      40.960  31.476  32.530  1.00  0.00     0.006 A 
ATOM     72  C   UNL A   1      39.484  29.583  33.938  1.00  0.00     0.000 A 
ATOM     73  C   UNL A   1      41.573  30.302  32.981  1.00  0.00     0.000 A 
ATOM     74  C   UNL A   1      40.836  29.358  33.686  1.00  0.00     0.000 A 
ENDBRANCH  68  69
BRANCH  68  75
ATOM     75  N   UNL A   1      37.576  33.373  32.780  1.00  0.00    -0.274 N 
ATOM     76  C   UNL A   1      36.471  33.149  31.968  1.00  0.00     0.267 C 
ATOM     77  C   UNL A   1      37.272  33.904  34.004  1.00  0.00     0.149 C 
ATOM     78  O   UNL A   1      36.388  32.262  31.145  1.00  0.00    -0.268 OA
ATOM     79  C   UNL A   1      35.408  34.124  32.301  1.00  0.00     0.084 C 
ATOM     80  S   UNL A   1      35.653  34.626  33.934  1.00  0.00    -0.054 SA
ATOM     81  S   UNL A   1      38.126  33.895  35.431  1.00  0.00    -0.052 S 
ATOM     82  C   UNL A   1      34.521  34.693  31.475  1.00  0.00     0.068 C 
BRANCH  82  83
ATOM     83  C   UNL A   1      34.409  34.441  30.078  1.00  0.00     0.128 A 
ATOM     84  C   UNL A   1      35.021  35.036  28.981  1.00  0.00     0.051 A 
ATOM     85  O   UNL A   1      33.628  33.407  29.589  1.00  0.00    -0.457 OA
ATOM     86  C   UNL A   1      34.574  34.384  27.811  1.00  0.00     0.051 A 
ATOM     87  C   UNL A   1      33.751  33.370  28.233  1.00  0.00     0.134 A 
BRANCH  87  88
ATOM     88  C   UNL A   1      33.103  32.270  27.542  1.00  0.00     0.017 A 
ATOM     89  C   UNL A   1      31.881  32.432  26.876  1.00  0.00     0.015 A 
ATOM     90  C   UNL A   1      33.723  31.009  27.538  1.00  0.00     0.015 A 
ATOM     91  C   UNL A   1      31.291  31.348  26.215  1.00  0.00     0.040 A 
ATOM     92  C   UNL A   1      33.128  29.927  26.890  1.00  0.00     0.040 A 
ATOM     93  C   UNL A   1      31.918  30.107  26.234  1.00  0.00     0.123 A 
ATOM     94  F   UNL A   1      31.348  29.068  25.609  1.00  0.00    -0.207 F 
ENDBRANCH  87  88
ENDBRANCH  82  83
ENDBRANCH  68  75
ENDBRANCH  66  68
ENDBRANCH  65  66
ENDBRANCH  64  65
ENDBRANCH   1  64
TORSDOF 18
ENDMDL
