MODEL 1
REMARK VINA RESULT:     -12.2      0.000      0.000
REMARK SMILES CC(C)(CCc1ccc(Cl)c2ccccc12)C(=O)OCCOCCOC(=O)c1ccc(-c2c3nc(c(-c4c(F)cccc4F)c4ccc([nH]4)c(-c4c(F)cccc4F)c4nc(c(-c5c(F)cccc5F)c5ccc2[nH]5)C=C4)C=C3)cc1
REMARK SMILES IDX 21 1 20 2 19 3 17 4 18 5 2 6 1 7 3 8 4 9 5 10 6 11 7 12
REMARK SMILES IDX 16 13 8 14 11 15 15 16 9 17 12 18 14 19 10 20 13 21 22 22
REMARK SMILES IDX 23 23 24 24 25 25 26 26 27 27 28 28 29 29 81 30 30 31 80 32
REMARK SMILES IDX 31 33 32 34 33 35 74 36 34 37 79 38 73 39 75 40 35 41 78 42
REMARK SMILES IDX 72 43 71 44 36 46 62 47 45 48 61 49 46 50 49 51 60 52 76 53
REMARK SMILES IDX 47 54 48 55 59 57 77 58 50 59 37 60 38 61 43 62 39 63 40 64
REMARK SMILES IDX 42 65 44 66 41 67 63 68 64 69 69 70 65 71 66 72 68 73 70 74
REMARK SMILES IDX 67 75 51 76 52 77 57 78 53 79 54 80 56 81 58 82 55 83
REMARK H PARENT 75 45 49 56
REMARK Flexibility Score: inf
ROOT
ATOM      1  C   UNL A   1      32.589  28.877  26.249  1.00  0.00     0.202 C 
ENDROOT
BRANCH   1   2
ATOM      2  C   UNL A   1      31.426  28.089  25.610  1.00  0.00     0.261 C 
BRANCH   2   3
ATOM      3  O   UNL A   1      31.418  28.008  24.165  1.00  0.00    -0.463 OA
BRANCH   3   4
ATOM      4  C   UNL A   1      31.615  26.799  23.599  1.00  0.00     0.311 C 
ATOM      5  O   UNL A   1      30.710  25.995  23.405  1.00  0.00    -0.252 OA
BRANCH   4   6
ATOM      6  C   UNL A   1      33.092  26.521  23.259  1.00  0.00     0.063 C 
ATOM      7  C   UNL A   1      33.659  27.779  22.578  1.00  0.00     0.023 C 
ATOM      8  C   UNL A   1      32.999  25.393  22.204  1.00  0.00     0.023 C 
BRANCH   6   9
ATOM      9  C   UNL A   1      34.044  26.014  24.408  1.00  0.00     0.023 C 
BRANCH   9  10
ATOM     10  C   UNL A   1      33.575  24.974  25.465  1.00  0.00     0.037 C 
BRANCH  10  11
ATOM     11  C   UNL A   1      33.675  23.495  25.157  1.00  0.00    -0.040 A 
ATOM     12  C   UNL A   1      32.192  22.525  24.865  1.00  0.00     0.006 A 
ATOM     13  C   UNL A   1      35.332  22.705  25.156  1.00  0.00    -0.014 A 
ATOM     14  C   UNL A   1      32.308  20.738  24.693  1.00  0.00     0.021 A 
ATOM     15  C   UNL A   1      35.441  20.909  24.952  1.00  0.00     0.001 A 
ATOM     16  C   UNL A   1      36.561  23.345  25.312  1.00  0.00     0.009 A 
ATOM     17  C   UNL A   1      33.915  19.946  24.712  1.00  0.00     0.048 A 
ATOM     18  C   UNL A   1      36.717  20.365  25.003  1.00  0.00     0.010 A 
ATOM     19  C   UNL A   1      37.758  22.605  25.315  1.00  0.00     0.001 A 
ATOM     20  Cl  UNL A   1      33.988  18.232  24.565  1.00  0.00    -0.084 Cl
ATOM     21  C   UNL A   1      37.831  21.196  25.179  1.00  0.00     0.001 A 
ENDBRANCH  10  11
ENDBRANCH   9  10
ENDBRANCH   6   9
ENDBRANCH   4   6
ENDBRANCH   3   4
ENDBRANCH   2   3
ENDBRANCH   1   2
BRANCH   1  22
ATOM     22  O   UNL A   1      32.189  30.108  26.857  1.00  0.00    -0.374 OA
BRANCH  22  23
ATOM     23  C   UNL A   1      31.371  30.924  26.024  1.00  0.00     0.202 C 
BRANCH  23  24
ATOM     24  C   UNL A   1      31.145  32.476  26.452  1.00  0.00     0.261 C 
BRANCH  24  25
ATOM     25  O   UNL A   1      32.361  33.704  27.501  1.00  0.00    -0.460 OA
BRANCH  25  26
ATOM     26  C   UNL A   1      33.377  34.305  28.284  1.00  0.00     0.338 C 
ATOM     27  O   UNL A   1      33.410  35.462  28.696  1.00  0.00    -0.246 OA
BRANCH  26  28
ATOM     28  C   UNL A   1      34.561  33.434  28.567  1.00  0.00     0.060 A 
ATOM     29  C   UNL A   1      34.454  32.053  28.774  1.00  0.00     0.016 A 
ATOM     30  C   UNL A   1      35.803  34.051  28.766  1.00  0.00     0.016 A 
ATOM     31  C   UNL A   1      35.573  31.282  29.099  1.00  0.00     0.010 A 
ATOM     32  C   UNL A   1      36.918  33.292  29.147  1.00  0.00     0.010 A 
ATOM     33  C   UNL A   1      36.801  31.905  29.328  1.00  0.00    -0.014 A 
BRANCH  33  34
ATOM     34  C   UNL A   1      37.880  31.140  29.995  1.00  0.00     0.031 A 
ATOM     35  C   UNL A   1      38.141  31.410  31.451  1.00  0.00     0.074 A 
ATOM     36  C   UNL A   1      38.596  30.211  29.339  1.00  0.00     0.049 A 
ATOM     37  N   UNL A   1      39.066  30.922  32.236  1.00  0.00    -0.248 NA
ATOM     38  C   UNL A   1      37.228  32.358  32.112  1.00  0.00     0.031 C 
ATOM     39  C   UNL A   1      38.395  29.811  27.948  1.00  0.00     0.029 A 
ATOM     40  N   UNL A   1      39.650  29.440  29.764  1.00  0.00    -0.354 N 
ATOM     41  C   UNL A   1      38.851  31.506  33.477  1.00  0.00     0.074 A 
ATOM     42  C   UNL A   1      37.713  32.390  33.343  1.00  0.00     0.031 C 
ATOM     43  C   UNL A   1      39.317  28.886  27.624  1.00  0.00     0.029 A 
ATOM     44  C   UNL A   1      40.188  28.652  28.775  1.00  0.00     0.049 A 
ATOM     45  H   UNL A   1      39.987  29.451  30.688  1.00  0.00     0.167 HD
ATOM     46  C   UNL A   1      39.543  31.329  34.626  1.00  0.00     0.037 A 
ATOM     47  C   UNL A   1      41.278  27.862  28.796  1.00  0.00     0.037 A 
ATOM     48  C   UNL A   1      40.684  30.466  34.755  1.00  0.00     0.049 A 
ATOM     49  C   UNL A   1      42.081  27.740  30.064  1.00  0.00     0.074 A 
ATOM     50  C   UNL A   1      41.462  30.226  35.874  1.00  0.00     0.029 A 
ATOM     51  N   UNL A   1      41.217  29.710  33.723  1.00  0.00    -0.354 N 
ATOM     52  N   UNL A   1      41.872  28.297  31.233  1.00  0.00    -0.248 NA
ATOM     53  C   UNL A   1      43.276  26.882  30.016  1.00  0.00     0.031 C 
ATOM     54  C   UNL A   1      42.491  29.351  35.508  1.00  0.00     0.029 A 
ATOM     55  C   UNL A   1      42.327  29.017  34.173  1.00  0.00     0.049 A 
ATOM     56  H   UNL A   1      40.860  29.673  32.808  1.00  0.00     0.167 HD
ATOM     57  C   UNL A   1      42.892  27.844  32.061  1.00  0.00     0.074 A 
ATOM     58  C   UNL A   1      43.714  26.956  31.265  1.00  0.00     0.031 C 
ATOM     59  C   UNL A   1      43.128  28.136  33.363  1.00  0.00     0.037 A 
BRANCH  46  60
ATOM     60  C   UNL A   1      39.101  32.122  35.817  1.00  0.00     0.057 A 
ATOM     61  C   UNL A   1      39.538  33.433  36.036  1.00  0.00     0.134 A 
ATOM     62  C   UNL A   1      38.222  31.565  36.754  1.00  0.00     0.134 A 
ATOM     63  F   UNL A   1      40.398  34.014  35.186  1.00  0.00    -0.206 F 
ATOM     64  C   UNL A   1      39.130  34.159  37.156  1.00  0.00     0.040 A 
ATOM     65  C   UNL A   1      37.790  32.287  37.867  1.00  0.00     0.040 A 
ATOM     66  F   UNL A   1      37.770  30.311  36.602  1.00  0.00    -0.206 F 
ATOM     67  C   UNL A   1      38.249  33.587  38.073  1.00  0.00     0.006 A 
ENDBRANCH  46  60
BRANCH  47  68
ATOM     68  C   UNL A   1      41.703  27.149  27.564  1.00  0.00     0.057 A 
ATOM     69  C   UNL A   1      41.331  25.821  27.325  1.00  0.00     0.134 A 
ATOM     70  C   UNL A   1      42.517  27.773  26.610  1.00  0.00     0.134 A 
ATOM     71  F   UNL A   1      40.578  25.161  28.216  1.00  0.00    -0.206 F 
ATOM     72  C   UNL A   1      41.761  25.135  26.187  1.00  0.00     0.040 A 
ATOM     73  C   UNL A   1      42.937  27.105  25.457  1.00  0.00     0.040 A 
ATOM     74  F   UNL A   1      42.913  29.041  26.784  1.00  0.00    -0.206 F 
ATOM     75  C   UNL A   1      42.562  25.780  25.246  1.00  0.00     0.006 A 
ENDBRANCH  47  68
BRANCH  59  76
ATOM     76  C   UNL A   1      44.302  27.469  34.016  1.00  0.00     0.057 A 
ATOM     77  C   UNL A   1      44.196  26.202  34.603  1.00  0.00     0.134 A 
ATOM     78  C   UNL A   1      45.562  28.079  34.009  1.00  0.00     0.134 A 
ATOM     79  F   UNL A   1      43.013  25.572  34.651  1.00  0.00    -0.206 F 
ATOM     80  C   UNL A   1      45.301  25.573  35.177  1.00  0.00     0.040 A 
ATOM     81  C   UNL A   1      46.679  27.450  34.560  1.00  0.00     0.040 A 
ATOM     82  F   UNL A   1      45.732  29.287  33.451  1.00  0.00    -0.206 F 
ATOM     83  C   UNL A   1      46.549  26.194  35.151  1.00  0.00     0.006 A 
ENDBRANCH  59  76
ENDBRANCH  33  34
ENDBRANCH  26  28
ENDBRANCH  25  26
ENDBRANCH  24  25
ENDBRANCH  23  24
ENDBRANCH  22  23
ENDBRANCH   1  22
TORSDOF 17
ENDMDL
MODEL 2
REMARK VINA RESULT:     -11.6      3.509      8.330
REMARK SMILES CC(C)(CCc1ccc(Cl)c2ccccc12)C(=O)OCCOCCOC(=O)c1ccc(-c2c3nc(c(-c4c(F)cccc4F)c4ccc([nH]4)c(-c4c(F)cccc4F)c4nc(c(-c5c(F)cccc5F)c5ccc2[nH]5)C=C4)C=C3)cc1
REMARK SMILES IDX 21 1 20 2 19 3 17 4 18 5 2 6 1 7 3 8 4 9 5 10 6 11 7 12
REMARK SMILES IDX 16 13 8 14 11 15 15 16 9 17 12 18 14 19 10 20 13 21 22 22
REMARK SMILES IDX 23 23 24 24 25 25 26 26 27 27 28 28 29 29 81 30 30 31 80 32
REMARK SMILES IDX 31 33 32 34 33 35 74 36 34 37 79 38 73 39 75 40 35 41 78 42
REMARK SMILES IDX 72 43 71 44 36 46 62 47 45 48 61 49 46 50 49 51 60 52 76 53
REMARK SMILES IDX 47 54 48 55 59 57 77 58 50 59 37 60 38 61 43 62 39 63 40 64
REMARK SMILES IDX 42 65 44 66 41 67 63 68 64 69 69 70 65 71 66 72 68 73 70 74
REMARK SMILES IDX 67 75 51 76 52 77 57 78 53 79 54 80 56 81 58 82 55 83
REMARK H PARENT 75 45 49 56
REMARK Flexibility Score: inf
ROOT
ATOM      1  C   UNL A   1      38.084  22.198  25.693  1.00  0.00     0.202 C 
ENDROOT
BRANCH   1   2
ATOM      2  C   UNL A   1      37.193  21.878  24.474  1.00  0.00     0.261 C 
BRANCH   2   3
ATOM      3  O   UNL A   1      35.775  22.123  24.630  1.00  0.00    -0.463 OA
BRANCH   3   4
ATOM      4  C   UNL A   1      35.180  22.963  23.757  1.00  0.00     0.311 C 
ATOM      5  O   UNL A   1      35.592  23.148  22.618  1.00  0.00    -0.252 OA
BRANCH   4   6
ATOM      6  C   UNL A   1      33.958  23.689  24.352  1.00  0.00     0.063 C 
ATOM      7  C   UNL A   1      33.387  22.801  25.472  1.00  0.00     0.023 C 
ATOM      8  C   UNL A   1      32.953  23.700  23.176  1.00  0.00     0.023 C 
BRANCH   6   9
ATOM      9  C   UNL A   1      34.133  25.179  24.836  1.00  0.00     0.023 C 
BRANCH   9  10
ATOM     10  C   UNL A   1      33.282  25.772  25.994  1.00  0.00     0.037 C 
BRANCH  10  11
ATOM     11  C   UNL A   1      32.872  27.229  25.953  1.00  0.00    -0.040 A 
ATOM     12  C   UNL A   1      33.495  28.384  27.179  1.00  0.00     0.006 A 
ATOM     13  C   UNL A   1      31.677  27.772  24.669  1.00  0.00    -0.014 A 
ATOM     14  C   UNL A   1      32.852  30.064  27.238  1.00  0.00     0.021 A 
ATOM     15  C   UNL A   1      31.059  29.474  24.718  1.00  0.00     0.001 A 
ATOM     16  C   UNL A   1      31.161  26.999  23.630  1.00  0.00     0.009 A 
ATOM     17  C   UNL A   1      31.669  30.606  26.007  1.00  0.00     0.048 A 
ATOM     18  C   UNL A   1      30.126  29.813  23.747  1.00  0.00     0.010 A 
ATOM     19  C   UNL A   1      30.228  27.544  22.728  1.00  0.00     0.001 A 
ATOM     20  Cl  UNL A   1      31.059  32.213  26.104  1.00  0.00    -0.084 Cl
ATOM     21  C   UNL A   1      29.731  28.871  22.789  1.00  0.00     0.001 A 
ENDBRANCH  10  11
ENDBRANCH   9  10
ENDBRANCH   6   9
ENDBRANCH   4   6
ENDBRANCH   3   4
ENDBRANCH   2   3
ENDBRANCH   1   2
BRANCH   1  22
ATOM     22  O   UNL A   1      39.302  21.450  25.733  1.00  0.00    -0.374 OA
BRANCH  22  23
ATOM     23  C   UNL A   1      40.053  21.633  26.930  1.00  0.00     0.202 C 
BRANCH  23  24
ATOM     24  C   UNL A   1      41.518  22.329  26.818  1.00  0.00     0.261 C 
BRANCH  24  25
ATOM     25  O   UNL A   1      42.026  24.126  26.044  1.00  0.00    -0.460 OA
BRANCH  25  26
ATOM     26  C   UNL A   1      42.149  25.489  25.678  1.00  0.00     0.338 C 
ATOM     27  O   UNL A   1      42.657  25.940  24.656  1.00  0.00    -0.246 OA
BRANCH  26  28
ATOM     28  C   UNL A   1      41.658  26.468  26.700  1.00  0.00     0.060 A 
ATOM     29  C   UNL A   1      42.158  27.772  26.802  1.00  0.00     0.016 A 
ATOM     30  C   UNL A   1      40.761  26.012  27.675  1.00  0.00     0.016 A 
ATOM     31  C   UNL A   1      41.721  28.637  27.808  1.00  0.00     0.010 A 
ATOM     32  C   UNL A   1      40.362  26.856  28.720  1.00  0.00     0.010 A 
ATOM     33  C   UNL A   1      40.853  28.169  28.796  1.00  0.00    -0.014 A 
BRANCH  33  34
ATOM     34  C   UNL A   1      40.669  28.971  30.028  1.00  0.00     0.031 A 
ATOM     35  C   UNL A   1      39.565  29.992  30.047  1.00  0.00     0.074 A 
ATOM     36  C   UNL A   1      41.440  28.786  31.113  1.00  0.00     0.049 A 
ATOM     37  N   UNL A   1      39.246  30.856  30.975  1.00  0.00    -0.248 NA
ATOM     38  C   UNL A   1      38.699  30.037  28.856  1.00  0.00     0.031 C 
ATOM     39  C   UNL A   1      42.496  27.785  31.242  1.00  0.00     0.029 A 
ATOM     40  N   UNL A   1      41.453  29.450  32.315  1.00  0.00    -0.354 N 
ATOM     41  C   UNL A   1      38.150  31.551  30.478  1.00  0.00     0.074 A 
ATOM     42  C   UNL A   1      37.862  31.014  29.166  1.00  0.00     0.031 C 
ATOM     43  C   UNL A   1      43.076  27.919  32.450  1.00  0.00     0.029 A 
ATOM     44  C   UNL A   1      42.450  29.032  33.162  1.00  0.00     0.049 A 
ATOM     45  H   UNL A   1      40.809  30.157  32.548  1.00  0.00     0.167 HD
ATOM     46  C   UNL A   1      37.451  32.552  31.059  1.00  0.00     0.037 A 
ATOM     47  C   UNL A   1      42.829  29.518  34.360  1.00  0.00     0.037 A 
ATOM     48  C   UNL A   1      37.749  33.098  32.354  1.00  0.00     0.049 A 
ATOM     49  C   UNL A   1      42.086  30.686  34.954  1.00  0.00     0.074 A 
ATOM     50  C   UNL A   1      37.106  34.123  33.027  1.00  0.00     0.029 A 
ATOM     51  N   UNL A   1      38.786  32.670  33.167  1.00  0.00    -0.354 N 
ATOM     52  N   UNL A   1      41.053  31.338  34.477  1.00  0.00    -0.248 NA
ATOM     53  C   UNL A   1      42.564  31.189  36.251  1.00  0.00     0.031 C 
ATOM     54  C   UNL A   1      37.781  34.339  34.234  1.00  0.00     0.029 A 
ATOM     55  C   UNL A   1      38.816  33.422  34.328  1.00  0.00     0.049 A 
ATOM     56  H   UNL A   1      39.409  31.940  32.950  1.00  0.00     0.167 HD
ATOM     57  C   UNL A   1      40.746  32.312  35.421  1.00  0.00     0.074 A 
ATOM     58  C   UNL A   1      41.695  32.158  36.504  1.00  0.00     0.031 C 
ATOM     59  C   UNL A   1      39.767  33.248  35.395  1.00  0.00     0.037 A 
BRANCH  46  60
ATOM     60  C   UNL A   1      36.323  33.143  30.270  1.00  0.00     0.057 A 
ATOM     61  C   UNL A   1      36.546  34.050  29.228  1.00  0.00     0.134 A 
ATOM     62  C   UNL A   1      34.997  32.794  30.557  1.00  0.00     0.134 A 
ATOM     63  F   UNL A   1      37.792  34.440  28.920  1.00  0.00    -0.206 F 
ATOM     64  C   UNL A   1      35.487  34.604  28.507  1.00  0.00     0.040 A 
ATOM     65  C   UNL A   1      33.932  33.325  29.830  1.00  0.00     0.040 A 
ATOM     66  F   UNL A   1      34.719  31.932  31.546  1.00  0.00    -0.206 F 
ATOM     67  C   UNL A   1      34.175  34.238  28.805  1.00  0.00     0.006 A 
ENDBRANCH  46  60
BRANCH  47  68
ATOM     68  C   UNL A   1      43.996  28.930  35.066  1.00  0.00     0.057 A 
ATOM     69  C   UNL A   1      45.284  29.453  34.909  1.00  0.00     0.134 A 
ATOM     70  C   UNL A   1      43.851  27.810  35.895  1.00  0.00     0.134 A 
ATOM     71  F   UNL A   1      45.490  30.507  34.104  1.00  0.00    -0.206 F 
ATOM     72  C   UNL A   1      46.389  28.879  35.540  1.00  0.00     0.040 A 
ATOM     73  C   UNL A   1      44.944  27.239  36.550  1.00  0.00     0.040 A 
ATOM     74  F   UNL A   1      42.645  27.258  36.082  1.00  0.00    -0.206 F 
ATOM     75  C   UNL A   1      46.219  27.771  36.369  1.00  0.00     0.006 A 
ENDBRANCH  47  68
BRANCH  59  76
ATOM     76  C   UNL A   1      39.655  34.159  36.581  1.00  0.00     0.057 A 
ATOM     77  C   UNL A   1      40.221  35.439  36.582  1.00  0.00     0.134 A 
ATOM     78  C   UNL A   1      38.927  33.769  37.712  1.00  0.00     0.134 A 
ATOM     79  F   UNL A   1      40.939  35.866  35.533  1.00  0.00    -0.206 F 
ATOM     80  C   UNL A   1      40.082  36.293  37.676  1.00  0.00     0.040 A 
ATOM     81  C   UNL A   1      38.763  34.622  38.803  1.00  0.00     0.040 A 
ATOM     82  F   UNL A   1      38.351  32.558  37.767  1.00  0.00    -0.206 F 
ATOM     83  C   UNL A   1      39.346  35.888  38.789  1.00  0.00     0.006 A 
ENDBRANCH  59  76
ENDBRANCH  33  34
ENDBRANCH  26  28
ENDBRANCH  25  26
ENDBRANCH  24  25
ENDBRANCH  23  24
ENDBRANCH  22  23
ENDBRANCH   1  22
TORSDOF 17
ENDMDL
MODEL 3
REMARK VINA RESULT:     -11.6      3.379      8.368
REMARK SMILES CC(C)(CCc1ccc(Cl)c2ccccc12)C(=O)OCCOCCOC(=O)c1ccc(-c2c3nc(c(-c4c(F)cccc4F)c4ccc([nH]4)c(-c4c(F)cccc4F)c4nc(c(-c5c(F)cccc5F)c5ccc2[nH]5)C=C4)C=C3)cc1
REMARK SMILES IDX 21 1 20 2 19 3 17 4 18 5 2 6 1 7 3 8 4 9 5 10 6 11 7 12
REMARK SMILES IDX 16 13 8 14 11 15 15 16 9 17 12 18 14 19 10 20 13 21 22 22
REMARK SMILES IDX 23 23 24 24 25 25 26 26 27 27 28 28 29 29 81 30 30 31 80 32
REMARK SMILES IDX 31 33 32 34 33 35 74 36 34 37 79 38 73 39 75 40 35 41 78 42
REMARK SMILES IDX 72 43 71 44 36 46 62 47 45 48 61 49 46 50 49 51 60 52 76 53
REMARK SMILES IDX 47 54 48 55 59 57 77 58 50 59 37 60 38 61 43 62 39 63 40 64
REMARK SMILES IDX 42 65 44 66 41 67 63 68 64 69 69 70 65 71 66 72 68 73 70 74
REMARK SMILES IDX 67 75 51 76 52 77 57 78 53 79 54 80 56 81 58 82 55 83
REMARK H PARENT 75 45 49 56
REMARK Flexibility Score: inf
ROOT
ATOM      1  C   UNL A   1      39.625  21.238  26.498  1.00  0.00     0.202 C 
ENDROOT
BRANCH   1   2
ATOM      2  C   UNL A   1      38.726  22.250  25.756  1.00  0.00     0.261 C 
BRANCH   2   3
ATOM      3  O   UNL A   1      37.301  22.009  25.813  1.00  0.00    -0.463 OA
BRANCH   3   4
ATOM      4  C   UNL A   1      36.537  22.499  24.813  1.00  0.00     0.311 C 
ATOM      5  O   UNL A   1      36.988  22.815  23.719  1.00  0.00    -0.252 OA
BRANCH   4   6
ATOM      6  C   UNL A   1      35.053  22.653  25.203  1.00  0.00     0.063 C 
ATOM      7  C   UNL A   1      35.003  23.189  26.644  1.00  0.00     0.023 C 
ATOM      8  C   UNL A   1      34.541  21.193  25.205  1.00  0.00     0.023 C 
BRANCH   6   9
ATOM      9  C   UNL A   1      34.110  23.482  24.251  1.00  0.00     0.023 C 
BRANCH   9  10
ATOM     10  C   UNL A   1      34.395  24.971  23.904  1.00  0.00     0.037 C 
BRANCH  10  11
ATOM     11  C   UNL A   1      33.243  25.944  23.774  1.00  0.00    -0.040 A 
ATOM     12  C   UNL A   1      32.202  25.930  22.311  1.00  0.00     0.006 A 
ATOM     13  C   UNL A   1      32.976  27.177  25.108  1.00  0.00    -0.014 A 
ATOM     14  C   UNL A   1      30.961  27.213  22.079  1.00  0.00     0.021 A 
ATOM     15  C   UNL A   1      31.705  28.447  24.879  1.00  0.00     0.001 A 
ATOM     16  C   UNL A   1      33.670  27.264  26.314  1.00  0.00     0.009 A 
ATOM     17  C   UNL A   1      30.702  28.439  23.360  1.00  0.00     0.048 A 
ATOM     18  C   UNL A   1      31.579  29.377  25.902  1.00  0.00     0.010 A 
ATOM     19  C   UNL A   1      33.373  28.284  27.238  1.00  0.00     0.001 A 
ATOM     20  Cl  UNL A   1      29.521  29.664  23.097  1.00  0.00    -0.084 Cl
ATOM     21  C   UNL A   1      32.392  29.288  27.039  1.00  0.00     0.001 A 
ENDBRANCH  10  11
ENDBRANCH   9  10
ENDBRANCH   6   9
ENDBRANCH   4   6
ENDBRANCH   3   4
ENDBRANCH   2   3
ENDBRANCH   1   2
BRANCH   1  22
ATOM     22  O   UNL A   1      40.093  20.167  25.674  1.00  0.00    -0.374 OA
BRANCH  22  23
ATOM     23  C   UNL A   1      41.230  19.489  26.201  1.00  0.00     0.202 C 
BRANCH  23  24
ATOM     24  C   UNL A   1      42.519  20.378  26.641  1.00  0.00     0.261 C 
BRANCH  24  25
ATOM     25  O   UNL A   1      43.098  22.203  25.991  1.00  0.00    -0.460 OA
BRANCH  25  26
ATOM     26  C   UNL A   1      43.230  23.477  25.388  1.00  0.00     0.338 C 
ATOM     27  O   UNL A   1      43.789  23.743  24.328  1.00  0.00    -0.246 OA
BRANCH  26  28
ATOM     28  C   UNL A   1      42.678  24.618  26.186  1.00  0.00     0.060 A 
ATOM     29  C   UNL A   1      43.318  25.860  26.278  1.00  0.00     0.016 A 
ATOM     30  C   UNL A   1      41.546  24.384  26.978  1.00  0.00     0.016 A 
ATOM     31  C   UNL A   1      42.806  26.879  27.083  1.00  0.00     0.010 A 
ATOM     32  C   UNL A   1      41.058  25.383  27.831  1.00  0.00     0.010 A 
ATOM     33  C   UNL A   1      41.698  26.631  27.896  1.00  0.00    -0.014 A 
BRANCH  33  34
ATOM     34  C   UNL A   1      41.375  27.587  28.980  1.00  0.00     0.031 A 
ATOM     35  C   UNL A   1      42.182  27.516  30.247  1.00  0.00     0.074 A 
ATOM     36  C   UNL A   1      40.410  28.512  28.843  1.00  0.00     0.049 A 
ATOM     37  N   UNL A   1      42.050  28.194  31.357  1.00  0.00    -0.248 NA
ATOM     38  C   UNL A   1      43.294  26.550  30.258  1.00  0.00     0.031 C 
ATOM     39  C   UNL A   1      39.604  28.725  27.642  1.00  0.00     0.029 A 
ATOM     40  N   UNL A   1      39.939  29.442  29.736  1.00  0.00    -0.354 N 
ATOM     41  C   UNL A   1      43.055  27.734  32.198  1.00  0.00     0.074 A 
ATOM     42  C   UNL A   1      43.785  26.715  31.476  1.00  0.00     0.031 C 
ATOM     43  C   UNL A   1      38.717  29.708  27.883  1.00  0.00     0.029 A 
ATOM     44  C   UNL A   1      38.874  30.170  29.262  1.00  0.00     0.049 A 
ATOM     45  H   UNL A   1      40.328  29.576  30.630  1.00  0.00     0.167 HD
ATOM     46  C   UNL A   1      43.341  28.119  33.463  1.00  0.00     0.037 A 
ATOM     47  C   UNL A   1      38.100  31.078  29.885  1.00  0.00     0.037 A 
ATOM     48  C   UNL A   1      42.605  29.117  34.188  1.00  0.00     0.049 A 
ATOM     49  C   UNL A   1      38.387  31.435  31.320  1.00  0.00     0.074 A 
ATOM     50  C   UNL A   1      42.808  29.571  35.480  1.00  0.00     0.029 A 
ATOM     51  N   UNL A   1      41.513  29.807  33.685  1.00  0.00    -0.354 N 
ATOM     52  N   UNL A   1      39.338  30.994  32.109  1.00  0.00    -0.248 NA
ATOM     53  C   UNL A   1      37.490  32.414  31.954  1.00  0.00     0.031 C 
ATOM     54  C   UNL A   1      41.813  30.511  35.770  1.00  0.00     0.029 A 
ATOM     55  C   UNL A   1      41.018  30.671  34.646  1.00  0.00     0.049 A 
ATOM     56  H   UNL A   1      41.146  29.699  32.779  1.00  0.00     0.167 HD
ATOM     57  C   UNL A   1      39.166  31.653  33.321  1.00  0.00     0.074 A 
ATOM     58  C   UNL A   1      38.028  32.534  33.161  1.00  0.00     0.031 C 
ATOM     59  C   UNL A   1      39.886  31.541  34.463  1.00  0.00     0.037 A 
BRANCH  46  60
ATOM     60  C   UNL A   1      44.475  27.421  34.149  1.00  0.00     0.057 A 
ATOM     61  C   UNL A   1      45.776  27.935  34.134  1.00  0.00     0.134 A 
ATOM     62  C   UNL A   1      44.258  26.220  34.836  1.00  0.00     0.134 A 
ATOM     63  F   UNL A   1      46.052  29.070  33.474  1.00  0.00    -0.206 F 
ATOM     64  C   UNL A   1      46.828  27.271  34.766  1.00  0.00     0.040 A 
ATOM     65  C   UNL A   1      45.297  25.558  35.489  1.00  0.00     0.040 A 
ATOM     66  F   UNL A   1      43.034  25.675  34.883  1.00  0.00    -0.206 F 
ATOM     67  C   UNL A   1      46.588  26.080  35.450  1.00  0.00     0.006 A 
ENDBRANCH  46  60
BRANCH  47  68
ATOM     68  C   UNL A   1      36.951  31.691  29.172  1.00  0.00     0.057 A 
ATOM     69  C   UNL A   1      37.014  32.996  28.672  1.00  0.00     0.134 A 
ATOM     70  C   UNL A   1      35.749  30.992  28.999  1.00  0.00     0.134 A 
ATOM     71  F   UNL A   1      38.127  33.727  28.834  1.00  0.00    -0.206 F 
ATOM     72  C   UNL A   1      35.922  33.590  28.036  1.00  0.00     0.040 A 
ATOM     73  C   UNL A   1      34.656  31.565  28.346  1.00  0.00     0.040 A 
ATOM     74  F   UNL A   1      35.622  29.740  29.461  1.00  0.00    -0.206 F 
ATOM     75  C   UNL A   1      34.740  32.870  27.866  1.00  0.00     0.006 A 
ENDBRANCH  47  68
BRANCH  59  76
ATOM     76  C   UNL A   1      39.483  32.409  35.618  1.00  0.00     0.057 A 
ATOM     77  C   UNL A   1      38.611  31.951  36.613  1.00  0.00     0.134 A 
ATOM     78  C   UNL A   1      40.015  33.696  35.761  1.00  0.00     0.134 A 
ATOM     79  F   UNL A   1      38.060  30.732  36.526  1.00  0.00    -0.206 F 
ATOM     80  C   UNL A   1      38.269  32.752  37.703  1.00  0.00     0.040 A 
ATOM     81  C   UNL A   1      39.697  34.498  36.857  1.00  0.00     0.040 A 
ATOM     82  F   UNL A   1      40.866  34.187  34.847  1.00  0.00    -0.206 F 
ATOM     83  C   UNL A   1      38.818  34.028  37.831  1.00  0.00     0.006 A 
ENDBRANCH  59  76
ENDBRANCH  33  34
ENDBRANCH  26  28
ENDBRANCH  25  26
ENDBRANCH  24  25
ENDBRANCH  23  24
ENDBRANCH  22  23
ENDBRANCH   1  22
TORSDOF 17
ENDMDL
