MODEL 1
REMARK VINA RESULT:     -11.0      0.000      0.000
REMARK SMILES C[C@H]1CCC[C@@H]([NH2+]Cc2ccc(C(=O)OCCOCCOC(=O)c3ccc(-c4c5nc(c(-c6c(F)cccc6F)c6ccc([nH]6)c(-c6c(F)cccc6F)c6nc(c(-c7c(F)cccc7F)c7ccc4[nH]7)C=C6)C=C5)cc3)cn2)C1
REMARK SMILES IDX 17 1 16 2 15 3 13 4 14 5 12 6 9 7 10 8 79 9 11 10 78 11 8 12
REMARK SMILES IDX 7 13 6 16 1 17 2 18 3 19 80 20 4 21 5 22 18 23 19 24 20 25
REMARK SMILES IDX 21 26 22 27 23 28 24 29 25 30 77 31 26 32 76 33 27 34 28 35
REMARK SMILES IDX 29 36 70 37 30 38 75 39 69 40 71 41 31 42 74 43 68 44 67 45
REMARK SMILES IDX 32 47 58 48 41 49 57 50 42 51 45 52 56 53 72 54 43 55 44 56
REMARK SMILES IDX 55 58 73 59 46 60 33 61 34 62 39 63 35 64 36 65 38 66 40 67
REMARK SMILES IDX 37 68 59 69 60 70 65 71 61 72 62 73 64 74 66 75 63 76 47 77
REMARK SMILES IDX 48 78 53 79 49 80 50 81 52 82 54 83 51 84
REMARK H PARENT 7 14 7 15 71 46 45 57
REMARK Flexibility Score: inf
ROOT
ATOM      1  C   UNL A   1      33.322  35.748  32.011  1.00  0.00     0.202 C 
ENDROOT
BRANCH   1   2
ATOM      2  C   UNL A   1      32.867  36.122  30.597  1.00  0.00     0.261 C 
BRANCH   2   3
ATOM      3  O   UNL A   1      32.630  34.952  29.799  1.00  0.00    -0.460 OA
BRANCH   3   4
ATOM      4  C   UNL A   1      33.485  34.789  28.761  1.00  0.00     0.339 C 
ATOM      5  O   UNL A   1      34.405  35.532  28.449  1.00  0.00    -0.246 OA
BRANCH   4   6
ATOM      6  C   UNL A   1      33.261  33.485  28.117  1.00  0.00     0.078 A 
ATOM      7  C   UNL A   1      32.594  31.122  26.873  1.00  0.00     0.094 A 
ATOM      8  C   UNL A   1      33.775  31.194  27.620  1.00  0.00     0.031 A 
ATOM      9  N   UNL A   1      31.805  32.207  26.670  1.00  0.00    -0.254 NA
ATOM     10  C   UNL A   1      34.111  32.389  28.254  1.00  0.00     0.019 A 
ATOM     11  C   UNL A   1      32.148  33.355  27.300  1.00  0.00     0.127 A 
BRANCH   7  12
ATOM     12  C   UNL A   1      32.095  29.798  26.317  1.00  0.00     0.318 C 
BRANCH  12  13
ATOM     13  N   UNL A   1      32.539  29.606  24.932  1.00  0.00    -0.339 N 
ATOM     14  H   UNL A   1      32.541  30.516  24.472  1.00  0.00     0.346 HD
ATOM     15  H   UNL A   1      33.462  29.175  24.988  1.00  0.00     0.346 HD
BRANCH  13  16
ATOM     16  C   UNL A   1      31.714  28.697  24.134  1.00  0.00     0.182 C 
ATOM     17  C   UNL A   1      29.897  25.496  25.413  1.00  0.00     0.008 C 
ATOM     18  C   UNL A   1      30.341  26.559  24.409  1.00  0.00    -0.008 C 
ATOM     19  C   UNL A   1      29.128  27.270  23.800  1.00  0.00     0.004 C 
ATOM     20  C   UNL A   1      31.278  27.565  25.084  1.00  0.00     0.068 C 
ATOM     21  C   UNL A   1      29.552  28.385  22.850  1.00  0.00     0.006 C 
ATOM     22  C   UNL A   1      30.482  29.387  23.532  1.00  0.00     0.065 C 
ENDBRANCH  13  16
ENDBRANCH  12  13
ENDBRANCH   7  12
ENDBRANCH   4   6
ENDBRANCH   3   4
ENDBRANCH   2   3
ENDBRANCH   1   2
BRANCH   1  23
ATOM     23  O   UNL A   1      34.713  35.490  32.194  1.00  0.00    -0.374 OA
BRANCH  23  24
ATOM     24  C   UNL A   1      35.171  35.230  33.522  1.00  0.00     0.202 C 
BRANCH  24  25
ATOM     25  C   UNL A   1      35.133  33.776  34.005  1.00  0.00     0.261 C 
BRANCH  25  26
ATOM     26  O   UNL A   1      36.076  32.942  33.307  1.00  0.00    -0.460 OA
BRANCH  26  27
ATOM     27  C   UNL A   1      35.547  32.217  32.293  1.00  0.00     0.338 C 
ATOM     28  O   UNL A   1      34.411  32.281  31.847  1.00  0.00    -0.246 OA
BRANCH  27  29
ATOM     29  C   UNL A   1      36.602  31.421  31.642  1.00  0.00     0.060 A 
ATOM     30  C   UNL A   1      37.649  30.949  32.445  1.00  0.00     0.016 A 
ATOM     31  C   UNL A   1      36.612  31.207  30.263  1.00  0.00     0.016 A 
ATOM     32  C   UNL A   1      38.737  30.304  31.864  1.00  0.00     0.010 A 
ATOM     33  C   UNL A   1      37.709  30.566  29.680  1.00  0.00     0.010 A 
ATOM     34  C   UNL A   1      38.793  30.146  30.474  1.00  0.00    -0.014 A 
BRANCH  34  35
ATOM     35  C   UNL A   1      40.047  29.675  29.838  1.00  0.00     0.031 A 
ATOM     36  C   UNL A   1      41.190  30.640  29.679  1.00  0.00     0.074 A 
ATOM     37  C   UNL A   1      40.176  28.401  29.429  1.00  0.00     0.049 A 
ATOM     38  N   UNL A   1      42.354  30.463  29.109  1.00  0.00    -0.248 NA
ATOM     39  C   UNL A   1      40.990  31.988  30.236  1.00  0.00     0.031 C 
ATOM     40  C   UNL A   1      39.157  27.363  29.565  1.00  0.00     0.029 A 
ATOM     41  N   UNL A   1      41.222  27.769  28.805  1.00  0.00    -0.354 N 
ATOM     42  C   UNL A   1      43.022  31.675  29.229  1.00  0.00     0.074 A 
ATOM     43  C   UNL A   1      42.120  32.590  29.897  1.00  0.00     0.031 C 
ATOM     44  C   UNL A   1      39.624  26.222  29.030  1.00  0.00     0.029 A 
ATOM     45  C   UNL A   1      40.959  26.461  28.483  1.00  0.00     0.049 A 
ATOM     46  H   UNL A   1      42.079  28.211  28.607  1.00  0.00     0.167 HD
ATOM     47  C   UNL A   1      44.274  31.995  28.827  1.00  0.00     0.037 A 
ATOM     48  C   UNL A   1      41.701  25.567  27.803  1.00  0.00     0.037 A 
ATOM     49  C   UNL A   1      45.169  31.081  28.165  1.00  0.00     0.049 A 
ATOM     50  C   UNL A   1      43.063  25.968  27.299  1.00  0.00     0.074 A 
ATOM     51  C   UNL A   1      46.466  31.302  27.736  1.00  0.00     0.029 A 
ATOM     52  N   UNL A   1      44.854  29.773  27.829  1.00  0.00    -0.354 N 
ATOM     53  N   UNL A   1      43.695  27.109  27.438  1.00  0.00    -0.248 NA
ATOM     54  C   UNL A   1      43.818  24.953  26.549  1.00  0.00     0.031 C 
ATOM     55  C   UNL A   1      46.917  30.145  27.093  1.00  0.00     0.029 A 
ATOM     56  C   UNL A   1      45.923  29.184  27.173  1.00  0.00     0.049 A 
ATOM     57  H   UNL A   1      43.999  29.328  28.028  1.00  0.00     0.167 HD
ATOM     58  C   UNL A   1      44.928  26.940  26.820  1.00  0.00     0.074 A 
ATOM     59  C   UNL A   1      44.961  25.583  26.316  1.00  0.00     0.031 C 
ATOM     60  C   UNL A   1      45.944  27.828  26.683  1.00  0.00     0.037 A 
BRANCH  47  61
ATOM     61  C   UNL A   1      44.741  33.401  29.067  1.00  0.00     0.057 A 
ATOM     62  C   UNL A   1      45.476  33.756  30.207  1.00  0.00     0.134 A 
ATOM     63  C   UNL A   1      44.478  34.409  28.130  1.00  0.00     0.134 A 
ATOM     64  F   UNL A   1      45.751  32.841  31.149  1.00  0.00    -0.206 F 
ATOM     65  C   UNL A   1      45.910  35.065  30.418  1.00  0.00     0.040 A 
ATOM     66  C   UNL A   1      44.930  35.716  28.317  1.00  0.00     0.040 A 
ATOM     67  F   UNL A   1      43.783  34.138  27.015  1.00  0.00    -0.206 F 
ATOM     68  C   UNL A   1      45.642  36.049  29.467  1.00  0.00     0.006 A 
ENDBRANCH  47  61
BRANCH  48  69
ATOM     69  C   UNL A   1      41.171  24.205  27.541  1.00  0.00     0.057 A 
ATOM     70  C   UNL A   1      40.161  23.988  26.596  1.00  0.00     0.134 A 
ATOM     71  C   UNL A   1      41.645  23.091  28.245  1.00  0.00     0.134 A 
ATOM     72  F   UNL A   1      39.650  25.018  25.907  1.00  0.00    -0.206 F 
ATOM     73  C   UNL A   1      39.629  22.716  26.374  1.00  0.00     0.040 A 
ATOM     74  C   UNL A   1      41.141  21.811  28.013  1.00  0.00     0.040 A 
ATOM     75  F   UNL A   1      42.613  23.231  29.163  1.00  0.00    -0.206 F 
ATOM     76  C   UNL A   1      40.123  21.622  27.081  1.00  0.00     0.006 A 
ENDBRANCH  48  69
BRANCH  60  77
ATOM     77  C   UNL A   1      47.192  27.350  25.998  1.00  0.00     0.057 A 
ATOM     78  C   UNL A   1      48.231  26.726  26.699  1.00  0.00     0.134 A 
ATOM     79  C   UNL A   1      47.335  27.478  24.610  1.00  0.00     0.134 A 
ATOM     80  F   UNL A   1      48.163  26.582  28.031  1.00  0.00    -0.206 F 
ATOM     81  C   UNL A   1      49.378  26.269  26.047  1.00  0.00     0.040 A 
ATOM     82  C   UNL A   1      48.464  26.999  23.944  1.00  0.00     0.040 A 
ATOM     83  F   UNL A   1      46.372  28.056  23.875  1.00  0.00    -0.206 F 
ATOM     84  C   UNL A   1      49.493  26.399  24.664  1.00  0.00     0.006 A 
ENDBRANCH  60  77
ENDBRANCH  34  35
ENDBRANCH  27  29
ENDBRANCH  26  27
ENDBRANCH  25  26
ENDBRANCH  24  25
ENDBRANCH  23  24
ENDBRANCH   1  23
TORSDOF 17
ENDMDL
MODEL 2
REMARK VINA RESULT:     -10.9      5.634     10.807
REMARK SMILES C[C@H]1CCC[C@@H]([NH2+]Cc2ccc(C(=O)OCCOCCOC(=O)c3ccc(-c4c5nc(c(-c6c(F)cccc6F)c6ccc([nH]6)c(-c6c(F)cccc6F)c6nc(c(-c7c(F)cccc7F)c7ccc4[nH]7)C=C6)C=C5)cc3)cn2)C1
REMARK SMILES IDX 17 1 16 2 15 3 13 4 14 5 12 6 9 7 10 8 79 9 11 10 78 11 8 12
REMARK SMILES IDX 7 13 6 16 1 17 2 18 3 19 80 20 4 21 5 22 18 23 19 24 20 25
REMARK SMILES IDX 21 26 22 27 23 28 24 29 25 30 77 31 26 32 76 33 27 34 28 35
REMARK SMILES IDX 29 36 70 37 30 38 75 39 69 40 71 41 31 42 74 43 68 44 67 45
REMARK SMILES IDX 32 47 58 48 41 49 57 50 42 51 45 52 56 53 72 54 43 55 44 56
REMARK SMILES IDX 55 58 73 59 46 60 33 61 34 62 39 63 35 64 36 65 38 66 40 67
REMARK SMILES IDX 37 68 59 69 60 70 65 71 61 72 62 73 64 74 66 75 63 76 47 77
REMARK SMILES IDX 48 78 53 79 49 80 50 81 52 82 54 83 51 84
REMARK H PARENT 7 14 7 15 71 46 45 57
REMARK Flexibility Score: inf
ROOT
ATOM      1  C   UNL A   1      42.290  19.511  26.726  1.00  0.00     0.202 C 
ENDROOT
BRANCH   1   2
ATOM      2  C   UNL A   1      41.086  20.307  27.240  1.00  0.00     0.261 C 
BRANCH   2   3
ATOM      3  O   UNL A   1      40.456  21.042  26.180  1.00  0.00    -0.460 OA
BRANCH   3   4
ATOM      4  C   UNL A   1      39.373  20.438  25.635  1.00  0.00     0.339 C 
ATOM      5  O   UNL A   1      39.248  19.248  25.385  1.00  0.00    -0.246 OA
BRANCH   4   6
ATOM      6  C   UNL A   1      38.264  21.398  25.510  1.00  0.00     0.078 A 
ATOM      7  C   UNL A   1      36.311  23.336  25.460  1.00  0.00     0.094 A 
ATOM      8  C   UNL A   1      36.052  22.089  24.883  1.00  0.00     0.031 A 
ATOM      9  N   UNL A   1      37.527  23.655  25.970  1.00  0.00    -0.254 NA
ATOM     10  C   UNL A   1      37.039  21.104  24.913  1.00  0.00     0.019 A 
ATOM     11  C   UNL A   1      38.468  22.682  25.993  1.00  0.00     0.127 A 
BRANCH   7  12
ATOM     12  C   UNL A   1      35.210  24.375  25.614  1.00  0.00     0.318 C 
BRANCH  12  13
ATOM     13  N   UNL A   1      34.040  24.028  24.800  1.00  0.00    -0.339 N 
ATOM     14  H   UNL A   1      34.169  24.433  23.872  1.00  0.00     0.346 HD
ATOM     15  H   UNL A   1      33.989  23.010  24.796  1.00  0.00     0.346 HD
BRANCH  13  16
ATOM     16  C   UNL A   1      32.756  24.498  25.323  1.00  0.00     0.182 C 
ATOM     17  C   UNL A   1      32.086  27.906  27.091  1.00  0.00     0.008 C 
ATOM     18  C   UNL A   1      31.759  26.530  26.512  1.00  0.00    -0.008 C 
ATOM     19  C   UNL A   1      30.698  26.642  25.412  1.00  0.00     0.004 C 
ATOM     20  C   UNL A   1      33.032  25.868  25.974  1.00  0.00     0.068 C 
ATOM     21  C   UNL A   1      30.412  25.288  24.771  1.00  0.00     0.006 C 
ATOM     22  C   UNL A   1      31.684  24.637  24.232  1.00  0.00     0.065 C 
ENDBRANCH  13  16
ENDBRANCH  12  13
ENDBRANCH   7  12
ENDBRANCH   4   6
ENDBRANCH   3   4
ENDBRANCH   2   3
ENDBRANCH   1   2
BRANCH   1  23
ATOM     23  O   UNL A   1      42.723  19.784  25.396  1.00  0.00    -0.374 OA
BRANCH  23  24
ATOM     24  C   UNL A   1      44.039  20.311  25.221  1.00  0.00     0.202 C 
BRANCH  24  25
ATOM     25  C   UNL A   1      44.302  21.728  25.746  1.00  0.00     0.261 C 
BRANCH  25  26
ATOM     26  O   UNL A   1      43.311  22.670  25.297  1.00  0.00    -0.460 OA
BRANCH  26  27
ATOM     27  C   UNL A   1      43.772  23.929  25.112  1.00  0.00     0.338 C 
ATOM     28  O   UNL A   1      44.551  24.316  24.252  1.00  0.00    -0.246 OA
BRANCH  27  29
ATOM     29  C   UNL A   1      43.058  24.862  26.001  1.00  0.00     0.060 A 
ATOM     30  C   UNL A   1      43.538  26.175  26.085  1.00  0.00     0.016 A 
ATOM     31  C   UNL A   1      41.991  24.442  26.796  1.00  0.00     0.016 A 
ATOM     32  C   UNL A   1      42.985  27.063  27.004  1.00  0.00     0.010 A 
ATOM     33  C   UNL A   1      41.441  25.332  27.724  1.00  0.00     0.010 A 
ATOM     34  C   UNL A   1      41.961  26.633  27.857  1.00  0.00    -0.014 A 
BRANCH  34  35
ATOM     35  C   UNL A   1      41.536  27.496  28.986  1.00  0.00     0.031 A 
ATOM     36  C   UNL A   1      42.278  27.407  30.291  1.00  0.00     0.074 A 
ATOM     37  C   UNL A   1      40.519  28.364  28.844  1.00  0.00     0.049 A 
ATOM     38  N   UNL A   1      42.048  28.025  31.421  1.00  0.00    -0.248 NA
ATOM     39  C   UNL A   1      43.433  26.495  30.326  1.00  0.00     0.031 C 
ATOM     40  C   UNL A   1      39.750  28.572  27.619  1.00  0.00     0.029 A 
ATOM     41  N   UNL A   1      39.953  29.227  29.749  1.00  0.00    -0.354 N 
ATOM     42  C   UNL A   1      43.021  27.571  32.303  1.00  0.00     0.074 A 
ATOM     43  C   UNL A   1      43.823  26.602  31.587  1.00  0.00     0.031 C 
ATOM     44  C   UNL A   1      38.803  29.497  27.852  1.00  0.00     0.029 A 
ATOM     45  C   UNL A   1      38.878  29.919  29.249  1.00  0.00     0.049 A 
ATOM     46  H   UNL A   1      40.286  29.339  30.668  1.00  0.00     0.167 HD
ATOM     47  C   UNL A   1      43.232  27.935  33.590  1.00  0.00     0.037 A 
ATOM     48  C   UNL A   1      38.036  30.776  29.858  1.00  0.00     0.037 A 
ATOM     49  C   UNL A   1      42.434  28.902  34.299  1.00  0.00     0.049 A 
ATOM     50  C   UNL A   1      38.246  31.110  31.312  1.00  0.00     0.074 A 
ATOM     51  C   UNL A   1      42.579  29.355  35.598  1.00  0.00     0.029 A 
ATOM     52  N   UNL A   1      41.335  29.559  33.767  1.00  0.00    -0.354 N 
ATOM     53  N   UNL A   1      39.182  30.693  32.132  1.00  0.00    -0.248 NA
ATOM     54  C   UNL A   1      37.284  32.037  31.924  1.00  0.00     0.031 C 
ATOM     55  C   UNL A   1      41.536  30.246  35.870  1.00  0.00     0.029 A 
ATOM     56  C   UNL A   1      40.775  30.393  34.722  1.00  0.00     0.049 A 
ATOM     57  H   UNL A   1      41.001  29.451  32.847  1.00  0.00     0.167 HD
ATOM     58  C   UNL A   1      38.940  31.329  33.343  1.00  0.00     0.074 A 
ATOM     59  C   UNL A   1      37.776  32.168  33.148  1.00  0.00     0.031 C 
ATOM     60  C   UNL A   1      39.620  31.229  34.512  1.00  0.00     0.037 A 
BRANCH  47  61
ATOM     61  C   UNL A   1      44.355  27.263  34.325  1.00  0.00     0.057 A 
ATOM     62  C   UNL A   1      44.184  26.039  34.986  1.00  0.00     0.134 A 
ATOM     63  C   UNL A   1      45.634  27.834  34.346  1.00  0.00     0.134 A 
ATOM     64  F   UNL A   1      42.982  25.445  35.015  1.00  0.00    -0.206 F 
ATOM     65  C   UNL A   1      45.238  25.420  35.661  1.00  0.00     0.040 A 
ATOM     66  C   UNL A   1      46.702  27.212  34.995  1.00  0.00     0.040 A 
ATOM     67  F   UNL A   1      45.869  29.003  33.730  1.00  0.00    -0.206 F 
ATOM     68  C   UNL A   1      46.503  26.005  35.661  1.00  0.00     0.006 A 
ENDBRANCH  47  61
BRANCH  48  69
ATOM     69  C   UNL A   1      36.905  31.371  29.103  1.00  0.00     0.057 A 
ATOM     70  C   UNL A   1      36.937  32.705  28.679  1.00  0.00     0.134 A 
ATOM     71  C   UNL A   1      35.756  30.627  28.806  1.00  0.00     0.134 A 
ATOM     72  F   UNL A   1      37.999  33.474  28.954  1.00  0.00    -0.206 F 
ATOM     73  C   UNL A   1      35.860  33.282  28.004  1.00  0.00     0.040 A 
ATOM     74  C   UNL A   1      34.684  31.184  28.108  1.00  0.00     0.040 A 
ATOM     75  F   UNL A   1      35.664  29.343  29.183  1.00  0.00    -0.206 F 
ATOM     76  C   UNL A   1      34.731  32.519  27.713  1.00  0.00     0.006 A 
ENDBRANCH  48  69
BRANCH  60  77
ATOM     77  C   UNL A   1      39.150  32.077  35.659  1.00  0.00     0.057 A 
ATOM     78  C   UNL A   1      39.534  33.417  35.798  1.00  0.00     0.134 A 
ATOM     79  C   UNL A   1      38.267  31.556  36.614  1.00  0.00     0.134 A 
ATOM     80  F   UNL A   1      40.386  33.974  34.925  1.00  0.00    -0.206 F 
ATOM     81  C   UNL A   1      39.075  34.200  36.859  1.00  0.00     0.040 A 
ATOM     82  C   UNL A   1      37.780  32.337  37.662  1.00  0.00     0.040 A 
ATOM     83  F   UNL A   1      37.851  30.282  36.535  1.00  0.00    -0.206 F 
ATOM     84  C   UNL A   1      38.190  33.661  37.791  1.00  0.00     0.006 A 
ENDBRANCH  60  77
ENDBRANCH  34  35
ENDBRANCH  27  29
ENDBRANCH  26  27
ENDBRANCH  25  26
ENDBRANCH  24  25
ENDBRANCH  23  24
ENDBRANCH   1  23
TORSDOF 17
ENDMDL
MODEL 3
REMARK VINA RESULT:     -10.8      1.818      3.349
REMARK SMILES C[C@H]1CCC[C@@H]([NH2+]Cc2ccc(C(=O)OCCOCCOC(=O)c3ccc(-c4c5nc(c(-c6c(F)cccc6F)c6ccc([nH]6)c(-c6c(F)cccc6F)c6nc(c(-c7c(F)cccc7F)c7ccc4[nH]7)C=C6)C=C5)cc3)cn2)C1
REMARK SMILES IDX 17 1 16 2 15 3 13 4 14 5 12 6 9 7 10 8 79 9 11 10 78 11 8 12
REMARK SMILES IDX 7 13 6 16 1 17 2 18 3 19 80 20 4 21 5 22 18 23 19 24 20 25
REMARK SMILES IDX 21 26 22 27 23 28 24 29 25 30 77 31 26 32 76 33 27 34 28 35
REMARK SMILES IDX 29 36 70 37 30 38 75 39 69 40 71 41 31 42 74 43 68 44 67 45
REMARK SMILES IDX 32 47 58 48 41 49 57 50 42 51 45 52 56 53 72 54 43 55 44 56
REMARK SMILES IDX 55 58 73 59 46 60 33 61 34 62 39 63 35 64 36 65 38 66 40 67
REMARK SMILES IDX 37 68 59 69 60 70 65 71 61 72 62 73 64 74 66 75 63 76 47 77
REMARK SMILES IDX 48 78 53 79 49 80 50 81 52 82 54 83 51 84
REMARK H PARENT 7 14 7 15 71 46 45 57
REMARK Flexibility Score: inf
ROOT
ATOM      1  C   UNL A   1      35.040  33.123  27.998  1.00  0.00     0.202 C 
ENDROOT
BRANCH   1   2
ATOM      2  C   UNL A   1      33.709  32.376  28.134  1.00  0.00     0.261 C 
BRANCH   2   3
ATOM      3  O   UNL A   1      33.717  31.154  27.382  1.00  0.00    -0.460 OA
BRANCH   3   4
ATOM      4  C   UNL A   1      32.521  30.806  26.849  1.00  0.00     0.339 C 
ATOM      5  O   UNL A   1      31.602  31.560  26.561  1.00  0.00    -0.246 OA
BRANCH   4   6
ATOM      6  C   UNL A   1      32.512  29.375  26.505  1.00  0.00     0.078 A 
ATOM      7  C   UNL A   1      32.670  26.757  25.674  1.00  0.00     0.094 A 
ATOM      8  C   UNL A   1      31.612  27.151  26.499  1.00  0.00     0.031 A 
ATOM      9  N   UNL A   1      33.674  27.605  25.337  1.00  0.00    -0.254 NA
ATOM     10  C   UNL A   1      31.528  28.478  26.916  1.00  0.00     0.019 A 
ATOM     11  C   UNL A   1      33.569  28.890  25.749  1.00  0.00     0.127 A 
BRANCH   7  12
ATOM     12  C   UNL A   1      32.705  25.371  25.047  1.00  0.00     0.318 C 
BRANCH  12  13
ATOM     13  N   UNL A   1      32.827  24.330  26.074  1.00  0.00    -0.339 N 
ATOM     14  H   UNL A   1      33.314  24.732  26.875  1.00  0.00     0.346 HD
ATOM     15  H   UNL A   1      31.876  24.027  26.285  1.00  0.00     0.346 HD
BRANCH  13  16
ATOM     16  C   UNL A   1      33.553  23.128  25.659  1.00  0.00     0.182 C 
ATOM     17  C   UNL A   1      36.511  22.971  23.127  1.00  0.00     0.008 C 
ATOM     18  C   UNL A   1      35.478  22.444  24.122  1.00  0.00    -0.008 C 
ATOM     19  C   UNL A   1      36.165  21.754  25.304  1.00  0.00     0.004 C 
ATOM     20  C   UNL A   1      34.581  23.588  24.607  1.00  0.00     0.068 C 
ATOM     21  C   UNL A   1      35.153  21.286  26.345  1.00  0.00     0.006 C 
ATOM     22  C   UNL A   1      34.267  22.433  26.828  1.00  0.00     0.065 C 
ENDBRANCH  13  16
ENDBRANCH  12  13
ENDBRANCH   7  12
ENDBRANCH   4   6
ENDBRANCH   3   4
ENDBRANCH   2   3
ENDBRANCH   1   2
BRANCH   1  23
ATOM     23  O   UNL A   1      35.406  33.988  29.070  1.00  0.00    -0.374 OA
BRANCH  23  24
ATOM     24  C   UNL A   1      34.373  34.422  29.955  1.00  0.00     0.202 C 
BRANCH  24  25
ATOM     25  C   UNL A   1      34.462  33.963  31.415  1.00  0.00     0.261 C 
BRANCH  25  26
ATOM     26  O   UNL A   1      34.661  32.542  31.531  1.00  0.00    -0.460 OA
BRANCH  26  27
ATOM     27  C   UNL A   1      35.606  32.175  32.428  1.00  0.00     0.338 C 
ATOM     28  O   UNL A   1      35.579  32.327  33.640  1.00  0.00    -0.246 OA
BRANCH  27  29
ATOM     29  C   UNL A   1      36.647  31.374  31.760  1.00  0.00     0.060 A 
ATOM     30  C   UNL A   1      37.723  30.928  32.538  1.00  0.00     0.016 A 
ATOM     31  C   UNL A   1      36.614  31.130  30.386  1.00  0.00     0.016 A 
ATOM     32  C   UNL A   1      38.798  30.280  31.937  1.00  0.00     0.010 A 
ATOM     33  C   UNL A   1      37.698  30.486  29.782  1.00  0.00     0.010 A 
ATOM     34  C   UNL A   1      38.810  30.092  30.549  1.00  0.00    -0.014 A 
BRANCH  34  35
ATOM     35  C   UNL A   1      40.048  29.618  29.884  1.00  0.00     0.031 A 
ATOM     36  C   UNL A   1      41.187  30.582  29.692  1.00  0.00     0.074 A 
ATOM     37  C   UNL A   1      40.165  28.342  29.477  1.00  0.00     0.049 A 
ATOM     38  N   UNL A   1      42.335  30.401  29.093  1.00  0.00    -0.248 NA
ATOM     39  C   UNL A   1      41.002  31.932  30.249  1.00  0.00     0.031 C 
ATOM     40  C   UNL A   1      39.150  27.305  29.643  1.00  0.00     0.029 A 
ATOM     41  N   UNL A   1      41.195  27.707  28.829  1.00  0.00    -0.354 N 
ATOM     42  C   UNL A   1      43.007  31.614  29.191  1.00  0.00     0.074 A 
ATOM     43  C   UNL A   1      42.123  32.532  29.878  1.00  0.00     0.031 C 
ATOM     44  C   UNL A   1      39.603  26.162  29.100  1.00  0.00     0.029 A 
ATOM     45  C   UNL A   1      40.923  26.398  28.519  1.00  0.00     0.049 A 
ATOM     46  H   UNL A   1      42.047  28.147  28.608  1.00  0.00     0.167 HD
ATOM     47  C   UNL A   1      44.249  31.931  28.756  1.00  0.00     0.037 A 
ATOM     48  C   UNL A   1      41.648  25.501  27.824  1.00  0.00     0.037 A 
ATOM     49  C   UNL A   1      45.126  31.014  28.075  1.00  0.00     0.049 A 
ATOM     50  C   UNL A   1      42.997  25.899  27.284  1.00  0.00     0.074 A 
ATOM     51  C   UNL A   1      46.412  31.233  27.613  1.00  0.00     0.029 A 
ATOM     52  N   UNL A   1      44.802  29.705  27.753  1.00  0.00    -0.354 N 
ATOM     53  N   UNL A   1      43.632  27.040  27.402  1.00  0.00    -0.248 NA
ATOM     54  C   UNL A   1      43.731  24.881  26.519  1.00  0.00     0.031 C 
ATOM     55  C   UNL A   1      46.846  30.073  26.963  1.00  0.00     0.029 A 
ATOM     56  C   UNL A   1      45.854  29.113  27.072  1.00  0.00     0.049 A 
ATOM     57  H   UNL A   1      43.952  29.262  27.975  1.00  0.00     0.167 HD
ATOM     58  C   UNL A   1      44.849  26.868  26.754  1.00  0.00     0.074 A 
ATOM     59  C   UNL A   1      44.868  25.509  26.255  1.00  0.00     0.031 C 
ATOM     60  C   UNL A   1      45.861  27.755  26.587  1.00  0.00     0.037 A 
BRANCH  47  61
ATOM     61  C   UNL A   1      44.722  33.338  28.979  1.00  0.00     0.057 A 
ATOM     62  C   UNL A   1      44.446  34.368  28.069  1.00  0.00     0.134 A 
ATOM     63  C   UNL A   1      45.440  33.673  30.135  1.00  0.00     0.134 A 
ATOM     64  F   UNL A   1      43.775  34.113  26.937  1.00  0.00    -0.206 F 
ATOM     65  C   UNL A   1      44.887  35.674  28.290  1.00  0.00     0.040 A 
ATOM     66  C   UNL A   1      45.863  34.981  30.379  1.00  0.00     0.040 A 
ATOM     67  F   UNL A   1      45.735  32.736  31.048  1.00  0.00    -0.206 F 
ATOM     68  C   UNL A   1      45.592  35.984  29.452  1.00  0.00     0.006 A 
ENDBRANCH  47  61
BRANCH  48  69
ATOM     69  C   UNL A   1      41.110  24.138  27.581  1.00  0.00     0.057 A 
ATOM     70  C   UNL A   1      41.625  23.023  28.254  1.00  0.00     0.134 A 
ATOM     71  C   UNL A   1      40.084  23.914  26.655  1.00  0.00     0.134 A 
ATOM     72  F   UNL A   1      42.625  23.171  29.135  1.00  0.00    -0.206 F 
ATOM     73  C   UNL A   1      41.153  21.734  28.001  1.00  0.00     0.040 A 
ATOM     74  C   UNL A   1      39.584  22.634  26.412  1.00  0.00     0.040 A 
ATOM     75  F   UNL A   1      39.546  24.939  25.978  1.00  0.00    -0.206 F 
ATOM     76  C   UNL A   1      40.125  21.538  27.080  1.00  0.00     0.006 A 
ENDBRANCH  48  69
BRANCH  60  77
ATOM     77  C   UNL A   1      47.091  27.273  25.873  1.00  0.00     0.057 A 
ATOM     78  C   UNL A   1      48.097  26.552  26.528  1.00  0.00     0.134 A 
ATOM     79  C   UNL A   1      47.249  27.498  24.498  1.00  0.00     0.134 A 
ATOM     80  F   UNL A   1      48.013  26.312  27.845  1.00  0.00    -0.206 F 
ATOM     81  C   UNL A   1      49.227  26.093  25.848  1.00  0.00     0.040 A 
ATOM     82  C   UNL A   1      48.360  27.020  23.803  1.00  0.00     0.040 A 
ATOM     83  F   UNL A   1      46.318  28.172  23.806  1.00  0.00    -0.206 F 
ATOM     84  C   UNL A   1      49.357  26.321  24.479  1.00  0.00     0.006 A 
ENDBRANCH  60  77
ENDBRANCH  34  35
ENDBRANCH  27  29
ENDBRANCH  26  27
ENDBRANCH  25  26
ENDBRANCH  24  25
ENDBRANCH  23  24
ENDBRANCH   1  23
TORSDOF 17
ENDMDL
