MODEL 1
REMARK VINA RESULT:     -10.4      0.000      0.000
REMARK SMILES Cc1csc([C@H](C)Nc2cc(C)c(N)c(C(=O)OCCOCCOC(=O)c3ccc(-c4c5nc(c(-c6c(F)cccc6F)c6ccc([nH]6)c(-c6c(F)cccc6F)c6nc(c(-c7c(F)cccc7F)c7ccc4[nH]7)C=C6)C=C5)cc3)c2)n1
REMARK SMILES IDX 20 1 19 2 18 3 16 4 17 5 15 6 9 7 10 8 81 9 11 10 12 11
REMARK SMILES IDX 13 12 8 13 6 15 7 16 5 17 1 18 2 19 3 20 82 21 4 22 14 23
REMARK SMILES IDX 21 26 22 27 23 28 24 29 25 30 26 31 27 32 28 33 80 34 29 35
REMARK SMILES IDX 79 36 30 37 31 38 32 39 73 40 33 41 78 42 72 43 74 44 34 45
REMARK SMILES IDX 77 46 71 47 70 48 35 50 61 51 44 52 60 53 45 54 48 55 59 56
REMARK SMILES IDX 75 57 46 58 47 59 58 61 76 62 49 63 36 64 37 65 42 66 38 67
REMARK SMILES IDX 39 68 41 69 43 70 40 71 62 72 63 73 68 74 64 75 65 76 67 77
REMARK SMILES IDX 69 78 66 79 50 80 51 81 56 82 52 83 53 84 55 85 57 86 54 87
REMARK H PARENT 8 14 14 24 14 25 74 49 48 60
REMARK Flexibility Score: inf
ROOT
ATOM      1  C   UNL A   1      31.510  27.421  24.607  1.00  0.00     0.202 C 
ENDROOT
BRANCH   1   2
ATOM      2  C   UNL A   1      32.276  26.111  24.815  1.00  0.00     0.261 C 
BRANCH   2   3
ATOM      3  O   UNL A   1      33.550  26.143  24.150  1.00  0.00    -0.460 OA
BRANCH   3   4
ATOM      4  C   UNL A   1      33.736  25.164  23.228  1.00  0.00     0.340 C 
ATOM      5  O   UNL A   1      33.747  25.311  22.015  1.00  0.00    -0.246 OA
BRANCH   4   6
ATOM      6  C   UNL A   1      34.096  23.883  23.891  1.00  0.00     0.085 A 
ATOM      7  C   UNL A   1      35.505  22.637  25.449  1.00  0.00     0.036 A 
ATOM      8  C   UNL A   1      34.763  21.496  25.131  1.00  0.00     0.031 A 
ATOM      9  C   UNL A   1      35.153  23.834  24.814  1.00  0.00     0.043 A 
ATOM     10  C   UNL A   1      33.695  21.522  24.211  1.00  0.00    -0.025 A 
ATOM     11  C   UNL A   1      32.947  20.246  23.935  1.00  0.00     0.047 C 
ATOM     12  C   UNL A   1      33.354  22.725  23.571  1.00  0.00     0.049 A 
BRANCH   7  13
ATOM     13  N   UNL A   1      36.613  22.621  26.275  1.00  0.00    -0.376 N 
ATOM     14  H   UNL A   1      36.466  22.393  27.221  1.00  0.00     0.161 HD
BRANCH  13  15
ATOM     15  C   UNL A   1      37.996  22.915  25.861  1.00  0.00     0.135 C 
ATOM     16  C   UNL A   1      38.423  24.152  26.670  1.00  0.00     0.039 C 
BRANCH  15  17
ATOM     17  C   UNL A   1      38.980  21.751  25.997  1.00  0.00     0.115 A 
ATOM     18  C   UNL A   1      42.038  20.443  27.402  1.00  0.00     0.067 C 
ATOM     19  C   UNL A   1      40.758  20.579  26.663  1.00  0.00     0.049 A 
ATOM     20  C   UNL A   1      40.106  19.593  25.952  1.00  0.00     0.090 A 
ATOM     21  N   UNL A   1      40.113  21.805  26.673  1.00  0.00    -0.244 NA
ATOM     22  S   UNL A   1      38.631  20.192  25.333  1.00  0.00    -0.125 S 
ENDBRANCH  15  17
ENDBRANCH  13  15
ENDBRANCH   7  13
BRANCH  12  23
ATOM     23  N   UNL A   1      32.441  22.721  22.511  1.00  0.00    -0.398 N 
ATOM     24  H   UNL A   1      31.827  21.961  22.392  1.00  0.00     0.156 HD
ATOM     25  H   UNL A   1      32.412  23.479  21.883  1.00  0.00     0.156 HD
ENDBRANCH  12  23
ENDBRANCH   4   6
ENDBRANCH   3   4
ENDBRANCH   2   3
ENDBRANCH   1   2
BRANCH   1  26
ATOM     26  O   UNL A   1      32.241  28.478  23.986  1.00  0.00    -0.374 OA
BRANCH  26  27
ATOM     27  C   UNL A   1      32.871  29.421  24.857  1.00  0.00     0.202 C 
BRANCH  27  28
ATOM     28  C   UNL A   1      31.926  30.244  25.743  1.00  0.00     0.261 C 
BRANCH  28  29
ATOM     29  O   UNL A   1      32.429  30.365  27.087  1.00  0.00    -0.460 OA
BRANCH  29  30
ATOM     30  C   UNL A   1      33.163  31.473  27.329  1.00  0.00     0.338 C 
ATOM     31  O   UNL A   1      32.775  32.634  27.344  1.00  0.00    -0.246 OA
BRANCH  30  32
ATOM     32  C   UNL A   1      34.522  31.092  27.760  1.00  0.00     0.060 A 
ATOM     33  C   UNL A   1      34.751  29.742  28.058  1.00  0.00     0.016 A 
ATOM     34  C   UNL A   1      35.536  32.038  27.930  1.00  0.00     0.016 A 
ATOM     35  C   UNL A   1      35.979  29.339  28.575  1.00  0.00     0.010 A 
ATOM     36  C   UNL A   1      36.767  31.633  28.459  1.00  0.00     0.010 A 
ATOM     37  C   UNL A   1      36.981  30.289  28.816  1.00  0.00    -0.014 A 
BRANCH  37  38
ATOM     38  C   UNL A   1      38.190  29.899  29.581  1.00  0.00     0.031 A 
ATOM     39  C   UNL A   1      38.395  30.464  30.959  1.00  0.00     0.074 A 
ATOM     40  C   UNL A   1      39.079  29.029  29.069  1.00  0.00     0.049 A 
ATOM     41  N   UNL A   1      39.387  30.282  31.793  1.00  0.00    -0.248 NA
ATOM     42  C   UNL A   1      37.338  31.355  31.463  1.00  0.00     0.031 C 
ATOM     43  C   UNL A   1      38.972  28.381  27.764  1.00  0.00     0.029 A 
ATOM     44  N   UNL A   1      40.251  28.545  29.592  1.00  0.00    -0.354 N 
ATOM     45  C   UNL A   1      39.075  31.034  32.918  1.00  0.00     0.074 A 
ATOM     46  C   UNL A   1      37.820  31.702  32.648  1.00  0.00     0.031 C 
ATOM     47  C   UNL A   1      40.042  27.586  27.584  1.00  0.00     0.029 A 
ATOM     48  C   UNL A   1      40.921  27.694  28.747  1.00  0.00     0.049 A 
ATOM     49  H   UNL A   1      40.582  28.785  30.488  1.00  0.00     0.167 HD
ATOM     50  C   UNL A   1      39.768  31.152  34.077  1.00  0.00     0.037 A 
ATOM     51  C   UNL A   1      42.114  27.086  28.892  1.00  0.00     0.037 A 
ATOM     52  C   UNL A   1      41.017  30.490  34.346  1.00  0.00     0.049 A 
ATOM     53  C   UNL A   1      42.902  27.293  30.158  1.00  0.00     0.074 A 
ATOM     54  C   UNL A   1      41.789  30.537  35.493  1.00  0.00     0.029 A 
ATOM     55  N   UNL A   1      41.681  29.666  33.449  1.00  0.00    -0.354 N 
ATOM     56  N   UNL A   1      42.590  27.991  31.223  1.00  0.00    -0.248 NA
ATOM     57  C   UNL A   1      44.210  26.627  30.240  1.00  0.00     0.031 C 
ATOM     58  C   UNL A   1      42.942  29.774  35.274  1.00  0.00     0.029 A 
ATOM     59  C   UNL A   1      42.865  29.217  34.009  1.00  0.00     0.049 A 
ATOM     60  H   UNL A   1      41.358  29.435  32.548  1.00  0.00     0.167 HD
ATOM     61  C   UNL A   1      43.644  27.823  32.112  1.00  0.00     0.074 A 
ATOM     62  C   UNL A   1      44.603  26.952  31.464  1.00  0.00     0.031 C 
ATOM     63  C   UNL A   1      43.805  28.343  33.354  1.00  0.00     0.037 A 
BRANCH  50  64
ATOM     64  C   UNL A   1      39.193  32.049  35.132  1.00  0.00     0.057 A 
ATOM     65  C   UNL A   1      39.423  33.431  35.133  1.00  0.00     0.134 A 
ATOM     66  C   UNL A   1      38.381  31.528  36.147  1.00  0.00     0.134 A 
ATOM     67  F   UNL A   1      40.205  33.991  34.197  1.00  0.00    -0.206 F 
ATOM     68  C   UNL A   1      38.886  34.260  36.121  1.00  0.00     0.040 A 
ATOM     69  C   UNL A   1      37.818  32.349  37.126  1.00  0.00     0.040 A 
ATOM     70  F   UNL A   1      38.117  30.215  36.202  1.00  0.00    -0.206 F 
ATOM     71  C   UNL A   1      38.076  33.719  37.118  1.00  0.00     0.006 A 
ENDBRANCH  50  64
BRANCH  51  72
ATOM     72  C   UNL A   1      42.646  26.226  27.806  1.00  0.00     0.057 A 
ATOM     73  C   UNL A   1      42.387  24.851  27.778  1.00  0.00     0.134 A 
ATOM     74  C   UNL A   1      43.444  26.753  26.783  1.00  0.00     0.134 A 
ATOM     75  F   UNL A   1      41.649  24.283  28.744  1.00  0.00    -0.206 F 
ATOM     76  C   UNL A   1      42.915  24.028  26.782  1.00  0.00     0.040 A 
ATOM     77  C   UNL A   1      43.959  25.947  25.768  1.00  0.00     0.040 A 
ATOM     78  F   UNL A   1      43.730  28.064  26.755  1.00  0.00    -0.206 F 
ATOM     79  C   UNL A   1      43.700  24.578  25.770  1.00  0.00     0.006 A 
ENDBRANCH  51  72
BRANCH  63  80
ATOM     80  C   UNL A   1      45.042  27.953  34.109  1.00  0.00     0.057 A 
ATOM     81  C   UNL A   1      46.214  28.716  34.055  1.00  0.00     0.134 A 
ATOM     82  C   UNL A   1      45.045  26.819  34.933  1.00  0.00     0.134 A 
ATOM     83  F   UNL A   1      46.280  29.806  33.274  1.00  0.00    -0.206 F 
ATOM     84  C   UNL A   1      47.354  28.354  34.776  1.00  0.00     0.040 A 
ATOM     85  C   UNL A   1      46.169  26.462  35.678  1.00  0.00     0.040 A 
ATOM     86  F   UNL A   1      43.951  26.049  35.036  1.00  0.00    -0.206 F 
ATOM     87  C   UNL A   1      47.329  27.227  35.597  1.00  0.00     0.006 A 
ENDBRANCH  63  80
ENDBRANCH  37  38
ENDBRANCH  30  32
ENDBRANCH  29  30
ENDBRANCH  28  29
ENDBRANCH  27  28
ENDBRANCH  26  27
ENDBRANCH   1  26
TORSDOF 18
ENDMDL
MODEL 2
REMARK VINA RESULT:     -10.3      0.523      6.141
REMARK SMILES Cc1csc([C@H](C)Nc2cc(C)c(N)c(C(=O)OCCOCCOC(=O)c3ccc(-c4c5nc(c(-c6c(F)cccc6F)c6ccc([nH]6)c(-c6c(F)cccc6F)c6nc(c(-c7c(F)cccc7F)c7ccc4[nH]7)C=C6)C=C5)cc3)c2)n1
REMARK SMILES IDX 20 1 19 2 18 3 16 4 17 5 15 6 9 7 10 8 81 9 11 10 12 11
REMARK SMILES IDX 13 12 8 13 6 15 7 16 5 17 1 18 2 19 3 20 82 21 4 22 14 23
REMARK SMILES IDX 21 26 22 27 23 28 24 29 25 30 26 31 27 32 28 33 80 34 29 35
REMARK SMILES IDX 79 36 30 37 31 38 32 39 73 40 33 41 78 42 72 43 74 44 34 45
REMARK SMILES IDX 77 46 71 47 70 48 35 50 61 51 44 52 60 53 45 54 48 55 59 56
REMARK SMILES IDX 75 57 46 58 47 59 58 61 76 62 49 63 36 64 37 65 42 66 38 67
REMARK SMILES IDX 39 68 41 69 43 70 40 71 62 72 63 73 68 74 64 75 65 76 67 77
REMARK SMILES IDX 69 78 66 79 50 80 51 81 56 82 52 83 53 84 55 85 57 86 54 87
REMARK H PARENT 8 14 14 24 14 25 74 49 48 60
REMARK Flexibility Score: inf
ROOT
ATOM      1  C   UNL A   1      31.754  26.973  23.843  1.00  0.00     0.202 C 
ENDROOT
BRANCH   1   2
ATOM      2  C   UNL A   1      33.103  27.078  23.127  1.00  0.00     0.261 C 
BRANCH   2   3
ATOM      3  O   UNL A   1      33.966  25.984  23.480  1.00  0.00    -0.460 OA
BRANCH   3   4
ATOM      4  C   UNL A   1      33.759  24.845  22.771  1.00  0.00     0.340 C 
ATOM      5  O   UNL A   1      33.528  24.775  21.573  1.00  0.00    -0.246 OA
BRANCH   4   6
ATOM      6  C   UNL A   1      34.014  23.649  23.617  1.00  0.00     0.085 A 
ATOM      7  C   UNL A   1      35.328  22.530  25.345  1.00  0.00     0.036 A 
ATOM      8  C   UNL A   1      34.487  21.424  25.199  1.00  0.00     0.031 A 
ATOM      9  C   UNL A   1      35.074  23.646  24.539  1.00  0.00     0.043 A 
ATOM     10  C   UNL A   1      33.415  21.406  24.283  1.00  0.00    -0.025 A 
ATOM     11  C   UNL A   1      32.557  20.172  24.197  1.00  0.00     0.047 C 
ATOM     12  C   UNL A   1      33.172  22.526  23.471  1.00  0.00     0.049 A 
BRANCH   7  13
ATOM     13  N   UNL A   1      36.440  22.540  26.166  1.00  0.00    -0.376 N 
ATOM     14  H   UNL A   1      36.301  22.315  27.114  1.00  0.00     0.161 HD
BRANCH  13  15
ATOM     15  C   UNL A   1      37.815  22.857  25.744  1.00  0.00     0.135 C 
ATOM     16  C   UNL A   1      38.221  24.109  26.540  1.00  0.00     0.039 C 
BRANCH  15  17
ATOM     17  C   UNL A   1      38.822  21.713  25.887  1.00  0.00     0.115 A 
ATOM     18  C   UNL A   1      41.884  20.459  27.332  1.00  0.00     0.067 C 
ATOM     19  C   UNL A   1      40.613  20.574  26.572  1.00  0.00     0.049 A 
ATOM     20  C   UNL A   1      39.996  19.580  25.843  1.00  0.00     0.090 A 
ATOM     21  N   UNL A   1      39.943  21.785  26.583  1.00  0.00    -0.244 NA
ATOM     22  S   UNL A   1      38.518  20.153  25.205  1.00  0.00    -0.125 S 
ENDBRANCH  15  17
ENDBRANCH  13  15
ENDBRANCH   7  13
BRANCH  12  23
ATOM     23  N   UNL A   1      32.250  22.444  22.421  1.00  0.00    -0.398 N 
ATOM     24  H   UNL A   1      31.831  23.263  22.070  1.00  0.00     0.156 HD
ATOM     25  H   UNL A   1      32.021  21.568  22.034  1.00  0.00     0.156 HD
ENDBRANCH  12  23
ENDBRANCH   4   6
ENDBRANCH   3   4
ENDBRANCH   2   3
ENDBRANCH   1   2
BRANCH   1  26
ATOM     26  O   UNL A   1      31.641  27.695  25.069  1.00  0.00    -0.374 OA
BRANCH  26  27
ATOM     27  C   UNL A   1      31.307  29.082  24.969  1.00  0.00     0.202 C 
BRANCH  27  28
ATOM     28  C   UNL A   1      32.410  30.064  25.386  1.00  0.00     0.261 C 
BRANCH  28  29
ATOM     29  O   UNL A   1      32.338  30.378  26.790  1.00  0.00    -0.460 OA
BRANCH  29  30
ATOM     30  C   UNL A   1      32.966  31.518  27.158  1.00  0.00     0.338 C 
ATOM     31  O   UNL A   1      32.489  32.644  27.216  1.00  0.00    -0.246 OA
BRANCH  30  32
ATOM     32  C   UNL A   1      34.315  31.207  27.667  1.00  0.00     0.060 A 
ATOM     33  C   UNL A   1      34.598  29.870  27.974  1.00  0.00     0.016 A 
ATOM     34  C   UNL A   1      35.265  32.205  27.900  1.00  0.00     0.016 A 
ATOM     35  C   UNL A   1      35.814  29.530  28.562  1.00  0.00     0.010 A 
ATOM     36  C   UNL A   1      36.483  31.863  28.499  1.00  0.00     0.010 A 
ATOM     37  C   UNL A   1      36.747  30.531  28.865  1.00  0.00    -0.014 A 
BRANCH  37  38
ATOM     38  C   UNL A   1      37.928  30.201  29.698  1.00  0.00     0.031 A 
ATOM     39  C   UNL A   1      38.982  29.285  29.140  1.00  0.00     0.074 A 
ATOM     40  C   UNL A   1      38.078  30.734  30.924  1.00  0.00     0.049 A 
ATOM     41  N   UNL A   1      40.080  28.844  29.699  1.00  0.00    -0.248 NA
ATOM     42  C   UNL A   1      38.767  28.804  27.766  1.00  0.00     0.031 C 
ATOM     43  C   UNL A   1      37.149  31.666  31.559  1.00  0.00     0.029 A 
ATOM     44  N   UNL A   1      39.073  30.561  31.853  1.00  0.00    -0.354 N 
ATOM     45  C   UNL A   1      40.685  28.032  28.747  1.00  0.00     0.074 A 
ATOM     46  C   UNL A   1      39.818  28.016  27.589  1.00  0.00     0.031 C 
ATOM     47  C   UNL A   1      37.615  31.979  32.782  1.00  0.00     0.029 A 
ATOM     48  C   UNL A   1      38.857  31.247  33.024  1.00  0.00     0.049 A 
ATOM     49  H   UNL A   1      39.865  29.998  31.697  1.00  0.00     0.167 HD
ATOM     50  C   UNL A   1      41.863  27.367  28.827  1.00  0.00     0.037 A 
ATOM     51  C   UNL A   1      39.574  31.266  34.164  1.00  0.00     0.037 A 
ATOM     52  C   UNL A   1      42.726  27.381  29.979  1.00  0.00     0.049 A 
ATOM     53  C   UNL A   1      40.840  30.457  34.257  1.00  0.00     0.074 A 
ATOM     54  C   UNL A   1      43.944  26.750  30.152  1.00  0.00     0.029 A 
ATOM     55  N   UNL A   1      42.453  28.058  31.159  1.00  0.00    -0.354 N 
ATOM     56  N   UNL A   1      41.414  29.709  33.346  1.00  0.00    -0.248 NA
ATOM     57  C   UNL A   1      41.558  30.497  35.539  1.00  0.00     0.031 C 
ATOM     58  C   UNL A   1      44.389  27.009  31.454  1.00  0.00     0.029 A 
ATOM     59  C   UNL A   1      43.470  27.840  32.073  1.00  0.00     0.049 A 
ATOM     60  H   UNL A   1      41.655  28.611  31.322  1.00  0.00     0.167 HD
ATOM     61  C   UNL A   1      42.573  29.215  33.931  1.00  0.00     0.074 A 
ATOM     62  C   UNL A   1      42.625  29.754  35.274  1.00  0.00     0.031 C 
ATOM     63  C   UNL A   1      43.511  28.390  33.404  1.00  0.00     0.037 A 
BRANCH  50  64
ATOM     64  C   UNL A   1      42.273  26.551  27.638  1.00  0.00     0.057 A 
ATOM     65  C   UNL A   1      41.890  25.212  27.492  1.00  0.00     0.134 A 
ATOM     66  C   UNL A   1      43.043  27.119  26.614  1.00  0.00     0.134 A 
ATOM     67  F   UNL A   1      41.165  24.605  28.444  1.00  0.00    -0.206 F 
ATOM     68  C   UNL A   1      42.278  24.458  26.382  1.00  0.00     0.040 A 
ATOM     69  C   UNL A   1      43.416  26.384  25.488  1.00  0.00     0.040 A 
ATOM     70  F   UNL A   1      43.440  28.397  26.689  1.00  0.00    -0.206 F 
ATOM     71  C   UNL A   1      43.039  25.047  25.373  1.00  0.00     0.006 A 
ENDBRANCH  50  64
BRANCH  51  72
ATOM     72  C   UNL A   1      39.110  32.073  35.319  1.00  0.00     0.057 A 
ATOM     73  C   UNL A   1      38.321  31.509  36.328  1.00  0.00     0.134 A 
ATOM     74  C   UNL A   1      39.425  33.433  35.431  1.00  0.00     0.134 A 
ATOM     75  F   UNL A   1      37.966  30.217  36.264  1.00  0.00    -0.206 F 
ATOM     76  C   UNL A   1      37.849  32.270  37.398  1.00  0.00     0.040 A 
ATOM     77  C   UNL A   1      38.980  34.201  36.507  1.00  0.00     0.040 A 
ATOM     78  F   UNL A   1      40.177  34.034  34.496  1.00  0.00    -0.206 F 
ATOM     79  C   UNL A   1      38.183  33.620  37.492  1.00  0.00     0.006 A 
ENDBRANCH  51  72
BRANCH  63  80
ATOM     80  C   UNL A   1      44.693  28.052  34.266  1.00  0.00     0.057 A 
ATOM     81  C   UNL A   1      45.838  28.856  34.302  1.00  0.00     0.134 A 
ATOM     82  C   UNL A   1      44.665  26.927  35.101  1.00  0.00     0.134 A 
ATOM     83  F   UNL A   1      45.932  29.940  33.516  1.00  0.00    -0.206 F 
ATOM     84  C   UNL A   1      46.924  28.542  35.121  1.00  0.00     0.040 A 
ATOM     85  C   UNL A   1      45.733  26.617  35.944  1.00  0.00     0.040 A 
ATOM     86  F   UNL A   1      43.594  26.119  35.122  1.00  0.00    -0.206 F 
ATOM     87  C   UNL A   1      46.869  27.422  35.951  1.00  0.00     0.006 A 
ENDBRANCH  63  80
ENDBRANCH  37  38
ENDBRANCH  30  32
ENDBRANCH  29  30
ENDBRANCH  28  29
ENDBRANCH  27  28
ENDBRANCH  26  27
ENDBRANCH   1  26
TORSDOF 18
ENDMDL
MODEL 3
REMARK VINA RESULT:     -10.1      4.484      8.373
REMARK SMILES Cc1csc([C@H](C)Nc2cc(C)c(N)c(C(=O)OCCOCCOC(=O)c3ccc(-c4c5nc(c(-c6c(F)cccc6F)c6ccc([nH]6)c(-c6c(F)cccc6F)c6nc(c(-c7c(F)cccc7F)c7ccc4[nH]7)C=C6)C=C5)cc3)c2)n1
REMARK SMILES IDX 20 1 19 2 18 3 16 4 17 5 15 6 9 7 10 8 81 9 11 10 12 11
REMARK SMILES IDX 13 12 8 13 6 15 7 16 5 17 1 18 2 19 3 20 82 21 4 22 14 23
REMARK SMILES IDX 21 26 22 27 23 28 24 29 25 30 26 31 27 32 28 33 80 34 29 35
REMARK SMILES IDX 79 36 30 37 31 38 32 39 73 40 33 41 78 42 72 43 74 44 34 45
REMARK SMILES IDX 77 46 71 47 70 48 35 50 61 51 44 52 60 53 45 54 48 55 59 56
REMARK SMILES IDX 75 57 46 58 47 59 58 61 76 62 49 63 36 64 37 65 42 66 38 67
REMARK SMILES IDX 39 68 41 69 43 70 40 71 62 72 63 73 68 74 64 75 65 76 67 77
REMARK SMILES IDX 69 78 66 79 50 80 51 81 56 82 52 83 53 84 55 85 57 86 54 87
REMARK H PARENT 8 14 14 24 14 25 74 49 48 60
REMARK Flexibility Score: inf
ROOT
ATOM      1  C   UNL A   1      37.352  22.849  25.137  1.00  0.00     0.202 C 
ENDROOT
BRANCH   1   2
ATOM      2  C   UNL A   1      35.833  22.729  25.296  1.00  0.00     0.261 C 
BRANCH   2   3
ATOM      3  O   UNL A   1      35.250  22.015  24.193  1.00  0.00    -0.460 OA
BRANCH   3   4
ATOM      4  C   UNL A   1      34.145  21.291  24.504  1.00  0.00     0.340 C 
ATOM      5  O   UNL A   1      34.126  20.117  24.844  1.00  0.00    -0.246 OA
BRANCH   4   6
ATOM      6  C   UNL A   1      32.942  22.163  24.541  1.00  0.00     0.085 A 
ATOM      7  C   UNL A   1      31.511  23.829  23.472  1.00  0.00     0.036 A 
ATOM      8  C   UNL A   1      30.695  23.784  24.606  1.00  0.00     0.031 A 
ATOM      9  C   UNL A   1      32.641  23.003  23.456  1.00  0.00     0.043 A 
ATOM     10  C   UNL A   1      30.975  22.945  25.704  1.00  0.00    -0.025 A 
ATOM     11  C   UNL A   1      30.036  22.957  26.881  1.00  0.00     0.047 C 
ATOM     12  C   UNL A   1      32.115  22.126  25.685  1.00  0.00     0.049 A 
BRANCH   7  13
ATOM     13  N   UNL A   1      31.312  24.707  22.424  1.00  0.00    -0.376 N 
ATOM     14  H   UNL A   1      30.563  24.517  21.814  1.00  0.00     0.161 HD
BRANCH  13  15
ATOM     15  C   UNL A   1      32.124  25.903  22.141  1.00  0.00     0.135 C 
ATOM     16  C   UNL A   1      32.411  25.868  20.630  1.00  0.00     0.039 C 
BRANCH  15  17
ATOM     17  C   UNL A   1      31.512  27.230  22.596  1.00  0.00     0.115 A 
ATOM     18  C   UNL A   1      28.974  29.764  22.175  1.00  0.00     0.067 C 
ATOM     19  C   UNL A   1      30.128  28.978  22.681  1.00  0.00     0.049 A 
ATOM     20  C   UNL A   1      30.900  29.264  23.787  1.00  0.00     0.090 A 
ATOM     21  N   UNL A   1      30.491  27.825  22.005  1.00  0.00    -0.244 NA
ATOM     22  S   UNL A   1      32.065  28.037  24.023  1.00  0.00    -0.125 S 
ENDBRANCH  15  17
ENDBRANCH  13  15
ENDBRANCH   7  13
BRANCH  12  23
ATOM     23  N   UNL A   1      32.514  21.451  26.844  1.00  0.00    -0.398 N 
ATOM     24  H   UNL A   1      31.878  20.870  27.319  1.00  0.00     0.156 HD
ATOM     25  H   UNL A   1      33.432  21.558  27.185  1.00  0.00     0.156 HD
ENDBRANCH  12  23
ENDBRANCH   4   6
ENDBRANCH   3   4
ENDBRANCH   2   3
ENDBRANCH   1   2
BRANCH   1  26
ATOM     26  O   UNL A   1      38.120  21.760  25.650  1.00  0.00    -0.374 OA
BRANCH  26  27
ATOM     27  C   UNL A   1      37.912  20.484  25.039  1.00  0.00     0.202 C 
BRANCH  27  28
ATOM     28  C   UNL A   1      38.954  19.408  25.374  1.00  0.00     0.261 C 
BRANCH  28  29
ATOM     29  O   UNL A   1      39.845  19.840  26.421  1.00  0.00    -0.460 OA
BRANCH  29  30
ATOM     30  C   UNL A   1      41.154  19.584  26.203  1.00  0.00     0.338 C 
ATOM     31  O   UNL A   1      41.647  18.557  25.753  1.00  0.00    -0.246 OA
BRANCH  30  32
ATOM     32  C   UNL A   1      41.949  20.807  26.424  1.00  0.00     0.060 A 
ATOM     33  C   UNL A   1      42.285  21.130  27.746  1.00  0.00     0.016 A 
ATOM     34  C   UNL A   1      42.309  21.654  25.373  1.00  0.00     0.016 A 
ATOM     35  C   UNL A   1      42.937  22.328  28.028  1.00  0.00     0.010 A 
ATOM     36  C   UNL A   1      42.957  22.861  25.660  1.00  0.00     0.010 A 
ATOM     37  C   UNL A   1      43.241  23.219  26.990  1.00  0.00    -0.014 A 
BRANCH  37  38
ATOM     38  C   UNL A   1      43.717  24.585  27.315  1.00  0.00     0.031 A 
ATOM     39  C   UNL A   1      42.719  25.617  27.761  1.00  0.00     0.074 A 
ATOM     40  C   UNL A   1      45.024  24.896  27.245  1.00  0.00     0.049 A 
ATOM     41  N   UNL A   1      42.906  26.875  28.071  1.00  0.00    -0.248 NA
ATOM     42  C   UNL A   1      41.322  25.169  27.873  1.00  0.00     0.031 C 
ATOM     43  C   UNL A   1      46.092  23.974  26.867  1.00  0.00     0.029 A 
ATOM     44  N   UNL A   1      45.670  26.081  27.490  1.00  0.00    -0.354 N 
ATOM     45  C   UNL A   1      41.653  27.368  28.413  1.00  0.00     0.074 A 
ATOM     46  C   UNL A   1      40.708  26.285  28.240  1.00  0.00     0.031 C 
ATOM     47  C   UNL A   1      47.265  24.632  26.897  1.00  0.00     0.029 A 
ATOM     48  C   UNL A   1      47.024  26.025  27.268  1.00  0.00     0.049 A 
ATOM     49  H   UNL A   1      45.207  26.895  27.794  1.00  0.00     0.167 HD
ATOM     50  C   UNL A   1      41.320  28.610  28.840  1.00  0.00     0.037 A 
ATOM     51  C   UNL A   1      47.957  26.993  27.341  1.00  0.00     0.037 A 
ATOM     52  C   UNL A   1      42.257  29.688  29.010  1.00  0.00     0.049 A 
ATOM     53  C   UNL A   1      47.550  28.386  27.744  1.00  0.00     0.074 A 
ATOM     54  C   UNL A   1      42.019  30.978  29.450  1.00  0.00     0.029 A 
ATOM     55  N   UNL A   1      43.615  29.602  28.739  1.00  0.00    -0.354 N 
ATOM     56  N   UNL A   1      46.367  28.837  28.083  1.00  0.00    -0.248 NA
ATOM     57  C   UNL A   1      48.611  29.403  27.774  1.00  0.00     0.031 C 
ATOM     58  C   UNL A   1      43.226  31.686  29.403  1.00  0.00     0.029 A 
ATOM     59  C   UNL A   1      44.223  30.822  28.979  1.00  0.00     0.049 A 
ATOM     60  H   UNL A   1      44.078  28.792  28.422  1.00  0.00     0.167 HD
ATOM     61  C   UNL A   1      46.545  30.179  28.396  1.00  0.00     0.074 A 
ATOM     62  C   UNL A   1      47.953  30.467  28.213  1.00  0.00     0.031 C 
ATOM     63  C   UNL A   1      45.627  31.091  28.800  1.00  0.00     0.037 A 
BRANCH  50  64
ATOM     64  C   UNL A   1      39.872  28.870  29.133  1.00  0.00     0.057 A 
ATOM     65  C   UNL A   1      38.968  29.239  28.128  1.00  0.00     0.134 A 
ATOM     66  C   UNL A   1      39.370  28.727  30.433  1.00  0.00     0.134 A 
ATOM     67  F   UNL A   1      39.388  29.407  26.865  1.00  0.00    -0.206 F 
ATOM     68  C   UNL A   1      37.622  29.481  28.411  1.00  0.00     0.040 A 
ATOM     69  C   UNL A   1      38.022  28.942  30.724  1.00  0.00     0.040 A 
ATOM     70  F   UNL A   1      40.180  28.372  31.441  1.00  0.00    -0.206 F 
ATOM     71  C   UNL A   1      37.145  29.327  29.711  1.00  0.00     0.006 A 
ENDBRANCH  50  64
BRANCH  51  72
ATOM     72  C   UNL A   1      49.373  26.687  27.018  1.00  0.00     0.057 A 
ATOM     73  C   UNL A   1      49.847  26.750  25.703  1.00  0.00     0.134 A 
ATOM     74  C   UNL A   1      50.280  26.302  28.013  1.00  0.00     0.134 A 
ATOM     75  F   UNL A   1      49.019  27.089  24.703  1.00  0.00    -0.206 F 
ATOM     76  C   UNL A   1      51.166  26.427  25.385  1.00  0.00     0.040 A 
ATOM     77  C   UNL A   1      51.608  25.998  27.713  1.00  0.00     0.040 A 
ATOM     78  F   UNL A   1      49.887  26.220  29.293  1.00  0.00    -0.206 F 
ATOM     79  C   UNL A   1      52.053  26.054  26.394  1.00  0.00     0.006 A 
ENDBRANCH  51  72
BRANCH  63  80
ATOM     80  C   UNL A   1      46.120  32.475  29.109  1.00  0.00     0.057 A 
ATOM     81  C   UNL A   1      46.139  33.487  28.143  1.00  0.00     0.134 A 
ATOM     82  C   UNL A   1      46.544  32.807  30.403  1.00  0.00     0.134 A 
ATOM     83  F   UNL A   1      45.759  33.230  26.882  1.00  0.00    -0.206 F 
ATOM     84  C   UNL A   1      46.582  34.776  28.446  1.00  0.00     0.040 A 
ATOM     85  C   UNL A   1      46.964  34.098  30.724  1.00  0.00     0.040 A 
ATOM     86  F   UNL A   1      46.542  31.885  31.379  1.00  0.00    -0.206 F 
ATOM     87  C   UNL A   1      46.990  35.085  29.743  1.00  0.00     0.006 A 
ENDBRANCH  63  80
ENDBRANCH  37  38
ENDBRANCH  30  32
ENDBRANCH  29  30
ENDBRANCH  28  29
ENDBRANCH  27  28
ENDBRANCH  26  27
ENDBRANCH   1  26
TORSDOF 18
ENDMDL
