MODEL 1
REMARK VINA RESULT:     -10.1      0.000      0.000
REMARK SMILES COC(=O)CCN(C)C(=O)NCc1ccc(C(=O)OCCOCCOC(=O)c2ccc(-c3c4nc(c(-c5c(F)cccc5F)c5ccc([nH]5)c(-c5c(F)cccc5F)c5nc(c(-c6c(F)cccc6F)c6ccc3[nH]6)C=C5)C=C4)cc2)o1
REMARK SMILES IDX 20 1 19 2 17 3 18 4 16 5 13 6 14 7 82 8 15 9 12 10 11 11
REMARK SMILES IDX 9 12 10 13 7 15 8 16 6 17 5 18 3 19 4 20 2 21 1 22 21 23
REMARK SMILES IDX 22 24 23 25 24 26 25 27 26 28 27 29 28 30 29 31 81 32 30 33
REMARK SMILES IDX 80 34 31 35 32 36 33 37 74 38 34 39 79 40 73 41 75 42 35 43
REMARK SMILES IDX 78 44 72 45 71 46 36 48 62 49 45 50 61 51 46 52 49 53 60 54
REMARK SMILES IDX 76 55 47 56 48 57 59 59 77 60 50 61 37 62 38 63 43 64 39 65
REMARK SMILES IDX 40 66 42 67 44 68 41 69 63 70 64 71 69 72 65 73 66 74 68 75
REMARK SMILES IDX 70 76 67 77 51 78 52 79 57 80 53 81 54 82 56 83 58 84 55 85
REMARK H PARENT 11 14 75 47 49 58
REMARK Flexibility Score: inf
ROOT
ATOM      1  C   UNL A   1      33.907  34.667  29.528  1.00  0.00     0.261 C 
ENDROOT
BRANCH   1   2
ATOM      2  O   UNL A   1      34.064  33.250  29.341  1.00  0.00    -0.457 OA
BRANCH   2   3
ATOM      3  C   UNL A   1      34.899  32.872  28.331  1.00  0.00     0.374 C 
ATOM      4  O   UNL A   1      35.873  33.507  27.948  1.00  0.00    -0.242 OA
BRANCH   3   5
ATOM      5  C   UNL A   1      34.521  31.553  27.882  1.00  0.00     0.211 A 
ATOM      6  C   UNL A   1      33.225  30.139  26.795  1.00  0.00     0.124 A 
ATOM      7  C   UNL A   1      34.354  29.433  27.159  1.00  0.00     0.048 A 
ATOM      8  O   UNL A   1      33.305  31.413  27.268  1.00  0.00    -0.452 OA
ATOM      9  C   UNL A   1      35.193  30.344  27.843  1.00  0.00     0.058 A 
BRANCH   6  10
ATOM     10  C   UNL A   1      32.026  29.826  25.977  1.00  0.00     0.193 C 
BRANCH  10  11
ATOM     11  N   UNL A   1      32.437  29.675  24.602  1.00  0.00    -0.331 N 
ATOM     12  C   UNL A   1      31.973  29.056  23.510  1.00  0.00     0.317 C 
ATOM     13  O   UNL A   1      32.741  29.075  22.542  1.00  0.00    -0.249 OA
ATOM     14  H   UNL A   1      33.280  30.151  24.420  1.00  0.00     0.165 HD
BRANCH  12  15
ATOM     15  N   UNL A   1      30.732  28.488  23.432  1.00  0.00    -0.327 N 
ATOM     16  C   UNL A   1      30.298  27.247  24.050  1.00  0.00     0.148 C 
BRANCH  15  17
ATOM     17  C   UNL A   1      29.684  29.279  22.766  1.00  0.00     0.132 C 
BRANCH  17  18
ATOM     18  C   UNL A   1      29.283  30.516  23.566  1.00  0.00     0.144 C 
BRANCH  18  19
ATOM     19  C   UNL A   1      27.840  30.870  23.323  1.00  0.00     0.307 C 
ATOM     20  O   UNL A   1      26.912  30.087  23.482  1.00  0.00    -0.252 OA
BRANCH  19  21
ATOM     21  O   UNL A   1      27.728  32.156  22.892  1.00  0.00    -0.469 OA
ATOM     22  C   UNL A   1      28.223  32.379  21.571  1.00  0.00     0.282 C 
ENDBRANCH  19  21
ENDBRANCH  18  19
ENDBRANCH  17  18
ENDBRANCH  15  17
ENDBRANCH  12  15
ENDBRANCH  10  11
ENDBRANCH   6  10
ENDBRANCH   3   5
ENDBRANCH   2   3
ENDBRANCH   1   2
BRANCH   1  23
ATOM     23  C   UNL A   1      33.576  34.954  30.995  1.00  0.00     0.202 C 
BRANCH  23  24
ATOM     24  O   UNL A   1      34.687  35.454  31.742  1.00  0.00    -0.374 OA
BRANCH  24  25
ATOM     25  C   UNL A   1      35.345  34.512  32.593  1.00  0.00     0.202 C 
BRANCH  25  26
ATOM     26  C   UNL A   1      34.565  33.210  32.807  1.00  0.00     0.261 C 
BRANCH  26  27
ATOM     27  O   UNL A   1      35.351  32.079  32.389  1.00  0.00    -0.460 OA
BRANCH  27  28
ATOM     28  C   UNL A   1      36.492  31.879  33.089  1.00  0.00     0.338 C 
ATOM     29  O   UNL A   1      36.659  32.012  34.289  1.00  0.00    -0.246 OA
BRANCH  28  30
ATOM     30  C   UNL A   1      37.514  31.286  32.202  1.00  0.00     0.060 A 
ATOM     31  C   UNL A   1      38.576  30.605  32.811  1.00  0.00     0.016 A 
ATOM     32  C   UNL A   1      37.461  31.415  30.812  1.00  0.00     0.016 A 
ATOM     33  C   UNL A   1      39.610  30.086  32.034  1.00  0.00     0.010 A 
ATOM     34  C   UNL A   1      38.503  30.900  30.033  1.00  0.00     0.010 A 
ATOM     35  C   UNL A   1      39.594  30.258  30.644  1.00  0.00    -0.014 A 
BRANCH  35  36
ATOM     36  C   UNL A   1      40.783  29.873  29.847  1.00  0.00     0.031 A 
ATOM     37  C   UNL A   1      40.868  28.484  29.280  1.00  0.00     0.074 A 
ATOM     38  C   UNL A   1      41.764  30.761  29.605  1.00  0.00     0.049 A 
ATOM     39  N   UNL A   1      41.815  27.938  28.561  1.00  0.00    -0.248 NA
ATOM     40  C   UNL A   1      39.732  27.592  29.562  1.00  0.00     0.031 C 
ATOM     41  C   UNL A   1      41.783  32.146  30.069  1.00  0.00     0.029 A 
ATOM     42  N   UNL A   1      42.937  30.620  28.907  1.00  0.00    -0.354 N 
ATOM     43  C   UNL A   1      41.391  26.640  28.304  1.00  0.00     0.074 A 
ATOM     44  C   UNL A   1      40.117  26.472  28.969  1.00  0.00     0.031 C 
ATOM     45  C   UNL A   1      42.919  32.730  29.648  1.00  0.00     0.029 A 
ATOM     46  C   UNL A   1      43.713  31.751  28.907  1.00  0.00     0.049 A 
ATOM     47  H   UNL A   1      43.196  29.788  28.449  1.00  0.00     0.167 HD
ATOM     48  C   UNL A   1      42.002  25.680  27.572  1.00  0.00     0.037 A 
ATOM     49  C   UNL A   1      44.934  31.968  28.380  1.00  0.00     0.037 A 
ATOM     50  C   UNL A   1      43.271  25.844  26.912  1.00  0.00     0.049 A 
ATOM     51  C   UNL A   1      45.630  30.860  27.636  1.00  0.00     0.074 A 
ATOM     52  C   UNL A   1      43.956  24.938  26.122  1.00  0.00     0.029 A 
ATOM     53  N   UNL A   1      44.050  26.988  26.977  1.00  0.00    -0.354 N 
ATOM     54  N   UNL A   1      45.206  29.649  27.371  1.00  0.00    -0.248 NA
ATOM     55  C   UNL A   1      46.976  31.151  27.121  1.00  0.00     0.031 C 
ATOM     56  C   UNL A   1      45.172  25.519  25.745  1.00  0.00     0.029 A 
ATOM     57  C   UNL A   1      45.224  26.802  26.266  1.00  0.00     0.049 A 
ATOM     58  H   UNL A   1      43.805  27.813  27.457  1.00  0.00     0.167 HD
ATOM     59  C   UNL A   1      46.221  29.041  26.642  1.00  0.00     0.074 A 
ATOM     60  C   UNL A   1      47.277  30.020  26.499  1.00  0.00     0.031 C 
ATOM     61  C   UNL A   1      46.270  27.784  26.136  1.00  0.00     0.037 A 
BRANCH  48  62
ATOM     62  C   UNL A   1      41.309  24.355  27.467  1.00  0.00     0.057 A 
ATOM     63  C   UNL A   1      41.732  23.241  28.204  1.00  0.00     0.134 A 
ATOM     64  C   UNL A   1      40.199  24.195  26.630  1.00  0.00     0.134 A 
ATOM     65  F   UNL A   1      42.799  23.325  29.012  1.00  0.00    -0.206 F 
ATOM     66  C   UNL A   1      41.089  22.007  28.093  1.00  0.00     0.040 A 
ATOM     67  C   UNL A   1      39.534  22.972  26.527  1.00  0.00     0.040 A 
ATOM     68  F   UNL A   1      39.742  25.223  25.900  1.00  0.00    -0.206 F 
ATOM     69  C   UNL A   1      39.983  21.871  27.255  1.00  0.00     0.006 A 
ENDBRANCH  48  62
BRANCH  49  70
ATOM     70  C   UNL A   1      45.584  33.291  28.544  1.00  0.00     0.057 A 
ATOM     71  C   UNL A   1      45.434  34.294  27.581  1.00  0.00     0.134 A 
ATOM     72  C   UNL A   1      46.375  33.579  29.663  1.00  0.00     0.134 A 
ATOM     73  F   UNL A   1      44.706  34.067  26.477  1.00  0.00    -0.206 F 
ATOM     74  C   UNL A   1      46.053  35.538  27.720  1.00  0.00     0.040 A 
ATOM     75  C   UNL A   1      46.983  34.825  29.824  1.00  0.00     0.040 A 
ATOM     76  F   UNL A   1      46.558  32.657  30.618  1.00  0.00    -0.206 F 
ATOM     77  C   UNL A   1      46.826  35.807  28.848  1.00  0.00     0.006 A 
ENDBRANCH  49  70
BRANCH  61  78
ATOM     78  C   UNL A   1      47.498  27.404  25.363  1.00  0.00     0.057 A 
ATOM     79  C   UNL A   1      47.614  27.663  23.993  1.00  0.00     0.134 A 
ATOM     80  C   UNL A   1      48.591  26.809  26.006  1.00  0.00     0.134 A 
ATOM     81  F   UNL A   1      46.597  28.219  23.317  1.00  0.00    -0.206 F 
ATOM     82  C   UNL A   1      48.769  27.330  23.283  1.00  0.00     0.040 A 
ATOM     83  C   UNL A   1      49.760  26.491  25.312  1.00  0.00     0.040 A 
ATOM     84  F   UNL A   1      48.546  26.541  27.320  1.00  0.00    -0.206 F 
ATOM     85  C   UNL A   1      49.849  26.747  23.946  1.00  0.00     0.006 A 
ENDBRANCH  61  78
ENDBRANCH  35  36
ENDBRANCH  28  30
ENDBRANCH  27  28
ENDBRANCH  26  27
ENDBRANCH  25  26
ENDBRANCH  24  25
ENDBRANCH  23  24
ENDBRANCH   1  23
TORSDOF 21
ENDMDL
MODEL 2
REMARK VINA RESULT:     -10.0      6.390     11.785
REMARK SMILES COC(=O)CCN(C)C(=O)NCc1ccc(C(=O)OCCOCCOC(=O)c2ccc(-c3c4nc(c(-c5c(F)cccc5F)c5ccc([nH]5)c(-c5c(F)cccc5F)c5nc(c(-c6c(F)cccc6F)c6ccc3[nH]6)C=C5)C=C4)cc2)o1
REMARK SMILES IDX 20 1 19 2 17 3 18 4 16 5 13 6 14 7 82 8 15 9 12 10 11 11
REMARK SMILES IDX 9 12 10 13 7 15 8 16 6 17 5 18 3 19 4 20 2 21 1 22 21 23
REMARK SMILES IDX 22 24 23 25 24 26 25 27 26 28 27 29 28 30 29 31 81 32 30 33
REMARK SMILES IDX 80 34 31 35 32 36 33 37 74 38 34 39 79 40 73 41 75 42 35 43
REMARK SMILES IDX 78 44 72 45 71 46 36 48 62 49 45 50 61 51 46 52 49 53 60 54
REMARK SMILES IDX 76 55 47 56 48 57 59 59 77 60 50 61 37 62 38 63 43 64 39 65
REMARK SMILES IDX 40 66 42 67 44 68 41 69 63 70 64 71 69 72 65 73 66 74 68 75
REMARK SMILES IDX 70 76 67 77 51 78 52 79 57 80 53 81 54 82 56 83 58 84 55 85
REMARK H PARENT 11 14 75 47 49 58
REMARK Flexibility Score: inf
ROOT
ATOM      1  C   UNL A   1      43.326  18.839  25.438  1.00  0.00     0.261 C 
ENDROOT
BRANCH   1   2
ATOM      2  O   UNL A   1      42.313  19.859  25.393  1.00  0.00    -0.457 OA
BRANCH   2   3
ATOM      3  C   UNL A   1      41.565  20.005  26.524  1.00  0.00     0.374 C 
ATOM      4  O   UNL A   1      41.886  19.605  27.636  1.00  0.00    -0.242 OA
BRANCH   3   5
ATOM      5  C   UNL A   1      40.409  20.814  26.217  1.00  0.00     0.211 A 
ATOM      6  C   UNL A   1      38.344  21.106  25.504  1.00  0.00     0.124 A 
ATOM      7  C   UNL A   1      38.730  22.299  26.082  1.00  0.00     0.048 A 
ATOM      8  O   UNL A   1      39.374  20.218  25.548  1.00  0.00    -0.452 OA
ATOM      9  C   UNL A   1      40.049  22.107  26.554  1.00  0.00     0.058 A 
BRANCH   6  10
ATOM     10  C   UNL A   1      37.074  20.596  24.928  1.00  0.00     0.193 C 
BRANCH  10  11
ATOM     11  N   UNL A   1      35.987  20.998  25.789  1.00  0.00    -0.331 N 
ATOM     12  C   UNL A   1      34.651  20.917  25.773  1.00  0.00     0.317 C 
ATOM     13  O   UNL A   1      34.087  21.537  26.681  1.00  0.00    -0.249 OA
ATOM     14  H   UNL A   1      36.314  21.452  26.599  1.00  0.00     0.165 HD
BRANCH  12  15
ATOM     15  N   UNL A   1      33.950  20.171  24.867  1.00  0.00    -0.327 N 
ATOM     16  C   UNL A   1      32.851  20.620  24.029  1.00  0.00     0.148 C 
BRANCH  15  17
ATOM     17  C   UNL A   1      34.441  18.808  24.612  1.00  0.00     0.132 C 
BRANCH  17  18
ATOM     18  C   UNL A   1      33.314  17.781  24.539  1.00  0.00     0.144 C 
BRANCH  18  19
ATOM     19  C   UNL A   1      33.826  16.453  24.046  1.00  0.00     0.307 C 
ATOM     20  O   UNL A   1      34.079  16.217  22.872  1.00  0.00    -0.252 OA
BRANCH  19  21
ATOM     21  O   UNL A   1      33.945  15.573  25.077  1.00  0.00    -0.469 OA
ATOM     22  C   UNL A   1      32.743  14.869  25.391  1.00  0.00     0.282 C 
ENDBRANCH  19  21
ENDBRANCH  18  19
ENDBRANCH  17  18
ENDBRANCH  15  17
ENDBRANCH  12  15
ENDBRANCH  10  11
ENDBRANCH   6  10
ENDBRANCH   3   5
ENDBRANCH   2   3
ENDBRANCH   1   2
BRANCH   1  23
ATOM     23  C   UNL A   1      44.560  19.311  24.664  1.00  0.00     0.202 C 
BRANCH  23  24
ATOM     24  O   UNL A   1      44.499  20.685  24.278  1.00  0.00    -0.374 OA
BRANCH  24  25
ATOM     25  C   UNL A   1      45.625  21.489  24.639  1.00  0.00     0.202 C 
BRANCH  25  26
ATOM     26  C   UNL A   1      45.491  22.965  24.251  1.00  0.00     0.261 C 
BRANCH  26  27
ATOM     27  O   UNL A   1      45.084  23.748  25.388  1.00  0.00    -0.460 OA
BRANCH  27  28
ATOM     28  C   UNL A   1      43.762  24.032  25.450  1.00  0.00     0.338 C 
ATOM     29  O   UNL A   1      42.869  23.555  24.771  1.00  0.00    -0.246 OA
BRANCH  28  30
ATOM     30  C   UNL A   1      43.502  24.906  26.612  1.00  0.00     0.060 A 
ATOM     31  C   UNL A   1      42.689  24.394  27.631  1.00  0.00     0.016 A 
ATOM     32  C   UNL A   1      44.008  26.206  26.696  1.00  0.00     0.016 A 
ATOM     33  C   UNL A   1      42.347  25.194  28.720  1.00  0.00     0.010 A 
ATOM     34  C   UNL A   1      43.658  27.011  27.786  1.00  0.00     0.010 A 
ATOM     35  C   UNL A   1      42.804  26.517  28.787  1.00  0.00    -0.014 A 
BRANCH  35  36
ATOM     36  C   UNL A   1      42.284  27.416  29.844  1.00  0.00     0.031 A 
ATOM     37  C   UNL A   1      42.965  27.445  31.183  1.00  0.00     0.074 A 
ATOM     38  C   UNL A   1      41.235  28.222  29.604  1.00  0.00     0.049 A 
ATOM     39  N   UNL A   1      42.675  28.150  32.246  1.00  0.00    -0.248 NA
ATOM     40  C   UNL A   1      44.128  26.559  31.344  1.00  0.00     0.031 C 
ATOM     41  C   UNL A   1      40.510  28.312  28.339  1.00  0.00     0.029 A 
ATOM     42  N   UNL A   1      40.596  29.117  30.425  1.00  0.00    -0.354 N 
ATOM     43  C   UNL A   1      43.618  27.795  33.202  1.00  0.00     0.074 A 
ATOM     44  C   UNL A   1      44.470  26.790  32.603  1.00  0.00     0.031 C 
ATOM     45  C   UNL A   1      39.519  29.211  28.468  1.00  0.00     0.029 A 
ATOM     46  C   UNL A   1      39.526  29.738  29.832  1.00  0.00     0.049 A 
ATOM     47  H   UNL A   1      40.878  29.296  31.351  1.00  0.00     0.167 HD
ATOM     48  C   UNL A   1      43.768  28.271  34.461  1.00  0.00     0.037 A 
ATOM     49  C   UNL A   1      38.644  30.623  30.337  1.00  0.00     0.037 A 
ATOM     50  C   UNL A   1      42.920  29.267  35.060  1.00  0.00     0.049 A 
ATOM     51  C   UNL A   1      38.783  31.078  31.764  1.00  0.00     0.074 A 
ATOM     52  C   UNL A   1      43.012  29.834  36.319  1.00  0.00     0.029 A 
ATOM     53  N   UNL A   1      41.817  29.837  34.443  1.00  0.00    -0.354 N 
ATOM     54  N   UNL A   1      39.698  30.762  32.648  1.00  0.00    -0.248 NA
ATOM     55  C   UNL A   1      37.765  32.013  32.263  1.00  0.00     0.031 C 
ATOM     56  C   UNL A   1      41.936  30.715  36.480  1.00  0.00     0.029 A 
ATOM     57  C   UNL A   1      41.200  30.727  35.307  1.00  0.00     0.049 A 
ATOM     58  H   UNL A   1      41.516  29.638  33.526  1.00  0.00     0.167 HD
ATOM     59  C   UNL A   1      39.379  31.472  33.798  1.00  0.00     0.074 A 
ATOM     60  C   UNL A   1      38.192  32.244  33.497  1.00  0.00     0.031 C 
ATOM     61  C   UNL A   1      40.015  31.485  34.995  1.00  0.00     0.037 A 
BRANCH  48  62
ATOM     62  C   UNL A   1      44.884  27.696  35.280  1.00  0.00     0.057 A 
ATOM     63  C   UNL A   1      46.180  28.224  35.235  1.00  0.00     0.134 A 
ATOM     64  C   UNL A   1      44.655  26.609  36.133  1.00  0.00     0.134 A 
ATOM     65  F   UNL A   1      46.468  29.254  34.426  1.00  0.00    -0.206 F 
ATOM     66  C   UNL A   1      47.217  27.675  35.993  1.00  0.00     0.040 A 
ATOM     67  C   UNL A   1      45.678  26.066  36.911  1.00  0.00     0.040 A 
ATOM     68  F   UNL A   1      43.435  26.060  36.224  1.00  0.00    -0.206 F 
ATOM     69  C   UNL A   1      46.966  26.595  36.838  1.00  0.00     0.006 A 
ENDBRANCH  48  62
BRANCH  49  70
ATOM     70  C   UNL A   1      37.541  31.132  29.487  1.00  0.00     0.057 A 
ATOM     71  C   UNL A   1      37.595  32.410  28.921  1.00  0.00     0.134 A 
ATOM     72  C   UNL A   1      36.406  30.355  29.226  1.00  0.00     0.134 A 
ATOM     73  F   UNL A   1      38.649  33.208  29.155  1.00  0.00    -0.206 F 
ATOM     74  C   UNL A   1      36.556  32.903  28.131  1.00  0.00     0.040 A 
ATOM     75  C   UNL A   1      35.368  30.828  28.421  1.00  0.00     0.040 A 
ATOM     76  F   UNL A   1      36.295  29.123  29.742  1.00  0.00    -0.206 F 
ATOM     77  C   UNL A   1      35.440  32.108  27.874  1.00  0.00     0.006 A 
ENDBRANCH  49  70
BRANCH  61  78
ATOM     78  C   UNL A   1      39.451  32.375  36.062  1.00  0.00     0.057 A 
ATOM     79  C   UNL A   1      39.905  33.688  36.241  1.00  0.00     0.134 A 
ATOM     80  C   UNL A   1      38.415  31.928  36.892  1.00  0.00     0.134 A 
ATOM     81  F   UNL A   1      40.903  34.170  35.486  1.00  0.00    -0.206 F 
ATOM     82  C   UNL A   1      39.359  34.521  37.220  1.00  0.00     0.040 A 
ATOM     83  C   UNL A   1      37.846  32.758  37.860  1.00  0.00     0.040 A 
ATOM     84  F   UNL A   1      37.930  30.684  36.767  1.00  0.00    -0.206 F 
ATOM     85  C   UNL A   1      38.321  34.057  38.028  1.00  0.00     0.006 A 
ENDBRANCH  61  78
ENDBRANCH  35  36
ENDBRANCH  28  30
ENDBRANCH  27  28
ENDBRANCH  26  27
ENDBRANCH  25  26
ENDBRANCH  24  25
ENDBRANCH  23  24
ENDBRANCH   1  23
TORSDOF 21
ENDMDL
MODEL 3
REMARK VINA RESULT:      -9.6      5.844     11.323
REMARK SMILES COC(=O)CCN(C)C(=O)NCc1ccc(C(=O)OCCOCCOC(=O)c2ccc(-c3c4nc(c(-c5c(F)cccc5F)c5ccc([nH]5)c(-c5c(F)cccc5F)c5nc(c(-c6c(F)cccc6F)c6ccc3[nH]6)C=C5)C=C4)cc2)o1
REMARK SMILES IDX 20 1 19 2 17 3 18 4 16 5 13 6 14 7 82 8 15 9 12 10 11 11
REMARK SMILES IDX 9 12 10 13 7 15 8 16 6 17 5 18 3 19 4 20 2 21 1 22 21 23
REMARK SMILES IDX 22 24 23 25 24 26 25 27 26 28 27 29 28 30 29 31 81 32 30 33
REMARK SMILES IDX 80 34 31 35 32 36 33 37 74 38 34 39 79 40 73 41 75 42 35 43
REMARK SMILES IDX 78 44 72 45 71 46 36 48 62 49 45 50 61 51 46 52 49 53 60 54
REMARK SMILES IDX 76 55 47 56 48 57 59 59 77 60 50 61 37 62 38 63 43 64 39 65
REMARK SMILES IDX 40 66 42 67 44 68 41 69 63 70 64 71 69 72 65 73 66 74 68 75
REMARK SMILES IDX 70 76 67 77 51 78 52 79 57 80 53 81 54 82 56 83 58 84 55 85
REMARK H PARENT 11 14 75 47 49 58
REMARK Flexibility Score: inf
ROOT
ATOM      1  C   UNL A   1      43.397  18.825  25.376  1.00  0.00     0.261 C 
ENDROOT
BRANCH   1   2
ATOM      2  O   UNL A   1      42.447  19.903  25.438  1.00  0.00    -0.457 OA
BRANCH   2   3
ATOM      3  C   UNL A   1      41.723  19.993  26.591  1.00  0.00     0.374 C 
ATOM      4  O   UNL A   1      41.987  19.409  27.634  1.00  0.00    -0.242 OA
BRANCH   3   5
ATOM      5  C   UNL A   1      40.684  20.979  26.413  1.00  0.00     0.211 A 
ATOM      6  C   UNL A   1      38.668  21.626  25.801  1.00  0.00     0.124 A 
ATOM      7  C   UNL A   1      39.221  22.681  26.499  1.00  0.00     0.048 A 
ATOM      8  O   UNL A   1      39.568  20.609  25.712  1.00  0.00    -0.452 OA
ATOM      9  C   UNL A   1      40.509  22.261  26.905  1.00  0.00     0.058 A 
BRANCH   6  10
ATOM     10  C   UNL A   1      37.332  21.362  25.209  1.00  0.00     0.193 C 
BRANCH  10  11
ATOM     11  N   UNL A   1      36.323  21.838  26.126  1.00  0.00    -0.331 N 
ATOM     12  C   UNL A   1      34.986  21.880  26.166  1.00  0.00     0.317 C 
ATOM     13  O   UNL A   1      34.520  22.524  27.111  1.00  0.00    -0.249 OA
ATOM     14  H   UNL A   1      36.724  22.239  26.931  1.00  0.00     0.165 HD
BRANCH  12  15
ATOM     15  N   UNL A   1      34.182  21.225  25.276  1.00  0.00    -0.327 N 
ATOM     16  C   UNL A   1      34.330  19.859  24.804  1.00  0.00     0.148 C 
BRANCH  15  17
ATOM     17  C   UNL A   1      32.961  21.927  24.848  1.00  0.00     0.132 C 
BRANCH  17  18
ATOM     18  C   UNL A   1      32.938  22.208  23.348  1.00  0.00     0.144 C 
BRANCH  18  19
ATOM     19  C   UNL A   1      33.784  23.409  23.013  1.00  0.00     0.307 C 
ATOM     20  O   UNL A   1      34.981  23.348  22.762  1.00  0.00    -0.252 OA
BRANCH  19  21
ATOM     21  O   UNL A   1      33.037  24.546  23.049  1.00  0.00    -0.469 OA
ATOM     22  C   UNL A   1      32.905  25.203  21.788  1.00  0.00     0.282 C 
ENDBRANCH  19  21
ENDBRANCH  18  19
ENDBRANCH  17  18
ENDBRANCH  15  17
ENDBRANCH  12  15
ENDBRANCH  10  11
ENDBRANCH   6  10
ENDBRANCH   3   5
ENDBRANCH   2   3
ENDBRANCH   1   2
BRANCH   1  23
ATOM     23  C   UNL A   1      44.652  19.293  24.632  1.00  0.00     0.202 C 
BRANCH  23  24
ATOM     24  O   UNL A   1      44.619  20.676  24.274  1.00  0.00    -0.374 OA
BRANCH  24  25
ATOM     25  C   UNL A   1      45.762  21.448  24.649  1.00  0.00     0.202 C 
BRANCH  25  26
ATOM     26  C   UNL A   1      45.589  22.958  24.454  1.00  0.00     0.261 C 
BRANCH  26  27
ATOM     27  O   UNL A   1      45.031  23.556  25.638  1.00  0.00    -0.460 OA
BRANCH  27  28
ATOM     28  C   UNL A   1      43.814  24.125  25.478  1.00  0.00     0.338 C 
ATOM     29  O   UNL A   1      42.989  23.882  24.615  1.00  0.00    -0.246 OA
BRANCH  28  30
ATOM     30  C   UNL A   1      43.524  24.998  26.635  1.00  0.00     0.060 A 
ATOM     31  C   UNL A   1      42.776  24.447  27.683  1.00  0.00     0.016 A 
ATOM     32  C   UNL A   1      43.941  26.330  26.688  1.00  0.00     0.016 A 
ATOM     33  C   UNL A   1      42.408  25.238  28.770  1.00  0.00     0.010 A 
ATOM     34  C   UNL A   1      43.565  27.126  27.775  1.00  0.00     0.010 A 
ATOM     35  C   UNL A   1      42.773  26.590  28.806  1.00  0.00    -0.014 A 
BRANCH  35  36
ATOM     36  C   UNL A   1      42.220  27.468  29.865  1.00  0.00     0.031 A 
ATOM     37  C   UNL A   1      42.883  27.498  31.213  1.00  0.00     0.074 A 
ATOM     38  C   UNL A   1      41.157  28.253  29.618  1.00  0.00     0.049 A 
ATOM     39  N   UNL A   1      42.564  28.187  32.278  1.00  0.00    -0.248 NA
ATOM     40  C   UNL A   1      44.063  26.636  31.381  1.00  0.00     0.031 C 
ATOM     41  C   UNL A   1      40.448  28.340  28.344  1.00  0.00     0.029 A 
ATOM     42  N   UNL A   1      40.489  29.126  30.438  1.00  0.00    -0.354 N 
ATOM     43  C   UNL A   1      43.502  27.843  33.243  1.00  0.00     0.074 A 
ATOM     44  C   UNL A   1      44.383  26.862  32.647  1.00  0.00     0.031 C 
ATOM     45  C   UNL A   1      39.436  29.217  28.468  1.00  0.00     0.029 A 
ATOM     46  C   UNL A   1      39.414  29.731  29.837  1.00  0.00     0.049 A 
ATOM     47  H   UNL A   1      40.755  29.303  31.370  1.00  0.00     0.167 HD
ATOM     48  C   UNL A   1      43.625  28.310  34.508  1.00  0.00     0.037 A 
ATOM     49  C   UNL A   1      38.507  30.591  30.338  1.00  0.00     0.037 A 
ATOM     50  C   UNL A   1      42.748  29.282  35.105  1.00  0.00     0.049 A 
ATOM     51  C   UNL A   1      38.617  31.036  31.771  1.00  0.00     0.074 A 
ATOM     52  C   UNL A   1      42.810  29.838  36.371  1.00  0.00     0.029 A 
ATOM     53  N   UNL A   1      41.641  29.833  34.480  1.00  0.00    -0.354 N 
ATOM     54  N   UNL A   1      39.526  30.731  32.664  1.00  0.00    -0.248 NA
ATOM     55  C   UNL A   1      37.572  31.944  32.265  1.00  0.00     0.031 C 
ATOM     56  C   UNL A   1      41.714  30.695  36.526  1.00  0.00     0.029 A 
ATOM     57  C   UNL A   1      40.993  30.702  35.343  1.00  0.00     0.049 A 
ATOM     58  H   UNL A   1      41.356  29.637  33.557  1.00  0.00     0.167 HD
ATOM     59  C   UNL A   1      39.177  31.423  33.817  1.00  0.00     0.074 A 
ATOM     60  C   UNL A   1      37.977  32.172  33.507  1.00  0.00     0.031 C 
ATOM     61  C   UNL A   1      39.797  31.438  35.023  1.00  0.00     0.037 A 
BRANCH  48  62
ATOM     62  C   UNL A   1      44.741  27.750  35.338  1.00  0.00     0.057 A 
ATOM     63  C   UNL A   1      44.573  26.603  36.123  1.00  0.00     0.134 A 
ATOM     64  C   UNL A   1      46.001  28.360  35.341  1.00  0.00     0.134 A 
ATOM     65  F   UNL A   1      43.385  25.982  36.176  1.00  0.00    -0.206 F 
ATOM     66  C   UNL A   1      45.614  26.095  36.902  1.00  0.00     0.040 A 
ATOM     67  C   UNL A   1      47.056  27.849  36.099  1.00  0.00     0.040 A 
ATOM     68  F   UNL A   1      46.228  29.460  34.608  1.00  0.00    -0.206 F 
ATOM     69  C   UNL A   1      46.862  26.716  36.888  1.00  0.00     0.006 A 
ENDBRANCH  48  62
BRANCH  49  70
ATOM     70  C   UNL A   1      37.404  31.085  29.478  1.00  0.00     0.057 A 
ATOM     71  C   UNL A   1      36.286  30.290  29.207  1.00  0.00     0.134 A 
ATOM     72  C   UNL A   1      37.447  32.361  28.903  1.00  0.00     0.134 A 
ATOM     73  F   UNL A   1      36.202  29.050  29.712  1.00  0.00    -0.206 F 
ATOM     74  C   UNL A   1      35.250  30.741  28.388  1.00  0.00     0.040 A 
ATOM     75  C   UNL A   1      36.408  32.833  28.098  1.00  0.00     0.040 A 
ATOM     76  F   UNL A   1      38.493  33.170  29.124  1.00  0.00    -0.206 F 
ATOM     77  C   UNL A   1      35.308  32.020  27.835  1.00  0.00     0.006 A 
ENDBRANCH  49  70
BRANCH  61  78
ATOM     78  C   UNL A   1      39.200  32.305  36.090  1.00  0.00     0.057 A 
ATOM     79  C   UNL A   1      38.236  31.818  36.980  1.00  0.00     0.134 A 
ATOM     80  C   UNL A   1      39.624  33.630  36.255  1.00  0.00     0.134 A 
ATOM     81  F   UNL A   1      37.779  30.562  36.867  1.00  0.00    -0.206 F 
ATOM     82  C   UNL A   1      37.701  32.623  37.988  1.00  0.00     0.040 A 
ATOM     83  C   UNL A   1      39.113  34.438  37.272  1.00  0.00     0.040 A 
ATOM     84  F   UNL A   1      40.551  34.155  35.439  1.00  0.00    -0.206 F 
ATOM     85  C   UNL A   1      38.146  33.936  38.139  1.00  0.00     0.006 A 
ENDBRANCH  61  78
ENDBRANCH  35  36
ENDBRANCH  28  30
ENDBRANCH  27  28
ENDBRANCH  26  27
ENDBRANCH  25  26
ENDBRANCH  24  25
ENDBRANCH  23  24
ENDBRANCH   1  23
TORSDOF 21
ENDMDL
