MODEL 1
REMARK VINA RESULT:     -10.9      0.000      0.000
REMARK SMILES Cc1cccc([C@@H](CC(=O)OCCOCCOC(=O)c2ccc(-c3c4nc(c(-c5c(F)cccc5F)c5ccc([nH]5)c(-c5c(F)cccc5F)c5nc(c(-c6c(F)cccc6F)c6ccc3[nH]6)C=C5)C=C4)cc2)NC(=O)OC(C)(C)C)c1
REMARK SMILES IDX 13 1 12 2 11 3 9 4 10 5 8 6 7 7 6 8 1 9 2 10 3 11 82 12 4 13
REMARK SMILES IDX 5 14 74 15 75 16 76 18 77 19 78 20 79 21 80 22 81 23 14 24
REMARK SMILES IDX 15 25 16 26 17 27 18 28 19 29 20 30 21 31 73 32 22 33 72 34
REMARK SMILES IDX 23 35 24 36 25 37 66 38 26 39 71 40 65 41 67 42 27 43 70 44
REMARK SMILES IDX 64 45 63 46 28 48 54 49 37 50 53 51 38 52 41 53 52 54 68 55
REMARK SMILES IDX 39 56 40 57 51 59 69 60 42 61 29 62 30 63 35 64 31 65 32 66
REMARK SMILES IDX 34 67 36 68 33 69 55 70 56 71 61 72 57 73 58 74 60 75 62 76
REMARK SMILES IDX 59 77 43 78 44 79 49 80 45 81 46 82 48 83 50 84 47 85
REMARK H PARENT 74 17 67 47 41 58
REMARK Flexibility Score: inf
ROOT
ATOM      1  C   UNL A   1      38.912  21.604  25.941  1.00  0.00     0.202 C 
ENDROOT
BRANCH   1   2
ATOM      2  C   UNL A   1      37.776  21.486  25.002  1.00  0.00     0.261 C 
BRANCH   2   3
ATOM      3  O   UNL A   1      36.576  21.351  25.718  1.00  0.00    -0.463 OA
BRANCH   3   4
ATOM      4  C   UNL A   1      35.722  22.378  25.573  1.00  0.00     0.308 C 
ATOM      5  O   UNL A   1      35.698  23.172  24.646  1.00  0.00    -0.252 OA
BRANCH   4   6
ATOM      6  C   UNL A   1      34.772  22.358  26.717  1.00  0.00     0.152 C 
BRANCH   6   7
ATOM      7  C   UNL A   1      33.485  21.556  26.430  1.00  0.00     0.127 C 
BRANCH   7   8
ATOM      8  C   UNL A   1      33.258  20.945  25.032  1.00  0.00    -0.025 A 
ATOM      9  C   UNL A   1      33.293  16.639  24.030  1.00  0.00     0.044 C 
ATOM     10  C   UNL A   1      33.078  18.098  23.775  1.00  0.00    -0.051 A 
ATOM     11  C   UNL A   1      32.391  18.608  22.254  1.00  0.00     0.003 A 
ATOM     12  C   UNL A   1      33.492  19.199  25.089  1.00  0.00     0.009 A 
ATOM     13  C   UNL A   1      32.071  20.349  22.008  1.00  0.00     0.001 A 
ATOM     14  C   UNL A   1      32.527  21.643  23.512  1.00  0.00     0.006 A 
ENDBRANCH   7   8
BRANCH   7  15
ATOM     15  N   UNL A   1      32.250  22.130  26.928  1.00  0.00    -0.314 N 
ATOM     16  C   UNL A   1      31.811  23.419  26.879  1.00  0.00     0.408 C 
ATOM     17  H   UNL A   1      31.640  21.495  27.368  1.00  0.00     0.167 HD
ATOM     18  O   UNL A   1      30.677  23.692  27.250  1.00  0.00    -0.225 OA
BRANCH  16  19
ATOM     19  O   UNL A   1      32.753  24.303  26.483  1.00  0.00    -0.444 OA
BRANCH  19  20
ATOM     20  C   UNL A   1      32.367  25.452  25.676  1.00  0.00     0.106 C 
ATOM     21  C   UNL A   1      31.616  25.020  24.413  1.00  0.00     0.056 C 
ATOM     22  C   UNL A   1      31.562  26.485  26.483  1.00  0.00     0.056 C 
ATOM     23  C   UNL A   1      33.693  26.111  25.265  1.00  0.00     0.056 C 
ENDBRANCH  19  20
ENDBRANCH  16  19
ENDBRANCH   7  15
ENDBRANCH   6   7
ENDBRANCH   4   6
ENDBRANCH   3   4
ENDBRANCH   2   3
ENDBRANCH   1   2
BRANCH   1  24
ATOM     24  O   UNL A   1      39.650  20.417  25.818  1.00  0.00    -0.374 OA
BRANCH  24  25
ATOM     25  C   UNL A   1      40.759  20.430  26.697  1.00  0.00     0.202 C 
BRANCH  25  26
ATOM     26  C   UNL A   1      41.940  21.239  26.125  1.00  0.00     0.261 C 
BRANCH  26  27
ATOM     27  O   UNL A   1      42.014  22.533  26.785  1.00  0.00    -0.460 OA
BRANCH  27  28
ATOM     28  C   UNL A   1      42.146  23.647  25.998  1.00  0.00     0.338 C 
ATOM     29  O   UNL A   1      43.124  23.919  25.320  1.00  0.00    -0.246 OA
BRANCH  28  30
ATOM     30  C   UNL A   1      41.104  24.674  26.373  1.00  0.00     0.060 A 
ATOM     31  C   UNL A   1      41.136  25.964  25.800  1.00  0.00     0.016 A 
ATOM     32  C   UNL A   1      40.478  24.509  27.593  1.00  0.00     0.016 A 
ATOM     33  C   UNL A   1      40.778  27.109  26.555  1.00  0.00     0.010 A 
ATOM     34  C   UNL A   1      40.283  25.640  28.363  1.00  0.00     0.010 A 
ATOM     35  C   UNL A   1      40.456  26.960  27.900  1.00  0.00    -0.014 A 
BRANCH  35  36
ATOM     36  C   UNL A   1      40.484  28.011  28.964  1.00  0.00     0.031 A 
ATOM     37  C   UNL A   1      39.430  29.045  28.879  1.00  0.00     0.074 A 
ATOM     38  C   UNL A   1      41.288  28.012  30.072  1.00  0.00     0.049 A 
ATOM     39  N   UNL A   1      39.685  30.310  28.924  1.00  0.00    -0.248 NA
ATOM     40  C   UNL A   1      38.011  28.767  28.630  1.00  0.00     0.031 C 
ATOM     41  C   UNL A   1      41.105  28.706  31.351  1.00  0.00     0.029 A 
ATOM     42  N   UNL A   1      42.430  27.265  30.330  1.00  0.00    -0.354 N 
ATOM     43  C   UNL A   1      38.463  30.910  29.123  1.00  0.00     0.074 A 
ATOM     44  C   UNL A   1      37.483  29.986  28.629  1.00  0.00     0.031 C 
ATOM     45  C   UNL A   1      42.173  28.513  32.157  1.00  0.00     0.029 A 
ATOM     46  C   UNL A   1      43.138  27.677  31.464  1.00  0.00     0.049 A 
ATOM     47  H   UNL A   1      42.716  26.511  29.766  1.00  0.00     0.167 HD
ATOM     48  C   UNL A   1      38.304  31.882  30.065  1.00  0.00     0.037 A 
ATOM     49  C   UNL A   1      44.490  27.785  31.376  1.00  0.00     0.037 A 
ATOM     50  C   UNL A   1      39.520  32.013  30.884  1.00  0.00     0.049 A 
ATOM     51  C   UNL A   1      44.707  29.270  31.025  1.00  0.00     0.074 A 
ATOM     52  C   UNL A   1      39.814  31.755  32.215  1.00  0.00     0.029 A 
ATOM     53  N   UNL A   1      40.765  32.138  30.261  1.00  0.00    -0.354 N 
ATOM     54  N   UNL A   1      43.700  30.087  30.814  1.00  0.00    -0.248 NA
ATOM     55  C   UNL A   1      45.966  30.008  31.043  1.00  0.00     0.031 C 
ATOM     56  C   UNL A   1      41.227  31.814  32.392  1.00  0.00     0.029 A 
ATOM     57  C   UNL A   1      41.809  32.069  31.161  1.00  0.00     0.049 A 
ATOM     58  H   UNL A   1      40.883  32.262  29.291  1.00  0.00     0.167 HD
ATOM     59  C   UNL A   1      44.093  31.392  30.795  1.00  0.00     0.074 A 
ATOM     60  C   UNL A   1      45.540  31.284  30.904  1.00  0.00     0.031 C 
ATOM     61  C   UNL A   1      43.173  32.410  30.738  1.00  0.00     0.037 A 
BRANCH  48  62
ATOM     62  C   UNL A   1      36.926  32.421  30.424  1.00  0.00     0.057 A 
ATOM     63  C   UNL A   1      36.272  33.389  29.645  1.00  0.00     0.134 A 
ATOM     64  C   UNL A   1      36.164  31.970  31.528  1.00  0.00     0.134 A 
ATOM     65  F   UNL A   1      36.794  33.844  28.499  1.00  0.00    -0.206 F 
ATOM     66  C   UNL A   1      35.020  33.925  29.979  1.00  0.00     0.040 A 
ATOM     67  C   UNL A   1      34.941  32.543  31.912  1.00  0.00     0.040 A 
ATOM     68  F   UNL A   1      36.545  30.911  32.258  1.00  0.00    -0.206 F 
ATOM     69  C   UNL A   1      34.361  33.526  31.132  1.00  0.00     0.006 A 
ENDBRANCH  48  62
BRANCH  49  70
ATOM     70  C   UNL A   1      45.071  26.465  30.819  1.00  0.00     0.057 A 
ATOM     71  C   UNL A   1      44.528  24.885  31.535  1.00  0.00     0.134 A 
ATOM     72  C   UNL A   1      45.488  26.429  29.105  1.00  0.00     0.134 A 
ATOM     73  F   UNL A   1      44.161  25.035  32.835  1.00  0.00    -0.206 F 
ATOM     74  C   UNL A   1      44.406  23.240  30.332  1.00  0.00     0.040 A 
ATOM     75  C   UNL A   1      45.363  25.013  28.039  1.00  0.00     0.040 A 
ATOM     76  F   UNL A   1      45.965  27.554  28.552  1.00  0.00    -0.206 F 
ATOM     77  C   UNL A   1      44.833  23.431  28.590  1.00  0.00     0.006 A 
ENDBRANCH  49  70
BRANCH  61  78
ATOM     78  C   UNL A   1      43.407  33.868  30.362  1.00  0.00     0.057 A 
ATOM     79  C   UNL A   1      43.472  34.357  29.055  1.00  0.00     0.134 A 
ATOM     80  C   UNL A   1      43.418  34.886  31.358  1.00  0.00     0.134 A 
ATOM     81  F   UNL A   1      43.401  33.556  27.989  1.00  0.00    -0.206 F 
ATOM     82  C   UNL A   1      43.564  35.727  28.763  1.00  0.00     0.040 A 
ATOM     83  C   UNL A   1      43.421  36.252  31.077  1.00  0.00     0.040 A 
ATOM     84  F   UNL A   1      43.412  34.624  32.673  1.00  0.00    -0.206 F 
ATOM     85  C   UNL A   1      43.510  36.680  29.770  1.00  0.00     0.006 A 
ENDBRANCH  61  78
ENDBRANCH  35  36
ENDBRANCH  28  30
ENDBRANCH  27  28
ENDBRANCH  26  27
ENDBRANCH  25  26
ENDBRANCH  24  25
ENDBRANCH   1  24
TORSDOF 19
ENDMDL
MODEL 2
REMARK VINA RESULT:     -10.6      3.962      8.742
REMARK SMILES Cc1cccc([C@@H](CC(=O)OCCOCCOC(=O)c2ccc(-c3c4nc(c(-c5c(F)cccc5F)c5ccc([nH]5)c(-c5c(F)cccc5F)c5nc(c(-c6c(F)cccc6F)c6ccc3[nH]6)C=C5)C=C4)cc2)NC(=O)OC(C)(C)C)c1
REMARK SMILES IDX 13 1 12 2 11 3 9 4 10 5 8 6 7 7 6 8 1 9 2 10 3 11 82 12 4 13
REMARK SMILES IDX 5 14 74 15 75 16 76 18 77 19 78 20 79 21 80 22 81 23 14 24
REMARK SMILES IDX 15 25 16 26 17 27 18 28 19 29 20 30 21 31 73 32 22 33 72 34
REMARK SMILES IDX 23 35 24 36 25 37 66 38 26 39 71 40 65 41 67 42 27 43 70 44
REMARK SMILES IDX 64 45 63 46 28 48 54 49 37 50 53 51 38 52 41 53 52 54 68 55
REMARK SMILES IDX 39 56 40 57 51 59 69 60 42 61 29 62 30 63 35 64 31 65 32 66
REMARK SMILES IDX 34 67 36 68 33 69 55 70 56 71 61 72 57 73 58 74 60 75 62 76
REMARK SMILES IDX 59 77 43 78 44 79 49 80 45 81 46 82 48 83 50 84 47 85
REMARK H PARENT 74 17 67 47 41 58
REMARK Flexibility Score: inf
ROOT
ATOM      1  C   UNL A   1      34.000  30.900  27.717  1.00  0.00     0.202 C 
ENDROOT
BRANCH   1   2
ATOM      2  C   UNL A   1      33.941  29.720  26.828  1.00  0.00     0.261 C 
BRANCH   2   3
ATOM      3  O   UNL A   1      33.263  28.671  27.471  1.00  0.00    -0.463 OA
BRANCH   3   4
ATOM      4  C   UNL A   1      31.949  28.605  27.195  1.00  0.00     0.308 C 
ATOM      5  O   UNL A   1      31.065  28.268  27.966  1.00  0.00    -0.252 OA
BRANCH   4   6
ATOM      6  C   UNL A   1      31.746  29.060  25.793  1.00  0.00     0.152 C 
BRANCH   6   7
ATOM      7  C   UNL A   1      31.018  28.022  24.913  1.00  0.00     0.127 C 
BRANCH   7   8
ATOM      8  C   UNL A   1      31.207  26.516  25.187  1.00  0.00    -0.025 A 
ATOM      9  C   UNL A   1      35.060  24.350  25.320  1.00  0.00     0.044 C 
ATOM     10  C   UNL A   1      33.582  24.519  25.489  1.00  0.00    -0.051 A 
ATOM     11  C   UNL A   1      32.647  23.221  26.185  1.00  0.00     0.003 A 
ATOM     12  C   UNL A   1      32.905  26.077  25.013  1.00  0.00     0.009 A 
ATOM     13  C   UNL A   1      30.898  23.480  26.449  1.00  0.00     0.001 A 
ATOM     14  C   UNL A   1      30.091  25.272  25.921  1.00  0.00     0.006 A 
ENDBRANCH   7   8
BRANCH   7  15
ATOM     15  N   UNL A   1      31.034  28.273  23.485  1.00  0.00    -0.314 N 
ATOM     16  C   UNL A   1      30.383  29.229  22.766  1.00  0.00     0.408 C 
ATOM     17  H   UNL A   1      31.597  27.662  22.958  1.00  0.00     0.167 HD
ATOM     18  O   UNL A   1      30.616  29.360  21.571  1.00  0.00    -0.225 OA
BRANCH  16  19
ATOM     19  O   UNL A   1      29.447  29.902  23.472  1.00  0.00    -0.444 OA
BRANCH  19  20
ATOM     20  C   UNL A   1      28.107  30.059  22.923  1.00  0.00     0.106 C 
ATOM     21  C   UNL A   1      28.153  30.485  21.452  1.00  0.00     0.056 C 
ATOM     22  C   UNL A   1      27.249  28.798  23.117  1.00  0.00     0.056 C 
ATOM     23  C   UNL A   1      27.471  31.189  23.748  1.00  0.00     0.056 C 
ENDBRANCH  19  20
ENDBRANCH  16  19
ENDBRANCH   7  15
ENDBRANCH   6   7
ENDBRANCH   4   6
ENDBRANCH   3   4
ENDBRANCH   2   3
ENDBRANCH   1   2
BRANCH   1  24
ATOM     24  O   UNL A   1      35.360  31.199  27.884  1.00  0.00    -0.374 OA
BRANCH  24  25
ATOM     25  C   UNL A   1      35.574  31.862  29.116  1.00  0.00     0.202 C 
BRANCH  25  26
ATOM     26  C   UNL A   1      34.420  32.823  29.462  1.00  0.00     0.261 C 
BRANCH  26  27
ATOM     27  O   UNL A   1      34.789  33.644  30.604  1.00  0.00    -0.460 OA
BRANCH  27  28
ATOM     28  C   UNL A   1      34.723  33.076  31.850  1.00  0.00     0.338 C 
ATOM     29  O   UNL A   1      33.696  32.874  32.478  1.00  0.00    -0.246 OA
BRANCH  28  30
ATOM     30  C   UNL A   1      36.087  33.089  32.498  1.00  0.00     0.060 A 
ATOM     31  C   UNL A   1      37.111  33.918  31.987  1.00  0.00     0.016 A 
ATOM     32  C   UNL A   1      36.445  31.967  33.219  1.00  0.00     0.016 A 
ATOM     33  C   UNL A   1      38.462  33.491  31.979  1.00  0.00     0.010 A 
ATOM     34  C   UNL A   1      37.735  31.499  33.063  1.00  0.00     0.010 A 
ATOM     35  C   UNL A   1      38.769  32.207  32.419  1.00  0.00    -0.014 A 
BRANCH  35  36
ATOM     36  C   UNL A   1      39.991  31.405  32.100  1.00  0.00     0.031 A 
ATOM     37  C   UNL A   1      39.822  30.347  31.080  1.00  0.00     0.074 A 
ATOM     38  C   UNL A   1      41.260  31.660  32.548  1.00  0.00     0.049 A 
ATOM     39  N   UNL A   1      40.203  29.128  31.267  1.00  0.00    -0.248 NA
ATOM     40  C   UNL A   1      39.118  30.527  29.805  1.00  0.00     0.031 C 
ATOM     41  C   UNL A   1      42.546  31.246  31.977  1.00  0.00     0.029 A 
ATOM     42  N   UNL A   1      41.676  32.476  33.592  1.00  0.00    -0.354 N 
ATOM     43  C   UNL A   1      40.159  28.549  30.018  1.00  0.00     0.074 A 
ATOM     44  C   UNL A   1      39.220  29.321  29.257  1.00  0.00     0.031 C 
ATOM     45  C   UNL A   1      43.568  31.634  32.772  1.00  0.00     0.029 A 
ATOM     46  C   UNL A   1      43.026  32.331  33.926  1.00  0.00     0.049 A 
ATOM     47  H   UNL A   1      41.074  33.102  34.056  1.00  0.00     0.167 HD
ATOM     48  C   UNL A   1      41.196  27.794  29.559  1.00  0.00     0.037 A 
ATOM     49  C   UNL A   1      43.360  32.245  35.240  1.00  0.00     0.037 A 
ATOM     50  C   UNL A   1      42.342  27.872  30.480  1.00  0.00     0.049 A 
ATOM     51  C   UNL A   1      43.407  30.726  35.497  1.00  0.00     0.074 A 
ATOM     52  C   UNL A   1      43.616  28.413  30.384  1.00  0.00     0.029 A 
ATOM     53  N   UNL A   1      42.148  27.653  31.847  1.00  0.00    -0.354 N 
ATOM     54  N   UNL A   1      43.088  29.855  34.566  1.00  0.00    -0.248 NA
ATOM     55  C   UNL A   1      43.944  30.044  36.670  1.00  0.00     0.031 C 
ATOM     56  C   UNL A   1      44.204  28.432  31.683  1.00  0.00     0.029 A 
ATOM     57  C   UNL A   1      43.277  27.939  32.587  1.00  0.00     0.049 A 
ATOM     58  H   UNL A   1      41.303  27.331  32.236  1.00  0.00     0.167 HD
ATOM     59  C   UNL A   1      43.458  28.587  34.902  1.00  0.00     0.074 A 
ATOM     60  C   UNL A   1      43.958  28.755  36.257  1.00  0.00     0.031 C 
ATOM     61  C   UNL A   1      43.351  27.555  34.001  1.00  0.00     0.037 A 
BRANCH  48  62
ATOM     62  C   UNL A   1      41.243  27.304  28.118  1.00  0.00     0.057 A 
ATOM     63  C   UNL A   1      40.660  26.092  27.718  1.00  0.00     0.134 A 
ATOM     64  C   UNL A   1      41.824  28.036  27.054  1.00  0.00     0.134 A 
ATOM     65  F   UNL A   1      39.966  25.327  28.568  1.00  0.00    -0.206 F 
ATOM     66  C   UNL A   1      40.727  25.606  26.403  1.00  0.00     0.040 A 
ATOM     67  C   UNL A   1      41.956  27.534  25.750  1.00  0.00     0.040 A 
ATOM     68  F   UNL A   1      42.245  29.299  27.217  1.00  0.00    -0.206 F 
ATOM     69  C   UNL A   1      41.401  26.311  25.418  1.00  0.00     0.006 A 
ENDBRANCH  48  62
BRANCH  49  70
ATOM     70  C   UNL A   1      42.732  33.433  36.005  1.00  0.00     0.057 A 
ATOM     71  C   UNL A   1      43.097  35.129  35.461  1.00  0.00     0.134 A 
ATOM     72  C   UNL A   1      41.138  33.181  36.717  1.00  0.00     0.134 A 
ATOM     73  F   UNL A   1      44.314  35.202  34.860  1.00  0.00    -0.206 F 
ATOM     74  C   UNL A   1      41.663  36.568  35.671  1.00  0.00     0.040 A 
ATOM     75  C   UNL A   1      39.871  34.415  36.884  1.00  0.00     0.040 A 
ATOM     76  F   UNL A   1      40.854  31.962  37.201  1.00  0.00    -0.206 F 
ATOM     77  C   UNL A   1      40.078  36.086  36.382  1.00  0.00     0.006 A 
ENDBRANCH  49  70
BRANCH  61  78
ATOM     78  C   UNL A   1      43.373  26.058  34.283  1.00  0.00     0.057 A 
ATOM     79  C   UNL A   1      44.451  25.209  34.023  1.00  0.00     0.134 A 
ATOM     80  C   UNL A   1      42.312  25.435  35.003  1.00  0.00     0.134 A 
ATOM     81  F   UNL A   1      45.565  25.635  33.424  1.00  0.00    -0.206 F 
ATOM     82  C   UNL A   1      44.467  23.862  34.418  1.00  0.00     0.040 A 
ATOM     83  C   UNL A   1      42.355  24.124  35.476  1.00  0.00     0.040 A 
ATOM     84  F   UNL A   1      41.167  26.063  35.309  1.00  0.00    -0.206 F 
ATOM     85  C   UNL A   1      43.433  23.322  35.169  1.00  0.00     0.006 A 
ENDBRANCH  61  78
ENDBRANCH  35  36
ENDBRANCH  28  30
ENDBRANCH  27  28
ENDBRANCH  26  27
ENDBRANCH  25  26
ENDBRANCH  24  25
ENDBRANCH   1  24
TORSDOF 19
ENDMDL
MODEL 3
REMARK VINA RESULT:     -10.6      2.948      4.931
REMARK SMILES Cc1cccc([C@@H](CC(=O)OCCOCCOC(=O)c2ccc(-c3c4nc(c(-c5c(F)cccc5F)c5ccc([nH]5)c(-c5c(F)cccc5F)c5nc(c(-c6c(F)cccc6F)c6ccc3[nH]6)C=C5)C=C4)cc2)NC(=O)OC(C)(C)C)c1
REMARK SMILES IDX 13 1 12 2 11 3 9 4 10 5 8 6 7 7 6 8 1 9 2 10 3 11 82 12 4 13
REMARK SMILES IDX 5 14 74 15 75 16 76 18 77 19 78 20 79 21 80 22 81 23 14 24
REMARK SMILES IDX 15 25 16 26 17 27 18 28 19 29 20 30 21 31 73 32 22 33 72 34
REMARK SMILES IDX 23 35 24 36 25 37 66 38 26 39 71 40 65 41 67 42 27 43 70 44
REMARK SMILES IDX 64 45 63 46 28 48 54 49 37 50 53 51 38 52 41 53 52 54 68 55
REMARK SMILES IDX 39 56 40 57 51 59 69 60 42 61 29 62 30 63 35 64 31 65 32 66
REMARK SMILES IDX 34 67 36 68 33 69 55 70 56 71 61 72 57 73 58 74 60 75 62 76
REMARK SMILES IDX 59 77 43 78 44 79 49 80 45 81 46 82 48 83 50 84 47 85
REMARK H PARENT 74 17 67 47 41 58
REMARK Flexibility Score: inf
ROOT
ATOM      1  C   UNL A   1      38.709  20.414  25.421  1.00  0.00     0.202 C 
ENDROOT
BRANCH   1   2
ATOM      2  C   UNL A   1      37.457  21.189  25.561  1.00  0.00     0.261 C 
BRANCH   2   3
ATOM      3  O   UNL A   1      37.725  22.560  25.422  1.00  0.00    -0.463 OA
BRANCH   3   4
ATOM      4  C   UNL A   1      36.815  23.236  24.701  1.00  0.00     0.308 C 
ATOM      5  O   UNL A   1      36.832  23.406  23.492  1.00  0.00    -0.252 OA
BRANCH   4   6
ATOM      6  C   UNL A   1      35.747  23.706  25.623  1.00  0.00     0.152 C 
BRANCH   6   7
ATOM      7  C   UNL A   1      34.554  24.361  24.895  1.00  0.00     0.127 C 
BRANCH   7   8
ATOM      8  C   UNL A   1      33.565  25.243  25.683  1.00  0.00    -0.025 A 
ATOM      9  C   UNL A   1      34.011  29.563  26.514  1.00  0.00     0.044 C 
ATOM     10  C   UNL A   1      33.302  28.245  26.480  1.00  0.00    -0.051 A 
ATOM     11  C   UNL A   1      31.631  28.162  26.976  1.00  0.00     0.003 A 
ATOM     12  C   UNL A   1      34.221  26.868  25.872  1.00  0.00     0.009 A 
ATOM     13  C   UNL A   1      30.785  26.592  26.851  1.00  0.00     0.001 A 
ATOM     14  C   UNL A   1      31.816  24.987  26.140  1.00  0.00     0.006 A 
ENDBRANCH   7   8
BRANCH   7  15
ATOM     15  N   UNL A   1      33.833  23.516  23.962  1.00  0.00    -0.314 N 
ATOM     16  C   UNL A   1      33.600  23.695  22.633  1.00  0.00     0.408 C 
ATOM     17  H   UNL A   1      33.456  22.692  24.348  1.00  0.00     0.167 HD
ATOM     18  O   UNL A   1      33.069  22.806  21.980  1.00  0.00    -0.225 OA
BRANCH  16  19
ATOM     19  O   UNL A   1      33.923  24.928  22.182  1.00  0.00    -0.444 OA
BRANCH  19  20
ATOM     20  C   UNL A   1      32.865  25.869  21.841  1.00  0.00     0.106 C 
ATOM     21  C   UNL A   1      31.568  25.546  22.588  1.00  0.00     0.056 C 
ATOM     22  C   UNL A   1      33.293  27.330  22.063  1.00  0.00     0.056 C 
ATOM     23  C   UNL A   1      32.632  25.674  20.334  1.00  0.00     0.056 C 
ENDBRANCH  19  20
ENDBRANCH  16  19
ENDBRANCH   7  15
ENDBRANCH   6   7
ENDBRANCH   4   6
ENDBRANCH   3   4
ENDBRANCH   2   3
ENDBRANCH   1   2
BRANCH   1  24
ATOM     24  O   UNL A   1      39.725  21.206  25.976  1.00  0.00    -0.374 OA
BRANCH  24  25
ATOM     25  C   UNL A   1      40.857  20.414  26.284  1.00  0.00     0.202 C 
BRANCH  25  26
ATOM     26  C   UNL A   1      42.086  21.277  26.634  1.00  0.00     0.261 C 
BRANCH  26  27
ATOM     27  O   UNL A   1      42.484  22.060  25.474  1.00  0.00    -0.460 OA
BRANCH  27  28
ATOM     28  C   UNL A   1      43.762  21.905  25.005  1.00  0.00     0.338 C 
ATOM     29  O   UNL A   1      44.227  20.868  24.557  1.00  0.00    -0.246 OA
BRANCH  28  30
ATOM     30  C   UNL A   1      44.627  23.054  25.466  1.00  0.00     0.060 A 
ATOM     31  C   UNL A   1      45.251  23.013  26.732  1.00  0.00     0.016 A 
ATOM     32  C   UNL A   1      44.387  24.285  24.888  1.00  0.00     0.016 A 
ATOM     33  C   UNL A   1      45.394  24.186  27.516  1.00  0.00     0.010 A 
ATOM     34  C   UNL A   1      44.389  25.387  25.721  1.00  0.00     0.010 A 
ATOM     35  C   UNL A   1      44.848  25.379  27.053  1.00  0.00    -0.014 A 
BRANCH  35  36
ATOM     36  C   UNL A   1      44.489  26.587  27.860  1.00  0.00     0.031 A 
ATOM     37  C   UNL A   1      43.060  26.970  27.850  1.00  0.00     0.074 A 
ATOM     38  C   UNL A   1      45.323  27.264  28.710  1.00  0.00     0.049 A 
ATOM     39  N   UNL A   1      42.658  28.169  27.591  1.00  0.00    -0.248 NA
ATOM     40  C   UNL A   1      41.947  26.029  28.022  1.00  0.00     0.031 C 
ATOM     41  C   UNL A   1      44.987  28.136  29.840  1.00  0.00     0.029 A 
ATOM     42  N   UNL A   1      46.707  27.214  28.807  1.00  0.00    -0.354 N 
ATOM     43  C   UNL A   1      41.336  28.189  27.976  1.00  0.00     0.074 A 
ATOM     44  C   UNL A   1      40.889  26.827  27.926  1.00  0.00     0.031 C 
ATOM     45  C   UNL A   1      46.105  28.679  30.373  1.00  0.00     0.029 A 
ATOM     46  C   UNL A   1      47.258  28.203  29.628  1.00  0.00     0.049 A 
ATOM     47  H   UNL A   1      47.254  26.541  28.340  1.00  0.00     0.167 HD
ATOM     48  C   UNL A   1      40.840  29.211  28.728  1.00  0.00     0.037 A 
ATOM     49  C   UNL A   1      48.353  28.873  29.185  1.00  0.00     0.037 A 
ATOM     50  C   UNL A   1      41.926  30.099  29.175  1.00  0.00     0.049 A 
ATOM     51  C   UNL A   1      47.758  30.129  28.519  1.00  0.00     0.074 A 
ATOM     52  C   UNL A   1      42.479  30.392  30.414  1.00  0.00     0.029 A 
ATOM     53  N   UNL A   1      42.852  30.583  28.247  1.00  0.00    -0.354 N 
ATOM     54  N   UNL A   1      46.461  30.312  28.419  1.00  0.00    -0.248 NA
ATOM     55  C   UNL A   1      48.476  31.322  28.081  1.00  0.00     0.031 C 
ATOM     56  C   UNL A   1      43.686  31.123  30.215  1.00  0.00     0.029 A 
ATOM     57  C   UNL A   1      43.900  31.248  28.852  1.00  0.00     0.049 A 
ATOM     58  H   UNL A   1      42.767  30.464  27.274  1.00  0.00     0.167 HD
ATOM     59  C   UNL A   1      46.150  31.588  28.057  1.00  0.00     0.074 A 
ATOM     60  C   UNL A   1      47.459  32.174  27.817  1.00  0.00     0.031 C 
ATOM     61  C   UNL A   1      44.847  32.025  28.044  1.00  0.00     0.037 A 
BRANCH  48  62
ATOM     62  C   UNL A   1      39.437  29.156  29.314  1.00  0.00     0.057 A 
ATOM     63  C   UNL A   1      38.295  29.466  28.559  1.00  0.00     0.134 A 
ATOM     64  C   UNL A   1      39.148  28.744  30.637  1.00  0.00     0.134 A 
ATOM     65  F   UNL A   1      38.369  29.762  27.256  1.00  0.00    -0.206 F 
ATOM     66  C   UNL A   1      36.997  29.458  29.091  1.00  0.00     0.040 A 
ATOM     67  C   UNL A   1      37.864  28.793  31.203  1.00  0.00     0.040 A 
ATOM     68  F   UNL A   1      40.094  28.220  31.431  1.00  0.00    -0.206 F 
ATOM     69  C   UNL A   1      36.778  29.150  30.425  1.00  0.00     0.006 A 
ENDBRANCH  48  62
BRANCH  49  70
ATOM     70  C   UNL A   1      49.435  27.854  28.757  1.00  0.00     0.057 A 
ATOM     71  C   UNL A   1      49.790  27.629  26.988  1.00  0.00     0.134 A 
ATOM     72  C   UNL A   1      50.799  27.620  29.850  1.00  0.00     0.134 A 
ATOM     73  F   UNL A   1      48.698  27.904  26.228  1.00  0.00    -0.206 F 
ATOM     74  C   UNL A   1      51.694  27.175  26.409  1.00  0.00     0.040 A 
ATOM     75  C   UNL A   1      52.466  27.249  29.360  1.00  0.00     0.040 A 
ATOM     76  F   UNL A   1      50.567  27.702  31.169  1.00  0.00    -0.206 F 
ATOM     77  C   UNL A   1      52.956  27.027  27.688  1.00  0.00     0.006 A 
ENDBRANCH  49  70
BRANCH  61  78
ATOM     78  C   UNL A   1      44.277  33.258  27.354  1.00  0.00     0.057 A 
ATOM     79  C   UNL A   1      44.132  33.409  25.973  1.00  0.00     0.134 A 
ATOM     80  C   UNL A   1      43.688  34.312  28.112  1.00  0.00     0.134 A 
ATOM     81  F   UNL A   1      44.556  32.485  25.107  1.00  0.00    -0.206 F 
ATOM     82  C   UNL A   1      43.485  34.512  25.396  1.00  0.00     0.040 A 
ATOM     83  C   UNL A   1      42.968  35.366  27.552  1.00  0.00     0.040 A 
ATOM     84  F   UNL A   1      43.760  34.380  29.449  1.00  0.00    -0.206 F 
ATOM     85  C   UNL A   1      42.877  35.479  26.182  1.00  0.00     0.006 A 
ENDBRANCH  61  78
ENDBRANCH  35  36
ENDBRANCH  28  30
ENDBRANCH  27  28
ENDBRANCH  26  27
ENDBRANCH  25  26
ENDBRANCH  24  25
ENDBRANCH   1  24
TORSDOF 19
ENDMDL
