MODEL 1
REMARK VINA RESULT:     -12.6      0.000      0.000
REMARK SMILES Cc1ccc([C@@H]2[C@H](C(=O)OCCOCCOC(=O)c3ccc(-c4c5nc(c(-c6c(F)cccc6F)c6ccc([nH]6)c(-c6c(F)cccc6F)c6nc(c(-c7c(F)cccc7F)c7ccc4[nH]7)C=C6)C=C5)cc3)c3ccccc3C(=O)N2c2ccccc2)cc1
REMARK SMILES IDX 14 1 13 2 12 3 11 4 10 5 8 6 9 7 7 8 6 9 81 10 73 11 79 12
REMARK SMILES IDX 74 13 78 14 80 15 75 16 77 17 76 18 5 19 1 20 2 21 3 22
REMARK SMILES IDX 89 23 4 24 88 25 82 26 83 27 87 28 84 29 86 30 85 31 15 32
REMARK SMILES IDX 16 33 17 34 18 35 19 36 20 37 72 38 21 39 71 40 22 41 23 42
REMARK SMILES IDX 24 43 65 44 25 45 70 46 64 47 66 48 26 49 69 50 63 51 62 52
REMARK SMILES IDX 27 54 53 55 36 56 52 57 37 58 40 59 51 60 67 61 38 62 39 63
REMARK SMILES IDX 50 65 68 66 41 67 28 68 29 69 34 70 30 71 31 72 33 73 35 74
REMARK SMILES IDX 32 75 54 76 55 77 60 78 56 79 57 80 59 81 61 82 58 83 42 84
REMARK SMILES IDX 43 85 48 86 44 87 45 88 47 89 49 90 46 91
REMARK H PARENT 66 53 40 64
REMARK Flexibility Score: inf
ROOT
ATOM      1  C   UNL A   1      33.714  28.091  24.377  1.00  0.00     0.202 C 
ENDROOT
BRANCH   1   2
ATOM      2  O   UNL A   1      33.389  26.796  23.910  1.00  0.00    -0.374 OA
BRANCH   2   3
ATOM      3  C   UNL A   1      33.269  26.736  22.505  1.00  0.00     0.202 C 
BRANCH   3   4
ATOM      4  C   UNL A   1      33.528  25.316  22.133  1.00  0.00     0.261 C 
BRANCH   4   5
ATOM      5  O   UNL A   1      32.903  24.453  23.076  1.00  0.00    -0.463 OA
BRANCH   5   6
ATOM      6  C   UNL A   1      32.601  23.159  22.812  1.00  0.00     0.316 C 
ATOM      7  O   UNL A   1      33.167  22.470  21.968  1.00  0.00    -0.251 OA
BRANCH   6   8
ATOM      8  C   UNL A   1      31.448  22.680  23.676  1.00  0.00     0.157 C 
ATOM      9  C   UNL A   1      31.966  21.763  24.828  1.00  0.00     0.140 C 
ATOM     10  N   UNL A   1      32.746  22.578  25.779  1.00  0.00    -0.300 N 
ATOM     11  C   UNL A   1      30.743  23.916  24.261  1.00  0.00    -0.019 A 
ATOM     12  C   UNL A   1      31.947  23.525  26.461  1.00  0.00     0.259 C 
ATOM     13  C   UNL A   1      30.085  24.811  23.382  1.00  0.00     0.005 A 
ATOM     14  C   UNL A   1      31.042  24.331  25.571  1.00  0.00     0.044 A 
ATOM     15  O   UNL A   1      32.013  23.793  27.655  1.00  0.00    -0.269 OA
ATOM     16  C   UNL A   1      29.824  26.121  23.780  1.00  0.00     0.000 A 
ATOM     17  C   UNL A   1      30.686  25.621  25.985  1.00  0.00     0.014 A 
ATOM     18  C   UNL A   1      30.112  26.522  25.082  1.00  0.00     0.001 A 
BRANCH   9  19
ATOM     19  C   UNL A   1      32.315  20.299  24.474  1.00  0.00    -0.024 A 
ATOM     20  C   UNL A   1      34.096  16.635  22.973  1.00  0.00     0.044 C 
ATOM     21  C   UNL A   1      33.343  17.809  23.521  1.00  0.00    -0.051 A 
ATOM     22  C   UNL A   1      33.439  18.157  24.863  1.00  0.00     0.004 A 
ATOM     23  C   UNL A   1      32.576  18.624  22.689  1.00  0.00     0.004 A 
ATOM     24  C   UNL A   1      32.847  19.337  25.338  1.00  0.00     0.006 A 
ATOM     25  C   UNL A   1      32.090  19.857  23.154  1.00  0.00     0.006 A 
ENDBRANCH   9  19
BRANCH  10  26
ATOM     26  C   UNL A   1      34.178  22.799  25.753  1.00  0.00     0.045 A 
ATOM     27  C   UNL A   1      35.080  21.723  25.796  1.00  0.00     0.026 A 
ATOM     28  C   UNL A   1      34.762  24.069  25.735  1.00  0.00     0.026 A 
ATOM     29  C   UNL A   1      36.470  21.911  25.790  1.00  0.00     0.002 A 
ATOM     30  C   UNL A   1      36.140  24.263  25.610  1.00  0.00     0.002 A 
ATOM     31  C   UNL A   1      37.003  23.184  25.671  1.00  0.00     0.000 A 
ENDBRANCH  10  26
ENDBRANCH   6   8
ENDBRANCH   5   6
ENDBRANCH   4   5
ENDBRANCH   3   4
ENDBRANCH   2   3
ENDBRANCH   1   2
BRANCH   1  32
ATOM     32  C   UNL A   1      33.428  28.274  25.873  1.00  0.00     0.261 C 
BRANCH  32  33
ATOM     33  O   UNL A   1      34.470  29.056  26.496  1.00  0.00    -0.460 OA
BRANCH  33  34
ATOM     34  C   UNL A   1      34.060  30.098  27.276  1.00  0.00     0.338 C 
ATOM     35  O   UNL A   1      33.081  30.800  27.070  1.00  0.00    -0.246 OA
BRANCH  34  36
ATOM     36  C   UNL A   1      35.167  30.486  28.207  1.00  0.00     0.060 A 
ATOM     37  C   UNL A   1      36.074  31.497  27.834  1.00  0.00     0.016 A 
ATOM     38  C   UNL A   1      35.505  29.622  29.236  1.00  0.00     0.016 A 
ATOM     39  C   UNL A   1      37.382  31.516  28.363  1.00  0.00     0.010 A 
ATOM     40  C   UNL A   1      36.811  29.617  29.696  1.00  0.00     0.010 A 
ATOM     41  C   UNL A   1      37.783  30.514  29.241  1.00  0.00    -0.014 A 
BRANCH  41  42
ATOM     42  C   UNL A   1      39.170  30.232  29.667  1.00  0.00     0.031 A 
ATOM     43  C   UNL A   1      39.974  29.205  28.965  1.00  0.00     0.074 A 
ATOM     44  C   UNL A   1      39.848  31.063  30.500  1.00  0.00     0.049 A 
ATOM     45  N   UNL A   1      41.021  28.650  29.469  1.00  0.00    -0.248 NA
ATOM     46  C   UNL A   1      39.698  28.740  27.612  1.00  0.00     0.031 C 
ATOM     47  C   UNL A   1      41.287  31.170  30.773  1.00  0.00     0.029 A 
ATOM     48  N   UNL A   1      39.363  32.121  31.271  1.00  0.00    -0.354 N 
ATOM     49  C   UNL A   1      41.738  28.082  28.441  1.00  0.00     0.074 A 
ATOM     50  C   UNL A   1      40.821  28.075  27.327  1.00  0.00     0.031 C 
ATOM     51  C   UNL A   1      41.490  31.930  31.872  1.00  0.00     0.029 A 
ATOM     52  C   UNL A   1      40.178  32.280  32.395  1.00  0.00     0.049 A 
ATOM     53  H   UNL A   1      38.572  32.667  31.057  1.00  0.00     0.167 HD
ATOM     54  C   UNL A   1      43.069  27.828  28.626  1.00  0.00     0.037 A 
ATOM     55  C   UNL A   1      39.681  32.120  33.647  1.00  0.00     0.037 A 
ATOM     56  C   UNL A   1      43.507  28.307  29.957  1.00  0.00     0.049 A 
ATOM     57  C   UNL A   1      40.383  30.923  34.204  1.00  0.00     0.074 A 
ATOM     58  C   UNL A   1      44.283  29.386  30.355  1.00  0.00     0.029 A 
ATOM     59  N   UNL A   1      42.870  27.850  31.119  1.00  0.00    -0.354 N 
ATOM     60  N   UNL A   1      40.837  29.972  33.429  1.00  0.00    -0.248 NA
ATOM     61  C   UNL A   1      40.816  30.791  35.588  1.00  0.00     0.031 C 
ATOM     62  C   UNL A   1      44.050  29.615  31.742  1.00  0.00     0.029 A 
ATOM     63  C   UNL A   1      43.136  28.677  32.200  1.00  0.00     0.049 A 
ATOM     64  H   UNL A   1      42.307  27.044  31.162  1.00  0.00     0.167 HD
ATOM     65  C   UNL A   1      41.760  29.258  34.120  1.00  0.00     0.074 A 
ATOM     66  C   UNL A   1      41.647  29.737  35.491  1.00  0.00     0.031 C 
ATOM     67  C   UNL A   1      42.621  28.380  33.537  1.00  0.00     0.037 A 
BRANCH  54  68
ATOM     68  C   UNL A   1      44.040  27.402  27.527  1.00  0.00     0.057 A 
ATOM     69  C   UNL A   1      44.777  28.356  26.793  1.00  0.00     0.134 A 
ATOM     70  C   UNL A   1      44.314  26.075  27.139  1.00  0.00     0.134 A 
ATOM     71  F   UNL A   1      44.734  29.662  27.091  1.00  0.00    -0.206 F 
ATOM     72  C   UNL A   1      45.626  28.027  25.723  1.00  0.00     0.040 A 
ATOM     73  C   UNL A   1      45.121  25.731  26.041  1.00  0.00     0.040 A 
ATOM     74  F   UNL A   1      43.890  25.025  27.847  1.00  0.00    -0.206 F 
ATOM     75  C   UNL A   1      45.780  26.712  25.322  1.00  0.00     0.006 A 
ENDBRANCH  54  68
BRANCH  55  76
ATOM     76  C   UNL A   1      38.256  32.556  33.752  1.00  0.00     0.057 A 
ATOM     77  C   UNL A   1      38.004  33.947  33.813  1.00  0.00     0.134 A 
ATOM     78  C   UNL A   1      37.182  31.752  33.363  1.00  0.00     0.134 A 
ATOM     79  F   UNL A   1      38.990  34.794  34.152  1.00  0.00    -0.206 F 
ATOM     80  C   UNL A   1      36.791  34.515  33.396  1.00  0.00     0.040 A 
ATOM     81  C   UNL A   1      35.961  32.312  32.944  1.00  0.00     0.040 A 
ATOM     82  F   UNL A   1      37.328  30.425  33.256  1.00  0.00    -0.206 F 
ATOM     83  C   UNL A   1      35.776  33.695  32.920  1.00  0.00     0.006 A 
ENDBRANCH  55  76
BRANCH  67  84
ATOM     84  C   UNL A   1      43.105  27.182  34.281  1.00  0.00     0.057 A 
ATOM     85  C   UNL A   1      44.446  27.039  34.675  1.00  0.00     0.134 A 
ATOM     86  C   UNL A   1      42.202  26.244  34.810  1.00  0.00     0.134 A 
ATOM     87  F   UNL A   1      45.383  27.937  34.337  1.00  0.00    -0.206 F 
ATOM     88  C   UNL A   1      44.874  25.991  35.485  1.00  0.00     0.040 A 
ATOM     89  C   UNL A   1      42.610  25.229  35.671  1.00  0.00     0.040 A 
ATOM     90  F   UNL A   1      40.888  26.299  34.549  1.00  0.00    -0.206 F 
ATOM     91  C   UNL A   1      43.953  25.089  35.997  1.00  0.00     0.006 A 
ENDBRANCH  67  84
ENDBRANCH  41  42
ENDBRANCH  34  36
ENDBRANCH  33  34
ENDBRANCH  32  33
ENDBRANCH   1  32
TORSDOF 16
ENDMDL
MODEL 2
REMARK VINA RESULT:     -12.5      1.776      2.607
REMARK SMILES Cc1ccc([C@@H]2[C@H](C(=O)OCCOCCOC(=O)c3ccc(-c4c5nc(c(-c6c(F)cccc6F)c6ccc([nH]6)c(-c6c(F)cccc6F)c6nc(c(-c7c(F)cccc7F)c7ccc4[nH]7)C=C6)C=C5)cc3)c3ccccc3C(=O)N2c2ccccc2)cc1
REMARK SMILES IDX 14 1 13 2 12 3 11 4 10 5 8 6 9 7 7 8 6 9 81 10 73 11 79 12
REMARK SMILES IDX 74 13 78 14 80 15 75 16 77 17 76 18 5 19 1 20 2 21 3 22
REMARK SMILES IDX 89 23 4 24 88 25 82 26 83 27 87 28 84 29 86 30 85 31 15 32
REMARK SMILES IDX 16 33 17 34 18 35 19 36 20 37 72 38 21 39 71 40 22 41 23 42
REMARK SMILES IDX 24 43 65 44 25 45 70 46 64 47 66 48 26 49 69 50 63 51 62 52
REMARK SMILES IDX 27 54 53 55 36 56 52 57 37 58 40 59 51 60 67 61 38 62 39 63
REMARK SMILES IDX 50 65 68 66 41 67 28 68 29 69 34 70 30 71 31 72 33 73 35 74
REMARK SMILES IDX 32 75 54 76 55 77 60 78 56 79 57 80 59 81 61 82 58 83 42 84
REMARK SMILES IDX 43 85 48 86 44 87 45 88 47 89 49 90 46 91
REMARK H PARENT 66 53 40 64
REMARK Flexibility Score: inf
ROOT
ATOM      1  C   UNL A   1      33.638  28.284  24.877  1.00  0.00     0.202 C 
ENDROOT
BRANCH   1   2
ATOM      2  O   UNL A   1      33.233  27.055  24.306  1.00  0.00    -0.374 OA
BRANCH   2   3
ATOM      3  C   UNL A   1      33.117  27.118  22.900  1.00  0.00     0.202 C 
BRANCH   3   4
ATOM      4  C   UNL A   1      33.585  25.797  22.392  1.00  0.00     0.261 C 
BRANCH   4   5
ATOM      5  O   UNL A   1      33.026  24.755  23.184  1.00  0.00    -0.463 OA
BRANCH   5   6
ATOM      6  C   UNL A   1      32.851  23.490  22.730  1.00  0.00     0.316 C 
ATOM      7  O   UNL A   1      33.514  22.974  21.834  1.00  0.00    -0.251 OA
BRANCH   6   8
ATOM      8  C   UNL A   1      31.706  22.803  23.454  1.00  0.00     0.157 C 
ATOM      9  C   UNL A   1      32.249  21.802  24.520  1.00  0.00     0.140 C 
ATOM     10  N   UNL A   1      32.893  22.560  25.610  1.00  0.00    -0.300 N 
ATOM     11  C   UNL A   1      30.851  23.888  24.133  1.00  0.00    -0.019 A 
ATOM     12  C   UNL A   1      31.969  23.338  26.345  1.00  0.00     0.259 C 
ATOM     13  C   UNL A   1      30.157  24.821  23.326  1.00  0.00     0.005 A 
ATOM     14  C   UNL A   1      31.037  24.162  25.500  1.00  0.00     0.044 A 
ATOM     15  O   UNL A   1      31.943  23.460  27.564  1.00  0.00    -0.269 OA
ATOM     16  C   UNL A   1      29.747  26.042  23.859  1.00  0.00     0.000 A 
ATOM     17  C   UNL A   1      30.534  25.352  26.040  1.00  0.00     0.014 A 
ATOM     18  C   UNL A   1      29.922  26.302  25.215  1.00  0.00     0.001 A 
BRANCH   9  19
ATOM     19  C   UNL A   1      32.760  20.431  24.018  1.00  0.00    -0.024 A 
ATOM     20  C   UNL A   1      33.753  16.237  23.494  1.00  0.00     0.044 C 
ATOM     21  C   UNL A   1      33.524  17.717  23.556  1.00  0.00    -0.051 A 
ATOM     22  C   UNL A   1      32.532  18.321  22.794  1.00  0.00     0.004 A 
ATOM     23  C   UNL A   1      34.258  18.521  24.428  1.00  0.00     0.004 A 
ATOM     24  C   UNL A   1      32.230  19.680  22.964  1.00  0.00     0.006 A 
ATOM     25  C   UNL A   1      33.867  19.849  24.669  1.00  0.00     0.006 A 
ENDBRANCH   9  19
BRANCH  10  26
ATOM     26  C   UNL A   1      34.295  22.913  25.704  1.00  0.00     0.045 A 
ATOM     27  C   UNL A   1      34.716  24.249  25.591  1.00  0.00     0.026 A 
ATOM     28  C   UNL A   1      35.318  21.973  25.859  1.00  0.00     0.026 A 
ATOM     29  C   UNL A   1      36.069  24.615  25.661  1.00  0.00     0.002 A 
ATOM     30  C   UNL A   1      36.653  22.338  26.048  1.00  0.00     0.002 A 
ATOM     31  C   UNL A   1      37.040  23.659  25.916  1.00  0.00     0.000 A 
ENDBRANCH  10  26
ENDBRANCH   6   8
ENDBRANCH   5   6
ENDBRANCH   4   5
ENDBRANCH   3   4
ENDBRANCH   2   3
ENDBRANCH   1   2
BRANCH   1  32
ATOM     32  C   UNL A   1      33.538  28.291  26.408  1.00  0.00     0.261 C 
BRANCH  32  33
ATOM     33  O   UNL A   1      34.833  28.529  26.998  1.00  0.00    -0.460 OA
BRANCH  33  34
ATOM     34  C   UNL A   1      34.919  29.577  27.869  1.00  0.00     0.338 C 
ATOM     35  O   UNL A   1      34.039  30.399  28.082  1.00  0.00    -0.246 OA
BRANCH  34  36
ATOM     36  C   UNL A   1      36.350  29.789  28.254  1.00  0.00     0.060 A 
ATOM     37  C   UNL A   1      37.303  30.097  27.263  1.00  0.00     0.016 A 
ATOM     38  C   UNL A   1      36.784  29.328  29.487  1.00  0.00     0.016 A 
ATOM     39  C   UNL A   1      38.662  29.766  27.450  1.00  0.00     0.010 A 
ATOM     40  C   UNL A   1      38.108  28.952  29.627  1.00  0.00     0.010 A 
ATOM     41  C   UNL A   1      39.056  29.109  28.611  1.00  0.00    -0.014 A 
BRANCH  41  42
ATOM     42  C   UNL A   1      40.363  28.457  28.843  1.00  0.00     0.031 A 
ATOM     43  C   UNL A   1      40.609  27.081  28.356  1.00  0.00     0.074 A 
ATOM     44  C   UNL A   1      41.455  29.160  29.243  1.00  0.00     0.049 A 
ATOM     45  N   UNL A   1      41.546  26.321  28.806  1.00  0.00    -0.248 NA
ATOM     46  C   UNL A   1      39.851  26.448  27.284  1.00  0.00     0.031 C 
ATOM     47  C   UNL A   1      42.880  28.808  29.203  1.00  0.00     0.029 A 
ATOM     48  N   UNL A   1      41.528  30.467  29.727  1.00  0.00    -0.354 N 
ATOM     49  C   UNL A   1      41.757  25.316  27.889  1.00  0.00     0.074 A 
ATOM     50  C   UNL A   1      40.609  25.381  27.017  1.00  0.00     0.031 C 
ATOM     51  C   UNL A   1      43.587  29.675  29.960  1.00  0.00     0.029 A 
ATOM     52  C   UNL A   1      42.630  30.578  30.580  1.00  0.00     0.049 A 
ATOM     53  H   UNL A   1      40.903  31.195  29.504  1.00  0.00     0.167 HD
ATOM     54  C   UNL A   1      42.954  24.655  27.898  1.00  0.00     0.037 A 
ATOM     55  C   UNL A   1      42.471  30.896  31.890  1.00  0.00     0.037 A 
ATOM     56  C   UNL A   1      43.859  25.238  28.915  1.00  0.00     0.049 A 
ATOM     57  C   UNL A   1      42.919  29.688  32.649  1.00  0.00     0.074 A 
ATOM     58  C   UNL A   1      44.994  26.030  28.815  1.00  0.00     0.029 A 
ATOM     59  N   UNL A   1      43.461  25.315  30.256  1.00  0.00    -0.354 N 
ATOM     60  N   UNL A   1      42.847  28.488  32.134  1.00  0.00    -0.248 NA
ATOM     61  C   UNL A   1      43.657  29.730  33.904  1.00  0.00     0.031 C 
ATOM     62  C   UNL A   1      45.226  26.637  30.082  1.00  0.00     0.029 A 
ATOM     63  C   UNL A   1      44.241  26.217  30.964  1.00  0.00     0.049 A 
ATOM     64  H   UNL A   1      42.722  24.794  30.646  1.00  0.00     0.167 HD
ATOM     65  C   UNL A   1      43.674  27.671  32.830  1.00  0.00     0.074 A 
ATOM     66  C   UNL A   1      44.085  28.457  33.985  1.00  0.00     0.031 C 
ATOM     67  C   UNL A   1      44.049  26.436  32.398  1.00  0.00     0.037 A 
BRANCH  54  68
ATOM     68  C   UNL A   1      43.419  23.673  26.825  1.00  0.00     0.057 A 
ATOM     69  C   UNL A   1      44.126  24.116  25.686  1.00  0.00     0.134 A 
ATOM     70  C   UNL A   1      43.222  22.278  26.844  1.00  0.00     0.134 A 
ATOM     71  F   UNL A   1      44.505  25.393  25.543  1.00  0.00    -0.206 F 
ATOM     72  C   UNL A   1      44.512  23.270  24.633  1.00  0.00     0.040 A 
ATOM     73  C   UNL A   1      43.558  21.425  25.778  1.00  0.00     0.040 A 
ATOM     74  F   UNL A   1      42.772  21.638  27.927  1.00  0.00    -0.206 F 
ATOM     75  C   UNL A   1      44.203  21.921  24.660  1.00  0.00     0.006 A 
ENDBRANCH  54  68
BRANCH  55  76
ATOM     76  C   UNL A   1      41.320  31.821  32.113  1.00  0.00     0.057 A 
ATOM     77  C   UNL A   1      41.525  33.194  31.840  1.00  0.00     0.134 A 
ATOM     78  C   UNL A   1      39.990  31.392  32.142  1.00  0.00     0.134 A 
ATOM     79  F   UNL A   1      42.775  33.684  31.767  1.00  0.00    -0.206 F 
ATOM     80  C   UNL A   1      40.479  34.062  31.497  1.00  0.00     0.040 A 
ATOM     81  C   UNL A   1      38.933  32.256  31.801  1.00  0.00     0.040 A 
ATOM     82  F   UNL A   1      39.695  30.106  32.373  1.00  0.00    -0.206 F 
ATOM     83  C   UNL A   1      39.177  33.581  31.438  1.00  0.00     0.006 A 
ENDBRANCH  55  76
BRANCH  67  84
ATOM     84  C   UNL A   1      44.349  25.348  33.373  1.00  0.00     0.057 A 
ATOM     85  C   UNL A   1      45.618  24.750  33.458  1.00  0.00     0.134 A 
ATOM     86  C   UNL A   1      43.441  25.019  34.394  1.00  0.00     0.134 A 
ATOM     87  F   UNL A   1      46.610  25.072  32.616  1.00  0.00    -0.206 F 
ATOM     88  C   UNL A   1      45.940  23.833  34.454  1.00  0.00     0.040 A 
ATOM     89  C   UNL A   1      43.774  24.150  35.429  1.00  0.00     0.040 A 
ATOM     90  F   UNL A   1      42.214  25.557  34.453  1.00  0.00    -0.206 F 
ATOM     91  C   UNL A   1      45.022  23.539  35.452  1.00  0.00     0.006 A 
ENDBRANCH  67  84
ENDBRANCH  41  42
ENDBRANCH  34  36
ENDBRANCH  33  34
ENDBRANCH  32  33
ENDBRANCH   1  32
TORSDOF 16
ENDMDL
MODEL 3
REMARK VINA RESULT:     -11.9      2.486      6.387
REMARK SMILES Cc1ccc([C@@H]2[C@H](C(=O)OCCOCCOC(=O)c3ccc(-c4c5nc(c(-c6c(F)cccc6F)c6ccc([nH]6)c(-c6c(F)cccc6F)c6nc(c(-c7c(F)cccc7F)c7ccc4[nH]7)C=C6)C=C5)cc3)c3ccccc3C(=O)N2c2ccccc2)cc1
REMARK SMILES IDX 14 1 13 2 12 3 11 4 10 5 8 6 9 7 7 8 6 9 81 10 73 11 79 12
REMARK SMILES IDX 74 13 78 14 80 15 75 16 77 17 76 18 5 19 1 20 2 21 3 22
REMARK SMILES IDX 89 23 4 24 88 25 82 26 83 27 87 28 84 29 86 30 85 31 15 32
REMARK SMILES IDX 16 33 17 34 18 35 19 36 20 37 72 38 21 39 71 40 22 41 23 42
REMARK SMILES IDX 24 43 65 44 25 45 70 46 64 47 66 48 26 49 69 50 63 51 62 52
REMARK SMILES IDX 27 54 53 55 36 56 52 57 37 58 40 59 51 60 67 61 38 62 39 63
REMARK SMILES IDX 50 65 68 66 41 67 28 68 29 69 34 70 30 71 31 72 33 73 35 74
REMARK SMILES IDX 32 75 54 76 55 77 60 78 56 79 57 80 59 81 61 82 58 83 42 84
REMARK SMILES IDX 43 85 48 86 44 87 45 88 47 89 49 90 46 91
REMARK H PARENT 66 53 40 64
REMARK Flexibility Score: inf
ROOT
ATOM      1  C   UNL A   1      33.501  28.169  24.805  1.00  0.00     0.202 C 
ENDROOT
BRANCH   1   2
ATOM      2  O   UNL A   1      33.698  26.858  24.315  1.00  0.00    -0.374 OA
BRANCH   2   3
ATOM      3  C   UNL A   1      33.312  26.715  22.964  1.00  0.00     0.202 C 
BRANCH   3   4
ATOM      4  C   UNL A   1      33.706  25.332  22.571  1.00  0.00     0.261 C 
BRANCH   4   5
ATOM      5  O   UNL A   1      32.567  24.480  22.614  1.00  0.00    -0.463 OA
BRANCH   5   6
ATOM      6  C   UNL A   1      32.645  23.146  22.842  1.00  0.00     0.316 C 
ATOM      7  O   UNL A   1      33.528  22.416  22.403  1.00  0.00    -0.251 OA
BRANCH   6   8
ATOM      8  C   UNL A   1      31.478  22.668  23.689  1.00  0.00     0.157 C 
ATOM      9  C   UNL A   1      31.976  21.737  24.838  1.00  0.00     0.140 C 
ATOM     10  N   UNL A   1      32.751  22.537  25.805  1.00  0.00    -0.300 N 
ATOM     11  C   UNL A   1      30.776  23.905  24.277  1.00  0.00    -0.019 A 
ATOM     12  C   UNL A   1      31.952  23.484  26.486  1.00  0.00     0.259 C 
ATOM     13  C   UNL A   1      30.136  24.813  23.399  1.00  0.00     0.005 A 
ATOM     14  C   UNL A   1      31.063  24.305  25.594  1.00  0.00     0.044 A 
ATOM     15  O   UNL A   1      32.005  23.741  27.684  1.00  0.00    -0.269 OA
ATOM     16  C   UNL A   1      29.880  26.121  23.806  1.00  0.00     0.000 A 
ATOM     17  C   UNL A   1      30.713  25.594  26.015  1.00  0.00     0.014 A 
ATOM     18  C   UNL A   1      30.155  26.508  25.115  1.00  0.00     0.001 A 
BRANCH   9  19
ATOM     19  C   UNL A   1      32.318  20.274  24.474  1.00  0.00    -0.024 A 
ATOM     20  C   UNL A   1      34.091  16.609  22.963  1.00  0.00     0.044 C 
ATOM     21  C   UNL A   1      33.340  17.785  23.512  1.00  0.00    -0.051 A 
ATOM     22  C   UNL A   1      33.416  18.118  24.859  1.00  0.00     0.004 A 
ATOM     23  C   UNL A   1      32.593  18.615  22.676  1.00  0.00     0.004 A 
ATOM     24  C   UNL A   1      32.828  19.298  25.336  1.00  0.00     0.006 A 
ATOM     25  C   UNL A   1      32.111  19.848  23.146  1.00  0.00     0.006 A 
ENDBRANCH   9  19
BRANCH  10  26
ATOM     26  C   UNL A   1      34.185  22.748  25.797  1.00  0.00     0.045 A 
ATOM     27  C   UNL A   1      35.078  21.665  25.870  1.00  0.00     0.026 A 
ATOM     28  C   UNL A   1      34.778  24.013  25.769  1.00  0.00     0.026 A 
ATOM     29  C   UNL A   1      36.469  21.843  25.883  1.00  0.00     0.002 A 
ATOM     30  C   UNL A   1      36.160  24.194  25.662  1.00  0.00     0.002 A 
ATOM     31  C   UNL A   1      37.013  23.111  25.753  1.00  0.00     0.000 A 
ENDBRANCH  10  26
ENDBRANCH   6   8
ENDBRANCH   5   6
ENDBRANCH   4   5
ENDBRANCH   3   4
ENDBRANCH   2   3
ENDBRANCH   1   2
BRANCH   1  32
ATOM     32  C   UNL A   1      33.972  28.341  26.255  1.00  0.00     0.261 C 
BRANCH  32  33
ATOM     33  O   UNL A   1      34.732  29.560  26.399  1.00  0.00    -0.460 OA
BRANCH  33  34
ATOM     34  C   UNL A   1      34.834  30.064  27.664  1.00  0.00     0.338 C 
ATOM     35  O   UNL A   1      34.136  30.948  28.137  1.00  0.00    -0.246 OA
BRANCH  34  36
ATOM     36  C   UNL A   1      36.139  29.640  28.263  1.00  0.00     0.060 A 
ATOM     37  C   UNL A   1      36.273  29.559  29.663  1.00  0.00     0.016 A 
ATOM     38  C   UNL A   1      37.280  29.689  27.478  1.00  0.00     0.016 A 
ATOM     39  C   UNL A   1      37.536  29.716  30.271  1.00  0.00     0.010 A 
ATOM     40  C   UNL A   1      38.501  29.905  28.093  1.00  0.00     0.010 A 
ATOM     41  C   UNL A   1      38.652  29.976  29.482  1.00  0.00    -0.014 A 
BRANCH  41  42
ATOM     42  C   UNL A   1      39.975  30.430  29.964  1.00  0.00     0.031 A 
ATOM     43  C   UNL A   1      40.166  31.827  30.418  1.00  0.00     0.074 A 
ATOM     44  C   UNL A   1      40.965  29.554  30.273  1.00  0.00     0.049 A 
ATOM     45  N   UNL A   1      41.317  32.397  30.508  1.00  0.00    -0.248 NA
ATOM     46  C   UNL A   1      39.082  32.697  30.856  1.00  0.00     0.031 C 
ATOM     47  C   UNL A   1      42.187  29.741  31.065  1.00  0.00     0.029 A 
ATOM     48  N   UNL A   1      41.049  28.189  29.991  1.00  0.00    -0.354 N 
ATOM     49  C   UNL A   1      41.184  33.497  31.325  1.00  0.00     0.074 A 
ATOM     50  C   UNL A   1      39.759  33.697  31.427  1.00  0.00     0.031 C 
ATOM     51  C   UNL A   1      43.021  28.694  30.876  1.00  0.00     0.029 A 
ATOM     52  C   UNL A   1      42.395  27.825  29.891  1.00  0.00     0.049 A 
ATOM     53  H   UNL A   1      40.283  27.581  29.882  1.00  0.00     0.167 HD
ATOM     54  C   UNL A   1      42.299  34.007  31.931  1.00  0.00     0.037 A 
ATOM     55  C   UNL A   1      42.902  27.334  28.732  1.00  0.00     0.037 A 
ATOM     56  C   UNL A   1      43.485  33.177  31.616  1.00  0.00     0.049 A 
ATOM     57  C   UNL A   1      43.892  28.354  28.268  1.00  0.00     0.074 A 
ATOM     58  C   UNL A   1      44.229  32.282  32.372  1.00  0.00     0.029 A 
ATOM     59  N   UNL A   1      43.853  32.945  30.284  1.00  0.00    -0.354 N 
ATOM     60  N   UNL A   1      43.773  29.618  28.582  1.00  0.00    -0.248 NA
ATOM     61  C   UNL A   1      45.162  28.038  27.628  1.00  0.00     0.031 C 
ATOM     62  C   UNL A   1      44.986  31.469  31.481  1.00  0.00     0.029 A 
ATOM     63  C   UNL A   1      44.714  31.863  30.178  1.00  0.00     0.049 A 
ATOM     64  H   UNL A   1      43.541  33.483  29.521  1.00  0.00     0.167 HD
ATOM     65  C   UNL A   1      44.975  30.220  28.403  1.00  0.00     0.074 A 
ATOM     66  C   UNL A   1      45.788  29.227  27.715  1.00  0.00     0.031 C 
ATOM     67  C   UNL A   1      45.276  31.455  28.891  1.00  0.00     0.037 A 
BRANCH  54  68
ATOM     68  C   UNL A   1      42.290  35.078  33.019  1.00  0.00     0.057 A 
ATOM     69  C   UNL A   1      43.010  36.282  32.866  1.00  0.00     0.134 A 
ATOM     70  C   UNL A   1      41.588  35.006  34.240  1.00  0.00     0.134 A 
ATOM     71  F   UNL A   1      43.649  36.582  31.727  1.00  0.00    -0.206 F 
ATOM     72  C   UNL A   1      43.097  37.268  33.863  1.00  0.00     0.040 A 
ATOM     73  C   UNL A   1      41.704  35.959  35.267  1.00  0.00     0.040 A 
ATOM     74  F   UNL A   1      40.681  34.056  34.484  1.00  0.00    -0.206 F 
ATOM     75  C   UNL A   1      42.467  37.098  35.083  1.00  0.00     0.006 A 
ENDBRANCH  54  68
BRANCH  55  76
ATOM     76  C   UNL A   1      41.901  26.525  27.973  1.00  0.00     0.057 A 
ATOM     77  C   UNL A   1      41.701  25.186  28.384  1.00  0.00     0.134 A 
ATOM     78  C   UNL A   1      40.876  27.096  27.214  1.00  0.00     0.134 A 
ATOM     79  F   UNL A   1      42.626  24.570  29.140  1.00  0.00    -0.206 F 
ATOM     80  C   UNL A   1      40.502  24.496  28.155  1.00  0.00     0.040 A 
ATOM     81  C   UNL A   1      39.670  26.411  26.978  1.00  0.00     0.040 A 
ATOM     82  F   UNL A   1      40.965  28.365  26.795  1.00  0.00    -0.206 F 
ATOM     83  C   UNL A   1      39.463  25.126  27.482  1.00  0.00     0.006 A 
ENDBRANCH  55  76
BRANCH  67  84
ATOM     84  C   UNL A   1      46.237  32.342  28.174  1.00  0.00     0.057 A 
ATOM     85  C   UNL A   1      47.615  32.329  28.449  1.00  0.00     0.134 A 
ATOM     86  C   UNL A   1      45.840  33.075  27.042  1.00  0.00     0.134 A 
ATOM     87  F   UNL A   1      48.134  31.572  29.427  1.00  0.00    -0.206 F 
ATOM     88  C   UNL A   1      48.529  33.054  27.692  1.00  0.00     0.040 A 
ATOM     89  C   UNL A   1      46.755  33.753  26.241  1.00  0.00     0.040 A 
ATOM     90  F   UNL A   1      44.560  33.128  26.644  1.00  0.00    -0.206 F 
ATOM     91  C   UNL A   1      48.103  33.759  26.575  1.00  0.00     0.006 A 
ENDBRANCH  67  84
ENDBRANCH  41  42
ENDBRANCH  34  36
ENDBRANCH  33  34
ENDBRANCH  32  33
ENDBRANCH   1  32
TORSDOF 16
ENDMDL
