MODEL 1
REMARK VINA RESULT:     -10.9      0.000      0.000
REMARK SMILES Cc1ccc(Nc2c(F)cccc2I)c(CC(=O)OCCOCCOC(=O)c2ccc(-c3c4nc(c(-c5c(F)cccc5F)c5ccc([nH]5)c(-c5c(F)cccc5F)c5nc(c(-c6c(F)cccc6F)c6ccc3[nH]6)C=C5)C=C4)cc2)c1
REMARK SMILES IDX 21 1 20 2 19 3 17 4 18 5 16 6 15 7 1 8 2 9 3 10 82 11 4 12
REMARK SMILES IDX 5 13 6 14 7 16 8 17 13 18 9 19 10 20 12 21 14 22 11 23 22 24
REMARK SMILES IDX 23 25 24 26 25 27 26 28 27 29 28 30 29 31 81 32 30 33 80 34
REMARK SMILES IDX 31 35 32 36 33 37 74 38 34 39 79 40 73 41 75 42 35 43 78 44
REMARK SMILES IDX 72 45 71 46 36 48 62 49 45 50 61 51 46 52 49 53 60 54 76 55
REMARK SMILES IDX 47 56 48 57 59 59 77 60 50 61 37 62 38 63 43 64 39 65 40 66
REMARK SMILES IDX 42 67 44 68 41 69 63 70 64 71 69 72 65 73 66 74 68 75 70 76
REMARK SMILES IDX 67 77 51 78 52 79 57 80 53 81 54 82 56 83 58 84 55 85
REMARK H PARENT 6 15 75 47 49 58
REMARK Flexibility Score: inf
ROOT
ATOM      1  C   UNL A   1      37.439  23.719  26.004  1.00  0.00     0.202 C 
ENDROOT
BRANCH   1   2
ATOM      2  C   UNL A   1      36.028  23.605  25.452  1.00  0.00     0.261 C 
BRANCH   2   3
ATOM      3  O   UNL A   1      35.176  22.854  26.300  1.00  0.00    -0.463 OA
BRANCH   3   4
ATOM      4  C   UNL A   1      34.886  21.559  25.965  1.00  0.00     0.310 C 
ATOM      5  O   UNL A   1      35.655  20.732  25.501  1.00  0.00    -0.252 OA
BRANCH   4   6
ATOM      6  C   UNL A   1      33.416  21.277  26.224  1.00  0.00     0.160 C 
BRANCH   6   7
ATOM      7  C   UNL A   1      32.679  21.123  24.906  1.00  0.00    -0.013 A 
ATOM      8  C   UNL A   1      32.362  18.057  22.638  1.00  0.00     0.044 C 
ATOM      9  C   UNL A   1      32.292  19.475  23.123  1.00  0.00    -0.051 A 
ATOM     10  C   UNL A   1      32.060  20.528  22.246  1.00  0.00     0.005 A 
ATOM     11  C   UNL A   1      32.520  19.779  24.463  1.00  0.00     0.009 A 
ATOM     12  C   UNL A   1      32.135  21.858  22.692  1.00  0.00     0.026 A 
ATOM     13  C   UNL A   1      32.482  22.198  24.016  1.00  0.00     0.042 A 
BRANCH  13  14
ATOM     14  N   UNL A   1      32.683  23.555  24.398  1.00  0.00    -0.352 N 
ATOM     15  H   UNL A   1      33.614  23.807  24.594  1.00  0.00     0.167 HD
BRANCH  14  16
ATOM     16  C   UNL A   1      31.726  24.597  24.535  1.00  0.00     0.088 A 
ATOM     17  C   UNL A   1      31.007  24.749  25.733  1.00  0.00     0.147 A 
ATOM     18  C   UNL A   1      31.356  25.456  23.480  1.00  0.00     0.040 A 
ATOM     19  F   UNL A   1      31.393  24.086  26.834  1.00  0.00    -0.205 F 
ATOM     20  C   UNL A   1      29.914  25.604  25.851  1.00  0.00     0.041 A 
ATOM     21  C   UNL A   1      30.199  26.252  23.561  1.00  0.00     0.017 A 
ATOM     22  I   UNL A   1      32.579  25.826  21.812  1.00  0.00    -0.042 I 
ATOM     23  C   UNL A   1      29.472  26.317  24.747  1.00  0.00     0.004 A 
ENDBRANCH  14  16
ENDBRANCH  13  14
ENDBRANCH   6   7
ENDBRANCH   4   6
ENDBRANCH   3   4
ENDBRANCH   2   3
ENDBRANCH   1   2
BRANCH   1  24
ATOM     24  O   UNL A   1      38.291  22.825  25.314  1.00  0.00    -0.374 OA
BRANCH  24  25
ATOM     25  C   UNL A   1      38.834  21.793  26.114  1.00  0.00     0.202 C 
BRANCH  25  26
ATOM     26  C   UNL A   1      40.334  21.995  26.339  1.00  0.00     0.261 C 
BRANCH  26  27
ATOM     27  O   UNL A   1      40.572  23.006  27.343  1.00  0.00    -0.460 OA
BRANCH  27  28
ATOM     28  C   UNL A   1      41.303  24.069  26.914  1.00  0.00     0.338 C 
ATOM     29  O   UNL A   1      42.497  24.029  26.627  1.00  0.00    -0.246 OA
BRANCH  28  30
ATOM     30  C   UNL A   1      40.530  25.330  27.080  1.00  0.00     0.060 A 
ATOM     31  C   UNL A   1      40.840  26.422  26.252  1.00  0.00     0.016 A 
ATOM     32  C   UNL A   1      39.843  25.531  28.277  1.00  0.00     0.016 A 
ATOM     33  C   UNL A   1      40.687  27.722  26.737  1.00  0.00     0.010 A 
ATOM     34  C   UNL A   1      39.831  26.806  28.804  1.00  0.00     0.010 A 
ATOM     35  C   UNL A   1      40.309  27.899  28.066  1.00  0.00    -0.014 A 
BRANCH  35  36
ATOM     36  C   UNL A   1      40.534  29.117  28.846  1.00  0.00     0.031 A 
ATOM     37  C   UNL A   1      39.449  30.104  28.994  1.00  0.00     0.074 A 
ATOM     38  C   UNL A   1      41.614  29.213  29.657  1.00  0.00     0.049 A 
ATOM     39  N   UNL A   1      39.600  31.228  29.599  1.00  0.00    -0.248 NA
ATOM     40  C   UNL A   1      38.115  29.954  28.418  1.00  0.00     0.031 C 
ATOM     41  C   UNL A   1      41.775  30.009  30.879  1.00  0.00     0.029 A 
ATOM     42  N   UNL A   1      42.855  28.612  29.516  1.00  0.00    -0.354 N 
ATOM     43  C   UNL A   1      38.355  31.751  29.820  1.00  0.00     0.074 A 
ATOM     44  C   UNL A   1      37.485  31.011  28.941  1.00  0.00     0.031 C 
ATOM     45  C   UNL A   1      43.069  30.019  31.241  1.00  0.00     0.029 A 
ATOM     46  C   UNL A   1      43.819  29.376  30.179  1.00  0.00     0.049 A 
ATOM     47  H   UNL A   1      43.030  27.776  29.027  1.00  0.00     0.167 HD
ATOM     48  C   UNL A   1      38.218  32.670  30.813  1.00  0.00     0.037 A 
ATOM     49  C   UNL A   1      44.901  29.884  29.524  1.00  0.00     0.037 A 
ATOM     50  C   UNL A   1      39.536  33.124  31.293  1.00  0.00     0.049 A 
ATOM     51  C   UNL A   1      44.718  31.385  29.356  1.00  0.00     0.074 A 
ATOM     52  C   UNL A   1      40.280  32.979  32.450  1.00  0.00     0.029 A 
ATOM     53  N   UNL A   1      40.419  33.638  30.352  1.00  0.00    -0.354 N 
ATOM     54  N   UNL A   1      43.750  32.050  29.931  1.00  0.00    -0.248 NA
ATOM     55  C   UNL A   1      45.529  32.249  28.506  1.00  0.00     0.031 C 
ATOM     56  C   UNL A   1      41.640  33.342  32.147  1.00  0.00     0.029 A 
ATOM     57  C   UNL A   1      41.709  33.756  30.825  1.00  0.00     0.049 A 
ATOM     58  H   UNL A   1      40.150  33.892  29.439  1.00  0.00     0.167 HD
ATOM     59  C   UNL A   1      43.723  33.339  29.505  1.00  0.00     0.074 A 
ATOM     60  C   UNL A   1      44.865  33.419  28.603  1.00  0.00     0.031 C 
ATOM     61  C   UNL A   1      42.755  34.221  29.907  1.00  0.00     0.037 A 
BRANCH  48  62
ATOM     62  C   UNL A   1      36.900  33.097  31.417  1.00  0.00     0.057 A 
ATOM     63  C   UNL A   1      36.522  32.622  32.686  1.00  0.00     0.134 A 
ATOM     64  C   UNL A   1      35.922  33.893  30.781  1.00  0.00     0.134 A 
ATOM     65  F   UNL A   1      37.335  31.837  33.405  1.00  0.00    -0.206 F 
ATOM     66  C   UNL A   1      35.284  32.923  33.275  1.00  0.00     0.040 A 
ATOM     67  C   UNL A   1      34.704  34.244  31.381  1.00  0.00     0.040 A 
ATOM     68  F   UNL A   1      36.055  34.329  29.523  1.00  0.00    -0.206 F 
ATOM     69  C   UNL A   1      34.375  33.749  32.632  1.00  0.00     0.006 A 
ENDBRANCH  48  62
BRANCH  49  70
ATOM     70  C   UNL A   1      45.452  28.866  28.572  1.00  0.00     0.057 A 
ATOM     71  C   UNL A   1      46.107  27.767  29.177  1.00  0.00     0.134 A 
ATOM     72  C   UNL A   1      44.842  28.630  27.334  1.00  0.00     0.134 A 
ATOM     73  F   UNL A   1      46.725  27.922  30.360  1.00  0.00    -0.206 F 
ATOM     74  C   UNL A   1      45.956  26.462  28.698  1.00  0.00     0.040 A 
ATOM     75  C   UNL A   1      44.703  27.322  26.838  1.00  0.00     0.040 A 
ATOM     76  F   UNL A   1      44.158  29.605  26.718  1.00  0.00    -0.206 F 
ATOM     77  C   UNL A   1      45.203  26.232  27.553  1.00  0.00     0.006 A 
ENDBRANCH  49  70
BRANCH  61  78
ATOM     78  C   UNL A   1      42.729  35.633  29.398  1.00  0.00     0.057 A 
ATOM     79  C   UNL A   1      42.007  35.991  28.253  1.00  0.00     0.134 A 
ATOM     80  C   UNL A   1      43.474  36.668  29.997  1.00  0.00     0.134 A 
ATOM     81  F   UNL A   1      41.354  35.068  27.531  1.00  0.00    -0.206 F 
ATOM     82  C   UNL A   1      41.932  37.312  27.805  1.00  0.00     0.040 A 
ATOM     83  C   UNL A   1      43.465  37.977  29.517  1.00  0.00     0.040 A 
ATOM     84  F   UNL A   1      44.215  36.472  31.097  1.00  0.00    -0.206 F 
ATOM     85  C   UNL A   1      42.663  38.310  28.437  1.00  0.00     0.006 A 
ENDBRANCH  61  78
ENDBRANCH  35  36
ENDBRANCH  28  30
ENDBRANCH  27  28
ENDBRANCH  26  27
ENDBRANCH  25  26
ENDBRANCH  24  25
ENDBRANCH   1  24
TORSDOF 17
ENDMDL
MODEL 2
REMARK VINA RESULT:     -10.8      1.887      3.547
REMARK SMILES Cc1ccc(Nc2c(F)cccc2I)c(CC(=O)OCCOCCOC(=O)c2ccc(-c3c4nc(c(-c5c(F)cccc5F)c5ccc([nH]5)c(-c5c(F)cccc5F)c5nc(c(-c6c(F)cccc6F)c6ccc3[nH]6)C=C5)C=C4)cc2)c1
REMARK SMILES IDX 21 1 20 2 19 3 17 4 18 5 16 6 15 7 1 8 2 9 3 10 82 11 4 12
REMARK SMILES IDX 5 13 6 14 7 16 8 17 13 18 9 19 10 20 12 21 14 22 11 23 22 24
REMARK SMILES IDX 23 25 24 26 25 27 26 28 27 29 28 30 29 31 81 32 30 33 80 34
REMARK SMILES IDX 31 35 32 36 33 37 74 38 34 39 79 40 73 41 75 42 35 43 78 44
REMARK SMILES IDX 72 45 71 46 36 48 62 49 45 50 61 51 46 52 49 53 60 54 76 55
REMARK SMILES IDX 47 56 48 57 59 59 77 60 50 61 37 62 38 63 43 64 39 65 40 66
REMARK SMILES IDX 42 67 44 68 41 69 63 70 64 71 69 72 65 73 66 74 68 75 70 76
REMARK SMILES IDX 67 77 51 78 52 79 57 80 53 81 54 82 56 83 58 84 55 85
REMARK H PARENT 6 15 75 47 49 58
REMARK Flexibility Score: inf
ROOT
ATOM      1  C   UNL A   1      36.307  22.946  23.866  1.00  0.00     0.202 C 
ENDROOT
BRANCH   1   2
ATOM      2  C   UNL A   1      35.073  23.374  24.644  1.00  0.00     0.261 C 
BRANCH   2   3
ATOM      3  O   UNL A   1      34.196  24.172  23.868  1.00  0.00    -0.463 OA
BRANCH   3   4
ATOM      4  C   UNL A   1      34.066  25.499  24.175  1.00  0.00     0.310 C 
ATOM      5  O   UNL A   1      33.974  26.429  23.389  1.00  0.00    -0.252 OA
BRANCH   4   6
ATOM      6  C   UNL A   1      34.084  25.682  25.683  1.00  0.00     0.160 C 
BRANCH   6   7
ATOM      7  C   UNL A   1      33.222  26.871  26.070  1.00  0.00    -0.013 A 
ATOM      8  C   UNL A   1      34.270  30.402  27.108  1.00  0.00     0.044 C 
ATOM      9  C   UNL A   1      33.423  29.186  26.870  1.00  0.00    -0.051 A 
ATOM     10  C   UNL A   1      32.158  29.066  27.434  1.00  0.00     0.005 A 
ATOM     11  C   UNL A   1      33.910  28.116  26.124  1.00  0.00     0.009 A 
ATOM     12  C   UNL A   1      31.436  27.867  27.316  1.00  0.00     0.026 A 
ATOM     13  C   UNL A   1      31.955  26.726  26.670  1.00  0.00     0.042 A 
BRANCH  13  14
ATOM     14  N   UNL A   1      31.254  25.487  26.689  1.00  0.00    -0.352 N 
ATOM     15  H   UNL A   1      30.851  25.240  27.553  1.00  0.00     0.167 HD
BRANCH  14  16
ATOM     16  C   UNL A   1      31.053  24.557  25.634  1.00  0.00     0.088 A 
ATOM     17  C   UNL A   1      31.425  23.211  25.792  1.00  0.00     0.147 A 
ATOM     18  C   UNL A   1      30.587  24.922  24.354  1.00  0.00     0.040 A 
ATOM     19  F   UNL A   1      31.730  22.739  27.011  1.00  0.00    -0.205 F 
ATOM     20  C   UNL A   1      31.454  22.309  24.731  1.00  0.00     0.041 A 
ATOM     21  C   UNL A   1      30.702  24.045  23.259  1.00  0.00     0.017 A 
ATOM     22  I   UNL A   1      29.478  26.668  23.986  1.00  0.00    -0.042 I 
ATOM     23  C   UNL A   1      31.147  22.739  23.449  1.00  0.00     0.004 A 
ENDBRANCH  14  16
ENDBRANCH  13  14
ENDBRANCH   6   7
ENDBRANCH   4   6
ENDBRANCH   3   4
ENDBRANCH   2   3
ENDBRANCH   1   2
BRANCH   1  24
ATOM     24  O   UNL A   1      37.461  23.161  24.655  1.00  0.00    -0.374 OA
BRANCH  24  25
ATOM     25  C   UNL A   1      37.626  22.244  25.719  1.00  0.00     0.202 C 
BRANCH  25  26
ATOM     26  C   UNL A   1      39.047  21.678  25.752  1.00  0.00     0.261 C 
BRANCH  26  27
ATOM     27  O   UNL A   1      39.728  22.071  26.963  1.00  0.00    -0.460 OA
BRANCH  27  28
ATOM     28  C   UNL A   1      40.697  23.009  26.789  1.00  0.00     0.338 C 
ATOM     29  O   UNL A   1      41.903  22.777  26.773  1.00  0.00    -0.246 OA
BRANCH  28  30
ATOM     30  C   UNL A   1      40.114  24.376  26.874  1.00  0.00     0.060 A 
ATOM     31  C   UNL A   1      40.770  25.427  26.210  1.00  0.00     0.016 A 
ATOM     32  C   UNL A   1      39.218  24.650  27.906  1.00  0.00     0.016 A 
ATOM     33  C   UNL A   1      40.719  26.717  26.740  1.00  0.00     0.010 A 
ATOM     34  C   UNL A   1      39.289  25.890  28.506  1.00  0.00     0.010 A 
ATOM     35  C   UNL A   1      40.086  26.911  27.966  1.00  0.00    -0.014 A 
BRANCH  35  36
ATOM     36  C   UNL A   1      40.319  28.047  28.860  1.00  0.00     0.031 A 
ATOM     37  C   UNL A   1      39.398  29.197  28.840  1.00  0.00     0.074 A 
ATOM     38  C   UNL A   1      41.193  27.933  29.888  1.00  0.00     0.049 A 
ATOM     39  N   UNL A   1      39.584  30.258  29.541  1.00  0.00    -0.248 NA
ATOM     40  C   UNL A   1      38.219  29.293  27.984  1.00  0.00     0.031 C 
ATOM     41  C   UNL A   1      41.201  28.648  31.169  1.00  0.00     0.029 A 
ATOM     42  N   UNL A   1      42.324  27.135  29.974  1.00  0.00    -0.354 N 
ATOM     43  C   UNL A   1      38.419  30.976  29.526  1.00  0.00     0.074 A 
ATOM     44  C   UNL A   1      37.662  30.423  28.432  1.00  0.00     0.031 C 
ATOM     45  C   UNL A   1      42.367  28.428  31.799  1.00  0.00     0.029 A 
ATOM     46  C   UNL A   1      43.224  27.704  30.879  1.00  0.00     0.049 A 
ATOM     47  H   UNL A   1      42.470  26.299  29.476  1.00  0.00     0.167 HD
ATOM     48  C   UNL A   1      38.210  31.871  30.529  1.00  0.00     0.037 A 
ATOM     49  C   UNL A   1      44.491  28.044  30.509  1.00  0.00     0.037 A 
ATOM     50  C   UNL A   1      39.443  32.080  31.310  1.00  0.00     0.049 A 
ATOM     51  C   UNL A   1      44.587  29.559  30.410  1.00  0.00     0.074 A 
ATOM     52  C   UNL A   1      39.879  31.773  32.586  1.00  0.00     0.029 A 
ATOM     53  N   UNL A   1      40.582  32.469  30.619  1.00  0.00    -0.354 N 
ATOM     54  N   UNL A   1      43.633  30.358  30.810  1.00  0.00    -0.248 NA
ATOM     55  C   UNL A   1      45.692  30.303  29.817  1.00  0.00     0.031 C 
ATOM     56  C   UNL A   1      41.311  31.911  32.608  1.00  0.00     0.029 A 
ATOM     57  C   UNL A   1      41.737  32.352  31.364  1.00  0.00     0.049 A 
ATOM     58  H   UNL A   1      40.567  32.795  29.689  1.00  0.00     0.167 HD
ATOM     59  C   UNL A   1      43.903  31.647  30.480  1.00  0.00     0.074 A 
ATOM     60  C   UNL A   1      45.215  31.563  29.851  1.00  0.00     0.031 C 
ATOM     61  C   UNL A   1      43.021  32.665  30.726  1.00  0.00     0.037 A 
BRANCH  48  62
ATOM     62  C   UNL A   1      36.875  32.493  30.864  1.00  0.00     0.057 A 
ATOM     63  C   UNL A   1      36.393  33.573  30.102  1.00  0.00     0.134 A 
ATOM     64  C   UNL A   1      36.056  32.147  31.961  1.00  0.00     0.134 A 
ATOM     65  F   UNL A   1      37.069  34.032  29.041  1.00  0.00    -0.206 F 
ATOM     66  C   UNL A   1      35.194  34.242  30.400  1.00  0.00     0.040 A 
ATOM     67  C   UNL A   1      34.832  32.772  32.237  1.00  0.00     0.040 A 
ATOM     68  F   UNL A   1      36.415  31.228  32.865  1.00  0.00    -0.206 F 
ATOM     69  C   UNL A   1      34.400  33.833  31.460  1.00  0.00     0.006 A 
ENDBRANCH  48  62
BRANCH  49  70
ATOM     70  C   UNL A   1      45.073  26.981  29.628  1.00  0.00     0.057 A 
ATOM     71  C   UNL A   1      45.132  27.304  28.251  1.00  0.00     0.134 A 
ATOM     72  C   UNL A   1      46.049  26.099  30.108  1.00  0.00     0.134 A 
ATOM     73  F   UNL A   1      44.221  28.134  27.717  1.00  0.00    -0.206 F 
ATOM     74  C   UNL A   1      46.233  26.964  27.459  1.00  0.00     0.040 A 
ATOM     75  C   UNL A   1      47.149  25.740  29.311  1.00  0.00     0.040 A 
ATOM     76  F   UNL A   1      46.094  25.781  31.410  1.00  0.00    -0.206 F 
ATOM     77  C   UNL A   1      47.274  26.225  28.008  1.00  0.00     0.006 A 
ENDBRANCH  49  70
BRANCH  61  78
ATOM     78  C   UNL A   1      43.330  34.078  30.323  1.00  0.00     0.057 A 
ATOM     79  C   UNL A   1      43.448  34.453  28.979  1.00  0.00     0.134 A 
ATOM     80  C   UNL A   1      43.583  35.095  31.265  1.00  0.00     0.134 A 
ATOM     81  F   UNL A   1      43.345  33.545  27.997  1.00  0.00    -0.206 F 
ATOM     82  C   UNL A   1      43.680  35.776  28.595  1.00  0.00     0.040 A 
ATOM     83  C   UNL A   1      43.888  36.405  30.893  1.00  0.00     0.040 A 
ATOM     84  F   UNL A   1      43.511  34.882  32.586  1.00  0.00    -0.206 F 
ATOM     85  C   UNL A   1      43.901  36.757  29.554  1.00  0.00     0.006 A 
ENDBRANCH  61  78
ENDBRANCH  35  36
ENDBRANCH  28  30
ENDBRANCH  27  28
ENDBRANCH  26  27
ENDBRANCH  25  26
ENDBRANCH  24  25
ENDBRANCH   1  24
TORSDOF 17
ENDMDL
MODEL 3
REMARK VINA RESULT:     -10.6      3.687      8.887
REMARK SMILES Cc1ccc(Nc2c(F)cccc2I)c(CC(=O)OCCOCCOC(=O)c2ccc(-c3c4nc(c(-c5c(F)cccc5F)c5ccc([nH]5)c(-c5c(F)cccc5F)c5nc(c(-c6c(F)cccc6F)c6ccc3[nH]6)C=C5)C=C4)cc2)c1
REMARK SMILES IDX 21 1 20 2 19 3 17 4 18 5 16 6 15 7 1 8 2 9 3 10 82 11 4 12
REMARK SMILES IDX 5 13 6 14 7 16 8 17 13 18 9 19 10 20 12 21 14 22 11 23 22 24
REMARK SMILES IDX 23 25 24 26 25 27 26 28 27 29 28 30 29 31 81 32 30 33 80 34
REMARK SMILES IDX 31 35 32 36 33 37 74 38 34 39 79 40 73 41 75 42 35 43 78 44
REMARK SMILES IDX 72 45 71 46 36 48 62 49 45 50 61 51 46 52 49 53 60 54 76 55
REMARK SMILES IDX 47 56 48 57 59 59 77 60 50 61 37 62 38 63 43 64 39 65 40 66
REMARK SMILES IDX 42 67 44 68 41 69 63 70 64 71 69 72 65 73 66 74 68 75 70 76
REMARK SMILES IDX 67 77 51 78 52 79 57 80 53 81 54 82 56 83 58 84 55 85
REMARK H PARENT 6 15 75 47 49 58
REMARK Flexibility Score: inf
ROOT
ATOM      1  C   UNL A   1      31.766  29.583  26.575  1.00  0.00     0.202 C 
ENDROOT
BRANCH   1   2
ATOM      2  C   UNL A   1      32.015  28.453  27.560  1.00  0.00     0.261 C 
BRANCH   2   3
ATOM      3  O   UNL A   1      32.165  27.199  26.917  1.00  0.00    -0.463 OA
BRANCH   3   4
ATOM      4  C   UNL A   1      33.337  26.929  26.264  1.00  0.00     0.310 C 
ATOM      5  O   UNL A   1      34.358  27.599  26.282  1.00  0.00    -0.252 OA
BRANCH   4   6
ATOM      6  C   UNL A   1      33.192  25.652  25.454  1.00  0.00     0.160 C 
BRANCH   6   7
ATOM      7  C   UNL A   1      32.964  25.990  23.992  1.00  0.00    -0.013 A 
ATOM      8  C   UNL A   1      30.162  28.036  22.376  1.00  0.00     0.044 C 
ATOM      9  C   UNL A   1      31.342  27.122  22.532  1.00  0.00    -0.051 A 
ATOM     10  C   UNL A   1      31.781  26.324  21.482  1.00  0.00     0.005 A 
ATOM     11  C   UNL A   1      31.992  27.005  23.757  1.00  0.00     0.009 A 
ATOM     12  C   UNL A   1      32.797  25.376  21.684  1.00  0.00     0.026 A 
ATOM     13  C   UNL A   1      33.390  25.151  22.942  1.00  0.00     0.042 A 
BRANCH  13  14
ATOM     14  N   UNL A   1      34.317  24.089  23.141  1.00  0.00    -0.352 N 
ATOM     15  H   UNL A   1      35.221  24.241  22.781  1.00  0.00     0.167 HD
BRANCH  14  16
ATOM     16  C   UNL A   1      34.120  22.839  23.787  1.00  0.00     0.088 A 
ATOM     17  C   UNL A   1      33.080  21.985  23.382  1.00  0.00     0.147 A 
ATOM     18  C   UNL A   1      34.856  22.424  24.917  1.00  0.00     0.040 A 
ATOM     19  F   UNL A   1      32.432  22.218  22.231  1.00  0.00    -0.205 F 
ATOM     20  C   UNL A   1      32.706  20.858  24.111  1.00  0.00     0.041 A 
ATOM     21  C   UNL A   1      34.426  21.343  25.709  1.00  0.00     0.017 A 
ATOM     22  I   UNL A   1      36.752  23.188  25.402  1.00  0.00    -0.042 I 
ATOM     23  C   UNL A   1      33.342  20.567  25.308  1.00  0.00     0.004 A 
ENDBRANCH  14  16
ENDBRANCH  13  14
ENDBRANCH   6   7
ENDBRANCH   4   6
ENDBRANCH   3   4
ENDBRANCH   2   3
ENDBRANCH   1   2
BRANCH   1  24
ATOM     24  O   UNL A   1      32.357  30.773  27.060  1.00  0.00    -0.374 OA
BRANCH  24  25
ATOM     25  C   UNL A   1      33.761  30.708  27.225  1.00  0.00     0.202 C 
BRANCH  25  26
ATOM     26  C   UNL A   1      34.287  31.921  27.994  1.00  0.00     0.261 C 
BRANCH  26  27
ATOM     27  O   UNL A   1      35.729  31.906  28.055  1.00  0.00    -0.460 OA
BRANCH  27  28
ATOM     28  C   UNL A   1      36.242  31.469  29.236  1.00  0.00     0.338 C 
ATOM     29  O   UNL A   1      36.346  32.153  30.251  1.00  0.00    -0.246 OA
BRANCH  28  30
ATOM     30  C   UNL A   1      36.886  30.138  29.060  1.00  0.00     0.060 A 
ATOM     31  C   UNL A   1      37.006  29.298  30.180  1.00  0.00     0.016 A 
ATOM     32  C   UNL A   1      37.698  29.940  27.945  1.00  0.00     0.016 A 
ATOM     33  C   UNL A   1      38.095  28.430  30.279  1.00  0.00     0.010 A 
ATOM     34  C   UNL A   1      38.847  29.192  28.111  1.00  0.00     0.010 A 
ATOM     35  C   UNL A   1      39.084  28.484  29.299  1.00  0.00    -0.014 A 
BRANCH  35  36
ATOM     36  C   UNL A   1      40.457  28.006  29.466  1.00  0.00     0.031 A 
ATOM     37  C   UNL A   1      40.852  26.700  28.907  1.00  0.00     0.074 A 
ATOM     38  C   UNL A   1      41.427  28.858  29.874  1.00  0.00     0.049 A 
ATOM     39  N   UNL A   1      42.016  26.185  29.082  1.00  0.00    -0.248 NA
ATOM     40  C   UNL A   1      39.958  25.821  28.159  1.00  0.00     0.031 C 
ATOM     41  C   UNL A   1      42.868  28.804  29.603  1.00  0.00     0.029 A 
ATOM     42  N   UNL A   1      41.308  29.977  30.683  1.00  0.00    -0.354 N 
ATOM     43  C   UNL A   1      42.148  25.148  28.199  1.00  0.00     0.074 A 
ATOM     44  C   UNL A   1      40.804  24.864  27.763  1.00  0.00     0.031 C 
ATOM     45  C   UNL A   1      43.506  29.687  30.389  1.00  0.00     0.029 A 
ATOM     46  C   UNL A   1      42.528  30.223  31.317  1.00  0.00     0.049 A 
ATOM     47  H   UNL A   1      40.491  30.516  30.792  1.00  0.00     0.167 HD
ATOM     48  C   UNL A   1      43.406  24.749  27.870  1.00  0.00     0.037 A 
ATOM     49  C   UNL A   1      42.632  30.262  32.676  1.00  0.00     0.037 A 
ATOM     50  C   UNL A   1      44.402  25.365  28.765  1.00  0.00     0.049 A 
ATOM     51  C   UNL A   1      43.340  29.003  33.154  1.00  0.00     0.074 A 
ATOM     52  C   UNL A   1      45.399  26.316  28.643  1.00  0.00     0.029 A 
ATOM     53  N   UNL A   1      44.238  25.181  30.131  1.00  0.00    -0.354 N 
ATOM     54  N   UNL A   1      43.902  28.151  32.336  1.00  0.00    -0.248 NA
ATOM     55  C   UNL A   1      43.432  28.554  34.538  1.00  0.00     0.031 C 
ATOM     56  C   UNL A   1      45.760  26.747  29.968  1.00  0.00     0.029 A 
ATOM     57  C   UNL A   1      45.023  26.022  30.892  1.00  0.00     0.049 A 
ATOM     58  H   UNL A   1      43.622  24.517  30.518  1.00  0.00     0.167 HD
ATOM     59  C   UNL A   1      44.334  27.048  32.999  1.00  0.00     0.074 A 
ATOM     60  C   UNL A   1      44.013  27.346  34.389  1.00  0.00     0.031 C 
ATOM     61  C   UNL A   1      44.892  25.978  32.353  1.00  0.00     0.037 A 
BRANCH  48  62
ATOM     62  C   UNL A   1      43.751  23.874  26.687  1.00  0.00     0.057 A 
ATOM     63  C   UNL A   1      43.553  22.483  26.763  1.00  0.00     0.134 A 
ATOM     64  C   UNL A   1      44.355  24.309  25.488  1.00  0.00     0.134 A 
ATOM     65  F   UNL A   1      43.009  21.915  27.848  1.00  0.00    -0.206 F 
ATOM     66  C   UNL A   1      43.915  21.604  25.729  1.00  0.00     0.040 A 
ATOM     67  C   UNL A   1      44.672  23.447  24.427  1.00  0.00     0.040 A 
ATOM     68  F   UNL A   1      44.730  25.578  25.290  1.00  0.00    -0.206 F 
ATOM     69  C   UNL A   1      44.462  22.085  24.549  1.00  0.00     0.006 A 
ENDBRANCH  48  62
BRANCH  49  70
ATOM     70  C   UNL A   1      41.461  30.991  33.261  1.00  0.00     0.057 A 
ATOM     71  C   UNL A   1      41.449  32.389  33.038  1.00  0.00     0.134 A 
ATOM     72  C   UNL A   1      40.216  30.367  33.401  1.00  0.00     0.134 A 
ATOM     73  F   UNL A   1      42.606  33.058  32.907  1.00  0.00    -0.206 F 
ATOM     74  C   UNL A   1      40.271  33.077  32.731  1.00  0.00     0.040 A 
ATOM     75  C   UNL A   1      39.027  31.058  33.110  1.00  0.00     0.040 A 
ATOM     76  F   UNL A   1      40.138  29.039  33.565  1.00  0.00    -0.206 F 
ATOM     77  C   UNL A   1      39.061  32.396  32.712  1.00  0.00     0.006 A 
ENDBRANCH  49  70
BRANCH  61  78
ATOM     78  C   UNL A   1      45.333  24.757  33.106  1.00  0.00     0.057 A 
ATOM     79  C   UNL A   1      46.600  24.669  33.693  1.00  0.00     0.134 A 
ATOM     80  C   UNL A   1      44.530  23.604  33.214  1.00  0.00     0.134 A 
ATOM     81  F   UNL A   1      47.495  25.659  33.555  1.00  0.00    -0.206 F 
ATOM     82  C   UNL A   1      46.997  23.559  34.443  1.00  0.00     0.040 A 
ATOM     83  C   UNL A   1      44.943  22.461  33.898  1.00  0.00     0.040 A 
ATOM     84  F   UNL A   1      43.294  23.540  32.698  1.00  0.00    -0.206 F 
ATOM     85  C   UNL A   1      46.167  22.449  34.547  1.00  0.00     0.006 A 
ENDBRANCH  61  78
ENDBRANCH  35  36
ENDBRANCH  28  30
ENDBRANCH  27  28
ENDBRANCH  26  27
ENDBRANCH  25  26
ENDBRANCH  24  25
ENDBRANCH   1  24
TORSDOF 17
ENDMDL
