MODEL 1
REMARK VINA RESULT:     -11.8      0.000      0.000
REMARK SMILES CS(=O)(=O)c1ccc(N2N=C(C(=O)OCCOCCOC(=O)c3ccc(-c4c5nc(c(-c6c(F)cccc6F)c6ccc([nH]6)c(-c6c(F)cccc6F)c6nc(c(-c7c(F)cccc7F)c7ccc4[nH]7)C=C6)C=C5)cc3)C[C@H]2c2ccco2)cc1
REMARK SMILES IDX 17 1 16 2 15 3 14 4 12 5 13 6 11 7 9 8 10 9 78 10 77 11 8 12
REMARK SMILES IDX 5 13 6 14 85 15 7 16 84 17 2 18 1 19 3 20 4 21 79 22 80 23
REMARK SMILES IDX 83 24 81 25 82 26 18 27 19 28 20 29 21 30 22 31 23 32 24 33
REMARK SMILES IDX 76 34 25 35 75 36 26 37 27 38 28 39 69 40 29 41 74 42 68 43
REMARK SMILES IDX 70 44 30 45 73 46 67 47 66 48 31 50 57 51 40 52 56 53 41 54
REMARK SMILES IDX 44 55 55 56 71 57 42 58 43 59 54 61 72 62 45 63 32 64 33 65
REMARK SMILES IDX 38 66 34 67 35 68 37 69 39 70 36 71 58 72 59 73 64 74 60 75
REMARK SMILES IDX 61 76 63 77 65 78 62 79 46 80 47 81 52 82 48 83 49 84 51 85
REMARK SMILES IDX 53 86 50 87
REMARK H PARENT 70 49 44 60
REMARK Flexibility Score: inf
ROOT
ATOM      1  O   UNL A   1      31.091  29.138  24.758  1.00  0.00    -0.374 OA
ENDROOT
BRANCH   1   2
ATOM      2  C   UNL A   1      31.509  28.005  23.986  1.00  0.00     0.202 C 
BRANCH   2   3
ATOM      3  C   UNL A   1      32.715  28.331  23.103  1.00  0.00     0.261 C 
BRANCH   3   4
ATOM      4  O   UNL A   1      33.718  27.337  23.357  1.00  0.00    -0.459 OA
BRANCH   4   5
ATOM      5  C   UNL A   1      33.611  26.201  22.641  1.00  0.00     0.354 C 
ATOM      6  O   UNL A   1      33.599  26.070  21.435  1.00  0.00    -0.245 OA
BRANCH   5   7
ATOM      7  C   UNL A   1      33.654  25.060  23.622  1.00  0.00     0.148 C 
ATOM      8  N   UNL A   1      33.812  23.117  24.417  1.00  0.00    -0.254 N 
ATOM      9  N   UNL A   1      33.728  23.817  23.253  1.00  0.00    -0.169 NA
ATOM     10  C   UNL A   1      33.476  23.914  25.601  1.00  0.00     0.180 C 
ATOM     11  C   UNL A   1      33.788  25.325  25.090  1.00  0.00     0.101 C 
BRANCH   8  12
ATOM     12  C   UNL A   1      33.862  21.735  24.396  1.00  0.00     0.060 A 
ATOM     13  C   UNL A   1      33.923  18.935  24.333  1.00  0.00     0.067 A 
ATOM     14  C   UNL A   1      32.803  19.612  23.846  1.00  0.00     0.022 A 
ATOM     15  C   UNL A   1      35.013  19.638  24.846  1.00  0.00     0.022 A 
ATOM     16  C   UNL A   1      32.779  21.008  23.884  1.00  0.00     0.029 A 
ATOM     17  C   UNL A   1      34.971  21.034  24.885  1.00  0.00     0.029 A 
BRANCH  13  18
ATOM     18  S   UNL A   1      33.957  17.160  24.262  1.00  0.00     0.175 S 
ATOM     19  C   UNL A   1      32.625  16.668  25.325  1.00  0.00     0.163 C 
ATOM     20  O   UNL A   1      35.196  16.714  24.869  1.00  0.00    -0.224 OA
ATOM     21  O   UNL A   1      33.618  16.787  22.902  1.00  0.00    -0.224 OA
ENDBRANCH  13  18
ENDBRANCH   8  12
BRANCH  10  22
ATOM     22  C   UNL A   1      32.064  23.794  26.099  1.00  0.00     0.128 A 
ATOM     23  C   UNL A   1      31.377  22.779  26.738  1.00  0.00     0.048 A 
ATOM     24  O   UNL A   1      31.230  24.863  25.915  1.00  0.00    -0.467 OA
ATOM     25  C   UNL A   1      30.061  23.256  26.952  1.00  0.00     0.042 A 
ATOM     26  C   UNL A   1      30.025  24.528  26.436  1.00  0.00     0.195 A 
ENDBRANCH  10  22
ENDBRANCH   5   7
ENDBRANCH   4   5
ENDBRANCH   3   4
ENDBRANCH   2   3
ENDBRANCH   1   2
BRANCH   1  27
ATOM     27  C   UNL A   1      32.142  29.984  25.234  1.00  0.00     0.202 C 
BRANCH  27  28
ATOM     28  C   UNL A   1      31.649  31.003  26.264  1.00  0.00     0.261 C 
BRANCH  28  29
ATOM     29  O   UNL A   1      32.527  31.009  27.405  1.00  0.00    -0.460 OA
BRANCH  29  30
ATOM     30  C   UNL A   1      33.303  32.113  27.523  1.00  0.00     0.338 C 
ATOM     31  O   UNL A   1      32.946  33.275  27.428  1.00  0.00    -0.246 OA
BRANCH  30  32
ATOM     32  C   UNL A   1      34.684  31.732  27.902  1.00  0.00     0.060 A 
ATOM     33  C   UNL A   1      34.939  30.370  28.102  1.00  0.00     0.016 A 
ATOM     34  C   UNL A   1      35.704  32.672  28.101  1.00  0.00     0.016 A 
ATOM     35  C   UNL A   1      36.191  29.950  28.547  1.00  0.00     0.010 A 
ATOM     36  C   UNL A   1      36.961  32.249  28.552  1.00  0.00     0.010 A 
ATOM     37  C   UNL A   1      37.196  30.890  28.810  1.00  0.00    -0.014 A 
BRANCH  37  38
ATOM     38  C   UNL A   1      38.422  30.437  29.504  1.00  0.00     0.031 A 
ATOM     39  C   UNL A   1      38.654  30.873  30.924  1.00  0.00     0.074 A 
ATOM     40  C   UNL A   1      39.286  29.597  28.909  1.00  0.00     0.049 A 
ATOM     41  N   UNL A   1      39.568  30.480  31.772  1.00  0.00    -0.248 NA
ATOM     42  C   UNL A   1      37.727  31.883  31.459  1.00  0.00     0.031 C 
ATOM     43  C   UNL A   1      39.186  29.107  27.536  1.00  0.00     0.029 A 
ATOM     44  N   UNL A   1      40.416  28.996  29.403  1.00  0.00    -0.354 N 
ATOM     45  C   UNL A   1      39.316  31.177  32.945  1.00  0.00     0.074 A 
ATOM     46  C   UNL A   1      38.184  32.044  32.692  1.00  0.00     0.031 C 
ATOM     47  C   UNL A   1      40.217  28.278  27.295  1.00  0.00     0.029 A 
ATOM     48  C   UNL A   1      41.038  28.170  28.500  1.00  0.00     0.049 A 
ATOM     49  H   UNL A   1      40.750  29.143  30.317  1.00  0.00     0.167 HD
ATOM     50  C   UNL A   1      39.957  31.093  34.133  1.00  0.00     0.037 A 
ATOM     51  C   UNL A   1      42.134  27.402  28.640  1.00  0.00     0.037 A 
ATOM     52  C   UNL A   1      41.083  30.242  34.396  1.00  0.00     0.049 A 
ATOM     53  C   UNL A   1      42.833  27.327  29.969  1.00  0.00     0.074 A 
ATOM     54  C   UNL A   1      41.780  30.070  35.581  1.00  0.00     0.029 A 
ATOM     55  N   UNL A   1      41.684  29.423  33.454  1.00  0.00    -0.354 N 
ATOM     56  N   UNL A   1      42.539  27.934  31.092  1.00  0.00    -0.248 NA
ATOM     57  C   UNL A   1      44.008  26.446  30.052  1.00  0.00     0.031 C 
ATOM     58  C   UNL A   1      42.818  29.160  35.347  1.00  0.00     0.029 A 
ATOM     59  C   UNL A   1      42.753  28.755  34.024  1.00  0.00     0.049 A 
ATOM     60  H   UNL A   1      41.393  29.330  32.519  1.00  0.00     0.167 HD
ATOM     61  C   UNL A   1      43.476  27.496  32.018  1.00  0.00     0.074 A 
ATOM     62  C   UNL A   1      44.348  26.567  31.328  1.00  0.00     0.031 C 
ATOM     63  C   UNL A   1      43.604  27.831  33.324  1.00  0.00     0.037 A 
BRANCH  50  64
ATOM     64  C   UNL A   1      39.443  31.955  35.242  1.00  0.00     0.057 A 
ATOM     65  C   UNL A   1      39.877  33.277  35.393  1.00  0.00     0.134 A 
ATOM     66  C   UNL A   1      38.502  31.467  36.153  1.00  0.00     0.134 A 
ATOM     67  F   UNL A   1      40.793  33.792  34.557  1.00  0.00    -0.206 F 
ATOM     68  C   UNL A   1      39.398  34.085  36.423  1.00  0.00     0.040 A 
ATOM     69  C   UNL A   1      38.007  32.268  37.182  1.00  0.00     0.040 A 
ATOM     70  F   UNL A   1      38.056  30.205  36.061  1.00  0.00    -0.206 F 
ATOM     71  C   UNL A   1      38.457  33.581  37.321  1.00  0.00     0.006 A 
ENDBRANCH  50  64
BRANCH  51  72
ATOM     72  C   UNL A   1      42.633  26.613  27.491  1.00  0.00     0.057 A 
ATOM     73  C   UNL A   1      43.515  27.167  26.559  1.00  0.00     0.134 A 
ATOM     74  C   UNL A   1      42.215  25.292  27.291  1.00  0.00     0.134 A 
ATOM     75  F   UNL A   1      43.929  28.435  26.693  1.00  0.00    -0.206 F 
ATOM     76  C   UNL A   1      43.958  26.438  25.455  1.00  0.00     0.040 A 
ATOM     77  C   UNL A   1      42.660  24.548  26.197  1.00  0.00     0.040 A 
ATOM     78  F   UNL A   1      41.368  24.713  28.152  1.00  0.00    -0.206 F 
ATOM     79  C   UNL A   1      43.531  25.123  25.273  1.00  0.00     0.006 A 
ENDBRANCH  51  72
BRANCH  63  80
ATOM     80  C   UNL A   1      44.712  27.182  34.092  1.00  0.00     0.057 A 
ATOM     81  C   UNL A   1      44.531  25.951  34.732  1.00  0.00     0.134 A 
ATOM     82  C   UNL A   1      45.979  27.772  34.155  1.00  0.00     0.134 A 
ATOM     83  F   UNL A   1      43.335  25.345  34.712  1.00  0.00    -0.206 F 
ATOM     84  C   UNL A   1      45.575  25.331  35.420  1.00  0.00     0.040 A 
ATOM     85  C   UNL A   1      47.034  27.156  34.831  1.00  0.00     0.040 A 
ATOM     86  F   UNL A   1      46.213  28.951  33.559  1.00  0.00    -0.206 F 
ATOM     87  C   UNL A   1      46.831  25.932  35.467  1.00  0.00     0.006 A 
ENDBRANCH  63  80
ENDBRANCH  37  38
ENDBRANCH  30  32
ENDBRANCH  29  30
ENDBRANCH  28  29
ENDBRANCH  27  28
ENDBRANCH   1  27
TORSDOF 17
ENDMDL
MODEL 2
REMARK VINA RESULT:     -11.6      3.036      8.122
REMARK SMILES CS(=O)(=O)c1ccc(N2N=C(C(=O)OCCOCCOC(=O)c3ccc(-c4c5nc(c(-c6c(F)cccc6F)c6ccc([nH]6)c(-c6c(F)cccc6F)c6nc(c(-c7c(F)cccc7F)c7ccc4[nH]7)C=C6)C=C5)cc3)C[C@H]2c2ccco2)cc1
REMARK SMILES IDX 17 1 16 2 15 3 14 4 12 5 13 6 11 7 9 8 10 9 78 10 77 11 8 12
REMARK SMILES IDX 5 13 6 14 85 15 7 16 84 17 2 18 1 19 3 20 4 21 79 22 80 23
REMARK SMILES IDX 83 24 81 25 82 26 18 27 19 28 20 29 21 30 22 31 23 32 24 33
REMARK SMILES IDX 76 34 25 35 75 36 26 37 27 38 28 39 69 40 29 41 74 42 68 43
REMARK SMILES IDX 70 44 30 45 73 46 67 47 66 48 31 50 57 51 40 52 56 53 41 54
REMARK SMILES IDX 44 55 55 56 71 57 42 58 43 59 54 61 72 62 45 63 32 64 33 65
REMARK SMILES IDX 38 66 34 67 35 68 37 69 39 70 36 71 58 72 59 73 64 74 60 75
REMARK SMILES IDX 61 76 63 77 65 78 62 79 46 80 47 81 52 82 48 83 49 84 51 85
REMARK SMILES IDX 53 86 50 87
REMARK H PARENT 70 49 44 60
REMARK Flexibility Score: inf
ROOT
ATOM      1  O   UNL A   1      42.012  20.590  25.652  1.00  0.00    -0.374 OA
ENDROOT
BRANCH   1   2
ATOM      2  C   UNL A   1      40.653  20.528  26.101  1.00  0.00     0.202 C 
BRANCH   2   3
ATOM      3  C   UNL A   1      40.119  21.905  26.497  1.00  0.00     0.261 C 
BRANCH   3   4
ATOM      4  O   UNL A   1      38.884  22.109  25.796  1.00  0.00    -0.459 OA
BRANCH   4   5
ATOM      5  C   UNL A   1      38.182  23.203  26.153  1.00  0.00     0.354 C 
ATOM      6  O   UNL A   1      38.474  24.050  26.969  1.00  0.00    -0.245 OA
BRANCH   5   7
ATOM      7  C   UNL A   1      36.994  23.279  25.232  1.00  0.00     0.148 C 
ATOM      8  N   UNL A   1      35.266  23.987  24.258  1.00  0.00    -0.254 N 
ATOM      9  N   UNL A   1      36.129  24.247  25.278  1.00  0.00    -0.169 NA
ATOM     10  C   UNL A   1      35.401  22.632  23.714  1.00  0.00     0.180 C 
ATOM     11  C   UNL A   1      36.852  22.317  24.093  1.00  0.00     0.101 C 
BRANCH   8  12
ATOM     12  C   UNL A   1      34.176  24.809  24.041  1.00  0.00     0.060 A 
ATOM     13  C   UNL A   1      31.965  26.484  23.648  1.00  0.00     0.067 A 
ATOM     14  C   UNL A   1      32.461  26.288  24.938  1.00  0.00     0.022 A 
ATOM     15  C   UNL A   1      32.562  25.860  22.553  1.00  0.00     0.022 A 
ATOM     16  C   UNL A   1      33.560  25.448  25.127  1.00  0.00     0.029 A 
ATOM     17  C   UNL A   1      33.657  25.017  22.758  1.00  0.00     0.029 A 
BRANCH  13  18
ATOM     18  S   UNL A   1      30.579  27.570  23.412  1.00  0.00     0.175 S 
ATOM     19  C   UNL A   1      31.031  29.034  24.307  1.00  0.00     0.163 C 
ATOM     20  O   UNL A   1      29.433  26.980  24.077  1.00  0.00    -0.224 OA
ATOM     21  O   UNL A   1      30.534  27.894  21.999  1.00  0.00    -0.224 OA
ENDBRANCH  13  18
ENDBRANCH   8  12
BRANCH  10  22
ATOM     22  C   UNL A   1      34.443  21.606  24.251  1.00  0.00     0.128 A 
ATOM     23  C   UNL A   1      33.086  21.409  24.080  1.00  0.00     0.048 A 
ATOM     24  O   UNL A   1      34.941  20.645  25.087  1.00  0.00    -0.467 OA
ATOM     25  C   UNL A   1      32.744  20.272  24.851  1.00  0.00     0.042 A 
ATOM     26  C   UNL A   1      33.908  19.843  25.440  1.00  0.00     0.195 A 
ENDBRANCH  10  22
ENDBRANCH   5   7
ENDBRANCH   4   5
ENDBRANCH   3   4
ENDBRANCH   2   3
ENDBRANCH   1   2
BRANCH   1  27
ATOM     27  C   UNL A   1      42.781  21.686  26.156  1.00  0.00     0.202 C 
BRANCH  27  28
ATOM     28  C   UNL A   1      43.778  22.221  25.127  1.00  0.00     0.261 C 
BRANCH  28  29
ATOM     29  O   UNL A   1      43.329  23.494  24.625  1.00  0.00    -0.460 OA
BRANCH  29  30
ATOM     30  C   UNL A   1      44.071  24.557  25.018  1.00  0.00     0.338 C 
ATOM     31  O   UNL A   1      45.185  24.860  24.626  1.00  0.00    -0.246 OA
BRANCH  30  32
ATOM     32  C   UNL A   1      43.293  25.411  25.947  1.00  0.00     0.060 A 
ATOM     33  C   UNL A   1      43.936  26.541  26.466  1.00  0.00     0.016 A 
ATOM     34  C   UNL A   1      41.984  25.106  26.341  1.00  0.00     0.016 A 
ATOM     35  C   UNL A   1      43.295  27.337  27.414  1.00  0.00     0.010 A 
ATOM     36  C   UNL A   1      41.342  25.905  27.296  1.00  0.00     0.010 A 
ATOM     37  C   UNL A   1      42.011  27.002  27.861  1.00  0.00    -0.014 A 
BRANCH  37  38
ATOM     38  C   UNL A   1      41.461  27.722  29.032  1.00  0.00     0.031 A 
ATOM     39  C   UNL A   1      42.150  27.579  30.359  1.00  0.00     0.074 A 
ATOM     40  C   UNL A   1      40.405  28.543  28.907  1.00  0.00     0.049 A 
ATOM     41  N   UNL A   1      41.942  28.228  31.475  1.00  0.00    -0.248 NA
ATOM     42  C   UNL A   1      43.222  26.572  30.437  1.00  0.00     0.031 C 
ATOM     43  C   UNL A   1      39.639  28.763  27.683  1.00  0.00     0.029 A 
ATOM     44  N   UNL A   1      39.806  29.360  29.834  1.00  0.00    -0.354 N 
ATOM     45  C   UNL A   1      42.867  27.725  32.380  1.00  0.00     0.074 A 
ATOM     46  C   UNL A   1      43.617  26.693  31.696  1.00  0.00     0.031 C 
ATOM     47  C   UNL A   1      38.667  29.658  27.934  1.00  0.00     0.029 A 
ATOM     48  C   UNL A   1      38.754  30.082  29.331  1.00  0.00     0.049 A 
ATOM     49  H   UNL A   1      40.104  29.421  30.770  1.00  0.00     0.167 HD
ATOM     50  C   UNL A   1      43.086  28.101  33.661  1.00  0.00     0.037 A 
ATOM     51  C   UNL A   1      37.965  30.994  29.927  1.00  0.00     0.037 A 
ATOM     52  C   UNL A   1      42.348  29.119  34.353  1.00  0.00     0.049 A 
ATOM     53  C   UNL A   1      38.224  31.392  31.354  1.00  0.00     0.074 A 
ATOM     54  C   UNL A   1      42.520  29.586  35.645  1.00  0.00     0.029 A 
ATOM     55  N   UNL A   1      41.288  29.825  33.808  1.00  0.00    -0.354 N 
ATOM     56  N   UNL A   1      39.151  30.964  32.176  1.00  0.00    -0.248 NA
ATOM     57  C   UNL A   1      37.336  32.413  31.931  1.00  0.00     0.031 C 
ATOM     58  C   UNL A   1      41.546  30.563  35.888  1.00  0.00     0.029 A 
ATOM     59  C   UNL A   1      40.784  30.712  34.742  1.00  0.00     0.049 A 
ATOM     60  H   UNL A   1      40.944  29.712  32.893  1.00  0.00     0.167 HD
ATOM     61  C   UNL A   1      38.971  31.674  33.355  1.00  0.00     0.074 A 
ATOM     62  C   UNL A   1      37.849  32.566  33.143  1.00  0.00     0.031 C 
ATOM     63  C   UNL A   1      39.673  31.596  34.511  1.00  0.00     0.037 A 
BRANCH  50  64
ATOM     64  C   UNL A   1      44.180  27.393  34.395  1.00  0.00     0.057 A 
ATOM     65  C   UNL A   1      45.496  27.869  34.369  1.00  0.00     0.134 A 
ATOM     66  C   UNL A   1      43.915  26.240  35.140  1.00  0.00     0.134 A 
ATOM     67  F   UNL A   1      45.811  28.962  33.656  1.00  0.00    -0.206 F 
ATOM     68  C   UNL A   1      46.518  27.214  35.056  1.00  0.00     0.040 A 
ATOM     69  C   UNL A   1      44.927  25.582  35.839  1.00  0.00     0.040 A 
ATOM     70  F   UNL A   1      42.674  25.735  35.195  1.00  0.00    -0.206 F 
ATOM     71  C   UNL A   1      46.234  26.067  35.796  1.00  0.00     0.006 A 
ENDBRANCH  50  64
BRANCH  51  72
ATOM     72  C   UNL A   1      36.859  31.621  29.169  1.00  0.00     0.057 A 
ATOM     73  C   UNL A   1      36.960  32.931  28.689  1.00  0.00     0.134 A 
ATOM     74  C   UNL A   1      35.666  30.929  28.932  1.00  0.00     0.134 A 
ATOM     75  F   UNL A   1      38.073  33.646  28.908  1.00  0.00    -0.206 F 
ATOM     76  C   UNL A   1      35.906  33.538  28.007  1.00  0.00     0.040 A 
ATOM     77  C   UNL A   1      34.609  31.521  28.241  1.00  0.00     0.040 A 
ATOM     78  F   UNL A   1      35.515  29.672  29.373  1.00  0.00    -0.206 F 
ATOM     79  C   UNL A   1      34.726  32.831  27.779  1.00  0.00     0.006 A 
ENDBRANCH  51  72
BRANCH  63  80
ATOM     80  C   UNL A   1      39.259  32.505  35.625  1.00  0.00     0.057 A 
ATOM     81  C   UNL A   1      38.345  32.093  36.601  1.00  0.00     0.134 A 
ATOM     82  C   UNL A   1      39.810  33.787  35.744  1.00  0.00     0.134 A 
ATOM     83  F   UNL A   1      37.778  30.880  36.530  1.00  0.00    -0.206 F 
ATOM     84  C   UNL A   1      37.985  32.931  37.656  1.00  0.00     0.040 A 
ATOM     85  C   UNL A   1      39.465  34.629  36.803  1.00  0.00     0.040 A 
ATOM     86  F   UNL A   1      40.693  34.236  34.840  1.00  0.00    -0.206 F 
ATOM     87  C   UNL A   1      38.548  34.201  37.762  1.00  0.00     0.006 A 
ENDBRANCH  63  80
ENDBRANCH  37  38
ENDBRANCH  30  32
ENDBRANCH  29  30
ENDBRANCH  28  29
ENDBRANCH  27  28
ENDBRANCH   1  27
TORSDOF 17
ENDMDL
MODEL 3
REMARK VINA RESULT:     -11.6      4.226      9.529
REMARK SMILES CS(=O)(=O)c1ccc(N2N=C(C(=O)OCCOCCOC(=O)c3ccc(-c4c5nc(c(-c6c(F)cccc6F)c6ccc([nH]6)c(-c6c(F)cccc6F)c6nc(c(-c7c(F)cccc7F)c7ccc4[nH]7)C=C6)C=C5)cc3)C[C@H]2c2ccco2)cc1
REMARK SMILES IDX 17 1 16 2 15 3 14 4 12 5 13 6 11 7 9 8 10 9 78 10 77 11 8 12
REMARK SMILES IDX 5 13 6 14 85 15 7 16 84 17 2 18 1 19 3 20 4 21 79 22 80 23
REMARK SMILES IDX 83 24 81 25 82 26 18 27 19 28 20 29 21 30 22 31 23 32 24 33
REMARK SMILES IDX 76 34 25 35 75 36 26 37 27 38 28 39 69 40 29 41 74 42 68 43
REMARK SMILES IDX 70 44 30 45 73 46 67 47 66 48 31 50 57 51 40 52 56 53 41 54
REMARK SMILES IDX 44 55 55 56 71 57 42 58 43 59 54 61 72 62 45 63 32 64 33 65
REMARK SMILES IDX 38 66 34 67 35 68 37 69 39 70 36 71 58 72 59 73 64 74 60 75
REMARK SMILES IDX 61 76 63 77 65 78 62 79 46 80 47 81 52 82 48 83 49 84 51 85
REMARK SMILES IDX 53 86 50 87
REMARK H PARENT 70 49 44 60
REMARK Flexibility Score: inf
ROOT
ATOM      1  O   UNL A   1      35.327  21.894  25.793  1.00  0.00    -0.374 OA
ENDROOT
BRANCH   1   2
ATOM      2  C   UNL A   1      34.452  21.625  26.895  1.00  0.00     0.202 C 
BRANCH   2   3
ATOM      3  C   UNL A   1      33.006  22.016  26.584  1.00  0.00     0.261 C 
BRANCH   3   4
ATOM      4  O   UNL A   1      32.821  23.370  27.019  1.00  0.00    -0.459 OA
BRANCH   4   5
ATOM      5  C   UNL A   1      31.591  23.886  26.822  1.00  0.00     0.354 C 
ATOM      6  O   UNL A   1      30.549  23.569  27.354  1.00  0.00    -0.245 OA
BRANCH   5   7
ATOM      7  C   UNL A   1      31.754  25.062  25.897  1.00  0.00     0.148 C 
ATOM      8  N   UNL A   1      31.344  26.820  24.812  1.00  0.00    -0.254 N 
ATOM      9  N   UNL A   1      30.780  25.871  25.608  1.00  0.00    -0.169 NA
ATOM     10  C   UNL A   1      32.673  26.449  24.318  1.00  0.00     0.180 C 
ATOM     11  C   UNL A   1      33.111  25.456  25.400  1.00  0.00     0.101 C 
BRANCH   8  12
ATOM     12  C   UNL A   1      30.567  27.831  24.277  1.00  0.00     0.060 A 
ATOM     13  C   UNL A   1      29.020  29.910  23.213  1.00  0.00     0.067 A 
ATOM     14  C   UNL A   1      30.118  30.211  24.020  1.00  0.00     0.022 A 
ATOM     15  C   UNL A   1      28.689  28.585  22.926  1.00  0.00     0.022 A 
ATOM     16  C   UNL A   1      30.882  29.170  24.551  1.00  0.00     0.029 A 
ATOM     17  C   UNL A   1      29.457  27.554  23.470  1.00  0.00     0.029 A 
BRANCH  13  18
ATOM     18  S   UNL A   1      28.066  31.240  22.524  1.00  0.00     0.175 S 
ATOM     19  C   UNL A   1      29.211  32.593  22.456  1.00  0.00     0.163 C 
ATOM     20  O   UNL A   1      27.029  31.585  23.478  1.00  0.00    -0.224 OA
ATOM     21  O   UNL A   1      27.729  30.858  21.166  1.00  0.00    -0.224 OA
ENDBRANCH  13  18
ENDBRANCH   8  12
BRANCH  10  22
ATOM     22  C   UNL A   1      32.722  25.843  22.943  1.00  0.00     0.128 A 
ATOM     23  C   UNL A   1      32.976  24.563  22.490  1.00  0.00     0.048 A 
ATOM     24  O   UNL A   1      32.480  26.665  21.877  1.00  0.00    -0.467 OA
ATOM     25  C   UNL A   1      32.885  24.610  21.078  1.00  0.00     0.042 A 
ATOM     26  C   UNL A   1      32.578  25.909  20.756  1.00  0.00     0.195 A 
ENDBRANCH  10  22
ENDBRANCH   5   7
ENDBRANCH   4   5
ENDBRANCH   3   4
ENDBRANCH   2   3
ENDBRANCH   1   2
BRANCH   1  27
ATOM     27  C   UNL A   1      35.711  20.757  25.015  1.00  0.00     0.202 C 
BRANCH  27  28
ATOM     28  C   UNL A   1      37.224  20.528  25.023  1.00  0.00     0.261 C 
BRANCH  28  29
ATOM     29  O   UNL A   1      37.885  21.649  25.638  1.00  0.00    -0.460 OA
BRANCH  29  30
ATOM     30  C   UNL A   1      39.139  21.397  26.087  1.00  0.00     0.338 C 
ATOM     31  O   UNL A   1      39.787  20.379  25.920  1.00  0.00    -0.246 OA
BRANCH  30  32
ATOM     32  C   UNL A   1      39.699  22.600  26.747  1.00  0.00     0.060 A 
ATOM     33  C   UNL A   1      39.138  23.836  26.406  1.00  0.00     0.016 A 
ATOM     34  C   UNL A   1      40.770  22.542  27.648  1.00  0.00     0.016 A 
ATOM     35  C   UNL A   1      39.675  25.015  26.920  1.00  0.00     0.010 A 
ATOM     36  C   UNL A   1      41.312  23.727  28.161  1.00  0.00     0.010 A 
ATOM     37  C   UNL A   1      40.787  24.968  27.770  1.00  0.00    -0.014 A 
BRANCH  37  38
ATOM     38  C   UNL A   1      41.475  26.237  28.102  1.00  0.00     0.031 A 
ATOM     39  C   UNL A   1      42.869  26.461  27.588  1.00  0.00     0.074 A 
ATOM     40  C   UNL A   1      40.849  27.204  28.794  1.00  0.00     0.049 A 
ATOM     41  N   UNL A   1      43.600  27.545  27.622  1.00  0.00    -0.248 NA
ATOM     42  C   UNL A   1      43.523  25.310  26.943  1.00  0.00     0.031 C 
ATOM     43  C   UNL A   1      39.505  27.111  29.359  1.00  0.00     0.029 A 
ATOM     44  N   UNL A   1      41.270  28.468  29.123  1.00  0.00    -0.354 N 
ATOM     45  C   UNL A   1      44.790  27.214  26.988  1.00  0.00     0.074 A 
ATOM     46  C   UNL A   1      44.699  25.821  26.608  1.00  0.00     0.031 C 
ATOM     47  C   UNL A   1      39.210  28.273  29.969  1.00  0.00     0.029 A 
ATOM     48  C   UNL A   1      40.338  29.192  29.823  1.00  0.00     0.049 A 
ATOM     49  H   UNL A   1      42.156  28.822  28.880  1.00  0.00     0.167 HD
ATOM     50  C   UNL A   1      45.857  28.004  26.729  1.00  0.00     0.037 A 
ATOM     51  C   UNL A   1      40.386  30.457  30.278  1.00  0.00     0.037 A 
ATOM     52  C   UNL A   1      45.962  29.386  27.104  1.00  0.00     0.049 A 
ATOM     53  C   UNL A   1      41.585  31.315  29.981  1.00  0.00     0.074 A 
ATOM     54  C   UNL A   1      46.997  30.273  26.858  1.00  0.00     0.029 A 
ATOM     55  N   UNL A   1      44.997  30.081  27.815  1.00  0.00    -0.354 N 
ATOM     56  N   UNL A   1      42.672  31.014  29.315  1.00  0.00    -0.248 NA
ATOM     57  C   UNL A   1      41.555  32.696  30.489  1.00  0.00     0.031 C 
ATOM     58  C   UNL A   1      46.664  31.502  27.440  1.00  0.00     0.029 A 
ATOM     59  C   UNL A   1      45.417  31.381  28.032  1.00  0.00     0.049 A 
ATOM     60  H   UNL A   1      44.140  29.705  28.120  1.00  0.00     0.167 HD
ATOM     61  C   UNL A   1      43.444  32.168  29.305  1.00  0.00     0.074 A 
ATOM     62  C   UNL A   1      42.700  33.179  30.028  1.00  0.00     0.031 C 
ATOM     63  C   UNL A   1      44.661  32.374  28.746  1.00  0.00     0.037 A 
BRANCH  50  64
ATOM     64  C   UNL A   1      47.001  27.377  25.999  1.00  0.00     0.057 A 
ATOM     65  C   UNL A   1      47.085  27.428  24.602  1.00  0.00     0.134 A 
ATOM     66  C   UNL A   1      48.029  26.731  26.693  1.00  0.00     0.134 A 
ATOM     67  F   UNL A   1      46.118  28.019  23.884  1.00  0.00    -0.206 F 
ATOM     68  C   UNL A   1      48.152  26.847  23.918  1.00  0.00     0.040 A 
ATOM     69  C   UNL A   1      49.107  26.155  26.021  1.00  0.00     0.040 A 
ATOM     70  F   UNL A   1      47.997  26.646  28.032  1.00  0.00    -0.206 F 
ATOM     71  C   UNL A   1      49.169  26.210  24.629  1.00  0.00     0.006 A 
ENDBRANCH  50  64
BRANCH  51  72
ATOM     72  C   UNL A   1      39.248  31.009  31.046  1.00  0.00     0.057 A 
ATOM     73  C   UNL A   1      38.190  31.664  30.406  1.00  0.00     0.134 A 
ATOM     74  C   UNL A   1      39.208  30.914  32.441  1.00  0.00     0.134 A 
ATOM     75  F   UNL A   1      38.189  31.801  29.072  1.00  0.00    -0.206 F 
ATOM     76  C   UNL A   1      37.134  32.217  31.130  1.00  0.00     0.040 A 
ATOM     77  C   UNL A   1      38.152  31.454  33.176  1.00  0.00     0.040 A 
ATOM     78  F   UNL A   1      40.197  30.301  33.105  1.00  0.00    -0.206 F 
ATOM     79  C   UNL A   1      37.113  32.112  32.520  1.00  0.00     0.006 A 
ENDBRANCH  51  72
BRANCH  63  80
ATOM     80  C   UNL A   1      45.253  33.741  28.881  1.00  0.00     0.057 A 
ATOM     81  C   UNL A   1      46.121  34.058  29.932  1.00  0.00     0.134 A 
ATOM     82  C   UNL A   1      44.987  34.733  27.932  1.00  0.00     0.134 A 
ATOM     83  F   UNL A   1      46.404  33.149  30.877  1.00  0.00    -0.206 F 
ATOM     84  C   UNL A   1      46.698  35.323  30.039  1.00  0.00     0.040 A 
ATOM     85  C   UNL A   1      45.567  35.999  28.022  1.00  0.00     0.040 A 
ATOM     86  F   UNL A   1      44.165  34.487  26.901  1.00  0.00    -0.206 F 
ATOM     87  C   UNL A   1      46.425  36.297  29.080  1.00  0.00     0.006 A 
ENDBRANCH  63  80
ENDBRANCH  37  38
ENDBRANCH  30  32
ENDBRANCH  29  30
ENDBRANCH  28  29
ENDBRANCH  27  28
ENDBRANCH   1  27
TORSDOF 17
ENDMDL
