MODEL 1
REMARK VINA RESULT:     -10.6      0.000      0.000
REMARK SMILES CC(=O)N[C@@H](C)C(=O)N1CCC[C@H]1C(=O)OCCOCCOC(=O)c1ccc(-c2c3nc(c(-c4c(F)cccc4F)c4ccc([nH]4)c(-c4c(F)cccc4F)c4nc(c(-c5c(F)cccc5F)c5ccc2[nH]5)C=C4)C=C3)cc1
REMARK SMILES IDX 18 1 17 2 16 3 14 4 15 5 13 6 9 7 10 8 11 9 12 10 7 11 8 12
REMARK SMILES IDX 5 13 6 14 4 15 1 16 2 17 3 18 19 20 20 21 21 22 22 23 23 24
REMARK SMILES IDX 24 25 25 26 26 27 78 28 27 29 77 30 28 31 29 32 30 33 71 34
REMARK SMILES IDX 31 35 76 36 70 37 72 38 32 39 75 40 69 41 68 42 33 44 59 45
REMARK SMILES IDX 42 46 58 47 43 48 46 49 57 50 73 51 44 52 45 53 56 55 74 56
REMARK SMILES IDX 47 57 34 58 35 59 40 60 36 61 37 62 39 63 41 64 38 65 60 66
REMARK SMILES IDX 61 67 66 68 62 69 63 70 65 71 67 72 64 73 48 74 49 75 54 76
REMARK SMILES IDX 50 77 51 78 53 79 55 80 52 81
REMARK H PARENT 4 19 72 43 46 54
REMARK Flexibility Score: inf
ROOT
ATOM      1  C   UNL A   1      40.150  21.134  26.009  1.00  0.00     0.202 C 
ENDROOT
BRANCH   1   2
ATOM      2  C   UNL A   1      38.910  22.020  26.181  1.00  0.00     0.261 C 
BRANCH   2   3
ATOM      3  O   UNL A   1      38.141  22.092  24.965  1.00  0.00    -0.462 OA
BRANCH   3   4
ATOM      4  C   UNL A   1      37.155  21.160  24.815  1.00  0.00     0.328 C 
ATOM      5  O   UNL A   1      37.198  20.012  25.241  1.00  0.00    -0.250 OA
BRANCH   4   6
ATOM      6  C   UNL A   1      35.916  21.798  24.170  1.00  0.00     0.195 C 
ATOM      7  N   UNL A   1      34.881  22.047  25.175  1.00  0.00    -0.327 N 
ATOM      8  C   UNL A   1      34.829  23.459  25.499  1.00  0.00     0.120 C 
ATOM      9  C   UNL A   1      35.200  24.126  24.190  1.00  0.00     0.024 C 
ATOM     10  C   UNL A   1      36.240  23.186  23.596  1.00  0.00     0.039 C 
BRANCH   7  11
ATOM     11  C   UNL A   1      34.125  20.994  25.633  1.00  0.00     0.245 C 
ATOM     12  O   UNL A   1      33.858  20.910  26.838  1.00  0.00    -0.272 OA
BRANCH  11  13
ATOM     13  C   UNL A   1      33.842  19.782  24.720  1.00  0.00     0.168 C 
ATOM     14  C   UNL A   1      32.327  19.650  24.567  1.00  0.00     0.041 C 
BRANCH  13  15
ATOM     15  N   UNL A   1      34.432  18.507  25.117  1.00  0.00    -0.345 N 
ATOM     16  C   UNL A   1      33.795  17.266  23.083  1.00  0.00     0.114 C 
ATOM     17  C   UNL A   1      34.479  17.341  24.417  1.00  0.00     0.217 C 
ATOM     18  O   UNL A   1      35.058  16.375  24.910  1.00  0.00    -0.275 OA
ATOM     19  H   UNL A   1      34.850  18.489  26.008  1.00  0.00     0.164 HD
ENDBRANCH  13  15
ENDBRANCH  11  13
ENDBRANCH   7  11
ENDBRANCH   4   6
ENDBRANCH   3   4
ENDBRANCH   2   3
ENDBRANCH   1   2
BRANCH   1  20
ATOM     20  O   UNL A   1      41.398  21.737  26.359  1.00  0.00    -0.374 OA
BRANCH  20  21
ATOM     21  C   UNL A   1      42.565  21.065  25.894  1.00  0.00     0.202 C 
BRANCH  21  22
ATOM     22  C   UNL A   1      43.697  21.966  25.399  1.00  0.00     0.261 C 
BRANCH  22  23
ATOM     23  O   UNL A   1      43.160  23.170  24.824  1.00  0.00    -0.460 OA
BRANCH  23  24
ATOM     24  C   UNL A   1      43.883  24.280  25.089  1.00  0.00     0.338 C 
ATOM     25  O   UNL A   1      44.958  24.599  24.600  1.00  0.00    -0.246 OA
BRANCH  24  26
ATOM     26  C   UNL A   1      43.111  25.185  25.956  1.00  0.00     0.060 A 
ATOM     27  C   UNL A   1      43.644  26.462  26.172  1.00  0.00     0.016 A 
ATOM     28  C   UNL A   1      41.932  24.786  26.591  1.00  0.00     0.016 A 
ATOM     29  C   UNL A   1      43.039  27.322  27.082  1.00  0.00     0.010 A 
ATOM     30  C   UNL A   1      41.329  25.649  27.511  1.00  0.00     0.010 A 
ATOM     31  C   UNL A   1      41.909  26.899  27.792  1.00  0.00    -0.014 A 
BRANCH  31  32
ATOM     32  C   UNL A   1      41.456  27.697  28.954  1.00  0.00     0.031 A 
ATOM     33  C   UNL A   1      42.217  27.585  30.245  1.00  0.00     0.074 A 
ATOM     34  C   UNL A   1      40.423  28.548  28.844  1.00  0.00     0.049 A 
ATOM     35  N   UNL A   1      42.014  28.191  31.386  1.00  0.00    -0.248 NA
ATOM     36  C   UNL A   1      43.366  26.662  30.250  1.00  0.00     0.031 C 
ATOM     37  C   UNL A   1      39.639  28.774  27.632  1.00  0.00     0.029 A 
ATOM     38  N   UNL A   1      39.860  29.384  29.774  1.00  0.00    -0.354 N 
ATOM     39  C   UNL A   1      43.002  27.724  32.243  1.00  0.00     0.074 A 
ATOM     40  C   UNL A   1      43.785  26.759  31.503  1.00  0.00     0.031 C 
ATOM     41  C   UNL A   1      38.689  29.689  27.893  1.00  0.00     0.029 A 
ATOM     42  C   UNL A   1      38.785  30.091  29.295  1.00  0.00     0.049 A 
ATOM     43  H   UNL A   1      40.194  29.469  30.696  1.00  0.00     0.167 HD
ATOM     44  C   UNL A   1      43.243  28.076  33.528  1.00  0.00     0.037 A 
ATOM     45  C   UNL A   1      37.967  30.954  29.925  1.00  0.00     0.037 A 
ATOM     46  C   UNL A   1      42.464  29.037  34.260  1.00  0.00     0.049 A 
ATOM     47  C   UNL A   1      38.210  31.277  31.375  1.00  0.00     0.074 A 
ATOM     48  C   UNL A   1      42.635  29.480  35.559  1.00  0.00     0.029 A 
ATOM     49  N   UNL A   1      41.354  29.700  33.755  1.00  0.00    -0.354 N 
ATOM     50  N   UNL A   1      39.161  30.849  32.170  1.00  0.00    -0.248 NA
ATOM     51  C   UNL A   1      37.267  32.206  32.014  1.00  0.00     0.031 C 
ATOM     52  C   UNL A   1      41.602  30.375  35.855  1.00  0.00     0.029 A 
ATOM     53  C   UNL A   1      40.814  30.526  34.726  1.00  0.00     0.049 A 
ATOM     54  H   UNL A   1      41.003  29.596  32.841  1.00  0.00     0.167 HD
ATOM     55  C   UNL A   1      38.946  31.473  33.392  1.00  0.00     0.074 A 
ATOM     56  C   UNL A   1      37.780  32.317  33.231  1.00  0.00     0.031 C 
ATOM     57  C   UNL A   1      39.652  31.360  34.545  1.00  0.00     0.037 A 
BRANCH  44  58
ATOM     58  C   UNL A   1      44.381  27.391  34.225  1.00  0.00     0.057 A 
ATOM     59  C   UNL A   1      44.212  26.173  34.896  1.00  0.00     0.134 A 
ATOM     60  C   UNL A   1      45.662  27.954  34.219  1.00  0.00     0.134 A 
ATOM     61  F   UNL A   1      43.006  25.589  34.954  1.00  0.00    -0.206 F 
ATOM     62  C   UNL A   1      45.274  25.552  35.559  1.00  0.00     0.040 A 
ATOM     63  C   UNL A   1      46.737  27.331  34.856  1.00  0.00     0.040 A 
ATOM     64  F   UNL A   1      45.893  29.118  33.594  1.00  0.00    -0.206 F 
ATOM     65  C   UNL A   1      46.542  26.129  35.535  1.00  0.00     0.006 A 
ENDBRANCH  44  58
BRANCH  45  66
ATOM     66  C   UNL A   1      36.837  31.571  29.188  1.00  0.00     0.057 A 
ATOM     67  C   UNL A   1      35.661  30.858  28.932  1.00  0.00     0.134 A 
ATOM     68  C   UNL A   1      36.909  32.889  28.719  1.00  0.00     0.134 A 
ATOM     69  F   UNL A   1      35.542  29.585  29.338  1.00  0.00    -0.206 F 
ATOM     70  C   UNL A   1      34.599  31.429  28.229  1.00  0.00     0.040 A 
ATOM     71  C   UNL A   1      35.846  33.480  28.033  1.00  0.00     0.040 A 
ATOM     72  F   UNL A   1      38.010  33.625  28.931  1.00  0.00    -0.206 F 
ATOM     73  C   UNL A   1      34.688  32.746  27.782  1.00  0.00     0.006 A 
ENDBRANCH  45  66
BRANCH  57  74
ATOM     74  C   UNL A   1      39.199  32.187  35.711  1.00  0.00     0.057 A 
ATOM     75  C   UNL A   1      39.629  33.509  35.891  1.00  0.00     0.134 A 
ATOM     76  C   UNL A   1      38.288  31.671  36.640  1.00  0.00     0.134 A 
ATOM     77  F   UNL A   1      40.511  34.058  35.042  1.00  0.00    -0.206 F 
ATOM     78  C   UNL A   1      39.185  34.279  36.967  1.00  0.00     0.040 A 
ATOM     79  C   UNL A   1      37.818  32.439  37.706  1.00  0.00     0.040 A 
ATOM     80  F   UNL A   1      37.830  30.415  36.520  1.00  0.00    -0.206 F 
ATOM     81  C   UNL A   1      38.270  33.746  37.874  1.00  0.00     0.006 A 
ENDBRANCH  57  74
ENDBRANCH  31  32
ENDBRANCH  24  26
ENDBRANCH  23  24
ENDBRANCH  22  23
ENDBRANCH  21  22
ENDBRANCH  20  21
ENDBRANCH   1  20
TORSDOF 17
ENDMDL
MODEL 2
REMARK VINA RESULT:     -10.3      4.184      6.617
REMARK SMILES CC(=O)N[C@@H](C)C(=O)N1CCC[C@H]1C(=O)OCCOCCOC(=O)c1ccc(-c2c3nc(c(-c4c(F)cccc4F)c4ccc([nH]4)c(-c4c(F)cccc4F)c4nc(c(-c5c(F)cccc5F)c5ccc2[nH]5)C=C4)C=C3)cc1
REMARK SMILES IDX 18 1 17 2 16 3 14 4 15 5 13 6 9 7 10 8 11 9 12 10 7 11 8 12
REMARK SMILES IDX 5 13 6 14 4 15 1 16 2 17 3 18 19 20 20 21 21 22 22 23 23 24
REMARK SMILES IDX 24 25 25 26 26 27 78 28 27 29 77 30 28 31 29 32 30 33 71 34
REMARK SMILES IDX 31 35 76 36 70 37 72 38 32 39 75 40 69 41 68 42 33 44 59 45
REMARK SMILES IDX 42 46 58 47 43 48 46 49 57 50 73 51 44 52 45 53 56 55 74 56
REMARK SMILES IDX 47 57 34 58 35 59 40 60 36 61 37 62 39 63 41 64 38 65 60 66
REMARK SMILES IDX 61 67 66 68 62 69 63 70 65 71 67 72 64 73 48 74 49 75 54 76
REMARK SMILES IDX 50 77 51 78 53 79 55 80 52 81
REMARK H PARENT 4 19 72 43 46 54
REMARK Flexibility Score: inf
ROOT
ATOM      1  C   UNL A   1      35.239  22.661  23.697  1.00  0.00     0.202 C 
ENDROOT
BRANCH   1   2
ATOM      2  C   UNL A   1      34.785  24.125  23.659  1.00  0.00     0.261 C 
BRANCH   2   3
ATOM      3  O   UNL A   1      33.500  24.261  23.022  1.00  0.00    -0.462 OA
BRANCH   3   4
ATOM      4  C   UNL A   1      33.209  25.489  22.501  1.00  0.00     0.328 C 
ATOM      5  O   UNL A   1      33.899  26.094  21.690  1.00  0.00    -0.250 OA
BRANCH   4   6
ATOM      6  C   UNL A   1      31.815  25.942  22.960  1.00  0.00     0.195 C 
ATOM      7  N   UNL A   1      31.910  26.766  24.166  1.00  0.00    -0.327 N 
ATOM      8  C   UNL A   1      31.712  28.164  23.833  1.00  0.00     0.120 C 
ATOM      9  C   UNL A   1      30.732  28.106  22.679  1.00  0.00     0.024 C 
ATOM     10  C   UNL A   1      31.155  26.858  21.917  1.00  0.00     0.039 C 
BRANCH   7  11
ATOM     11  C   UNL A   1      32.133  26.157  25.378  1.00  0.00     0.245 C 
ATOM     12  O   UNL A   1      33.185  26.379  25.991  1.00  0.00    -0.272 OA
BRANCH  11  13
ATOM     13  C   UNL A   1      31.225  25.000  25.847  1.00  0.00     0.168 C 
ATOM     14  C   UNL A   1      29.814  25.554  26.037  1.00  0.00     0.041 C 
BRANCH  13  15
ATOM     15  N   UNL A   1      31.654  24.267  27.035  1.00  0.00    -0.345 N 
ATOM     16  C   UNL A   1      32.269  22.184  25.865  1.00  0.00     0.114 C 
ATOM     17  C   UNL A   1      32.166  23.009  27.116  1.00  0.00     0.217 C 
ATOM     18  O   UNL A   1      32.505  22.575  28.215  1.00  0.00    -0.275 OA
ATOM     19  H   UNL A   1      31.559  24.746  27.890  1.00  0.00     0.164 HD
ENDBRANCH  13  15
ENDBRANCH  11  13
ENDBRANCH   7  11
ENDBRANCH   4   6
ENDBRANCH   3   4
ENDBRANCH   2   3
ENDBRANCH   1   2
BRANCH   1  20
ATOM     20  O   UNL A   1      35.700  22.185  24.964  1.00  0.00    -0.374 OA
BRANCH  20  21
ATOM     21  C   UNL A   1      35.938  20.783  25.052  1.00  0.00     0.202 C 
BRANCH  21  22
ATOM     22  C   UNL A   1      37.402  20.351  24.956  1.00  0.00     0.261 C 
BRANCH  22  23
ATOM     23  O   UNL A   1      38.268  21.474  25.199  1.00  0.00    -0.460 OA
BRANCH  23  24
ATOM     24  C   UNL A   1      39.303  21.205  26.024  1.00  0.00     0.338 C 
ATOM     25  O   UNL A   1      39.916  20.151  26.127  1.00  0.00    -0.246 OA
BRANCH  24  26
ATOM     26  C   UNL A   1      39.736  22.438  26.702  1.00  0.00     0.060 A 
ATOM     27  C   UNL A   1      39.111  23.629  26.309  1.00  0.00     0.016 A 
ATOM     28  C   UNL A   1      40.762  22.448  27.650  1.00  0.00     0.016 A 
ATOM     29  C   UNL A   1      39.561  24.845  26.810  1.00  0.00     0.010 A 
ATOM     30  C   UNL A   1      41.217  23.673  28.147  1.00  0.00     0.010 A 
ATOM     31  C   UNL A   1      40.648  24.876  27.691  1.00  0.00    -0.014 A 
BRANCH  31  32
ATOM     32  C   UNL A   1      41.296  26.175  27.983  1.00  0.00     0.031 A 
ATOM     33  C   UNL A   1      42.691  26.412  27.477  1.00  0.00     0.074 A 
ATOM     34  C   UNL A   1      40.633  27.145  28.634  1.00  0.00     0.049 A 
ATOM     35  N   UNL A   1      43.451  27.470  27.600  1.00  0.00    -0.248 NA
ATOM     36  C   UNL A   1      43.314  25.306  26.730  1.00  0.00     0.031 C 
ATOM     37  C   UNL A   1      39.263  27.044  29.131  1.00  0.00     0.029 A 
ATOM     38  N   UNL A   1      41.031  28.409  28.984  1.00  0.00    -0.354 N 
ATOM     39  C   UNL A   1      44.639  27.156  26.952  1.00  0.00     0.074 A 
ATOM     40  C   UNL A   1      44.514  25.800  26.465  1.00  0.00     0.031 C 
ATOM     41  C   UNL A   1      38.932  28.202  29.729  1.00  0.00     0.029 A 
ATOM     42  C   UNL A   1      40.076  29.111  29.678  1.00  0.00     0.049 A 
ATOM     43  H   UNL A   1      41.915  28.778  28.761  1.00  0.00     0.167 HD
ATOM     44  C   UNL A   1      45.733  27.934  26.768  1.00  0.00     0.037 A 
ATOM     45  C   UNL A   1      40.129  30.342  30.219  1.00  0.00     0.037 A 
ATOM     46  C   UNL A   1      45.853  29.283  27.252  1.00  0.00     0.049 A 
ATOM     47  C   UNL A   1      41.382  31.162  30.064  1.00  0.00     0.074 A 
ATOM     48  C   UNL A   1      46.910  30.164  27.103  1.00  0.00     0.029 A 
ATOM     49  N   UNL A   1      44.882  29.944  27.990  1.00  0.00    -0.354 N 
ATOM     50  N   UNL A   1      42.491  30.868  29.429  1.00  0.00    -0.248 NA
ATOM     51  C   UNL A   1      41.389  32.487  30.700  1.00  0.00     0.031 C 
ATOM     52  C   UNL A   1      46.596  31.341  27.790  1.00  0.00     0.029 A 
ATOM     53  C   UNL A   1      45.326  31.212  28.327  1.00  0.00     0.049 A 
ATOM     54  H   UNL A   1      44.006  29.567  28.237  1.00  0.00     0.167 HD
ATOM     55  C   UNL A   1      43.316  31.977  29.567  1.00  0.00     0.074 A 
ATOM     56  C   UNL A   1      42.575  32.955  30.338  1.00  0.00     0.031 C 
ATOM     57  C   UNL A   1      44.573  32.171  29.095  1.00  0.00     0.037 A 
BRANCH  44  58
ATOM     58  C   UNL A   1      46.893  27.325  26.037  1.00  0.00     0.057 A 
ATOM     59  C   UNL A   1      47.903  26.622  26.705  1.00  0.00     0.134 A 
ATOM     60  C   UNL A   1      46.996  27.440  24.645  1.00  0.00     0.134 A 
ATOM     61  F   UNL A   1      47.872  26.491  28.039  1.00  0.00    -0.206 F 
ATOM     62  C   UNL A   1      48.988  26.075  26.017  1.00  0.00     0.040 A 
ATOM     63  C   UNL A   1      48.063  26.876  23.943  1.00  0.00     0.040 A 
ATOM     64  F   UNL A   1      46.062  28.100  23.944  1.00  0.00    -0.206 F 
ATOM     65  C   UNL A   1      49.067  26.198  24.630  1.00  0.00     0.006 A 
ENDBRANCH  44  58
BRANCH  45  66
ATOM     66  C   UNL A   1      38.960  30.873  30.962  1.00  0.00     0.057 A 
ATOM     67  C   UNL A   1      38.785  30.607  32.324  1.00  0.00     0.134 A 
ATOM     68  C   UNL A   1      37.989  31.655  30.325  1.00  0.00     0.134 A 
ATOM     69  F   UNL A   1      39.670  29.846  32.983  1.00  0.00    -0.206 F 
ATOM     70  C   UNL A   1      37.680  31.094  33.027  1.00  0.00     0.040 A 
ATOM     71  C   UNL A   1      36.891  32.166  31.019  1.00  0.00     0.040 A 
ATOM     72  F   UNL A   1      38.100  31.944  29.020  1.00  0.00    -0.206 F 
ATOM     73  C   UNL A   1      36.733  31.881  32.375  1.00  0.00     0.006 A 
ENDBRANCH  45  66
BRANCH  57  74
ATOM     74  C   UNL A   1      45.214  33.497  29.377  1.00  0.00     0.057 A 
ATOM     75  C   UNL A   1      45.040  34.597  28.527  1.00  0.00     0.134 A 
ATOM     76  C   UNL A   1      45.977  33.688  30.535  1.00  0.00     0.134 A 
ATOM     77  F   UNL A   1      44.330  34.476  27.395  1.00  0.00    -0.206 F 
ATOM     78  C   UNL A   1      45.623  35.834  28.807  1.00  0.00     0.040 A 
ATOM     79  C   UNL A   1      46.544  34.927  30.840  1.00  0.00     0.040 A 
ATOM     80  F   UNL A   1      46.174  32.678  31.396  1.00  0.00    -0.206 F 
ATOM     81  C   UNL A   1      46.371  36.002  29.972  1.00  0.00     0.006 A 
ENDBRANCH  57  74
ENDBRANCH  31  32
ENDBRANCH  24  26
ENDBRANCH  23  24
ENDBRANCH  22  23
ENDBRANCH  21  22
ENDBRANCH  20  21
ENDBRANCH   1  20
TORSDOF 17
ENDMDL
MODEL 3
REMARK VINA RESULT:     -10.3      3.687      8.502
REMARK SMILES CC(=O)N[C@@H](C)C(=O)N1CCC[C@H]1C(=O)OCCOCCOC(=O)c1ccc(-c2c3nc(c(-c4c(F)cccc4F)c4ccc([nH]4)c(-c4c(F)cccc4F)c4nc(c(-c5c(F)cccc5F)c5ccc2[nH]5)C=C4)C=C3)cc1
REMARK SMILES IDX 18 1 17 2 16 3 14 4 15 5 13 6 9 7 10 8 11 9 12 10 7 11 8 12
REMARK SMILES IDX 5 13 6 14 4 15 1 16 2 17 3 18 19 20 20 21 21 22 22 23 23 24
REMARK SMILES IDX 24 25 25 26 26 27 78 28 27 29 77 30 28 31 29 32 30 33 71 34
REMARK SMILES IDX 31 35 76 36 70 37 72 38 32 39 75 40 69 41 68 42 33 44 59 45
REMARK SMILES IDX 42 46 58 47 43 48 46 49 57 50 73 51 44 52 45 53 56 55 74 56
REMARK SMILES IDX 47 57 34 58 35 59 40 60 36 61 37 62 39 63 41 64 38 65 60 66
REMARK SMILES IDX 61 67 66 68 62 69 63 70 65 71 67 72 64 73 48 74 49 75 54 76
REMARK SMILES IDX 50 77 51 78 53 79 55 80 52 81
REMARK H PARENT 4 19 72 43 46 54
REMARK Flexibility Score: inf
ROOT
ATOM      1  C   UNL A   1      32.771  29.639  26.350  1.00  0.00     0.202 C 
ENDROOT
BRANCH   1   2
ATOM      2  C   UNL A   1      32.767  28.223  26.941  1.00  0.00     0.261 C 
BRANCH   2   3
ATOM      3  O   UNL A   1      32.645  27.223  25.912  1.00  0.00    -0.462 OA
BRANCH   3   4
ATOM      4  C   UNL A   1      31.768  26.206  26.157  1.00  0.00     0.328 C 
ATOM      5  O   UNL A   1      30.641  26.341  26.616  1.00  0.00    -0.250 OA
BRANCH   4   6
ATOM      6  C   UNL A   1      32.337  24.879  25.633  1.00  0.00     0.195 C 
ATOM      7  N   UNL A   1      32.619  24.968  24.199  1.00  0.00    -0.327 N 
ATOM      8  C   UNL A   1      34.047  25.097  23.979  1.00  0.00     0.120 C 
ATOM      9  C   UNL A   1      34.644  24.292  25.115  1.00  0.00     0.024 C 
ATOM     10  C   UNL A   1      33.696  24.562  26.276  1.00  0.00     0.039 C 
BRANCH   7  11
ATOM     11  C   UNL A   1      31.577  24.898  23.305  1.00  0.00     0.245 C 
ATOM     12  O   UNL A   1      30.956  23.837  23.170  1.00  0.00    -0.272 OA
BRANCH  11  13
ATOM     13  C   UNL A   1      31.352  26.030  22.280  1.00  0.00     0.168 C 
ATOM     14  C   UNL A   1      32.371  25.856  21.154  1.00  0.00     0.041 C 
BRANCH  13  15
ATOM     15  N   UNL A   1      31.380  27.398  22.792  1.00  0.00    -0.345 N 
ATOM     16  C   UNL A   1      28.994  27.508  23.406  1.00  0.00     0.114 C 
ATOM     17  C   UNL A   1      30.365  28.116  23.345  1.00  0.00     0.217 C 
ATOM     18  O   UNL A   1      30.596  29.252  23.754  1.00  0.00    -0.275 OA
ATOM     19  H   UNL A   1      32.246  27.860  22.728  1.00  0.00     0.164 HD
ENDBRANCH  13  15
ENDBRANCH  11  13
ENDBRANCH   7  11
ENDBRANCH   4   6
ENDBRANCH   3   4
ENDBRANCH   2   3
ENDBRANCH   1   2
BRANCH   1  20
ATOM     20  O   UNL A   1      32.164  30.651  27.156  1.00  0.00    -0.374 OA
BRANCH  20  21
ATOM     21  C   UNL A   1      31.431  31.649  26.452  1.00  0.00     0.202 C 
BRANCH  21  22
ATOM     22  C   UNL A   1      31.841  33.095  26.731  1.00  0.00     0.261 C 
BRANCH  22  23
ATOM     23  O   UNL A   1      32.338  33.221  28.075  1.00  0.00    -0.460 OA
BRANCH  23  24
ATOM     24  C   UNL A   1      33.391  34.057  28.199  1.00  0.00     0.338 C 
ATOM     25  O   UNL A   1      33.366  35.280  28.247  1.00  0.00    -0.246 OA
BRANCH  24  26
ATOM     26  C   UNL A   1      34.619  33.283  28.447  1.00  0.00     0.060 A 
ATOM     27  C   UNL A   1      34.457  31.977  28.926  1.00  0.00     0.016 A 
ATOM     28  C   UNL A   1      35.893  33.830  28.278  1.00  0.00     0.016 A 
ATOM     29  C   UNL A   1      35.570  31.235  29.307  1.00  0.00     0.010 A 
ATOM     30  C   UNL A   1      37.010  33.086  28.669  1.00  0.00     0.010 A 
ATOM     31  C   UNL A   1      36.846  31.806  29.228  1.00  0.00    -0.014 A 
BRANCH  31  32
ATOM     32  C   UNL A   1      37.976  31.126  29.902  1.00  0.00     0.031 A 
ATOM     33  C   UNL A   1      38.233  31.426  31.352  1.00  0.00     0.074 A 
ATOM     34  C   UNL A   1      38.720  30.218  29.252  1.00  0.00     0.049 A 
ATOM     35  N   UNL A   1      39.152  30.947  32.150  1.00  0.00    -0.248 NA
ATOM     36  C   UNL A   1      37.330  32.399  31.990  1.00  0.00     0.031 C 
ATOM     37  C   UNL A   1      38.535  29.814  27.860  1.00  0.00     0.029 A 
ATOM     38  N   UNL A   1      39.784  29.468  29.685  1.00  0.00    -0.354 N 
ATOM     39  C   UNL A   1      38.941  31.559  33.379  1.00  0.00     0.074 A 
ATOM     40  C   UNL A   1      37.830  32.470  33.215  1.00  0.00     0.031 C 
ATOM     41  C   UNL A   1      39.461  28.889  27.550  1.00  0.00     0.029 A 
ATOM     42  C   UNL A   1      40.315  28.657  28.713  1.00  0.00     0.049 A 
ATOM     43  H   UNL A   1      40.133  29.508  30.605  1.00  0.00     0.167 HD
ATOM     44  C   UNL A   1      39.607  31.371  34.543  1.00  0.00     0.037 A 
ATOM     45  C   UNL A   1      41.378  27.834  28.759  1.00  0.00     0.037 A 
ATOM     46  C   UNL A   1      40.711  30.464  34.702  1.00  0.00     0.049 A 
ATOM     47  C   UNL A   1      42.148  27.694  30.044  1.00  0.00     0.074 A 
ATOM     48  C   UNL A   1      41.443  30.184  35.843  1.00  0.00     0.029 A 
ATOM     49  N   UNL A   1      41.250  29.692  33.682  1.00  0.00    -0.354 N 
ATOM     50  N   UNL A   1      41.927  28.259  31.207  1.00  0.00    -0.248 NA
ATOM     51  C   UNL A   1      43.315  26.800  30.024  1.00  0.00     0.031 C 
ATOM     52  C   UNL A   1      42.453  29.279  35.502  1.00  0.00     0.029 A 
ATOM     53  C   UNL A   1      42.322  28.958  34.161  1.00  0.00     0.049 A 
ATOM     54  H   UNL A   1      40.919  29.671  32.756  1.00  0.00     0.167 HD
ATOM     55  C   UNL A   1      42.909  27.771  32.061  1.00  0.00     0.074 A 
ATOM     56  C   UNL A   1      43.721  26.857  31.285  1.00  0.00     0.031 C 
ATOM     57  C   UNL A   1      43.118  28.052  33.371  1.00  0.00     0.037 A 
BRANCH  44  58
ATOM     58  C   UNL A   1      39.172  32.189  35.722  1.00  0.00     0.057 A 
ATOM     59  C   UNL A   1      39.625  33.499  35.924  1.00  0.00     0.134 A 
ATOM     60  C   UNL A   1      38.281  31.661  36.665  1.00  0.00     0.134 A 
ATOM     61  F   UNL A   1      40.493  34.058  35.067  1.00  0.00    -0.206 F 
ATOM     62  C   UNL A   1      39.229  34.246  37.036  1.00  0.00     0.040 A 
ATOM     63  C   UNL A   1      37.858  32.406  37.766  1.00  0.00     0.040 A 
ATOM     64  F   UNL A   1      37.807  30.414  36.531  1.00  0.00    -0.206 F 
ATOM     65  C   UNL A   1      38.338  33.701  37.958  1.00  0.00     0.006 A 
ENDBRANCH  44  58
BRANCH  45  66
ATOM     66  C   UNL A   1      41.780  27.079  27.547  1.00  0.00     0.057 A 
ATOM     67  C   UNL A   1      41.357  25.762  27.338  1.00  0.00     0.134 A 
ATOM     68  C   UNL A   1      42.599  27.657  26.569  1.00  0.00     0.134 A 
ATOM     69  F   UNL A   1      40.589  25.147  28.250  1.00  0.00    -0.206 F 
ATOM     70  C   UNL A   1      41.741  25.042  26.205  1.00  0.00     0.040 A 
ATOM     71  C   UNL A   1      42.973  26.957  25.421  1.00  0.00     0.040 A 
ATOM     72  F   UNL A   1      43.038  28.917  26.711  1.00  0.00    -0.206 F 
ATOM     73  C   UNL A   1      42.547  25.642  25.240  1.00  0.00     0.006 A 
ENDBRANCH  45  66
BRANCH  57  74
ATOM     74  C   UNL A   1      44.251  27.344  34.052  1.00  0.00     0.057 A 
ATOM     75  C   UNL A   1      45.533  27.905  34.130  1.00  0.00     0.134 A 
ATOM     76  C   UNL A   1      44.047  26.108  34.676  1.00  0.00     0.134 A 
ATOM     77  F   UNL A   1      45.796  29.082  33.542  1.00  0.00    -0.206 F 
ATOM     78  C   UNL A   1      46.577  27.249  34.784  1.00  0.00     0.040 A 
ATOM     79  C   UNL A   1      45.076  25.454  35.355  1.00  0.00     0.040 A 
ATOM     80  F   UNL A   1      42.840  25.521  34.648  1.00  0.00    -0.206 F 
ATOM     81  C   UNL A   1      46.346  26.023  35.406  1.00  0.00     0.006 A 
ENDBRANCH  57  74
ENDBRANCH  31  32
ENDBRANCH  24  26
ENDBRANCH  23  24
ENDBRANCH  22  23
ENDBRANCH  21  22
ENDBRANCH  20  21
ENDBRANCH   1  20
TORSDOF 17
ENDMDL
