MODEL 1
REMARK VINA RESULT:     -11.7      0.000      0.000
REMARK SMILES O=C(OCCOCCOC(=O)[C@@H]1CCC[C@@H](C(=O)N2CCN3C(=O)NC[C@@H]3C2)C1)c1ccc(-c2c3nc(c(-c4c(F)cccc4F)c4ccc([nH]4)c(-c4c(F)cccc4F)c4nc(c(-c5c(F)cccc5F)c5ccc2[nH]5)C=C4)C=C3)cc1
REMARK SMILES IDX 6 1 5 2 4 3 3 4 2 5 1 6 30 7 31 8 83 9 32 10 82 11 33 12
REMARK SMILES IDX 34 13 35 14 76 15 36 16 81 17 75 18 77 19 37 20 80 21 74 22
REMARK SMILES IDX 73 23 38 25 64 26 47 27 63 28 48 29 51 30 62 31 78 32 49 33
REMARK SMILES IDX 50 34 61 36 79 37 52 38 39 39 40 40 45 41 41 42 42 43 44 44
REMARK SMILES IDX 46 45 43 46 65 47 66 48 71 49 67 50 68 51 70 52 72 53 69 54
REMARK SMILES IDX 53 55 54 56 59 57 55 58 56 59 58 60 60 61 57 62 7 63 8 64
REMARK SMILES IDX 9 65 10 66 11 67 12 68 13 69 29 70 14 71 16 72 15 73 17 74
REMARK SMILES IDX 18 75 19 76 20 77 28 78 21 79 27 80 22 81 26 82 23 83 25 84
REMARK SMILES IDX 24 85
REMARK H PARENT 77 24 51 35 25 86
REMARK Flexibility Score: inf
ROOT
ATOM      1  O   UNL A   1      41.652  21.340  25.512  1.00  0.00    -0.374 OA
ENDROOT
BRANCH   1   2
ATOM      2  C   UNL A   1      43.046  21.155  25.755  1.00  0.00     0.202 C 
BRANCH   2   3
ATOM      3  C   UNL A   1      44.086  22.084  25.118  1.00  0.00     0.261 C 
BRANCH   3   4
ATOM      4  O   UNL A   1      43.539  23.334  24.666  1.00  0.00    -0.460 OA
BRANCH   4   5
ATOM      5  C   UNL A   1      43.932  24.569  25.081  1.00  0.00     0.338 C 
ATOM      6  O   UNL A   1      44.948  25.080  24.627  1.00  0.00    -0.246 OA
BRANCH   5   7
ATOM      7  C   UNL A   1      43.134  25.313  26.090  1.00  0.00     0.060 A 
ATOM      8  C   UNL A   1      43.228  26.689  26.229  1.00  0.00     0.016 A 
ATOM      9  C   UNL A   1      42.235  24.639  26.913  1.00  0.00     0.016 A 
ATOM     10  C   UNL A   1      42.655  27.381  27.249  1.00  0.00     0.010 A 
ATOM     11  C   UNL A   1      41.531  25.350  27.896  1.00  0.00     0.010 A 
ATOM     12  C   UNL A   1      41.780  26.718  28.079  1.00  0.00    -0.014 A 
BRANCH  12  13
ATOM     13  C   UNL A   1      41.337  27.517  29.218  1.00  0.00     0.031 A 
ATOM     14  C   UNL A   1      42.241  27.557  30.404  1.00  0.00     0.074 A 
ATOM     15  C   UNL A   1      40.325  28.388  29.043  1.00  0.00     0.049 A 
ATOM     16  N   UNL A   1      42.076  28.161  31.543  1.00  0.00    -0.248 NA
ATOM     17  C   UNL A   1      43.520  26.830  30.283  1.00  0.00     0.031 C 
ATOM     18  C   UNL A   1      39.571  28.574  27.792  1.00  0.00     0.029 A 
ATOM     19  N   UNL A   1      39.808  29.330  29.880  1.00  0.00    -0.354 N 
ATOM     20  C   UNL A   1      43.187  27.824  32.301  1.00  0.00     0.074 A 
ATOM     21  C   UNL A   1      44.035  26.984  31.490  1.00  0.00     0.031 C 
ATOM     22  C   UNL A   1      38.712  29.594  27.943  1.00  0.00     0.029 A 
ATOM     23  C   UNL A   1      38.780  30.049  29.322  1.00  0.00     0.049 A 
ATOM     24  H   UNL A   1      40.140  29.481  30.794  1.00  0.00     0.167 HD
ATOM     25  C   UNL A   1      43.439  28.173  33.580  1.00  0.00     0.037 A 
ATOM     26  C   UNL A   1      37.953  30.933  29.902  1.00  0.00     0.037 A 
ATOM     27  C   UNL A   1      42.557  29.030  34.324  1.00  0.00     0.049 A 
ATOM     28  C   UNL A   1      38.177  31.204  31.362  1.00  0.00     0.074 A 
ATOM     29  C   UNL A   1      42.624  29.406  35.649  1.00  0.00     0.029 A 
ATOM     30  N   UNL A   1      41.436  29.650  33.780  1.00  0.00    -0.354 N 
ATOM     31  N   UNL A   1      39.143  30.773  32.142  1.00  0.00    -0.248 NA
ATOM     32  C   UNL A   1      37.193  32.057  32.031  1.00  0.00     0.031 C 
ATOM     33  C   UNL A   1      41.508  30.206  35.921  1.00  0.00     0.029 A 
ATOM     34  C   UNL A   1      40.787  30.390  34.748  1.00  0.00     0.049 A 
ATOM     35  H   UNL A   1      41.147  29.571  32.842  1.00  0.00     0.167 HD
ATOM     36  C   UNL A   1      38.904  31.329  33.389  1.00  0.00     0.074 A 
ATOM     37  C   UNL A   1      37.705  32.137  33.250  1.00  0.00     0.031 C 
ATOM     38  C   UNL A   1      39.604  31.191  34.542  1.00  0.00     0.037 A 
BRANCH  25  39
ATOM     39  C   UNL A   1      44.613  27.519  34.241  1.00  0.00     0.057 A 
ATOM     40  C   UNL A   1      44.532  26.280  34.889  1.00  0.00     0.134 A 
ATOM     41  C   UNL A   1      45.837  28.199  34.305  1.00  0.00     0.134 A 
ATOM     42  F   UNL A   1      43.378  25.596  34.908  1.00  0.00    -0.206 F 
ATOM     43  C   UNL A   1      45.614  25.758  35.603  1.00  0.00     0.040 A 
ATOM     44  C   UNL A   1      46.933  27.674  34.990  1.00  0.00     0.040 A 
ATOM     45  F   UNL A   1      45.978  29.401  33.724  1.00  0.00    -0.206 F 
ATOM     46  C   UNL A   1      46.820  26.455  35.652  1.00  0.00     0.006 A 
ENDBRANCH  25  39
BRANCH  26  47
ATOM     47  C   UNL A   1      36.826  31.538  29.145  1.00  0.00     0.057 A 
ATOM     48  C   UNL A   1      35.694  30.792  28.804  1.00  0.00     0.134 A 
ATOM     49  C   UNL A   1      36.861  32.875  28.724  1.00  0.00     0.134 A 
ATOM     50  F   UNL A   1      35.600  29.504  29.163  1.00  0.00    -0.206 F 
ATOM     51  C   UNL A   1      34.651  31.344  28.055  1.00  0.00     0.040 A 
ATOM     52  C   UNL A   1      35.813  33.449  28.002  1.00  0.00     0.040 A 
ATOM     53  F   UNL A   1      37.914  33.654  29.019  1.00  0.00    -0.206 F 
ATOM     54  C   UNL A   1      34.707  32.678  27.656  1.00  0.00     0.006 A 
ENDBRANCH  26  47
BRANCH  38  55
ATOM     55  C   UNL A   1      39.121  31.993  35.711  1.00  0.00     0.057 A 
ATOM     56  C   UNL A   1      39.522  33.317  35.923  1.00  0.00     0.134 A 
ATOM     57  C   UNL A   1      38.209  31.432  36.612  1.00  0.00     0.134 A 
ATOM     58  F   UNL A   1      40.405  33.902  35.101  1.00  0.00    -0.206 F 
ATOM     59  C   UNL A   1      39.053  34.047  37.014  1.00  0.00     0.040 A 
ATOM     60  C   UNL A   1      37.705  32.163  37.684  1.00  0.00     0.040 A 
ATOM     61  F   UNL A   1      37.780  30.170  36.453  1.00  0.00    -0.206 F 
ATOM     62  C   UNL A   1      38.135  33.472  37.893  1.00  0.00     0.006 A 
ENDBRANCH  38  55
ENDBRANCH  12  13
ENDBRANCH   5   7
ENDBRANCH   4   5
ENDBRANCH   3   4
ENDBRANCH   2   3
ENDBRANCH   1   2
BRANCH   1  63
ATOM     63  C   UNL A   1      40.654  20.859  26.416  1.00  0.00     0.202 C 
BRANCH  63  64
ATOM     64  C   UNL A   1      39.711  22.012  26.764  1.00  0.00     0.261 C 
BRANCH  64  65
ATOM     65  O   UNL A   1      38.518  21.806  26.009  1.00  0.00    -0.463 OA
BRANCH  65  66
ATOM     66  C   UNL A   1      37.857  22.976  25.773  1.00  0.00     0.309 C 
ATOM     67  O   UNL A   1      38.235  24.081  26.134  1.00  0.00    -0.252 OA
BRANCH  66  68
ATOM     68  C   UNL A   1      36.525  22.668  25.132  1.00  0.00     0.100 C 
ATOM     69  C   UNL A   1      35.619  21.531  25.661  1.00  0.00     0.015 C 
ATOM     70  C   UNL A   1      36.338  23.049  23.687  1.00  0.00     0.028 C 
ATOM     71  C   UNL A   1      34.157  21.661  25.216  1.00  0.00     0.002 C 
ATOM     72  C   UNL A   1      34.864  23.438  23.511  1.00  0.00     0.079 C 
ATOM     73  C   UNL A   1      33.986  22.211  23.805  1.00  0.00     0.013 C 
BRANCH  72  74
ATOM     74  C   UNL A   1      34.320  24.767  24.176  1.00  0.00     0.225 C 
ATOM     75  O   UNL A   1      34.733  25.036  25.312  1.00  0.00    -0.275 OA
BRANCH  74  76
ATOM     76  N   UNL A   1      33.588  25.742  23.480  1.00  0.00    -0.339 N 
ATOM     77  C   UNL A   1      32.635  25.522  22.357  1.00  0.00     0.141 C 
ATOM     78  C   UNL A   1      33.572  27.087  24.049  1.00  0.00     0.146 C 
ATOM     79  C   UNL A   1      31.499  26.491  22.052  1.00  0.00     0.143 C 
ATOM     80  C   UNL A   1      32.150  27.622  24.196  1.00  0.00     0.125 C 
ATOM     81  N   UNL A   1      31.446  27.607  22.931  1.00  0.00    -0.317 N 
ATOM     82  C   UNL A   1      32.069  29.098  24.574  1.00  0.00     0.144 C 
ATOM     83  C   UNL A   1      30.687  28.735  22.735  1.00  0.00     0.317 C 
ATOM     84  N   UNL A   1      30.984  29.603  23.765  1.00  0.00    -0.336 N 
ATOM     85  O   UNL A   1      29.916  28.956  21.811  1.00  0.00    -0.249 OA
ATOM     86  H   UNL A   1      30.517  30.454  23.929  1.00  0.00     0.165 HD
ENDBRANCH  74  76
ENDBRANCH  72  74
ENDBRANCH  66  68
ENDBRANCH  65  66
ENDBRANCH  64  65
ENDBRANCH  63  64
ENDBRANCH   1  63
TORSDOF 16
ENDMDL
MODEL 2
REMARK VINA RESULT:     -11.6      3.815      7.616
REMARK SMILES O=C(OCCOCCOC(=O)[C@@H]1CCC[C@@H](C(=O)N2CCN3C(=O)NC[C@@H]3C2)C1)c1ccc(-c2c3nc(c(-c4c(F)cccc4F)c4ccc([nH]4)c(-c4c(F)cccc4F)c4nc(c(-c5c(F)cccc5F)c5ccc2[nH]5)C=C4)C=C3)cc1
REMARK SMILES IDX 6 1 5 2 4 3 3 4 2 5 1 6 30 7 31 8 83 9 32 10 82 11 33 12
REMARK SMILES IDX 34 13 35 14 76 15 36 16 81 17 75 18 77 19 37 20 80 21 74 22
REMARK SMILES IDX 73 23 38 25 64 26 47 27 63 28 48 29 51 30 62 31 78 32 49 33
REMARK SMILES IDX 50 34 61 36 79 37 52 38 39 39 40 40 45 41 41 42 42 43 44 44
REMARK SMILES IDX 46 45 43 46 65 47 66 48 71 49 67 50 68 51 70 52 72 53 69 54
REMARK SMILES IDX 53 55 54 56 59 57 55 58 56 59 58 60 60 61 57 62 7 63 8 64
REMARK SMILES IDX 9 65 10 66 11 67 12 68 13 69 29 70 14 71 16 72 15 73 17 74
REMARK SMILES IDX 18 75 19 76 20 77 28 78 21 79 27 80 22 81 26 82 23 83 25 84
REMARK SMILES IDX 24 85
REMARK H PARENT 77 24 51 35 25 86
REMARK Flexibility Score: inf
ROOT
ATOM      1  O   UNL A   1      35.105  18.691  24.362  1.00  0.00    -0.374 OA
ENDROOT
BRANCH   1   2
ATOM      2  C   UNL A   1      35.837  19.692  25.067  1.00  0.00     0.202 C 
BRANCH   2   3
ATOM      3  C   UNL A   1      37.280  20.035  24.677  1.00  0.00     0.261 C 
BRANCH   3   4
ATOM      4  O   UNL A   1      37.833  21.128  25.429  1.00  0.00    -0.460 OA
BRANCH   4   5
ATOM      5  C   UNL A   1      39.054  21.143  26.028  1.00  0.00     0.338 C 
ATOM      6  O   UNL A   1      39.709  20.112  26.125  1.00  0.00    -0.246 OA
BRANCH   5   7
ATOM      7  C   UNL A   1      39.610  22.408  26.574  1.00  0.00     0.060 A 
ATOM      8  C   UNL A   1      39.146  23.649  26.168  1.00  0.00     0.016 A 
ATOM      9  C   UNL A   1      40.606  22.377  27.547  1.00  0.00     0.016 A 
ATOM     10  C   UNL A   1      39.744  24.822  26.505  1.00  0.00     0.010 A 
ATOM     11  C   UNL A   1      41.157  23.580  28.012  1.00  0.00     0.010 A 
ATOM     12  C   UNL A   1      40.742  24.798  27.452  1.00  0.00    -0.014 A 
BRANCH  12  13
ATOM     13  C   UNL A   1      41.407  26.085  27.633  1.00  0.00     0.031 A 
ATOM     14  C   UNL A   1      40.754  27.057  28.558  1.00  0.00     0.074 A 
ATOM     15  C   UNL A   1      42.679  26.220  27.214  1.00  0.00     0.049 A 
ATOM     16  N   UNL A   1      41.118  28.265  28.872  1.00  0.00    -0.248 NA
ATOM     17  C   UNL A   1      39.531  26.594  29.243  1.00  0.00     0.031 C 
ATOM     18  C   UNL A   1      43.462  25.180  26.524  1.00  0.00     0.029 A 
ATOM     19  N   UNL A   1      43.563  27.244  27.371  1.00  0.00    -0.354 N 
ATOM     20  C   UNL A   1      40.130  28.735  29.723  1.00  0.00     0.074 A 
ATOM     21  C   UNL A   1      39.163  27.678  29.903  1.00  0.00     0.031 C 
ATOM     22  C   UNL A   1      44.719  25.616  26.352  1.00  0.00     0.029 A 
ATOM     23  C   UNL A   1      44.793  26.994  26.812  1.00  0.00     0.049 A 
ATOM     24  H   UNL A   1      43.343  28.082  27.839  1.00  0.00     0.167 HD
ATOM     25  C   UNL A   1      40.044  29.965  30.272  1.00  0.00     0.037 A 
ATOM     26  C   UNL A   1      45.833  27.825  26.646  1.00  0.00     0.037 A 
ATOM     27  C   UNL A   1      41.055  30.964  30.066  1.00  0.00     0.049 A 
ATOM     28  C   UNL A   1      45.658  29.228  27.153  1.00  0.00     0.074 A 
ATOM     29  C   UNL A   1      41.073  32.280  30.478  1.00  0.00     0.029 A 
ATOM     30  N   UNL A   1      42.244  30.735  29.379  1.00  0.00    -0.354 N 
ATOM     31  N   UNL A   1      44.658  29.740  27.835  1.00  0.00    -0.248 NA
ATOM     32  C   UNL A   1      46.732  30.176  26.849  1.00  0.00     0.031 C 
ATOM     33  C   UNL A   1      42.248  32.863  29.987  1.00  0.00     0.029 A 
ATOM     34  C   UNL A   1      42.996  31.892  29.334  1.00  0.00     0.049 A 
ATOM     35  H   UNL A   1      42.509  29.874  28.982  1.00  0.00     0.167 HD
ATOM     36  C   UNL A   1      44.995  31.063  28.074  1.00  0.00     0.074 A 
ATOM     37  C   UNL A   1      46.300  31.265  27.468  1.00  0.00     0.031 C 
ATOM     38  C   UNL A   1      44.300  32.025  28.731  1.00  0.00     0.037 A 
BRANCH  25  39
ATOM     39  C   UNL A   1      38.776  30.293  31.000  1.00  0.00     0.057 A 
ATOM     40  C   UNL A   1      37.669  30.882  30.377  1.00  0.00     0.134 A 
ATOM     41  C   UNL A   1      38.704  30.093  32.386  1.00  0.00     0.134 A 
ATOM     42  F   UNL A   1      37.688  31.146  29.062  1.00  0.00    -0.206 F 
ATOM     43  C   UNL A   1      36.551  31.290  31.110  1.00  0.00     0.040 A 
ATOM     44  C   UNL A   1      37.581  30.470  33.124  1.00  0.00     0.040 A 
ATOM     45  F   UNL A   1      39.738  29.553  33.050  1.00  0.00    -0.206 F 
ATOM     46  C   UNL A   1      36.505  31.082  32.487  1.00  0.00     0.006 A 
ENDBRANCH  25  39
BRANCH  26  47
ATOM     47  C   UNL A   1      47.054  27.389  25.921  1.00  0.00     0.057 A 
ATOM     48  C   UNL A   1      48.146  26.839  26.599  1.00  0.00     0.134 A 
ATOM     49  C   UNL A   1      47.170  27.529  24.530  1.00  0.00     0.134 A 
ATOM     50  F   UNL A   1      48.109  26.687  27.930  1.00  0.00    -0.206 F 
ATOM     51  C   UNL A   1      49.314  26.466  25.927  1.00  0.00     0.040 A 
ATOM     52  C   UNL A   1      48.318  27.133  23.842  1.00  0.00     0.040 A 
ATOM     53  F   UNL A   1      46.160  28.046  23.813  1.00  0.00    -0.206 F 
ATOM     54  C   UNL A   1      49.400  26.609  24.543  1.00  0.00     0.006 A 
ENDBRANCH  26  47
BRANCH  38  55
ATOM     55  C   UNL A   1      44.983  33.349  28.883  1.00  0.00     0.057 A 
ATOM     56  C   UNL A   1      45.841  33.626  29.952  1.00  0.00     0.134 A 
ATOM     57  C   UNL A   1      44.799  34.343  27.915  1.00  0.00     0.134 A 
ATOM     58  F   UNL A   1      46.045  32.717  30.918  1.00  0.00    -0.206 F 
ATOM     59  C   UNL A   1      46.472  34.864  30.069  1.00  0.00     0.040 A 
ATOM     60  C   UNL A   1      45.451  35.569  28.001  1.00  0.00     0.040 A 
ATOM     61  F   UNL A   1      43.995  34.129  26.861  1.00  0.00    -0.206 F 
ATOM     62  C   UNL A   1      46.284  35.835  29.086  1.00  0.00     0.006 A 
ENDBRANCH  38  55
ENDBRANCH  12  13
ENDBRANCH   5   7
ENDBRANCH   4   5
ENDBRANCH   3   4
ENDBRANCH   2   3
ENDBRANCH   1   2
BRANCH   1  63
ATOM     63  C   UNL A   1      33.836  18.215  24.819  1.00  0.00     0.202 C 
BRANCH  63  64
ATOM     64  C   UNL A   1      32.742  18.797  23.923  1.00  0.00     0.261 C 
BRANCH  64  65
ATOM     65  O   UNL A   1      32.293  19.996  24.555  1.00  0.00    -0.463 OA
BRANCH  65  66
ATOM     66  C   UNL A   1      32.386  21.074  23.724  1.00  0.00     0.309 C 
ATOM     67  O   UNL A   1      31.978  21.112  22.573  1.00  0.00    -0.252 OA
BRANCH  66  68
ATOM     68  C   UNL A   1      33.201  22.149  24.404  1.00  0.00     0.100 C 
ATOM     69  C   UNL A   1      34.363  22.864  23.674  1.00  0.00     0.015 C 
ATOM     70  C   UNL A   1      33.275  22.127  25.907  1.00  0.00     0.028 C 
ATOM     71  C   UNL A   1      34.755  24.199  24.316  1.00  0.00     0.002 C 
ATOM     72  C   UNL A   1      33.362  23.586  26.376  1.00  0.00     0.079 C 
ATOM     73  C   UNL A   1      34.660  24.206  25.837  1.00  0.00     0.013 C 
BRANCH  72  74
ATOM     74  C   UNL A   1      32.104  24.534  26.218  1.00  0.00     0.225 C 
ATOM     75  O   UNL A   1      31.327  24.601  27.180  1.00  0.00    -0.275 OA
BRANCH  74  76
ATOM     76  N   UNL A   1      31.946  25.445  25.162  1.00  0.00    -0.339 N 
ATOM     77  C   UNL A   1      31.261  25.207  23.861  1.00  0.00     0.141 C 
ATOM     78  C   UNL A   1      32.278  26.841  25.439  1.00  0.00     0.146 C 
ATOM     79  C   UNL A   1      30.645  26.338  23.047  1.00  0.00     0.143 C 
ATOM     80  C   UNL A   1      31.145  27.782  25.038  1.00  0.00     0.125 C 
ATOM     81  N   UNL A   1      30.792  27.620  23.644  1.00  0.00    -0.317 N 
ATOM     82  C   UNL A   1      31.508  29.262  25.093  1.00  0.00     0.144 C 
ATOM     83  C   UNL A   1      30.547  28.818  23.018  1.00  0.00     0.317 C 
ATOM     84  N   UNL A   1      30.889  29.814  23.910  1.00  0.00    -0.336 N 
ATOM     85  O   UNL A   1      30.139  28.987  21.878  1.00  0.00    -0.249 OA
ATOM     86  H   UNL A   1      30.730  30.774  23.761  1.00  0.00     0.165 HD
ENDBRANCH  74  76
ENDBRANCH  72  74
ENDBRANCH  66  68
ENDBRANCH  65  66
ENDBRANCH  64  65
ENDBRANCH  63  64
ENDBRANCH   1  63
TORSDOF 16
ENDMDL
MODEL 3
REMARK VINA RESULT:     -11.6      3.869      6.794
REMARK SMILES O=C(OCCOCCOC(=O)[C@@H]1CCC[C@@H](C(=O)N2CCN3C(=O)NC[C@@H]3C2)C1)c1ccc(-c2c3nc(c(-c4c(F)cccc4F)c4ccc([nH]4)c(-c4c(F)cccc4F)c4nc(c(-c5c(F)cccc5F)c5ccc2[nH]5)C=C4)C=C3)cc1
REMARK SMILES IDX 6 1 5 2 4 3 3 4 2 5 1 6 30 7 31 8 83 9 32 10 82 11 33 12
REMARK SMILES IDX 34 13 35 14 76 15 36 16 81 17 75 18 77 19 37 20 80 21 74 22
REMARK SMILES IDX 73 23 38 25 64 26 47 27 63 28 48 29 51 30 62 31 78 32 49 33
REMARK SMILES IDX 50 34 61 36 79 37 52 38 39 39 40 40 45 41 41 42 42 43 44 44
REMARK SMILES IDX 46 45 43 46 65 47 66 48 71 49 67 50 68 51 70 52 72 53 69 54
REMARK SMILES IDX 53 55 54 56 59 57 55 58 56 59 58 60 60 61 57 62 7 63 8 64
REMARK SMILES IDX 9 65 10 66 11 67 12 68 13 69 29 70 14 71 16 72 15 73 17 74
REMARK SMILES IDX 18 75 19 76 20 77 28 78 21 79 27 80 22 81 26 82 23 83 25 84
REMARK SMILES IDX 24 85
REMARK H PARENT 77 24 51 35 25 86
REMARK Flexibility Score: inf
ROOT
ATOM      1  O   UNL A   1      37.142  21.719  24.241  1.00  0.00    -0.374 OA
ENDROOT
BRANCH   1   2
ATOM      2  C   UNL A   1      37.655  20.912  25.301  1.00  0.00     0.202 C 
BRANCH   2   3
ATOM      3  C   UNL A   1      38.595  19.737  25.011  1.00  0.00     0.261 C 
BRANCH   3   4
ATOM      4  O   UNL A   1      39.584  19.528  26.033  1.00  0.00    -0.460 OA
BRANCH   4   5
ATOM      5  C   UNL A   1      40.844  20.041  26.037  1.00  0.00     0.338 C 
ATOM      6  O   UNL A   1      41.774  19.404  25.556  1.00  0.00    -0.246 OA
BRANCH   5   7
ATOM      7  C   UNL A   1      41.111  21.380  26.624  1.00  0.00     0.060 A 
ATOM      8  C   UNL A   1      40.550  22.534  26.103  1.00  0.00     0.016 A 
ATOM      9  C   UNL A   1      41.920  21.505  27.752  1.00  0.00     0.016 A 
ATOM     10  C   UNL A   1      40.906  23.786  26.496  1.00  0.00     0.010 A 
ATOM     11  C   UNL A   1      42.204  22.780  28.260  1.00  0.00     0.010 A 
ATOM     12  C   UNL A   1      41.719  23.918  27.598  1.00  0.00    -0.014 A 
BRANCH  12  13
ATOM     13  C   UNL A   1      42.151  25.291  27.843  1.00  0.00     0.031 A 
ATOM     14  C   UNL A   1      43.395  25.740  27.152  1.00  0.00     0.074 A 
ATOM     15  C   UNL A   1      41.284  26.149  28.414  1.00  0.00     0.049 A 
ATOM     16  N   UNL A   1      44.003  26.887  27.217  1.00  0.00    -0.248 NA
ATOM     17  C   UNL A   1      44.031  24.767  26.243  1.00  0.00     0.031 C 
ATOM     18  C   UNL A   1      39.929  25.807  28.875  1.00  0.00     0.029 A 
ATOM     19  N   UNL A   1      41.376  27.490  28.634  1.00  0.00    -0.354 N 
ATOM     20  C   UNL A   1      45.133  26.748  26.425  1.00  0.00     0.074 A 
ATOM     21  C   UNL A   1      45.118  25.417  25.866  1.00  0.00     0.031 C 
ATOM     22  C   UNL A   1      39.309  26.922  29.290  1.00  0.00     0.029 A 
ATOM     23  C   UNL A   1      40.259  28.022  29.231  1.00  0.00     0.049 A 
ATOM     24  H   UNL A   1      42.165  28.026  28.390  1.00  0.00     0.167 HD
ATOM     25  C   UNL A   1      46.106  27.661  26.224  1.00  0.00     0.037 A 
ATOM     26  C   UNL A   1      40.068  29.256  29.723  1.00  0.00     0.037 A 
ATOM     27  C   UNL A   1      46.046  28.977  26.798  1.00  0.00     0.049 A 
ATOM     28  C   UNL A   1      41.219  30.213  29.600  1.00  0.00     0.074 A 
ATOM     29  C   UNL A   1      46.988  29.984  26.762  1.00  0.00     0.029 A 
ATOM     30  N   UNL A   1      44.958  29.461  27.519  1.00  0.00    -0.354 N 
ATOM     31  N   UNL A   1      42.366  30.049  28.980  1.00  0.00    -0.248 NA
ATOM     32  C   UNL A   1      41.068  31.511  30.260  1.00  0.00     0.031 C 
ATOM     33  C   UNL A   1      46.492  31.057  27.513  1.00  0.00     0.029 A 
ATOM     34  C   UNL A   1      45.212  30.747  27.953  1.00  0.00     0.049 A 
ATOM     35  H   UNL A   1      44.129  28.959  27.694  1.00  0.00     0.167 HD
ATOM     36  C   UNL A   1      43.063  31.234  29.145  1.00  0.00     0.074 A 
ATOM     37  C   UNL A   1      42.198  32.110  29.917  1.00  0.00     0.031 C 
ATOM     38  C   UNL A   1      44.300  31.576  28.704  1.00  0.00     0.037 A 
BRANCH  25  39
ATOM     39  C   UNL A   1      47.323  27.200  25.483  1.00  0.00     0.057 A 
ATOM     40  C   UNL A   1      48.391  26.540  26.104  1.00  0.00     0.134 A 
ATOM     41  C   UNL A   1      47.463  27.512  24.123  1.00  0.00     0.134 A 
ATOM     42  F   UNL A   1      48.344  26.253  27.414  1.00  0.00    -0.206 F 
ATOM     43  C   UNL A   1      49.565  26.236  25.410  1.00  0.00     0.040 A 
ATOM     44  C   UNL A   1      48.619  27.187  23.412  1.00  0.00     0.040 A 
ATOM     45  F   UNL A   1      46.488  28.163  23.471  1.00  0.00    -0.206 F 
ATOM     46  C   UNL A   1      49.679  26.558  24.059  1.00  0.00     0.006 A 
ENDBRANCH  25  39
BRANCH  26  47
ATOM     47  C   UNL A   1      38.809  29.613  30.427  1.00  0.00     0.057 A 
ATOM     48  C   UNL A   1      38.672  29.439  31.808  1.00  0.00     0.134 A 
ATOM     49  C   UNL A   1      37.700  30.119  29.733  1.00  0.00     0.134 A 
ATOM     50  F   UNL A   1      39.688  28.948  32.531  1.00  0.00    -0.206 F 
ATOM     51  C   UNL A   1      37.475  29.733  32.468  1.00  0.00     0.040 A 
ATOM     52  C   UNL A   1      36.509  30.446  30.384  1.00  0.00     0.040 A 
ATOM     53  F   UNL A   1      37.760  30.316  28.407  1.00  0.00    -0.206 F 
ATOM     54  C   UNL A   1      36.391  30.242  31.755  1.00  0.00     0.006 A 
ENDBRANCH  26  47
BRANCH  38  55
ATOM     55  C   UNL A   1      44.741  32.978  28.988  1.00  0.00     0.057 A 
ATOM     56  C   UNL A   1      45.479  33.311  30.129  1.00  0.00     0.134 A 
ATOM     57  C   UNL A   1      44.449  33.999  28.075  1.00  0.00     0.134 A 
ATOM     58  F   UNL A   1      45.776  32.378  31.046  1.00  0.00    -0.206 F 
ATOM     59  C   UNL A   1      45.887  34.622  30.368  1.00  0.00     0.040 A 
ATOM     60  C   UNL A   1      44.882  35.305  28.284  1.00  0.00     0.040 A 
ATOM     61  F   UNL A   1      43.755  33.737  26.957  1.00  0.00    -0.206 F 
ATOM     62  C   UNL A   1      45.595  35.621  29.439  1.00  0.00     0.006 A 
ENDBRANCH  38  55
ENDBRANCH  12  13
ENDBRANCH   5   7
ENDBRANCH   4   5
ENDBRANCH   3   4
ENDBRANCH   2   3
ENDBRANCH   1   2
BRANCH   1  63
ATOM     63  C   UNL A   1      36.336  22.874  24.489  1.00  0.00     0.202 C 
BRANCH  63  64
ATOM     64  C   UNL A   1      35.362  23.050  23.323  1.00  0.00     0.261 C 
BRANCH  64  65
ATOM     65  O   UNL A   1      34.649  24.263  23.567  1.00  0.00    -0.463 OA
BRANCH  65  66
ATOM     66  C   UNL A   1      33.675  24.476  22.636  1.00  0.00     0.309 C 
ATOM     67  O   UNL A   1      33.609  23.923  21.548  1.00  0.00    -0.252 OA
BRANCH  66  68
ATOM     68  C   UNL A   1      32.785  25.602  23.104  1.00  0.00     0.100 C 
ATOM     69  C   UNL A   1      31.957  26.445  22.106  1.00  0.00     0.015 C 
ATOM     70  C   UNL A   1      33.126  26.266  24.412  1.00  0.00     0.028 C 
ATOM     71  C   UNL A   1      30.795  27.200  22.763  1.00  0.00     0.002 C 
ATOM     72  C   UNL A   1      31.801  26.687  25.063  1.00  0.00     0.079 C 
ATOM     73  C   UNL A   1      31.108  27.720  24.161  1.00  0.00     0.013 C 
BRANCH  72  74
ATOM     74  C   UNL A   1      30.814  25.578  25.614  1.00  0.00     0.225 C 
ATOM     75  O   UNL A   1      29.635  25.913  25.786  1.00  0.00    -0.275 OA
BRANCH  74  76
ATOM     76  N   UNL A   1      31.146  24.218  25.706  1.00  0.00    -0.339 N 
ATOM     77  C   UNL A   1      30.997  23.180  24.650  1.00  0.00     0.141 C 
ATOM     78  C   UNL A   1      31.930  23.807  26.870  1.00  0.00     0.146 C 
ATOM     79  C   UNL A   1      31.865  21.928  24.611  1.00  0.00     0.143 C 
ATOM     80  C   UNL A   1      33.166  23.008  26.465  1.00  0.00     0.125 C 
ATOM     81  N   UNL A   1      32.811  21.852  25.669  1.00  0.00    -0.317 N 
ATOM     82  C   UNL A   1      33.906  22.361  27.631  1.00  0.00     0.144 C 
ATOM     83  C   UNL A   1      33.538  20.736  26.004  1.00  0.00     0.317 C 
ATOM     84  N   UNL A   1      34.269  21.056  27.130  1.00  0.00    -0.336 N 
ATOM     85  O   UNL A   1      33.524  19.650  25.443  1.00  0.00    -0.249 OA
ATOM     86  H   UNL A   1      34.950  20.473  27.536  1.00  0.00     0.165 HD
ENDBRANCH  74  76
ENDBRANCH  72  74
ENDBRANCH  66  68
ENDBRANCH  65  66
ENDBRANCH  64  65
ENDBRANCH  63  64
ENDBRANCH   1  63
TORSDOF 16
ENDMDL
