MODEL 1
REMARK VINA RESULT:     -10.1      0.000      0.000
REMARK SMILES C[C@H](CNS(=O)(=O)CCC(=O)OCCOCCOC(=O)c1ccc(-c2c3nc(c(-c4c(F)cccc4F)c4ccc([nH]4)c(-c4c(F)cccc4F)c4nc(c(-c5c(F)cccc5F)c5ccc2[nH]5)C=C4)C=C3)cc1)c1ccccc1
REMARK SMILES IDX 13 1 12 2 10 3 11 4 9 5 8 6 5 7 6 8 7 9 4 10 3 12 2 13 1 14
REMARK SMILES IDX 75 15 76 16 80 17 77 18 79 19 78 20 14 21 15 22 16 23 17 24
REMARK SMILES IDX 18 25 19 26 20 27 21 28 22 29 74 30 23 31 73 32 24 33 25 34
REMARK SMILES IDX 26 35 67 36 27 37 72 38 66 39 68 40 28 41 71 42 65 43 64 44
REMARK SMILES IDX 29 46 55 47 38 48 54 49 39 50 42 51 53 52 69 53 40 54 41 55
REMARK SMILES IDX 52 57 70 58 43 59 30 60 31 61 36 62 32 63 33 64 35 65 37 66
REMARK SMILES IDX 34 67 56 68 57 69 62 70 58 71 59 72 61 73 63 74 60 75 44 76
REMARK SMILES IDX 45 77 50 78 46 79 47 80 49 81 51 82 48 83
REMARK H PARENT 4 11 68 45 42 56
REMARK Flexibility Score: inf
ROOT
ATOM      1  C   UNL A   1      31.187  27.456  23.620  1.00  0.00     0.261 C 
ENDROOT
BRANCH   1   2
ATOM      2  O   UNL A   1      31.768  27.331  22.317  1.00  0.00    -0.463 OA
BRANCH   2   3
ATOM      3  C   UNL A   1      32.898  26.607  22.206  1.00  0.00     0.306 C 
ATOM      4  O   UNL A   1      33.288  26.072  21.179  1.00  0.00    -0.252 OA
BRANCH   3   5
ATOM      5  C   UNL A   1      33.609  26.471  23.528  1.00  0.00     0.140 C 
BRANCH   5   6
ATOM      6  C   UNL A   1      34.283  25.130  23.740  1.00  0.00     0.165 C 
BRANCH   6   7
ATOM      7  S   UNL A   1      33.702  24.204  25.159  1.00  0.00     0.212 S 
ATOM      8  O   UNL A   1      32.630  24.952  25.766  1.00  0.00    -0.212 OA
ATOM      9  O   UNL A   1      34.862  23.812  25.941  1.00  0.00    -0.212 OA
BRANCH   7  10
ATOM     10  N   UNL A   1      33.059  22.768  24.558  1.00  0.00    -0.215 NA
ATOM     11  H   UNL A   1      32.055  22.909  24.436  1.00  0.00     0.141 HD
BRANCH  10  12
ATOM     12  C   UNL A   1      33.241  21.554  25.378  1.00  0.00     0.106 C 
BRANCH  12  13
ATOM     13  C   UNL A   1      34.212  20.466  24.843  1.00  0.00     0.031 C 
ATOM     14  C   UNL A   1      35.759  20.465  24.995  1.00  0.00     0.014 C 
BRANCH  13  15
ATOM     15  C   UNL A   1      33.709  19.057  24.639  1.00  0.00    -0.044 A 
ATOM     16  C   UNL A   1      34.583  17.953  24.631  1.00  0.00     0.004 A 
ATOM     17  C   UNL A   1      32.545  19.022  23.899  1.00  0.00     0.004 A 
ATOM     18  C   UNL A   1      34.428  16.957  23.670  1.00  0.00     0.000 A 
ATOM     19  C   UNL A   1      32.544  18.129  22.854  1.00  0.00     0.000 A 
ATOM     20  C   UNL A   1      33.437  17.089  22.725  1.00  0.00     0.000 A 
ENDBRANCH  13  15
ENDBRANCH  12  13
ENDBRANCH  10  12
ENDBRANCH   7  10
ENDBRANCH   6   7
ENDBRANCH   5   6
ENDBRANCH   3   5
ENDBRANCH   2   3
ENDBRANCH   1   2
BRANCH   1  21
ATOM     21  C   UNL A   1      31.050  28.930  24.034  1.00  0.00     0.202 C 
BRANCH  21  22
ATOM     22  O   UNL A   1      32.090  29.569  24.755  1.00  0.00    -0.374 OA
BRANCH  22  23
ATOM     23  C   UNL A   1      32.446  29.004  26.042  1.00  0.00     0.202 C 
BRANCH  23  24
ATOM     24  C   UNL A   1      33.965  28.804  26.458  1.00  0.00     0.261 C 
BRANCH  24  25
ATOM     25  O   UNL A   1      34.304  28.955  27.901  1.00  0.00    -0.460 OA
BRANCH  25  26
ATOM     26  C   UNL A   1      35.144  29.992  28.276  1.00  0.00     0.338 C 
ATOM     27  O   UNL A   1      34.737  31.070  28.688  1.00  0.00    -0.246 OA
BRANCH  26  28
ATOM     28  C   UNL A   1      36.642  29.644  28.323  1.00  0.00     0.060 A 
ATOM     29  C   UNL A   1      37.421  29.791  27.160  1.00  0.00     0.016 A 
ATOM     30  C   UNL A   1      37.332  29.210  29.466  1.00  0.00     0.016 A 
ATOM     31  C   UNL A   1      38.844  29.624  27.177  1.00  0.00     0.010 A 
ATOM     32  C   UNL A   1      38.761  28.987  29.464  1.00  0.00     0.010 A 
ATOM     33  C   UNL A   1      39.563  29.214  28.330  1.00  0.00    -0.014 A 
BRANCH  33  34
ATOM     34  C   UNL A   1      41.062  28.842  28.205  1.00  0.00     0.031 A 
ATOM     35  C   UNL A   1      41.373  27.443  27.730  1.00  0.00     0.074 A 
ATOM     36  C   UNL A   1      42.169  29.605  28.453  1.00  0.00     0.049 A 
ATOM     37  N   UNL A   1      42.533  26.891  27.476  1.00  0.00    -0.248 NA
ATOM     38  C   UNL A   1      40.230  26.526  27.641  1.00  0.00     0.031 C 
ATOM     39  C   UNL A   1      42.199  30.887  29.144  1.00  0.00     0.029 A 
ATOM     40  N   UNL A   1      43.488  29.490  28.001  1.00  0.00    -0.354 N 
ATOM     41  C   UNL A   1      42.271  25.542  27.297  1.00  0.00     0.074 A 
ATOM     42  C   UNL A   1      40.837  25.374  27.414  1.00  0.00     0.031 C 
ATOM     43  C   UNL A   1      43.305  31.567  28.775  1.00  0.00     0.029 A 
ATOM     44  C   UNL A   1      44.214  30.680  28.060  1.00  0.00     0.049 A 
ATOM     45  H   UNL A   1      43.869  28.645  27.670  1.00  0.00     0.167 HD
ATOM     46  C   UNL A   1      43.144  24.520  27.128  1.00  0.00     0.037 A 
ATOM     47  C   UNL A   1      45.466  31.020  27.646  1.00  0.00     0.037 A 
ATOM     48  C   UNL A   1      44.576  24.654  27.078  1.00  0.00     0.049 A 
ATOM     49  C   UNL A   1      46.419  29.886  27.348  1.00  0.00     0.074 A 
ATOM     50  C   UNL A   1      45.530  23.657  26.962  1.00  0.00     0.029 A 
ATOM     51  N   UNL A   1      45.266  25.856  27.160  1.00  0.00    -0.354 N 
ATOM     52  N   UNL A   1      46.157  28.611  27.215  1.00  0.00    -0.248 NA
ATOM     53  C   UNL A   1      47.858  30.207  27.299  1.00  0.00     0.031 C 
ATOM     54  C   UNL A   1      46.796  24.250  27.002  1.00  0.00     0.029 A 
ATOM     55  C   UNL A   1      46.632  25.622  27.081  1.00  0.00     0.049 A 
ATOM     56  H   UNL A   1      44.849  26.741  27.258  1.00  0.00     0.167 HD
ATOM     57  C   UNL A   1      47.387  27.976  27.126  1.00  0.00     0.074 A 
ATOM     58  C   UNL A   1      48.401  29.007  27.146  1.00  0.00     0.031 C 
ATOM     59  C   UNL A   1      47.645  26.647  27.084  1.00  0.00     0.037 A 
BRANCH  46  60
ATOM     60  C   UNL A   1      42.537  23.149  27.091  1.00  0.00     0.057 A 
ATOM     61  C   UNL A   1      42.305  22.476  25.884  1.00  0.00     0.134 A 
ATOM     62  C   UNL A   1      42.087  22.543  28.270  1.00  0.00     0.134 A 
ATOM     63  F   UNL A   1      42.680  23.025  24.718  1.00  0.00    -0.206 F 
ATOM     64  C   UNL A   1      41.594  21.277  25.846  1.00  0.00     0.040 A 
ATOM     65  C   UNL A   1      41.408  21.325  28.248  1.00  0.00     0.040 A 
ATOM     66  F   UNL A   1      42.272  23.137  29.459  1.00  0.00    -0.206 F 
ATOM     67  C   UNL A   1      41.143  20.698  27.031  1.00  0.00     0.006 A 
ENDBRANCH  46  60
BRANCH  47  68
ATOM     68  C   UNL A   1      46.009  32.430  27.651  1.00  0.00     0.057 A 
ATOM     69  C   UNL A   1      46.722  32.946  28.754  1.00  0.00     0.134 A 
ATOM     70  C   UNL A   1      45.755  33.342  26.618  1.00  0.00     0.134 A 
ATOM     71  F   UNL A   1      46.946  32.180  29.833  1.00  0.00    -0.206 F 
ATOM     72  C   UNL A   1      47.161  34.279  28.813  1.00  0.00     0.040 A 
ATOM     73  C   UNL A   1      46.238  34.656  26.636  1.00  0.00     0.040 A 
ATOM     74  F   UNL A   1      45.002  32.984  25.568  1.00  0.00    -0.206 F 
ATOM     75  C   UNL A   1      46.938  35.133  27.739  1.00  0.00     0.006 A 
ENDBRANCH  47  68
BRANCH  59  76
ATOM     76  C   UNL A   1      49.082  26.225  26.991  1.00  0.00     0.057 A 
ATOM     77  C   UNL A   1      49.803  25.768  28.102  1.00  0.00     0.134 A 
ATOM     78  C   UNL A   1      49.737  26.241  25.755  1.00  0.00     0.134 A 
ATOM     79  F   UNL A   1      49.240  25.745  29.319  1.00  0.00    -0.206 F 
ATOM     80  C   UNL A   1      51.133  25.357  27.986  1.00  0.00     0.040 A 
ATOM     81  C   UNL A   1      51.057  25.808  25.621  1.00  0.00     0.040 A 
ATOM     82  F   UNL A   1      49.100  26.666  24.653  1.00  0.00    -0.206 F 
ATOM     83  C   UNL A   1      51.759  25.367  26.741  1.00  0.00     0.006 A 
ENDBRANCH  59  76
ENDBRANCH  33  34
ENDBRANCH  26  28
ENDBRANCH  25  26
ENDBRANCH  24  25
ENDBRANCH  23  24
ENDBRANCH  22  23
ENDBRANCH  21  22
ENDBRANCH   1  21
TORSDOF 20
ENDMDL
MODEL 2
REMARK VINA RESULT:     -10.0      3.131      8.403
REMARK SMILES C[C@H](CNS(=O)(=O)CCC(=O)OCCOCCOC(=O)c1ccc(-c2c3nc(c(-c4c(F)cccc4F)c4ccc([nH]4)c(-c4c(F)cccc4F)c4nc(c(-c5c(F)cccc5F)c5ccc2[nH]5)C=C4)C=C3)cc1)c1ccccc1
REMARK SMILES IDX 13 1 12 2 10 3 11 4 9 5 8 6 5 7 6 8 7 9 4 10 3 12 2 13 1 14
REMARK SMILES IDX 75 15 76 16 80 17 77 18 79 19 78 20 14 21 15 22 16 23 17 24
REMARK SMILES IDX 18 25 19 26 20 27 21 28 22 29 74 30 23 31 73 32 24 33 25 34
REMARK SMILES IDX 26 35 67 36 27 37 72 38 66 39 68 40 28 41 71 42 65 43 64 44
REMARK SMILES IDX 29 46 55 47 38 48 54 49 39 50 42 51 53 52 69 53 40 54 41 55
REMARK SMILES IDX 52 57 70 58 43 59 30 60 31 61 36 62 32 63 33 64 35 65 37 66
REMARK SMILES IDX 34 67 56 68 57 69 62 70 58 71 59 72 61 73 63 74 60 75 44 76
REMARK SMILES IDX 45 77 50 78 46 79 47 80 49 81 51 82 48 83
REMARK H PARENT 4 11 68 45 42 56
REMARK Flexibility Score: inf
ROOT
ATOM      1  C   UNL A   1      33.650  22.186  27.438  1.00  0.00     0.261 C 
ENDROOT
BRANCH   1   2
ATOM      2  O   UNL A   1      32.548  22.051  26.533  1.00  0.00    -0.463 OA
BRANCH   2   3
ATOM      3  C   UNL A   1      31.801  23.145  26.293  1.00  0.00     0.306 C 
ATOM      4  O   UNL A   1      31.470  23.966  27.137  1.00  0.00    -0.252 OA
BRANCH   3   5
ATOM      5  C   UNL A   1      31.354  23.215  24.855  1.00  0.00     0.140 C 
BRANCH   5   6
ATOM      6  C   UNL A   1      32.431  22.867  23.848  1.00  0.00     0.165 C 
BRANCH   6   7
ATOM      7  S   UNL A   1      32.817  24.160  22.671  1.00  0.00     0.212 S 
ATOM      8  O   UNL A   1      31.598  24.875  22.384  1.00  0.00    -0.212 OA
ATOM      9  O   UNL A   1      33.592  23.567  21.595  1.00  0.00    -0.212 OA
BRANCH   7  10
ATOM     10  N   UNL A   1      33.868  25.218  23.454  1.00  0.00    -0.215 NA
ATOM     11  H   UNL A   1      34.096  24.809  24.360  1.00  0.00     0.141 HD
BRANCH  10  12
ATOM     12  C   UNL A   1      33.383  26.592  23.696  1.00  0.00     0.106 C 
BRANCH  12  13
ATOM     13  C   UNL A   1      32.596  26.854  25.010  1.00  0.00     0.031 C 
ATOM     14  C   UNL A   1      33.215  27.188  26.396  1.00  0.00     0.014 C 
BRANCH  13  15
ATOM     15  C   UNL A   1      31.178  27.366  24.937  1.00  0.00    -0.044 A 
ATOM     16  C   UNL A   1      30.077  26.491  24.871  1.00  0.00     0.004 A 
ATOM     17  C   UNL A   1      31.105  28.613  24.352  1.00  0.00     0.004 A 
ATOM     18  C   UNL A   1      29.036  26.756  23.985  1.00  0.00     0.000 A 
ATOM     19  C   UNL A   1      30.163  28.738  23.359  1.00  0.00     0.000 A 
ATOM     20  C   UNL A   1      29.121  27.859  23.167  1.00  0.00     0.000 A 
ENDBRANCH  13  15
ENDBRANCH  12  13
ENDBRANCH  10  12
ENDBRANCH   7  10
ENDBRANCH   6   7
ENDBRANCH   5   6
ENDBRANCH   3   5
ENDBRANCH   2   3
ENDBRANCH   1   2
BRANCH   1  21
ATOM     21  C   UNL A   1      34.995  22.138  26.695  1.00  0.00     0.202 C 
BRANCH  21  22
ATOM     22  O   UNL A   1      35.064  21.627  25.375  1.00  0.00    -0.374 OA
BRANCH  22  23
ATOM     23  C   UNL A   1      35.950  20.502  25.148  1.00  0.00     0.202 C 
BRANCH  23  24
ATOM     24  C   UNL A   1      37.471  20.724  24.752  1.00  0.00     0.261 C 
BRANCH  24  25
ATOM     25  O   UNL A   1      38.136  21.958  25.259  1.00  0.00    -0.460 OA
BRANCH  25  26
ATOM     26  C   UNL A   1      39.215  21.819  26.118  1.00  0.00     0.338 C 
ATOM     27  O   UNL A   1      39.852  20.781  26.233  1.00  0.00    -0.246 OA
BRANCH  26  28
ATOM     28  C   UNL A   1      39.694  23.117  26.791  1.00  0.00     0.060 A 
ATOM     29  C   UNL A   1      38.982  24.312  26.569  1.00  0.00     0.016 A 
ATOM     30  C   UNL A   1      40.792  23.217  27.661  1.00  0.00     0.016 A 
ATOM     31  C   UNL A   1      39.289  25.518  27.279  1.00  0.00     0.010 A 
ATOM     32  C   UNL A   1      41.133  24.451  28.332  1.00  0.00     0.010 A 
ATOM     33  C   UNL A   1      40.376  25.629  28.185  1.00  0.00    -0.014 A 
BRANCH  33  34
ATOM     34  C   UNL A   1      40.773  27.022  28.736  1.00  0.00     0.031 A 
ATOM     35  C   UNL A   1      42.135  27.541  28.344  1.00  0.00     0.074 A 
ATOM     36  C   UNL A   1      40.059  27.875  29.531  1.00  0.00     0.049 A 
ATOM     37  N   UNL A   1      42.692  28.696  28.610  1.00  0.00    -0.248 NA
ATOM     38  C   UNL A   1      43.015  26.585  27.661  1.00  0.00     0.031 C 
ATOM     39  C   UNL A   1      38.839  27.561  30.261  1.00  0.00     0.029 A 
ATOM     40  N   UNL A   1      40.168  29.256  29.732  1.00  0.00    -0.354 N 
ATOM     41  C   UNL A   1      44.015  28.570  28.218  1.00  0.00     0.074 A 
ATOM     42  C   UNL A   1      44.158  27.248  27.645  1.00  0.00     0.031 C 
ATOM     43  C   UNL A   1      38.157  28.700  30.504  1.00  0.00     0.029 A 
ATOM     44  C   UNL A   1      39.004  29.852  30.219  1.00  0.00     0.049 A 
ATOM     45  H   UNL A   1      40.992  29.761  29.546  1.00  0.00     0.167 HD
ATOM     46  C   UNL A   1      45.040  29.439  28.388  1.00  0.00     0.037 A 
ATOM     47  C   UNL A   1      38.661  31.147  30.461  1.00  0.00     0.037 A 
ATOM     48  C   UNL A   1      44.936  30.729  29.018  1.00  0.00     0.049 A 
ATOM     49  C   UNL A   1      39.789  32.149  30.544  1.00  0.00     0.074 A 
ATOM     50  C   UNL A   1      45.943  31.645  29.272  1.00  0.00     0.029 A 
ATOM     51  N   UNL A   1      43.762  31.283  29.509  1.00  0.00    -0.354 N 
ATOM     52  N   UNL A   1      41.043  32.000  30.199  1.00  0.00    -0.248 NA
ATOM     53  C   UNL A   1      39.499  33.442  31.193  1.00  0.00     0.031 C 
ATOM     54  C   UNL A   1      45.385  32.739  29.943  1.00  0.00     0.029 A 
ATOM     55  C   UNL A   1      44.021  32.534  30.052  1.00  0.00     0.049 A 
ATOM     56  H   UNL A   1      42.878  30.852  29.477  1.00  0.00     0.167 HD
ATOM     57  C   UNL A   1      41.697  33.142  30.637  1.00  0.00     0.074 A 
ATOM     58  C   UNL A   1      40.695  34.014  31.210  1.00  0.00     0.031 C 
ATOM     59  C   UNL A   1      43.024  33.413  30.608  1.00  0.00     0.037 A 
BRANCH  46  60
ATOM     60  C   UNL A   1      46.388  28.942  27.960  1.00  0.00     0.057 A 
ATOM     61  C   UNL A   1      46.884  29.166  26.669  1.00  0.00     0.134 A 
ATOM     62  C   UNL A   1      47.152  28.141  28.819  1.00  0.00     0.134 A 
ATOM     63  F   UNL A   1      46.178  29.893  25.788  1.00  0.00    -0.206 F 
ATOM     64  C   UNL A   1      48.062  28.563  26.228  1.00  0.00     0.040 A 
ATOM     65  C   UNL A   1      48.351  27.565  28.401  1.00  0.00     0.040 A 
ATOM     66  F   UNL A   1      46.733  27.883  30.067  1.00  0.00    -0.206 F 
ATOM     67  C   UNL A   1      48.799  27.760  27.095  1.00  0.00     0.006 A 
ENDBRANCH  46  60
BRANCH  47  68
ATOM     68  C   UNL A   1      37.269  31.602  30.834  1.00  0.00     0.057 A 
ATOM     69  C   UNL A   1      36.361  32.081  29.865  1.00  0.00     0.134 A 
ATOM     70  C   UNL A   1      36.828  31.676  32.161  1.00  0.00     0.134 A 
ATOM     71  F   UNL A   1      36.716  32.132  28.572  1.00  0.00    -0.206 F 
ATOM     72  C   UNL A   1      35.095  32.586  30.202  1.00  0.00     0.040 A 
ATOM     73  C   UNL A   1      35.546  32.122  32.507  1.00  0.00     0.040 A 
ATOM     74  F   UNL A   1      37.647  31.339  33.167  1.00  0.00    -0.206 F 
ATOM     75  C   UNL A   1      34.676  32.587  31.527  1.00  0.00     0.006 A 
ENDBRANCH  47  68
BRANCH  59  76
ATOM     76  C   UNL A   1      43.471  34.736  31.155  1.00  0.00     0.057 A 
ATOM     77  C   UNL A   1      43.822  34.913  32.500  1.00  0.00     0.134 A 
ATOM     78  C   UNL A   1      43.587  35.841  30.305  1.00  0.00     0.134 A 
ATOM     79  F   UNL A   1      43.715  33.898  33.372  1.00  0.00    -0.206 F 
ATOM     80  C   UNL A   1      44.259  36.148  32.981  1.00  0.00     0.040 A 
ATOM     81  C   UNL A   1      44.048  37.075  30.768  1.00  0.00     0.040 A 
ATOM     82  F   UNL A   1      43.268  35.737  29.006  1.00  0.00    -0.206 F 
ATOM     83  C   UNL A   1      44.382  37.231  32.112  1.00  0.00     0.006 A 
ENDBRANCH  59  76
ENDBRANCH  33  34
ENDBRANCH  26  28
ENDBRANCH  25  26
ENDBRANCH  24  25
ENDBRANCH  23  24
ENDBRANCH  22  23
ENDBRANCH  21  22
ENDBRANCH   1  21
TORSDOF 20
ENDMDL
MODEL 3
REMARK VINA RESULT:     -10.0      2.850      7.783
REMARK SMILES C[C@H](CNS(=O)(=O)CCC(=O)OCCOCCOC(=O)c1ccc(-c2c3nc(c(-c4c(F)cccc4F)c4ccc([nH]4)c(-c4c(F)cccc4F)c4nc(c(-c5c(F)cccc5F)c5ccc2[nH]5)C=C4)C=C3)cc1)c1ccccc1
REMARK SMILES IDX 13 1 12 2 10 3 11 4 9 5 8 6 5 7 6 8 7 9 4 10 3 12 2 13 1 14
REMARK SMILES IDX 75 15 76 16 80 17 77 18 79 19 78 20 14 21 15 22 16 23 17 24
REMARK SMILES IDX 18 25 19 26 20 27 21 28 22 29 74 30 23 31 73 32 24 33 25 34
REMARK SMILES IDX 26 35 67 36 27 37 72 38 66 39 68 40 28 41 71 42 65 43 64 44
REMARK SMILES IDX 29 46 55 47 38 48 54 49 39 50 42 51 53 52 69 53 40 54 41 55
REMARK SMILES IDX 52 57 70 58 43 59 30 60 31 61 36 62 32 63 33 64 35 65 37 66
REMARK SMILES IDX 34 67 56 68 57 69 62 70 58 71 59 72 61 73 63 74 60 75 44 76
REMARK SMILES IDX 45 77 50 78 46 79 47 80 49 81 51 82 48 83
REMARK H PARENT 4 11 68 45 42 56
REMARK Flexibility Score: inf
ROOT
ATOM      1  C   UNL A   1      39.306  22.505  26.437  1.00  0.00     0.261 C 
ENDROOT
BRANCH   1   2
ATOM      2  O   UNL A   1      38.551  21.755  25.478  1.00  0.00    -0.463 OA
BRANCH   2   3
ATOM      3  C   UNL A   1      37.212  21.898  25.492  1.00  0.00     0.306 C 
ATOM      4  O   UNL A   1      36.410  20.977  25.424  1.00  0.00    -0.252 OA
BRANCH   3   5
ATOM      5  C   UNL A   1      36.802  23.348  25.534  1.00  0.00     0.140 C 
BRANCH   5   6
ATOM      6  C   UNL A   1      35.304  23.574  25.541  1.00  0.00     0.165 C 
BRANCH   6   7
ATOM      7  S   UNL A   1      34.608  24.097  23.976  1.00  0.00     0.212 S 
ATOM      8  O   UNL A   1      35.526  23.713  22.933  1.00  0.00    -0.212 OA
ATOM      9  O   UNL A   1      34.189  25.482  24.115  1.00  0.00    -0.212 OA
BRANCH   7  10
ATOM     10  N   UNL A   1      33.188  23.216  23.768  1.00  0.00    -0.215 NA
ATOM     11  H   UNL A   1      32.425  23.766  24.164  1.00  0.00     0.141 HD
BRANCH  10  12
ATOM     12  C   UNL A   1      33.133  21.874  24.382  1.00  0.00     0.106 C 
BRANCH  12  13
ATOM     13  C   UNL A   1      32.418  20.748  23.584  1.00  0.00     0.031 C 
ATOM     14  C   UNL A   1      31.906  20.848  22.120  1.00  0.00     0.014 C 
BRANCH  13  15
ATOM     15  C   UNL A   1      32.665  19.305  23.951  1.00  0.00    -0.044 A 
ATOM     16  C   UNL A   1      33.747  18.924  24.767  1.00  0.00     0.004 A 
ATOM     17  C   UNL A   1      32.179  18.435  22.997  1.00  0.00     0.004 A 
ATOM     18  C   UNL A   1      34.506  17.806  24.430  1.00  0.00     0.000 A 
ATOM     19  C   UNL A   1      33.061  17.463  22.590  1.00  0.00     0.000 A 
ATOM     20  C   UNL A   1      34.198  17.112  23.283  1.00  0.00     0.000 A 
ENDBRANCH  13  15
ENDBRANCH  12  13
ENDBRANCH  10  12
ENDBRANCH   7  10
ENDBRANCH   6   7
ENDBRANCH   5   6
ENDBRANCH   3   5
ENDBRANCH   2   3
ENDBRANCH   1   2
BRANCH   1  21
ATOM     21  C   UNL A   1      40.618  21.791  26.800  1.00  0.00     0.202 C 
BRANCH  21  22
ATOM     22  O   UNL A   1      40.818  20.436  26.434  1.00  0.00    -0.374 OA
BRANCH  22  23
ATOM     23  C   UNL A   1      42.129  19.870  26.688  1.00  0.00     0.202 C 
BRANCH  23  24
ATOM     24  C   UNL A   1      42.669  18.640  25.841  1.00  0.00     0.261 C 
BRANCH  24  25
ATOM     25  O   UNL A   1      44.127  18.612  25.531  1.00  0.00    -0.460 OA
BRANCH  25  26
ATOM     26  C   UNL A   1      44.578  19.310  24.422  1.00  0.00     0.338 C 
ATOM     27  O   UNL A   1      44.602  18.836  23.295  1.00  0.00    -0.246 OA
BRANCH  26  28
ATOM     28  C   UNL A   1      44.876  20.801  24.657  1.00  0.00     0.060 A 
ATOM     29  C   UNL A   1      45.599  21.188  25.802  1.00  0.00     0.016 A 
ATOM     30  C   UNL A   1      44.511  21.842  23.789  1.00  0.00     0.016 A 
ATOM     31  C   UNL A   1      46.033  22.539  26.002  1.00  0.00     0.010 A 
ATOM     32  C   UNL A   1      44.902  23.214  24.025  1.00  0.00     0.010 A 
ATOM     33  C   UNL A   1      45.698  23.599  25.120  1.00  0.00    -0.014 A 
BRANCH  33  34
ATOM     34  C   UNL A   1      46.015  25.061  25.526  1.00  0.00     0.031 A 
ATOM     35  C   UNL A   1      44.978  25.770  26.361  1.00  0.00     0.074 A 
ATOM     36  C   UNL A   1      47.119  25.817  25.247  1.00  0.00     0.049 A 
ATOM     37  N   UNL A   1      45.014  26.968  26.891  1.00  0.00    -0.248 NA
ATOM     38  C   UNL A   1      43.695  25.075  26.520  1.00  0.00     0.031 C 
ATOM     39  C   UNL A   1      48.159  25.506  24.277  1.00  0.00     0.029 A 
ATOM     40  N   UNL A   1      47.646  26.948  25.882  1.00  0.00    -0.354 N 
ATOM     41  C   UNL A   1      43.731  27.208  27.356  1.00  0.00     0.074 A 
ATOM     42  C   UNL A   1      42.960  26.010  27.096  1.00  0.00     0.031 C 
ATOM     43  C   UNL A   1      49.292  26.159  24.611  1.00  0.00     0.029 A 
ATOM     44  C   UNL A   1      49.003  27.159  25.632  1.00  0.00     0.049 A 
ATOM     45  H   UNL A   1      47.108  27.541  26.454  1.00  0.00     0.167 HD
ATOM     46  C   UNL A   1      43.214  28.346  27.879  1.00  0.00     0.037 A 
ATOM     47  C   UNL A   1      49.901  28.063  26.110  1.00  0.00     0.037 A 
ATOM     48  C   UNL A   1      43.944  29.569  28.080  1.00  0.00     0.049 A 
ATOM     49  C   UNL A   1      49.339  29.287  26.796  1.00  0.00     0.074 A 
ATOM     50  C   UNL A   1      43.474  30.782  28.558  1.00  0.00     0.029 A 
ATOM     51  N   UNL A   1      45.291  29.749  27.801  1.00  0.00    -0.354 N 
ATOM     52  N   UNL A   1      48.113  29.510  27.198  1.00  0.00    -0.248 NA
ATOM     53  C   UNL A   1      50.237  30.447  26.953  1.00  0.00     0.031 C 
ATOM     54  C   UNL A   1      44.527  31.702  28.541  1.00  0.00     0.029 A 
ATOM     55  C   UNL A   1      45.669  31.048  28.112  1.00  0.00     0.049 A 
ATOM     56  H   UNL A   1      45.890  29.058  27.438  1.00  0.00     0.167 HD
ATOM     57  C   UNL A   1      48.078  30.838  27.597  1.00  0.00     0.074 A 
ATOM     58  C   UNL A   1      49.421  31.359  27.460  1.00  0.00     0.031 C 
ATOM     59  C   UNL A   1      47.008  31.567  27.993  1.00  0.00     0.037 A 
BRANCH  46  60
ATOM     60  C   UNL A   1      41.743  28.315  28.167  1.00  0.00     0.057 A 
ATOM     61  C   UNL A   1      41.235  27.792  29.364  1.00  0.00     0.134 A 
ATOM     62  C   UNL A   1      40.823  28.721  27.192  1.00  0.00     0.134 A 
ATOM     63  F   UNL A   1      42.068  27.352  30.319  1.00  0.00    -0.206 F 
ATOM     64  C   UNL A   1      39.865  27.618  29.556  1.00  0.00     0.040 A 
ATOM     65  C   UNL A   1      39.449  28.586  27.389  1.00  0.00     0.040 A 
ATOM     66  F   UNL A   1      41.243  29.226  26.022  1.00  0.00    -0.206 F 
ATOM     67  C   UNL A   1      38.968  28.015  28.566  1.00  0.00     0.006 A 
ENDBRANCH  46  60
BRANCH  47  68
ATOM     68  C   UNL A   1      51.386  28.014  25.835  1.00  0.00     0.057 A 
ATOM     69  C   UNL A   1      51.932  28.496  24.626  1.00  0.00     0.134 A 
ATOM     70  C   UNL A   1      52.295  27.400  26.705  1.00  0.00     0.134 A 
ATOM     71  F   UNL A   1      51.133  29.027  23.687  1.00  0.00    -0.206 F 
ATOM     72  C   UNL A   1      53.297  28.383  24.317  1.00  0.00     0.040 A 
ATOM     73  C   UNL A   1      53.668  27.333  26.436  1.00  0.00     0.040 A 
ATOM     74  F   UNL A   1      51.867  26.822  27.836  1.00  0.00    -0.206 F 
ATOM     75  C   UNL A   1      54.174  27.818  25.235  1.00  0.00     0.006 A 
ENDBRANCH  47  68
BRANCH  59  76
ATOM     76  C   UNL A   1      47.250  32.999  28.371  1.00  0.00     0.057 A 
ATOM     77  C   UNL A   1      47.571  33.386  29.679  1.00  0.00     0.134 A 
ATOM     78  C   UNL A   1      47.197  33.999  27.394  1.00  0.00     0.134 A 
ATOM     79  F   UNL A   1      47.620  32.480  30.666  1.00  0.00    -0.206 F 
ATOM     80  C   UNL A   1      47.817  34.723  30.002  1.00  0.00     0.040 A 
ATOM     81  C   UNL A   1      47.465  35.334  27.698  1.00  0.00     0.040 A 
ATOM     82  F   UNL A   1      46.896  33.693  26.122  1.00  0.00    -0.206 F 
ATOM     83  C   UNL A   1      47.773  35.699  29.008  1.00  0.00     0.006 A 
ENDBRANCH  59  76
ENDBRANCH  33  34
ENDBRANCH  26  28
ENDBRANCH  25  26
ENDBRANCH  24  25
ENDBRANCH  23  24
ENDBRANCH  22  23
ENDBRANCH  21  22
ENDBRANCH   1  21
TORSDOF 20
ENDMDL
