MODEL 1
REMARK VINA RESULT:     -11.2      0.000      0.000
REMARK SMILES O=C(C[C@H]1CN(C(=O)NCc2ccc(Br)cc2)CCO1)OCCOCCOC(=O)c1ccc(-c2c3nc(c(-c4c(F)cccc4F)c4ccc([nH]4)c(-c4c(F)cccc4F)c4nc(c(-c5c(F)cccc5F)c5ccc2[nH]5)C=C4)C=C3)cc1
REMARK SMILES IDX 23 1 22 2 21 3 2 4 1 5 3 6 4 7 5 8 20 9 6 10 19 11 18 12
REMARK SMILES IDX 7 13 8 14 9 15 10 17 11 18 12 19 17 20 13 21 16 22 14 23
REMARK SMILES IDX 15 24 24 25 25 26 26 27 27 28 28 29 29 30 30 31 31 32 83 33
REMARK SMILES IDX 32 34 82 35 33 36 34 37 35 38 76 39 36 40 81 41 75 42 77 43
REMARK SMILES IDX 37 44 80 45 74 46 73 47 38 49 64 50 47 51 63 52 48 53 51 54
REMARK SMILES IDX 62 55 78 56 49 57 50 58 61 60 79 61 52 62 39 63 40 64 45 65
REMARK SMILES IDX 41 66 42 67 44 68 46 69 43 70 65 71 66 72 71 73 67 74 68 75
REMARK SMILES IDX 70 76 72 77 69 78 53 79 54 80 59 81 55 82 56 83 58 84 60 85
REMARK SMILES IDX 57 86
REMARK H PARENT 9 16 77 48 51 59
REMARK Flexibility Score: inf
ROOT
ATOM      1  C   UNL A   1      40.397  20.780  26.486  1.00  0.00     0.202 C 
ENDROOT
BRANCH   1   2
ATOM      2  C   UNL A   1      39.634  22.094  26.565  1.00  0.00     0.261 C 
BRANCH   2   3
ATOM      3  O   UNL A   1      38.536  22.252  25.679  1.00  0.00    -0.463 OA
BRANCH   3   4
ATOM      4  C   UNL A   1      37.743  23.331  25.896  1.00  0.00     0.308 C 
ATOM      5  O   UNL A   1      37.883  24.033  26.891  1.00  0.00    -0.252 OA
BRANCH   4   6
ATOM      6  C   UNL A   1      36.609  23.515  24.920  1.00  0.00     0.156 C 
BRANCH   6   7
ATOM      7  C   UNL A   1      36.285  22.358  23.956  1.00  0.00     0.149 C 
ATOM      8  C   UNL A   1      35.309  21.211  24.388  1.00  0.00     0.154 C 
ATOM      9  O   UNL A   1      35.729  22.948  22.753  1.00  0.00    -0.374 OA
ATOM     10  N   UNL A   1      33.945  21.683  24.655  1.00  0.00    -0.320 N 
ATOM     11  C   UNL A   1      34.456  23.559  23.017  1.00  0.00     0.182 C 
ATOM     12  C   UNL A   1      33.437  22.555  23.566  1.00  0.00     0.150 C 
BRANCH  10  13
ATOM     13  C   UNL A   1      32.998  21.226  25.523  1.00  0.00     0.317 C 
ATOM     14  O   UNL A   1      32.536  20.082  25.401  1.00  0.00    -0.249 OA
ATOM     15  N   UNL A   1      32.450  21.877  26.554  1.00  0.00    -0.334 N 
ATOM     16  H   UNL A   1      31.758  21.293  26.943  1.00  0.00     0.165 HD
BRANCH  15  17
ATOM     17  C   UNL A   1      32.475  23.119  27.334  1.00  0.00     0.153 C 
BRANCH  17  18
ATOM     18  C   UNL A   1      32.247  24.372  26.488  1.00  0.00    -0.029 A 
ATOM     19  C   UNL A   1      33.299  25.199  26.088  1.00  0.00     0.007 A 
ATOM     20  C   UNL A   1      30.963  24.767  26.097  1.00  0.00     0.007 A 
ATOM     21  C   UNL A   1      33.080  26.462  25.520  1.00  0.00     0.016 A 
ATOM     22  C   UNL A   1      30.726  26.049  25.566  1.00  0.00     0.016 A 
ATOM     23  C   UNL A   1      31.787  26.911  25.323  1.00  0.00     0.017 A 
ATOM     24  Br  UNL A   1      31.486  28.702  24.807  1.00  0.00    -0.051 Br
ENDBRANCH  17  18
ENDBRANCH  15  17
ENDBRANCH  10  13
ENDBRANCH   6   7
ENDBRANCH   4   6
ENDBRANCH   3   4
ENDBRANCH   2   3
ENDBRANCH   1   2
BRANCH   1  25
ATOM     25  O   UNL A   1      41.732  20.873  26.954  1.00  0.00    -0.374 OA
BRANCH  25  26
ATOM     26  C   UNL A   1      42.651  20.395  25.961  1.00  0.00     0.202 C 
BRANCH  26  27
ATOM     27  C   UNL A   1      43.583  21.480  25.394  1.00  0.00     0.261 C 
BRANCH  27  28
ATOM     28  O   UNL A   1      42.891  22.683  24.990  1.00  0.00    -0.460 OA
BRANCH  28  29
ATOM     29  C   UNL A   1      43.699  23.793  24.959  1.00  0.00     0.338 C 
ATOM     30  O   UNL A   1      44.640  23.986  24.226  1.00  0.00    -0.246 OA
BRANCH  29  31
ATOM     31  C   UNL A   1      43.269  24.764  26.000  1.00  0.00     0.060 A 
ATOM     32  C   UNL A   1      43.797  26.063  26.024  1.00  0.00     0.016 A 
ATOM     33  C   UNL A   1      42.324  24.390  26.959  1.00  0.00     0.016 A 
ATOM     34  C   UNL A   1      43.299  27.018  26.935  1.00  0.00     0.010 A 
ATOM     35  C   UNL A   1      41.830  25.341  27.864  1.00  0.00     0.010 A 
ATOM     36  C   UNL A   1      42.290  26.673  27.848  1.00  0.00    -0.014 A 
BRANCH  36  37
ATOM     37  C   UNL A   1      41.823  27.608  28.914  1.00  0.00     0.031 A 
ATOM     38  C   UNL A   1      42.513  27.533  30.248  1.00  0.00     0.074 A 
ATOM     39  C   UNL A   1      40.770  28.439  28.770  1.00  0.00     0.049 A 
ATOM     40  N   UNL A   1      42.220  28.120  31.379  1.00  0.00    -0.248 NA
ATOM     41  C   UNL A   1      43.681  26.640  30.312  1.00  0.00     0.031 C 
ATOM     42  C   UNL A   1      39.985  28.625  27.552  1.00  0.00     0.029 A 
ATOM     43  N   UNL A   1      40.159  29.274  29.683  1.00  0.00    -0.354 N 
ATOM     44  C   UNL A   1      43.151  27.647  32.293  1.00  0.00     0.074 A 
ATOM     45  C   UNL A   1      43.987  26.695  31.596  1.00  0.00     0.031 C 
ATOM     46  C   UNL A   1      38.990  29.501  27.796  1.00  0.00     0.029 A 
ATOM     47  C   UNL A   1      39.049  29.927  29.194  1.00  0.00     0.049 A 
ATOM     48  H   UNL A   1      40.487  29.393  30.603  1.00  0.00     0.167 HD
ATOM     49  C   UNL A   1      43.315  27.980  33.595  1.00  0.00     0.037 A 
ATOM     50  C   UNL A   1      38.175  30.758  29.804  1.00  0.00     0.037 A 
ATOM     51  C   UNL A   1      42.499  28.924  34.303  1.00  0.00     0.049 A 
ATOM     52  C   UNL A   1      38.357  31.100  31.266  1.00  0.00     0.074 A 
ATOM     53  C   UNL A   1      42.610  29.345  35.617  1.00  0.00     0.029 A 
ATOM     54  N   UNL A   1      41.413  29.588  33.758  1.00  0.00    -0.354 N 
ATOM     55  N   UNL A   1      39.284  30.698  32.102  1.00  0.00    -0.248 NA
ATOM     56  C   UNL A   1      37.371  32.013  31.871  1.00  0.00     0.031 C 
ATOM     57  C   UNL A   1      41.564  30.237  35.877  1.00  0.00     0.029 A 
ATOM     58  C   UNL A   1      40.831  30.403  34.713  1.00  0.00     0.049 A 
ATOM     59  H   UNL A   1      41.101  29.495  32.829  1.00  0.00     0.167 HD
ATOM     60  C   UNL A   1      39.012  31.328  33.313  1.00  0.00     0.074 A 
ATOM     61  C   UNL A   1      37.835  32.146  33.106  1.00  0.00     0.031 C 
ATOM     62  C   UNL A   1      39.678  31.237  34.489  1.00  0.00     0.037 A 
BRANCH  49  63
ATOM     63  C   UNL A   1      44.415  27.273  34.326  1.00  0.00     0.057 A 
ATOM     64  C   UNL A   1      45.742  27.719  34.269  1.00  0.00     0.134 A 
ATOM     65  C   UNL A   1      44.155  26.094  35.033  1.00  0.00     0.134 A 
ATOM     66  F   UNL A   1      46.056  28.830  33.586  1.00  0.00    -0.206 F 
ATOM     67  C   UNL A   1      46.780  26.987  34.845  1.00  0.00     0.040 A 
ATOM     68  C   UNL A   1      45.181  25.369  35.639  1.00  0.00     0.040 A 
ATOM     69  F   UNL A   1      42.905  25.615  35.128  1.00  0.00    -0.206 F 
ATOM     70  C   UNL A   1      46.500  25.807  35.531  1.00  0.00     0.006 A 
ENDBRANCH  49  63
BRANCH  50  71
ATOM     71  C   UNL A   1      37.028  31.342  29.054  1.00  0.00     0.057 A 
ATOM     72  C   UNL A   1      37.033  32.684  28.649  1.00  0.00     0.134 A 
ATOM     73  C   UNL A   1      35.874  30.598  28.784  1.00  0.00     0.134 A 
ATOM     74  F   UNL A   1      38.095  33.461  28.908  1.00  0.00    -0.206 F 
ATOM     75  C   UNL A   1      35.929  33.268  28.023  1.00  0.00     0.040 A 
ATOM     76  C   UNL A   1      34.770  31.164  28.140  1.00  0.00     0.040 A 
ATOM     77  F   UNL A   1      35.796  29.311  29.152  1.00  0.00    -0.206 F 
ATOM     78  C   UNL A   1      34.792  32.506  27.766  1.00  0.00     0.006 A 
ENDBRANCH  50  71
BRANCH  62  79
ATOM     79  C   UNL A   1      39.200  32.068  35.644  1.00  0.00     0.057 A 
ATOM     80  C   UNL A   1      39.541  33.419  35.776  1.00  0.00     0.134 A 
ATOM     81  C   UNL A   1      38.293  31.534  36.571  1.00  0.00     0.134 A 
ATOM     82  F   UNL A   1      40.410  33.987  34.928  1.00  0.00    -0.206 F 
ATOM     83  C   UNL A   1      38.995  34.212  36.789  1.00  0.00     0.040 A 
ATOM     84  C   UNL A   1      37.724  32.322  37.573  1.00  0.00     0.040 A 
ATOM     85  F   UNL A   1      37.918  30.249  36.493  1.00  0.00    -0.206 F 
ATOM     86  C   UNL A   1      38.073  33.666  37.682  1.00  0.00     0.006 A 
ENDBRANCH  62  79
ENDBRANCH  36  37
ENDBRANCH  29  31
ENDBRANCH  28  29
ENDBRANCH  27  28
ENDBRANCH  26  27
ENDBRANCH  25  26
ENDBRANCH   1  25
TORSDOF 18
ENDMDL
MODEL 2
REMARK VINA RESULT:     -10.8      1.174      2.025
REMARK SMILES O=C(C[C@H]1CN(C(=O)NCc2ccc(Br)cc2)CCO1)OCCOCCOC(=O)c1ccc(-c2c3nc(c(-c4c(F)cccc4F)c4ccc([nH]4)c(-c4c(F)cccc4F)c4nc(c(-c5c(F)cccc5F)c5ccc2[nH]5)C=C4)C=C3)cc1
REMARK SMILES IDX 23 1 22 2 21 3 2 4 1 5 3 6 4 7 5 8 20 9 6 10 19 11 18 12
REMARK SMILES IDX 7 13 8 14 9 15 10 17 11 18 12 19 17 20 13 21 16 22 14 23
REMARK SMILES IDX 15 24 24 25 25 26 26 27 27 28 28 29 29 30 30 31 31 32 83 33
REMARK SMILES IDX 32 34 82 35 33 36 34 37 35 38 76 39 36 40 81 41 75 42 77 43
REMARK SMILES IDX 37 44 80 45 74 46 73 47 38 49 64 50 47 51 63 52 48 53 51 54
REMARK SMILES IDX 62 55 78 56 49 57 50 58 61 60 79 61 52 62 39 63 40 64 45 65
REMARK SMILES IDX 41 66 42 67 44 68 46 69 43 70 65 71 66 72 71 73 67 74 68 75
REMARK SMILES IDX 70 76 72 77 69 78 53 79 54 80 59 81 55 82 56 83 58 84 60 85
REMARK SMILES IDX 57 86
REMARK H PARENT 9 16 77 48 51 59
REMARK Flexibility Score: inf
ROOT
ATOM      1  C   UNL A   1      39.908  20.234  26.035  1.00  0.00     0.202 C 
ENDROOT
BRANCH   1   2
ATOM      2  C   UNL A   1      39.246  21.600  26.141  1.00  0.00     0.261 C 
BRANCH   2   3
ATOM      3  O   UNL A   1      37.952  21.730  25.573  1.00  0.00    -0.463 OA
BRANCH   3   4
ATOM      4  C   UNL A   1      37.346  22.934  25.736  1.00  0.00     0.308 C 
ATOM      5  O   UNL A   1      37.994  23.942  25.990  1.00  0.00    -0.252 OA
BRANCH   4   6
ATOM      6  C   UNL A   1      35.839  22.912  25.725  1.00  0.00     0.156 C 
BRANCH   6   7
ATOM      7  C   UNL A   1      35.123  21.757  26.453  1.00  0.00     0.149 C 
ATOM      8  C   UNL A   1      33.868  22.037  27.348  1.00  0.00     0.154 C 
ATOM      9  O   UNL A   1      34.709  20.807  25.438  1.00  0.00    -0.374 OA
ATOM     10  N   UNL A   1      32.731  22.581  26.595  1.00  0.00    -0.320 N 
ATOM     11  C   UNL A   1      33.701  21.368  24.583  1.00  0.00     0.182 C 
ATOM     12  C   UNL A   1      32.456  21.799  25.364  1.00  0.00     0.150 C 
BRANCH  10  13
ATOM     13  C   UNL A   1      31.739  23.436  26.975  1.00  0.00     0.317 C 
ATOM     14  O   UNL A   1      30.704  23.001  27.501  1.00  0.00    -0.249 OA
ATOM     15  N   UNL A   1      31.712  24.766  26.850  1.00  0.00    -0.334 N 
ATOM     16  H   UNL A   1      30.834  25.079  27.165  1.00  0.00     0.165 HD
BRANCH  15  17
ATOM     17  C   UNL A   1      32.479  25.944  26.427  1.00  0.00     0.153 C 
BRANCH  17  18
ATOM     18  C   UNL A   1      32.603  26.075  24.909  1.00  0.00    -0.029 A 
ATOM     19  C   UNL A   1      31.612  26.681  24.132  1.00  0.00     0.007 A 
ATOM     20  C   UNL A   1      33.707  25.565  24.218  1.00  0.00     0.007 A 
ATOM     21  C   UNL A   1      31.605  26.596  22.733  1.00  0.00     0.016 A 
ATOM     22  C   UNL A   1      33.693  25.436  22.816  1.00  0.00     0.016 A 
ATOM     23  C   UNL A   1      32.616  25.913  22.082  1.00  0.00     0.017 A 
ATOM     24  Br  UNL A   1      32.473  25.573  20.231  1.00  0.00    -0.051 Br
ENDBRANCH  17  18
ENDBRANCH  15  17
ENDBRANCH  10  13
ENDBRANCH   6   7
ENDBRANCH   4   6
ENDBRANCH   3   4
ENDBRANCH   2   3
ENDBRANCH   1   2
BRANCH   1  25
ATOM     25  O   UNL A   1      41.138  20.146  26.736  1.00  0.00    -0.374 OA
BRANCH  25  26
ATOM     26  C   UNL A   1      42.234  20.010  25.820  1.00  0.00     0.202 C 
BRANCH  26  27
ATOM     27  C   UNL A   1      43.150  21.243  25.750  1.00  0.00     0.261 C 
BRANCH  27  28
ATOM     28  O   UNL A   1      42.452  22.465  25.420  1.00  0.00    -0.460 OA
BRANCH  28  29
ATOM     29  C   UNL A   1      43.277  23.558  25.330  1.00  0.00     0.338 C 
ATOM     30  O   UNL A   1      44.206  23.707  24.572  1.00  0.00    -0.246 OA
BRANCH  29  31
ATOM     31  C   UNL A   1      42.883  24.576  26.341  1.00  0.00     0.060 A 
ATOM     32  C   UNL A   1      43.508  25.831  26.369  1.00  0.00     0.016 A 
ATOM     33  C   UNL A   1      41.878  24.290  27.268  1.00  0.00     0.016 A 
ATOM     34  C   UNL A   1      43.051  26.836  27.247  1.00  0.00     0.010 A 
ATOM     35  C   UNL A   1      41.424  25.291  28.141  1.00  0.00     0.010 A 
ATOM     36  C   UNL A   1      41.985  26.583  28.124  1.00  0.00    -0.014 A 
BRANCH  36  37
ATOM     37  C   UNL A   1      41.551  27.567  29.160  1.00  0.00     0.031 A 
ATOM     38  C   UNL A   1      42.260  27.531  30.485  1.00  0.00     0.074 A 
ATOM     39  C   UNL A   1      40.512  28.412  28.998  1.00  0.00     0.049 A 
ATOM     40  N   UNL A   1      41.995  28.168  31.597  1.00  0.00    -0.248 NA
ATOM     41  C   UNL A   1      43.412  26.619  30.568  1.00  0.00     0.031 C 
ATOM     42  C   UNL A   1      39.712  28.565  27.785  1.00  0.00     0.029 A 
ATOM     43  N   UNL A   1      39.931  29.294  29.886  1.00  0.00    -0.354 N 
ATOM     44  C   UNL A   1      42.931  27.714  32.516  1.00  0.00     0.074 A 
ATOM     45  C   UNL A   1      43.739  26.719  31.844  1.00  0.00     0.031 C 
ATOM     46  C   UNL A   1      38.737  29.469  28.008  1.00  0.00     0.029 A 
ATOM     47  C   UNL A   1      38.825  29.948  29.388  1.00  0.00     0.049 A 
ATOM     48  H   UNL A   1      40.274  29.442  30.796  1.00  0.00     0.167 HD
ATOM     49  C   UNL A   1      43.120  28.094  33.801  1.00  0.00     0.037 A 
ATOM     50  C   UNL A   1      37.976  30.819  29.978  1.00  0.00     0.037 A 
ATOM     51  C   UNL A   1      42.332  29.080  34.483  1.00  0.00     0.049 A 
ATOM     52  C   UNL A   1      38.186  31.214  31.422  1.00  0.00     0.074 A 
ATOM     53  C   UNL A   1      42.471  29.550  35.777  1.00  0.00     0.029 A 
ATOM     54  N   UNL A   1      41.250  29.743  33.927  1.00  0.00    -0.354 N 
ATOM     55  N   UNL A   1      39.118  30.827  32.260  1.00  0.00    -0.248 NA
ATOM     56  C   UNL A   1      37.226  32.168  32.005  1.00  0.00     0.031 C 
ATOM     57  C   UNL A   1      41.446  30.471  36.017  1.00  0.00     0.029 A 
ATOM     58  C   UNL A   1      40.698  30.606  34.858  1.00  0.00     0.049 A 
ATOM     59  H   UNL A   1      40.923  29.620  33.007  1.00  0.00     0.167 HD
ATOM     60  C   UNL A   1      38.875  31.510  33.448  1.00  0.00     0.074 A 
ATOM     61  C   UNL A   1      37.711  32.341  33.227  1.00  0.00     0.031 C 
ATOM     62  C   UNL A   1      39.557  31.452  34.617  1.00  0.00     0.037 A 
BRANCH  49  63
ATOM     63  C   UNL A   1      44.217  27.395  34.543  1.00  0.00     0.057 A 
ATOM     64  C   UNL A   1      45.531  27.884  34.548  1.00  0.00     0.134 A 
ATOM     65  C   UNL A   1      43.972  26.183  35.199  1.00  0.00     0.134 A 
ATOM     66  F   UNL A   1      45.831  29.028  33.915  1.00  0.00    -0.206 F 
ATOM     67  C   UNL A   1      46.572  27.164  35.132  1.00  0.00     0.040 A 
ATOM     68  C   UNL A   1      45.001  25.469  35.813  1.00  0.00     0.040 A 
ATOM     69  F   UNL A   1      42.736  25.663  35.233  1.00  0.00    -0.206 F 
ATOM     70  C   UNL A   1      46.308  25.952  35.766  1.00  0.00     0.006 A 
ENDBRANCH  49  63
BRANCH  50  71
ATOM     71  C   UNL A   1      36.829  31.395  29.221  1.00  0.00     0.057 A 
ATOM     72  C   UNL A   1      35.704  30.620  28.908  1.00  0.00     0.134 A 
ATOM     73  C   UNL A   1      36.857  32.707  28.734  1.00  0.00     0.134 A 
ATOM     74  F   UNL A   1      35.630  29.344  29.316  1.00  0.00    -0.206 F 
ATOM     75  C   UNL A   1      34.660  31.120  28.125  1.00  0.00     0.040 A 
ATOM     76  C   UNL A   1      35.810  33.227  27.967  1.00  0.00     0.040 A 
ATOM     77  F   UNL A   1      37.907  33.502  28.987  1.00  0.00    -0.206 F 
ATOM     78  C   UNL A   1      34.712  32.429  27.653  1.00  0.00     0.006 A 
ENDBRANCH  50  71
BRANCH  62  79
ATOM     79  C   UNL A   1      39.112  32.336  35.746  1.00  0.00     0.057 A 
ATOM     80  C   UNL A   1      38.289  31.865  36.775  1.00  0.00     0.134 A 
ATOM     81  C   UNL A   1      39.610  33.642  35.859  1.00  0.00     0.134 A 
ATOM     82  F   UNL A   1      37.772  30.629  36.722  1.00  0.00    -0.206 F 
ATOM     83  C   UNL A   1      37.978  32.661  37.880  1.00  0.00     0.040 A 
ATOM     84  C   UNL A   1      39.324  34.438  36.969  1.00  0.00     0.040 A 
ATOM     85  F   UNL A   1      40.412  34.149  34.912  1.00  0.00    -0.206 F 
ATOM     86  C   UNL A   1      38.508  33.947  37.986  1.00  0.00     0.006 A 
ENDBRANCH  62  79
ENDBRANCH  36  37
ENDBRANCH  29  31
ENDBRANCH  28  29
ENDBRANCH  27  28
ENDBRANCH  26  27
ENDBRANCH  25  26
ENDBRANCH   1  25
TORSDOF 18
ENDMDL
MODEL 3
REMARK VINA RESULT:     -10.8      4.766      9.742
REMARK SMILES O=C(C[C@H]1CN(C(=O)NCc2ccc(Br)cc2)CCO1)OCCOCCOC(=O)c1ccc(-c2c3nc(c(-c4c(F)cccc4F)c4ccc([nH]4)c(-c4c(F)cccc4F)c4nc(c(-c5c(F)cccc5F)c5ccc2[nH]5)C=C4)C=C3)cc1
REMARK SMILES IDX 23 1 22 2 21 3 2 4 1 5 3 6 4 7 5 8 20 9 6 10 19 11 18 12
REMARK SMILES IDX 7 13 8 14 9 15 10 17 11 18 12 19 17 20 13 21 16 22 14 23
REMARK SMILES IDX 15 24 24 25 25 26 26 27 27 28 28 29 29 30 30 31 31 32 83 33
REMARK SMILES IDX 32 34 82 35 33 36 34 37 35 38 76 39 36 40 81 41 75 42 77 43
REMARK SMILES IDX 37 44 80 45 74 46 73 47 38 49 64 50 47 51 63 52 48 53 51 54
REMARK SMILES IDX 62 55 78 56 49 57 50 58 61 60 79 61 52 62 39 63 40 64 45 65
REMARK SMILES IDX 41 66 42 67 44 68 46 69 43 70 65 71 66 72 71 73 67 74 68 75
REMARK SMILES IDX 70 76 72 77 69 78 53 79 54 80 59 81 55 82 56 83 58 84 60 85
REMARK SMILES IDX 57 86
REMARK H PARENT 9 16 77 48 51 59
REMARK Flexibility Score: inf
ROOT
ATOM      1  C   UNL A   1      34.503  32.143  27.946  1.00  0.00     0.202 C 
ENDROOT
BRANCH   1   2
ATOM      2  C   UNL A   1      34.053  30.789  27.418  1.00  0.00     0.261 C 
BRANCH   2   3
ATOM      3  O   UNL A   1      32.679  30.465  27.571  1.00  0.00    -0.463 OA
BRANCH   3   4
ATOM      4  C   UNL A   1      32.102  29.803  26.536  1.00  0.00     0.308 C 
ATOM      5  O   UNL A   1      31.543  30.407  25.628  1.00  0.00    -0.252 OA
BRANCH   4   6
ATOM      6  C   UNL A   1      32.076  28.301  26.656  1.00  0.00     0.156 C 
BRANCH   6   7
ATOM      7  C   UNL A   1      32.930  27.479  25.670  1.00  0.00     0.149 C 
ATOM      8  C   UNL A   1      33.247  25.972  25.959  1.00  0.00     0.154 C 
ATOM      9  O   UNL A   1      32.259  27.525  24.385  1.00  0.00    -0.374 OA
ATOM     10  N   UNL A   1      32.049  25.125  25.995  1.00  0.00    -0.320 N 
ATOM     11  C   UNL A   1      31.001  26.833  24.431  1.00  0.00     0.182 C 
ATOM     12  C   UNL A   1      31.166  25.362  24.825  1.00  0.00     0.150 C 
BRANCH  10  13
ATOM     13  C   UNL A   1      31.779  23.993  26.706  1.00  0.00     0.317 C 
ATOM     14  O   UNL A   1      30.675  23.843  27.251  1.00  0.00    -0.249 OA
ATOM     15  N   UNL A   1      32.587  22.952  26.925  1.00  0.00    -0.334 N 
ATOM     16  H   UNL A   1      32.117  22.327  27.523  1.00  0.00     0.165 HD
BRANCH  15  17
ATOM     17  C   UNL A   1      33.902  22.373  26.622  1.00  0.00     0.153 C 
BRANCH  17  18
ATOM     18  C   UNL A   1      33.838  21.197  25.648  1.00  0.00    -0.029 A 
ATOM     19  C   UNL A   1      32.634  20.761  25.089  1.00  0.00     0.007 A 
ATOM     20  C   UNL A   1      34.984  20.480  25.290  1.00  0.00     0.007 A 
ATOM     21  C   UNL A   1      32.532  19.551  24.388  1.00  0.00     0.016 A 
ATOM     22  C   UNL A   1      34.891  19.243  24.625  1.00  0.00     0.016 A 
ATOM     23  C   UNL A   1      33.655  18.761  24.217  1.00  0.00     0.017 A 
ATOM     24  Br  UNL A   1      33.474  17.020  23.509  1.00  0.00    -0.051 Br
ENDBRANCH  17  18
ENDBRANCH  15  17
ENDBRANCH  10  13
ENDBRANCH   6   7
ENDBRANCH   4   6
ENDBRANCH   3   4
ENDBRANCH   2   3
ENDBRANCH   1   2
BRANCH   1  25
ATOM     25  O   UNL A   1      33.679  32.646  28.985  1.00  0.00    -0.374 OA
BRANCH  25  26
ATOM     26  C   UNL A   1      34.282  33.795  29.598  1.00  0.00     0.202 C 
BRANCH  26  27
ATOM     27  C   UNL A   1      34.425  33.689  31.126  1.00  0.00     0.261 C 
BRANCH  27  28
ATOM     28  O   UNL A   1      34.545  32.329  31.602  1.00  0.00    -0.460 OA
BRANCH  28  29
ATOM     29  C   UNL A   1      35.552  32.159  32.519  1.00  0.00     0.338 C 
ATOM     30  O   UNL A   1      35.528  32.460  33.689  1.00  0.00    -0.246 OA
BRANCH  29  31
ATOM     31  C   UNL A   1      36.740  31.550  31.862  1.00  0.00     0.060 A 
ATOM     32  C   UNL A   1      36.837  31.509  30.464  1.00  0.00     0.016 A 
ATOM     33  C   UNL A   1      37.774  31.022  32.638  1.00  0.00     0.016 A 
ATOM     34  C   UNL A   1      38.016  31.044  29.845  1.00  0.00     0.010 A 
ATOM     35  C   UNL A   1      38.946  30.559  32.020  1.00  0.00     0.010 A 
ATOM     36  C   UNL A   1      39.094  30.587  30.619  1.00  0.00    -0.014 A 
BRANCH  36  37
ATOM     37  C   UNL A   1      40.308  29.965  30.012  1.00  0.00     0.031 A 
ATOM     38  C   UNL A   1      41.487  30.862  29.756  1.00  0.00     0.074 A 
ATOM     39  C   UNL A   1      40.365  28.679  29.608  1.00  0.00     0.049 A 
ATOM     40  N   UNL A   1      42.603  30.620  29.117  1.00  0.00    -0.248 NA
ATOM     41  C   UNL A   1      41.367  32.236  30.268  1.00  0.00     0.031 C 
ATOM     42  C   UNL A   1      39.310  27.682  29.769  1.00  0.00     0.029 A 
ATOM     43  N   UNL A   1      41.363  27.995  28.944  1.00  0.00    -0.354 N 
ATOM     44  C   UNL A   1      43.304  31.818  29.131  1.00  0.00     0.074 A 
ATOM     45  C   UNL A   1      42.470  32.792  29.800  1.00  0.00     0.031 C 
ATOM     46  C   UNL A   1      39.707  26.523  29.207  1.00  0.00     0.029 A 
ATOM     47  C   UNL A   1      41.038  26.696  28.624  1.00  0.00     0.049 A 
ATOM     48  H   UNL A   1      42.231  28.401  28.717  1.00  0.00     0.167 HD
ATOM     49  C   UNL A   1      44.538  32.090  28.646  1.00  0.00     0.037 A 
ATOM     50  C   UNL A   1      41.725  25.760  27.932  1.00  0.00     0.037 A 
ATOM     51  C   UNL A   1      45.381  31.138  27.983  1.00  0.00     0.049 A 
ATOM     52  C   UNL A   1      43.091  26.088  27.374  1.00  0.00     0.074 A 
ATOM     53  C   UNL A   1      46.660  31.318  27.484  1.00  0.00     0.029 A 
ATOM     54  N   UNL A   1      45.027  29.825  27.717  1.00  0.00    -0.354 N 
ATOM     55  N   UNL A   1      43.772  27.206  27.453  1.00  0.00    -0.248 NA
ATOM     56  C   UNL A   1      43.788  25.024  26.630  1.00  0.00     0.031 C 
ATOM     57  C   UNL A   1      47.063  30.122  26.880  1.00  0.00     0.029 A 
ATOM     58  C   UNL A   1      46.053  29.187  27.043  1.00  0.00     0.049 A 
ATOM     59  H   UNL A   1      44.171  29.409  27.969  1.00  0.00     0.167 HD
ATOM     60  C   UNL A   1      44.979  26.970  26.802  1.00  0.00     0.074 A 
ATOM     61  C   UNL A   1      44.945  25.601  26.335  1.00  0.00     0.031 C 
ATOM     62  C   UNL A   1      46.021  27.814  26.610  1.00  0.00     0.037 A 
BRANCH  49  63
ATOM     63  C   UNL A   1      45.014  33.502  28.803  1.00  0.00     0.057 A 
ATOM     64  C   UNL A   1      44.762  34.477  27.828  1.00  0.00     0.134 A 
ATOM     65  C   UNL A   1      45.792  33.871  29.906  1.00  0.00     0.134 A 
ATOM     66  F   UNL A   1      44.043  34.175  26.737  1.00  0.00    -0.206 F 
ATOM     67  C   UNL A   1      45.315  35.754  27.917  1.00  0.00     0.040 A 
ATOM     68  C   UNL A   1      46.325  35.155  30.021  1.00  0.00     0.040 A 
ATOM     69  F   UNL A   1      46.067  32.985  30.875  1.00  0.00    -0.206 F 
ATOM     70  C   UNL A   1      46.100  36.095  29.016  1.00  0.00     0.006 A 
ENDBRANCH  49  63
BRANCH  50  71
ATOM     71  C   UNL A   1      41.149  24.405  27.706  1.00  0.00     0.057 A 
ATOM     72  C   UNL A   1      41.647  23.282  28.381  1.00  0.00     0.134 A 
ATOM     73  C   UNL A   1      40.138  24.185  26.762  1.00  0.00     0.134 A 
ATOM     74  F   UNL A   1      42.640  23.419  29.272  1.00  0.00    -0.206 F 
ATOM     75  C   UNL A   1      41.178  21.993  28.114  1.00  0.00     0.040 A 
ATOM     76  C   UNL A   1      39.644  22.904  26.501  1.00  0.00     0.040 A 
ATOM     77  F   UNL A   1      39.621  25.212  26.072  1.00  0.00    -0.206 F 
ATOM     78  C   UNL A   1      40.171  21.802  27.172  1.00  0.00     0.006 A 
ENDBRANCH  50  71
BRANCH  62  79
ATOM     79  C   UNL A   1      47.240  27.290  25.907  1.00  0.00     0.057 A 
ATOM     80  C   UNL A   1      48.258  26.618  26.593  1.00  0.00     0.134 A 
ATOM     81  C   UNL A   1      47.337  27.361  24.511  1.00  0.00     0.134 A 
ATOM     82  F   UNL A   1      48.231  26.523  27.930  1.00  0.00    -0.206 F 
ATOM     83  C   UNL A   1      49.330  26.032  25.914  1.00  0.00     0.040 A 
ATOM     84  C   UNL A   1      48.390  26.760  23.819  1.00  0.00     0.040 A 
ATOM     85  F   UNL A   1      46.389  27.983  23.794  1.00  0.00    -0.206 F 
ATOM     86  C   UNL A   1      49.389  26.090  24.522  1.00  0.00     0.006 A 
ENDBRANCH  62  79
ENDBRANCH  36  37
ENDBRANCH  29  31
ENDBRANCH  28  29
ENDBRANCH  27  28
ENDBRANCH  26  27
ENDBRANCH  25  26
ENDBRANCH   1  25
TORSDOF 18
ENDMDL
