MODEL 1
REMARK VINA RESULT:     -11.3      0.000      0.000
REMARK SMILES O=C(OCCOCCOC(=O)c1nc2cc3c(cc2[nH]1)OCO3)c1ccc(-c2c3nc(c(-c4c(F)cccc4F)c4ccc([nH]4)c(-c4c(F)cccc4F)c4nc(c(-c5c(F)cccc5F)c5ccc2[nH]5)C=C4)C=C3)cc1
REMARK SMILES IDX 5 1 4 2 3 3 2 4 1 5 24 6 25 7 77 8 26 9 76 10 27 11 28 12
REMARK SMILES IDX 29 13 70 14 30 15 75 16 69 17 71 18 31 19 74 20 68 21 67 22
REMARK SMILES IDX 32 24 58 25 41 26 57 27 42 28 45 29 56 30 72 31 43 32 44 33
REMARK SMILES IDX 55 35 73 36 46 37 33 38 34 39 39 40 35 41 36 42 38 43 40 44
REMARK SMILES IDX 37 45 59 46 60 47 65 48 61 49 62 50 64 51 66 52 63 53 47 54
REMARK SMILES IDX 48 55 53 56 49 57 50 58 52 59 54 60 51 61 6 62 7 63 8 64
REMARK SMILES IDX 9 65 10 66 11 67 12 68 13 69 20 70 14 71 19 72 15 74 18 75
REMARK SMILES IDX 16 76 17 77 23 78 21 79 22 80
REMARK H PARENT 71 23 45 34 20 73
REMARK Flexibility Score: inf
ROOT
ATOM      1  C   UNL A   1      40.037  20.134  26.291  1.00  0.00     0.202 C 
ENDROOT
BRANCH   1   2
ATOM      2  C   UNL A   1      40.019  21.661  26.265  1.00  0.00     0.261 C 
BRANCH   2   3
ATOM      3  O   UNL A   1      40.396  22.340  27.494  1.00  0.00    -0.460 OA
BRANCH   3   4
ATOM      4  C   UNL A   1      41.490  23.112  27.764  1.00  0.00     0.338 C 
ATOM      5  O   UNL A   1      42.548  22.584  28.096  1.00  0.00    -0.246 OA
BRANCH   4   6
ATOM      6  C   UNL A   1      41.388  24.595  27.817  1.00  0.00     0.060 A 
ATOM      7  C   UNL A   1      42.308  25.294  28.623  1.00  0.00     0.016 A 
ATOM      8  C   UNL A   1      40.309  25.276  27.266  1.00  0.00     0.016 A 
ATOM      9  C   UNL A   1      42.033  26.603  29.040  1.00  0.00     0.010 A 
ATOM     10  C   UNL A   1      39.986  26.531  27.768  1.00  0.00     0.010 A 
ATOM     11  C   UNL A   1      40.811  27.193  28.700  1.00  0.00    -0.014 A 
BRANCH  11  12
ATOM     12  C   UNL A   1      40.539  28.626  28.951  1.00  0.00     0.031 A 
ATOM     13  C   UNL A   1      41.667  29.396  28.395  1.00  0.00     0.074 A 
ATOM     14  C   UNL A   1      39.496  29.299  29.503  1.00  0.00     0.049 A 
ATOM     15  N   UNL A   1      42.627  29.868  29.118  1.00  0.00    -0.248 NA
ATOM     16  C   UNL A   1      41.926  29.420  26.948  1.00  0.00     0.031 C 
ATOM     17  C   UNL A   1      38.287  28.793  30.134  1.00  0.00     0.029 A 
ATOM     18  N   UNL A   1      39.255  30.654  29.552  1.00  0.00    -0.354 N 
ATOM     19  C   UNL A   1      43.478  30.470  28.215  1.00  0.00     0.074 A 
ATOM     20  C   UNL A   1      43.158  29.931  26.921  1.00  0.00     0.031 C 
ATOM     21  C   UNL A   1      37.313  29.729  30.171  1.00  0.00     0.029 A 
ATOM     22  C   UNL A   1      37.924  30.993  29.815  1.00  0.00     0.049 A 
ATOM     23  H   UNL A   1      39.960  31.327  29.415  1.00  0.00     0.167 HD
ATOM     24  C   UNL A   1      44.087  31.632  28.553  1.00  0.00     0.037 A 
ATOM     25  C   UNL A   1      37.365  32.219  29.973  1.00  0.00     0.037 A 
ATOM     26  C   UNL A   1      44.004  31.873  29.973  1.00  0.00     0.049 A 
ATOM     27  C   UNL A   1      38.435  33.088  30.485  1.00  0.00     0.074 A 
ATOM     28  C   UNL A   1      44.548  31.308  31.108  1.00  0.00     0.029 A 
ATOM     29  N   UNL A   1      42.885  32.562  30.359  1.00  0.00    -0.354 N 
ATOM     30  N   UNL A   1      38.942  32.967  31.679  1.00  0.00    -0.248 NA
ATOM     31  C   UNL A   1      39.205  33.891  29.546  1.00  0.00     0.031 C 
ATOM     32  C   UNL A   1      43.626  31.561  32.165  1.00  0.00     0.029 A 
ATOM     33  C   UNL A   1      42.558  32.301  31.664  1.00  0.00     0.049 A 
ATOM     34  H   UNL A   1      42.377  33.169  29.772  1.00  0.00     0.167 HD
ATOM     35  C   UNL A   1      40.277  33.256  31.493  1.00  0.00     0.074 A 
ATOM     36  C   UNL A   1      40.341  33.997  30.239  1.00  0.00     0.031 C 
ATOM     37  C   UNL A   1      41.236  32.578  32.184  1.00  0.00     0.037 A 
BRANCH  24  38
ATOM     38  C   UNL A   1      44.291  32.750  27.568  1.00  0.00     0.057 A 
ATOM     39  C   UNL A   1      45.436  32.745  26.764  1.00  0.00     0.134 A 
ATOM     40  C   UNL A   1      43.555  33.956  27.566  1.00  0.00     0.134 A 
ATOM     41  F   UNL A   1      46.250  31.678  26.735  1.00  0.00    -0.206 F 
ATOM     42  C   UNL A   1      45.824  33.863  26.017  1.00  0.00     0.040 A 
ATOM     43  C   UNL A   1      43.895  35.052  26.777  1.00  0.00     0.040 A 
ATOM     44  F   UNL A   1      42.536  34.182  28.404  1.00  0.00    -0.206 F 
ATOM     45  C   UNL A   1      45.048  35.017  26.013  1.00  0.00     0.006 A 
ENDBRANCH  24  38
BRANCH  25  46
ATOM     46  C   UNL A   1      36.031  32.749  29.601  1.00  0.00     0.057 A 
ATOM     47  C   UNL A   1      35.105  33.131  30.587  1.00  0.00     0.134 A 
ATOM     48  C   UNL A   1      35.763  33.203  28.300  1.00  0.00     0.134 A 
ATOM     49  F   UNL A   1      35.270  32.749  31.862  1.00  0.00    -0.206 F 
ATOM     50  C   UNL A   1      34.026  33.984  30.315  1.00  0.00     0.040 A 
ATOM     51  C   UNL A   1      34.685  34.055  28.014  1.00  0.00     0.040 A 
ATOM     52  F   UNL A   1      36.588  32.909  27.287  1.00  0.00    -0.206 F 
ATOM     53  C   UNL A   1      33.828  34.470  29.029  1.00  0.00     0.006 A 
ENDBRANCH  25  46
BRANCH  37  54
ATOM     54  C   UNL A   1      40.846  31.960  33.493  1.00  0.00     0.057 A 
ATOM     55  C   UNL A   1      40.730  32.647  34.709  1.00  0.00     0.134 A 
ATOM     56  C   UNL A   1      40.478  30.609  33.492  1.00  0.00     0.134 A 
ATOM     57  F   UNL A   1      41.007  33.953  34.801  1.00  0.00    -0.206 F 
ATOM     58  C   UNL A   1      40.283  32.010  35.872  1.00  0.00     0.040 A 
ATOM     59  C   UNL A   1      40.000  29.970  34.638  1.00  0.00     0.040 A 
ATOM     60  F   UNL A   1      40.540  29.894  32.358  1.00  0.00    -0.206 F 
ATOM     61  C   UNL A   1      39.906  30.671  35.836  1.00  0.00     0.006 A 
ENDBRANCH  37  54
ENDBRANCH  11  12
ENDBRANCH   4   6
ENDBRANCH   3   4
ENDBRANCH   2   3
ENDBRANCH   1   2
BRANCH   1  62
ATOM     62  O   UNL A   1      41.345  19.651  26.091  1.00  0.00    -0.374 OA
BRANCH  62  63
ATOM     63  C   UNL A   1      42.083  19.152  27.182  1.00  0.00     0.202 C 
BRANCH  63  64
ATOM     64  C   UNL A   1      43.031  18.076  26.660  1.00  0.00     0.261 C 
BRANCH  64  65
ATOM     65  O   UNL A   1      43.446  18.403  25.319  1.00  0.00    -0.457 OA
BRANCH  65  66
ATOM     66  C   UNL A   1      44.747  18.796  25.177  1.00  0.00     0.374 C 
ATOM     67  O   UNL A   1      45.719  18.080  25.006  1.00  0.00    -0.243 OA
BRANCH  66  68
ATOM     68  C   UNL A   1      44.805  20.214  25.145  1.00  0.00     0.218 A 
ATOM     69  N   UNL A   1      43.888  20.938  24.539  1.00  0.00    -0.222 NA
ATOM     70  N   UNL A   1      45.723  20.988  25.793  1.00  0.00    -0.332 N 
ATOM     71  C   UNL A   1      44.151  22.216  24.910  1.00  0.00     0.093 A 
ATOM     72  C   UNL A   1      45.304  22.283  25.696  1.00  0.00     0.070 A 
ATOM     73  H   UNL A   1      46.536  20.670  26.248  1.00  0.00     0.168 HD
ATOM     74  C   UNL A   1      43.404  23.360  24.624  1.00  0.00     0.081 A 
ATOM     75  C   UNL A   1      45.810  23.462  26.233  1.00  0.00     0.079 A 
ATOM     76  C   UNL A   1      43.898  24.526  25.167  1.00  0.00     0.168 A 
ATOM     77  C   UNL A   1      45.047  24.573  25.930  1.00  0.00     0.168 A 
ATOM     78  O   UNL A   1      43.317  25.746  25.024  1.00  0.00    -0.454 OA
ATOM     79  O   UNL A   1      45.329  25.836  26.351  1.00  0.00    -0.454 OA
ATOM     80  C   UNL A   1      44.261  26.574  25.724  1.00  0.00     0.468 C 
ENDBRANCH  66  68
ENDBRANCH  65  66
ENDBRANCH  64  65
ENDBRANCH  63  64
ENDBRANCH  62  63
ENDBRANCH   1  62
TORSDOF 14
ENDMDL
MODEL 2
REMARK VINA RESULT:     -11.3      4.955     11.856
REMARK SMILES O=C(OCCOCCOC(=O)c1nc2cc3c(cc2[nH]1)OCO3)c1ccc(-c2c3nc(c(-c4c(F)cccc4F)c4ccc([nH]4)c(-c4c(F)cccc4F)c4nc(c(-c5c(F)cccc5F)c5ccc2[nH]5)C=C4)C=C3)cc1
REMARK SMILES IDX 5 1 4 2 3 3 2 4 1 5 24 6 25 7 77 8 26 9 76 10 27 11 28 12
REMARK SMILES IDX 29 13 70 14 30 15 75 16 69 17 71 18 31 19 74 20 68 21 67 22
REMARK SMILES IDX 32 24 58 25 41 26 57 27 42 28 45 29 56 30 72 31 43 32 44 33
REMARK SMILES IDX 55 35 73 36 46 37 33 38 34 39 39 40 35 41 36 42 38 43 40 44
REMARK SMILES IDX 37 45 59 46 60 47 65 48 61 49 62 50 64 51 66 52 63 53 47 54
REMARK SMILES IDX 48 55 53 56 49 57 50 58 52 59 54 60 51 61 6 62 7 63 8 64
REMARK SMILES IDX 9 65 10 66 11 67 12 68 13 69 20 70 14 71 19 72 15 74 18 75
REMARK SMILES IDX 16 76 17 77 23 78 21 79 22 80
REMARK H PARENT 71 23 45 34 20 73
REMARK Flexibility Score: inf
ROOT
ATOM      1  C   UNL A   1      34.607  34.936  27.854  1.00  0.00     0.202 C 
ENDROOT
BRANCH   1   2
ATOM      2  C   UNL A   1      33.701  33.931  28.562  1.00  0.00     0.261 C 
BRANCH   2   3
ATOM      3  O   UNL A   1      34.312  32.677  28.970  1.00  0.00    -0.460 OA
BRANCH   3   4
ATOM      4  C   UNL A   1      34.600  31.565  28.231  1.00  0.00     0.338 C 
ATOM      5  O   UNL A   1      33.692  30.919  27.714  1.00  0.00    -0.246 OA
BRANCH   4   6
ATOM      6  C   UNL A   1      35.984  31.025  28.164  1.00  0.00     0.060 A 
ATOM      7  C   UNL A   1      36.164  29.725  27.651  1.00  0.00     0.016 A 
ATOM      8  C   UNL A   1      37.054  31.674  28.767  1.00  0.00     0.016 A 
ATOM      9  C   UNL A   1      37.337  29.011  27.927  1.00  0.00     0.010 A 
ATOM     10  C   UNL A   1      38.168  30.926  29.133  1.00  0.00     0.010 A 
ATOM     11  C   UNL A   1      38.306  29.572  28.766  1.00  0.00    -0.014 A 
BRANCH  11  12
ATOM     12  C   UNL A   1      39.637  28.951  28.947  1.00  0.00     0.031 A 
ATOM     13  C   UNL A   1      39.871  28.816  30.396  1.00  0.00     0.074 A 
ATOM     14  C   UNL A   1      40.572  28.474  28.085  1.00  0.00     0.049 A 
ATOM     15  N   UNL A   1      40.608  29.632  31.074  1.00  0.00    -0.248 NA
ATOM     16  C   UNL A   1      39.043  27.920  31.215  1.00  0.00     0.031 C 
ATOM     17  C   UNL A   1      40.603  28.498  26.631  1.00  0.00     0.029 A 
ATOM     18  N   UNL A   1      41.722  27.762  28.346  1.00  0.00    -0.354 N 
ATOM     19  C   UNL A   1      40.524  29.177  32.373  1.00  0.00     0.074 A 
ATOM     20  C   UNL A   1      39.362  28.333  32.442  1.00  0.00     0.031 C 
ATOM     21  C   UNL A   1      41.452  27.573  26.132  1.00  0.00     0.029 A 
ATOM     22  C   UNL A   1      42.238  27.076  27.242  1.00  0.00     0.049 A 
ATOM     23  H   UNL A   1      42.146  27.740  29.234  1.00  0.00     0.167 HD
ATOM     24  C   UNL A   1      41.626  29.217  33.161  1.00  0.00     0.037 A 
ATOM     25  C   UNL A   1      43.366  26.329  27.146  1.00  0.00     0.037 A 
ATOM     26  C   UNL A   1      42.643  30.069  32.594  1.00  0.00     0.049 A 
ATOM     27  C   UNL A   1      44.298  26.873  28.144  1.00  0.00     0.074 A 
ATOM     28  C   UNL A   1      42.798  31.423  32.384  1.00  0.00     0.029 A 
ATOM     29  N   UNL A   1      43.502  29.425  31.743  1.00  0.00    -0.354 N 
ATOM     30  N   UNL A   1      44.852  28.048  28.037  1.00  0.00    -0.248 NA
ATOM     31  C   UNL A   1      44.364  26.258  29.462  1.00  0.00     0.031 C 
ATOM     32  C   UNL A   1      43.673  31.560  31.267  1.00  0.00     0.029 A 
ATOM     33  C   UNL A   1      44.060  30.291  30.840  1.00  0.00     0.049 A 
ATOM     34  H   UNL A   1      43.694  28.459  31.774  1.00  0.00     0.167 HD
ATOM     35  C   UNL A   1      44.892  28.505  29.337  1.00  0.00     0.074 A 
ATOM     36  C   UNL A   1      44.772  27.314  30.169  1.00  0.00     0.031 C 
ATOM     37  C   UNL A   1      44.672  29.820  29.616  1.00  0.00     0.037 A 
BRANCH  24  38
ATOM     38  C   UNL A   1      41.959  28.121  34.135  1.00  0.00     0.057 A 
ATOM     39  C   UNL A   1      41.706  28.323  35.496  1.00  0.00     0.134 A 
ATOM     40  C   UNL A   1      42.756  26.995  33.828  1.00  0.00     0.134 A 
ATOM     41  F   UNL A   1      41.015  29.395  35.914  1.00  0.00    -0.206 F 
ATOM     42  C   UNL A   1      42.215  27.470  36.481  1.00  0.00     0.040 A 
ATOM     43  C   UNL A   1      43.214  26.102  34.793  1.00  0.00     0.040 A 
ATOM     44  F   UNL A   1      43.227  26.758  32.597  1.00  0.00    -0.206 F 
ATOM     45  C   UNL A   1      42.962  26.350  36.131  1.00  0.00     0.006 A 
ENDBRANCH  24  38
BRANCH  25  46
ATOM     46  C   UNL A   1      43.673  25.104  26.368  1.00  0.00     0.057 A 
ATOM     47  C   UNL A   1      44.725  25.085  25.435  1.00  0.00     0.134 A 
ATOM     48  C   UNL A   1      43.176  23.849  26.755  1.00  0.00     0.134 A 
ATOM     49  F   UNL A   1      45.272  26.231  25.001  1.00  0.00    -0.206 F 
ATOM     50  C   UNL A   1      45.305  23.894  24.979  1.00  0.00     0.040 A 
ATOM     51  C   UNL A   1      43.746  22.649  26.304  1.00  0.00     0.040 A 
ATOM     52  F   UNL A   1      42.183  23.751  27.649  1.00  0.00    -0.206 F 
ATOM     53  C   UNL A   1      44.832  22.669  25.434  1.00  0.00     0.006 A 
ENDBRANCH  25  46
BRANCH  37  54
ATOM     54  C   UNL A   1      44.945  30.818  28.531  1.00  0.00     0.057 A 
ATOM     55  C   UNL A   1      44.036  31.197  27.533  1.00  0.00     0.134 A 
ATOM     56  C   UNL A   1      46.170  31.497  28.561  1.00  0.00     0.134 A 
ATOM     57  F   UNL A   1      42.819  30.645  27.454  1.00  0.00    -0.206 F 
ATOM     58  C   UNL A   1      44.342  32.195  26.602  1.00  0.00     0.040 A 
ATOM     59  C   UNL A   1      46.475  32.516  27.658  1.00  0.00     0.040 A 
ATOM     60  F   UNL A   1      47.079  31.203  29.504  1.00  0.00    -0.206 F 
ATOM     61  C   UNL A   1      45.560  32.866  26.669  1.00  0.00     0.006 A 
ENDBRANCH  37  54
ENDBRANCH  11  12
ENDBRANCH   4   6
ENDBRANCH   3   4
ENDBRANCH   2   3
ENDBRANCH   1   2
BRANCH   1  62
ATOM     62  O   UNL A   1      34.446  36.222  28.406  1.00  0.00    -0.374 OA
BRANCH  62  63
ATOM     63  C   UNL A   1      33.164  36.667  28.785  1.00  0.00     0.202 C 
BRANCH  63  64
ATOM     64  C   UNL A   1      33.235  37.130  30.238  1.00  0.00     0.261 C 
BRANCH  64  65
ATOM     65  O   UNL A   1      32.161  36.532  30.991  1.00  0.00    -0.457 OA
BRANCH  65  66
ATOM     66  C   UNL A   1      32.390  36.372  32.329  1.00  0.00     0.374 C 
ATOM     67  O   UNL A   1      31.724  36.816  33.249  1.00  0.00    -0.243 OA
BRANCH  66  68
ATOM     68  C   UNL A   1      33.490  35.494  32.514  1.00  0.00     0.218 A 
ATOM     69  N   UNL A   1      34.430  35.728  33.405  1.00  0.00    -0.222 NA
ATOM     70  N   UNL A   1      33.663  34.293  31.890  1.00  0.00    -0.332 N 
ATOM     71  C   UNL A   1      35.164  34.588  33.448  1.00  0.00     0.093 A 
ATOM     72  C   UNL A   1      34.710  33.665  32.501  1.00  0.00     0.070 A 
ATOM     73  H   UNL A   1      33.130  33.943  31.140  1.00  0.00     0.168 HD
ATOM     74  C   UNL A   1      36.216  34.279  34.311  1.00  0.00     0.081 A 
ATOM     75  C   UNL A   1      35.262  32.401  32.324  1.00  0.00     0.079 A 
ATOM     76  C   UNL A   1      36.753  33.022  34.144  1.00  0.00     0.168 A 
ATOM     77  C   UNL A   1      36.301  32.130  33.193  1.00  0.00     0.168 A 
ATOM     78  O   UNL A   1      37.772  32.518  34.889  1.00  0.00    -0.454 OA
ATOM     79  O   UNL A   1      36.990  30.958  33.224  1.00  0.00    -0.454 OA
ATOM     80  C   UNL A   1      37.953  31.237  34.260  1.00  0.00     0.468 C 
ENDBRANCH  66  68
ENDBRANCH  65  66
ENDBRANCH  64  65
ENDBRANCH  63  64
ENDBRANCH  62  63
ENDBRANCH   1  62
TORSDOF 14
ENDMDL
MODEL 3
REMARK VINA RESULT:     -11.2      1.826      2.752
REMARK SMILES O=C(OCCOCCOC(=O)c1nc2cc3c(cc2[nH]1)OCO3)c1ccc(-c2c3nc(c(-c4c(F)cccc4F)c4ccc([nH]4)c(-c4c(F)cccc4F)c4nc(c(-c5c(F)cccc5F)c5ccc2[nH]5)C=C4)C=C3)cc1
REMARK SMILES IDX 5 1 4 2 3 3 2 4 1 5 24 6 25 7 77 8 26 9 76 10 27 11 28 12
REMARK SMILES IDX 29 13 70 14 30 15 75 16 69 17 71 18 31 19 74 20 68 21 67 22
REMARK SMILES IDX 32 24 58 25 41 26 57 27 42 28 45 29 56 30 72 31 43 32 44 33
REMARK SMILES IDX 55 35 73 36 46 37 33 38 34 39 39 40 35 41 36 42 38 43 40 44
REMARK SMILES IDX 37 45 59 46 60 47 65 48 61 49 62 50 64 51 66 52 63 53 47 54
REMARK SMILES IDX 48 55 53 56 49 57 50 58 52 59 54 60 51 61 6 62 7 63 8 64
REMARK SMILES IDX 9 65 10 66 11 67 12 68 13 69 20 70 14 71 19 72 15 74 18 75
REMARK SMILES IDX 16 76 17 77 23 78 21 79 22 80
REMARK H PARENT 71 23 45 34 20 73
REMARK Flexibility Score: inf
ROOT
ATOM      1  C   UNL A   1      41.630  19.878  27.662  1.00  0.00     0.202 C 
ENDROOT
BRANCH   1   2
ATOM      2  C   UNL A   1      41.481  20.406  26.237  1.00  0.00     0.261 C 
BRANCH   2   3
ATOM      3  O   UNL A   1      41.100  21.802  26.094  1.00  0.00    -0.460 OA
BRANCH   3   4
ATOM      4  C   UNL A   1      39.947  22.433  26.463  1.00  0.00     0.338 C 
ATOM      5  O   UNL A   1      38.877  22.102  25.958  1.00  0.00    -0.246 OA
BRANCH   4   6
ATOM      6  C   UNL A   1      39.974  23.625  27.353  1.00  0.00     0.060 A 
ATOM      7  C   UNL A   1      38.892  24.525  27.289  1.00  0.00     0.016 A 
ATOM      8  C   UNL A   1      41.108  23.972  28.078  1.00  0.00     0.016 A 
ATOM      9  C   UNL A   1      39.030  25.834  27.770  1.00  0.00     0.010 A 
ATOM     10  C   UNL A   1      41.279  25.299  28.454  1.00  0.00     0.010 A 
ATOM     11  C   UNL A   1      40.268  26.262  28.260  1.00  0.00    -0.014 A 
BRANCH  11  12
ATOM     12  C   UNL A   1      40.428  27.564  28.947  1.00  0.00     0.031 A 
ATOM     13  C   UNL A   1      41.565  28.260  28.318  1.00  0.00     0.074 A 
ATOM     14  C   UNL A   1      39.734  28.195  29.929  1.00  0.00     0.049 A 
ATOM     15  N   UNL A   1      42.746  28.300  28.838  1.00  0.00    -0.248 NA
ATOM     16  C   UNL A   1      41.501  28.701  26.918  1.00  0.00     0.031 C 
ATOM     17  C   UNL A   1      38.604  27.735  30.719  1.00  0.00     0.029 A 
ATOM     18  N   UNL A   1      39.859  29.483  30.401  1.00  0.00    -0.354 N 
ATOM     19  C   UNL A   1      43.504  29.001  27.923  1.00  0.00     0.074 A 
ATOM     20  C   UNL A   1      42.785  28.969  26.679  1.00  0.00     0.031 C 
ATOM     21  C   UNL A   1      37.929  28.765  31.276  1.00  0.00     0.029 A 
ATOM     22  C   UNL A   1      38.747  29.949  31.109  1.00  0.00     0.049 A 
ATOM     23  H   UNL A   1      40.664  30.030  30.252  1.00  0.00     0.167 HD
ATOM     24  C   UNL A   1      44.446  29.867  28.370  1.00  0.00     0.037 A 
ATOM     25  C   UNL A   1      38.563  31.137  31.736  1.00  0.00     0.037 A 
ATOM     26  C   UNL A   1      44.737  29.650  29.766  1.00  0.00     0.049 A 
ATOM     27  C   UNL A   1      39.903  31.594  32.135  1.00  0.00     0.074 A 
ATOM     28  C   UNL A   1      45.353  28.666  30.509  1.00  0.00     0.029 A 
ATOM     29  N   UNL A   1      43.939  30.365  30.621  1.00  0.00    -0.354 N 
ATOM     30  N   UNL A   1      40.610  31.010  33.061  1.00  0.00    -0.248 NA
ATOM     31  C   UNL A   1      40.628  32.508  31.264  1.00  0.00     0.031 C 
ATOM     32  C   UNL A   1      44.777  28.724  31.812  1.00  0.00     0.029 A 
ATOM     33  C   UNL A   1      43.848  29.761  31.848  1.00  0.00     0.049 A 
ATOM     34  H   UNL A   1      43.486  31.207  30.384  1.00  0.00     0.167 HD
ATOM     35  C   UNL A   1      41.901  31.104  32.588  1.00  0.00     0.074 A 
ATOM     36  C   UNL A   1      41.876  32.185  31.609  1.00  0.00     0.031 C 
ATOM     37  C   UNL A   1      42.785  30.084  32.774  1.00  0.00     0.037 A 
BRANCH  24  38
ATOM     38  C   UNL A   1      44.706  31.187  27.699  1.00  0.00     0.057 A 
ATOM     39  C   UNL A   1      45.911  31.374  27.012  1.00  0.00     0.134 A 
ATOM     40  C   UNL A   1      43.951  32.360  27.925  1.00  0.00     0.134 A 
ATOM     41  F   UNL A   1      46.744  30.343  26.796  1.00  0.00    -0.206 F 
ATOM     42  C   UNL A   1      46.336  32.636  26.587  1.00  0.00     0.040 A 
ATOM     43  C   UNL A   1      44.332  33.613  27.450  1.00  0.00     0.040 A 
ATOM     44  F   UNL A   1      42.865  32.380  28.708  1.00  0.00    -0.206 F 
ATOM     45  C   UNL A   1      45.542  33.759  26.795  1.00  0.00     0.006 A 
ENDBRANCH  24  38
BRANCH  25  46
ATOM     46  C   UNL A   1      37.358  31.983  31.911  1.00  0.00     0.057 A 
ATOM     47  C   UNL A   1      36.537  32.305  30.816  1.00  0.00     0.134 A 
ATOM     48  C   UNL A   1      36.803  32.211  33.180  1.00  0.00     0.134 A 
ATOM     49  F   UNL A   1      36.973  32.124  29.560  1.00  0.00    -0.206 F 
ATOM     50  C   UNL A   1      35.216  32.746  30.971  1.00  0.00     0.040 A 
ATOM     51  C   UNL A   1      35.483  32.654  33.349  1.00  0.00     0.040 A 
ATOM     52  F   UNL A   1      37.494  31.926  34.292  1.00  0.00    -0.206 F 
ATOM     53  C   UNL A   1      34.675  32.897  32.242  1.00  0.00     0.006 A 
ENDBRANCH  25  46
BRANCH  37  54
ATOM     54  C   UNL A   1      42.544  29.157  33.928  1.00  0.00     0.057 A 
ATOM     55  C   UNL A   1      41.827  27.954  33.864  1.00  0.00     0.134 A 
ATOM     56  C   UNL A   1      43.157  29.463  35.149  1.00  0.00     0.134 A 
ATOM     57  F   UNL A   1      41.251  27.547  32.726  1.00  0.00    -0.206 F 
ATOM     58  C   UNL A   1      41.715  27.106  34.971  1.00  0.00     0.040 A 
ATOM     59  C   UNL A   1      43.079  28.611  36.252  1.00  0.00     0.040 A 
ATOM     60  F   UNL A   1      43.880  30.587  35.278  1.00  0.00    -0.206 F 
ATOM     61  C   UNL A   1      42.351  27.428  36.166  1.00  0.00     0.006 A 
ENDBRANCH  37  54
ENDBRANCH  11  12
ENDBRANCH   4   6
ENDBRANCH   3   4
ENDBRANCH   2   3
ENDBRANCH   1   2
BRANCH   1  62
ATOM     62  O   UNL A   1      42.537  18.800  27.699  1.00  0.00    -0.374 OA
BRANCH  62  63
ATOM     63  C   UNL A   1      42.722  18.001  26.554  1.00  0.00     0.202 C 
BRANCH  63  64
ATOM     64  C   UNL A   1      44.145  18.219  26.049  1.00  0.00     0.261 C 
BRANCH  64  65
ATOM     65  O   UNL A   1      44.130  18.420  24.622  1.00  0.00    -0.457 OA
BRANCH  65  66
ATOM     66  C   UNL A   1      45.194  19.104  24.105  1.00  0.00     0.374 C 
ATOM     67  O   UNL A   1      46.037  18.681  23.333  1.00  0.00    -0.243 OA
BRANCH  66  68
ATOM     68  C   UNL A   1      45.124  20.460  24.520  1.00  0.00     0.218 A 
ATOM     69  N   UNL A   1      46.191  21.131  24.899  1.00  0.00    -0.222 NA
ATOM     70  N   UNL A   1      44.009  21.245  24.489  1.00  0.00    -0.332 N 
ATOM     71  C   UNL A   1      45.777  22.419  24.997  1.00  0.00     0.093 A 
ATOM     72  C   UNL A   1      44.406  22.525  24.750  1.00  0.00     0.070 A 
ATOM     73  H   UNL A   1      43.089  20.945  24.309  1.00  0.00     0.168 HD
ATOM     74  C   UNL A   1      46.552  23.549  25.264  1.00  0.00     0.081 A 
ATOM     75  C   UNL A   1      43.705  23.726  24.766  1.00  0.00     0.079 A 
ATOM     76  C   UNL A   1      45.860  24.740  25.267  1.00  0.00     0.168 A 
ATOM     77  C   UNL A   1      44.502  24.822  25.034  1.00  0.00     0.168 A 
ATOM     78  O   UNL A   1      46.425  25.956  25.488  1.00  0.00    -0.454 OA
ATOM     79  O   UNL A   1      44.051  26.104  25.091  1.00  0.00    -0.454 OA
ATOM     80  C   UNL A   1      45.264  26.802  25.434  1.00  0.00     0.468 C 
ENDBRANCH  66  68
ENDBRANCH  65  66
ENDBRANCH  64  65
ENDBRANCH  63  64
ENDBRANCH  62  63
ENDBRANCH   1  62
TORSDOF 14
ENDMDL
