MODEL 1
REMARK VINA RESULT:     -10.9      0.000      0.000
REMARK SMILES N#Cc1cc2c(nc1N(CC(=O)OCCOCCOC(=O)c1ccc(-c3c4nc(c(-c5c(F)cccc5F)c5ccc([nH]5)c(-c5c(F)cccc5F)c5nc(c(-c6c(F)cccc6F)c6ccc3[nH]6)C=C5)C=C4)cc1)CC(F)(F)F)CCC2
REMARK SMILES IDX 15 1 14 2 13 3 11 4 12 5 10 6 9 7 8 8 3 9 4 10 5 11 7 12
REMARK SMILES IDX 6 13 83 14 81 15 82 16 2 17 1 18 76 19 77 20 78 21 79 22
REMARK SMILES IDX 80 23 16 24 17 25 18 26 19 27 20 28 21 29 22 30 23 31 75 32
REMARK SMILES IDX 24 33 74 34 25 35 26 36 27 37 68 38 28 39 73 40 67 41 69 42
REMARK SMILES IDX 29 43 72 44 66 45 65 46 30 48 56 49 39 50 55 51 40 52 43 53
REMARK SMILES IDX 54 54 70 55 41 56 42 57 53 59 71 60 44 61 31 62 32 63 37 64
REMARK SMILES IDX 33 65 34 66 36 67 38 68 35 69 57 70 58 71 63 72 59 73 60 74
REMARK SMILES IDX 62 75 64 76 61 77 45 78 46 79 51 80 47 81 48 82 50 83 52 84
REMARK SMILES IDX 49 85
REMARK H PARENT 69 47 43 58
REMARK Flexibility Score: inf
ROOT
ATOM      1  C   UNL A   1      31.286  27.128  26.655  1.00  0.00     0.202 C 
ENDROOT
BRANCH   1   2
ATOM      2  C   UNL A   1      31.207  25.734  26.018  1.00  0.00     0.261 C 
BRANCH   2   3
ATOM      3  O   UNL A   1      32.273  24.829  26.395  1.00  0.00    -0.462 OA
BRANCH   3   4
ATOM      4  C   UNL A   1      31.873  23.558  26.672  1.00  0.00     0.325 C 
ATOM      5  O   UNL A   1      31.950  23.056  27.795  1.00  0.00    -0.250 OA
BRANCH   4   6
ATOM      6  C   UNL A   1      31.248  22.761  25.523  1.00  0.00     0.241 C 
BRANCH   6   7
ATOM      7  N   UNL A   1      32.030  22.465  24.296  1.00  0.00    -0.335 N 
BRANCH   7   8
ATOM      8  C   UNL A   1      32.805  21.313  24.274  1.00  0.00     0.147 A 
ATOM      9  C   UNL A   1      34.078  21.162  24.887  1.00  0.00     0.095 A 
ATOM     10  C   UNL A   1      34.668  19.895  25.007  1.00  0.00     0.029 A 
ATOM     11  C   UNL A   1      34.058  18.845  24.374  1.00  0.00    -0.025 A 
ATOM     12  N   UNL A   1      32.252  20.260  23.617  1.00  0.00    -0.234 NA
ATOM     13  C   UNL A   1      32.904  19.085  23.653  1.00  0.00     0.046 A 
ATOM     14  C   UNL A   1      34.473  17.420  24.281  1.00  0.00     0.038 C 
ATOM     15  C   UNL A   1      32.499  17.861  22.882  1.00  0.00     0.057 C 
ATOM     16  C   UNL A   1      33.794  17.032  22.962  1.00  0.00     0.011 C 
BRANCH   9  17
ATOM     17  C   UNL A   1      34.890  22.259  25.330  1.00  0.00     0.103 C 
ATOM     18  N   UNL A   1      35.542  23.151  25.682  1.00  0.00    -0.192 NA
ENDBRANCH   9  17
ENDBRANCH   7   8
BRANCH   7  19
ATOM     19  C   UNL A   1      31.872  23.345  23.121  1.00  0.00     0.234 C 
BRANCH  19  20
ATOM     20  C   UNL A   1      33.174  23.903  22.514  1.00  0.00     0.405 C 
ATOM     21  F   UNL A   1      34.049  22.951  22.131  1.00  0.00    -0.169 F 
ATOM     22  F   UNL A   1      32.898  24.633  21.407  1.00  0.00    -0.169 F 
ATOM     23  F   UNL A   1      33.827  24.691  23.392  1.00  0.00    -0.169 F 
ENDBRANCH  19  20
ENDBRANCH   7  19
ENDBRANCH   6   7
ENDBRANCH   4   6
ENDBRANCH   3   4
ENDBRANCH   2   3
ENDBRANCH   1   2
BRANCH   1  24
ATOM     24  O   UNL A   1      32.183  28.078  26.092  1.00  0.00    -0.374 OA
BRANCH  24  25
ATOM     25  C   UNL A   1      31.613  29.118  25.302  1.00  0.00     0.202 C 
BRANCH  25  26
ATOM     26  C   UNL A   1      31.773  30.559  25.814  1.00  0.00     0.261 C 
BRANCH  26  27
ATOM     27  O   UNL A   1      32.438  30.600  27.093  1.00  0.00    -0.460 OA
BRANCH  27  28
ATOM     28  C   UNL A   1      33.094  31.743  27.406  1.00  0.00     0.338 C 
ATOM     29  O   UNL A   1      32.601  32.845  27.578  1.00  0.00    -0.246 OA
BRANCH  28  30
ATOM     30  C   UNL A   1      34.502  31.437  27.757  1.00  0.00     0.060 A 
ATOM     31  C   UNL A   1      34.837  30.089  27.935  1.00  0.00     0.016 A 
ATOM     32  C   UNL A   1      35.464  32.425  27.974  1.00  0.00     0.016 A 
ATOM     33  C   UNL A   1      36.110  29.729  28.376  1.00  0.00     0.010 A 
ATOM     34  C   UNL A   1      36.750  32.062  28.414  1.00  0.00     0.010 A 
ATOM     35  C   UNL A   1      37.065  30.713  28.666  1.00  0.00    -0.014 A 
BRANCH  35  36
ATOM     36  C   UNL A   1      38.293  30.308  29.411  1.00  0.00     0.031 A 
ATOM     37  C   UNL A   1      38.467  30.771  30.836  1.00  0.00     0.074 A 
ATOM     38  C   UNL A   1      39.175  29.432  28.890  1.00  0.00     0.049 A 
ATOM     39  N   UNL A   1      39.374  30.426  31.717  1.00  0.00    -0.248 NA
ATOM     40  C   UNL A   1      37.487  31.746  31.341  1.00  0.00     0.031 C 
ATOM     41  C   UNL A   1      39.112  28.874  27.542  1.00  0.00     0.029 A 
ATOM     42  N   UNL A   1      40.283  28.837  29.448  1.00  0.00    -0.354 N 
ATOM     43  C   UNL A   1      39.062  31.125  32.876  1.00  0.00     0.074 A 
ATOM     44  C   UNL A   1      37.922  31.961  32.573  1.00  0.00     0.031 C 
ATOM     45  C   UNL A   1      40.119  27.997  27.385  1.00  0.00     0.029 A 
ATOM     46  C   UNL A   1      40.915  27.946  28.612  1.00  0.00     0.049 A 
ATOM     47  H   UNL A   1      40.595  29.031  30.361  1.00  0.00     0.167 HD
ATOM     48  C   UNL A   1      39.648  31.057  34.095  1.00  0.00     0.037 A 
ATOM     49  C   UNL A   1      42.005  27.175  28.810  1.00  0.00     0.037 A 
ATOM     50  C   UNL A   1      40.776  30.224  34.410  1.00  0.00     0.049 A 
ATOM     51  C   UNL A   1      42.700  27.188  30.148  1.00  0.00     0.074 A 
ATOM     52  C   UNL A   1      41.422  30.081  35.626  1.00  0.00     0.029 A 
ATOM     53  N   UNL A   1      41.432  29.401  33.508  1.00  0.00    -0.354 N 
ATOM     54  N   UNL A   1      42.359  27.812  31.250  1.00  0.00    -0.248 NA
ATOM     55  C   UNL A   1      43.930  26.388  30.275  1.00  0.00     0.031 C 
ATOM     56  C   UNL A   1      42.509  29.223  35.444  1.00  0.00     0.029 A 
ATOM     57  C   UNL A   1      42.502  28.781  34.131  1.00  0.00     0.049 A 
ATOM     58  H   UNL A   1      41.175  29.275  32.566  1.00  0.00     0.167 HD
ATOM     59  C   UNL A   1      43.315  27.467  32.199  1.00  0.00     0.074 A 
ATOM     60  C   UNL A   1      44.240  26.561  31.553  1.00  0.00     0.031 C 
ATOM     61  C   UNL A   1      43.416  27.871  33.488  1.00  0.00     0.037 A 
BRANCH  48  62
ATOM     62  C   UNL A   1      39.080  31.909  35.194  1.00  0.00     0.057 A 
ATOM     63  C   UNL A   1      38.255  31.372  36.190  1.00  0.00     0.134 A 
ATOM     64  C   UNL A   1      39.429  33.261  35.304  1.00  0.00     0.134 A 
ATOM     65  F   UNL A   1      37.876  30.086  36.139  1.00  0.00    -0.206 F 
ATOM     66  C   UNL A   1      37.783  32.152  37.247  1.00  0.00     0.040 A 
ATOM     67  C   UNL A   1      38.988  34.044  36.373  1.00  0.00     0.040 A 
ATOM     68  F   UNL A   1      40.225  33.837  34.391  1.00  0.00    -0.206 F 
ATOM     69  C   UNL A   1      38.159  33.490  37.346  1.00  0.00     0.006 A 
ENDBRANCH  48  62
BRANCH  49  70
ATOM     70  C   UNL A   1      42.510  26.308  27.710  1.00  0.00     0.057 A 
ATOM     71  C   UNL A   1      42.095  24.978  27.580  1.00  0.00     0.134 A 
ATOM     72  C   UNL A   1      43.428  26.788  26.766  1.00  0.00     0.134 A 
ATOM     73  F   UNL A   1      41.241  24.447  28.467  1.00  0.00    -0.206 F 
ATOM     74  C   UNL A   1      42.577  24.154  26.559  1.00  0.00     0.040 A 
ATOM     75  C   UNL A   1      43.896  25.985  25.723  1.00  0.00     0.040 A 
ATOM     76  F   UNL A   1      43.875  28.051  26.835  1.00  0.00    -0.206 F 
ATOM     77  C   UNL A   1      43.473  24.661  25.621  1.00  0.00     0.006 A 
ENDBRANCH  49  70
BRANCH  61  78
ATOM     78  C   UNL A   1      44.560  27.353  34.315  1.00  0.00     0.057 A 
ATOM     79  C   UNL A   1      45.743  28.086  34.468  1.00  0.00     0.134 A 
ATOM     80  C   UNL A   1      44.426  26.179  35.069  1.00  0.00     0.134 A 
ATOM     81  F   UNL A   1      45.939  29.215  33.770  1.00  0.00    -0.206 F 
ATOM     82  C   UNL A   1      46.750  27.673  35.343  1.00  0.00     0.040 A 
ATOM     83  C   UNL A   1      45.413  25.772  35.968  1.00  0.00     0.040 A 
ATOM     84  F   UNL A   1      43.313  25.436  34.981  1.00  0.00    -0.206 F 
ATOM     85  C   UNL A   1      46.578  26.520  36.109  1.00  0.00     0.006 A 
ENDBRANCH  61  78
ENDBRANCH  35  36
ENDBRANCH  28  30
ENDBRANCH  27  28
ENDBRANCH  26  27
ENDBRANCH  25  26
ENDBRANCH  24  25
ENDBRANCH   1  24
TORSDOF 19
ENDMDL
MODEL 2
REMARK VINA RESULT:     -10.6      4.087      9.181
REMARK SMILES N#Cc1cc2c(nc1N(CC(=O)OCCOCCOC(=O)c1ccc(-c3c4nc(c(-c5c(F)cccc5F)c5ccc([nH]5)c(-c5c(F)cccc5F)c5nc(c(-c6c(F)cccc6F)c6ccc3[nH]6)C=C5)C=C4)cc1)CC(F)(F)F)CCC2
REMARK SMILES IDX 15 1 14 2 13 3 11 4 12 5 10 6 9 7 8 8 3 9 4 10 5 11 7 12
REMARK SMILES IDX 6 13 83 14 81 15 82 16 2 17 1 18 76 19 77 20 78 21 79 22
REMARK SMILES IDX 80 23 16 24 17 25 18 26 19 27 20 28 21 29 22 30 23 31 75 32
REMARK SMILES IDX 24 33 74 34 25 35 26 36 27 37 68 38 28 39 73 40 67 41 69 42
REMARK SMILES IDX 29 43 72 44 66 45 65 46 30 48 56 49 39 50 55 51 40 52 43 53
REMARK SMILES IDX 54 54 70 55 41 56 42 57 53 59 71 60 44 61 31 62 32 63 37 64
REMARK SMILES IDX 33 65 34 66 36 67 38 68 35 69 57 70 58 71 63 72 59 73 60 74
REMARK SMILES IDX 62 75 64 76 61 77 45 78 46 79 51 80 47 81 48 82 50 83 52 84
REMARK SMILES IDX 49 85
REMARK H PARENT 69 47 43 58
REMARK Flexibility Score: inf
ROOT
ATOM      1  C   UNL A   1      33.778  22.427  23.686  1.00  0.00     0.202 C 
ENDROOT
BRANCH   1   2
ATOM      2  C   UNL A   1      33.421  23.359  22.519  1.00  0.00     0.261 C 
BRANCH   2   3
ATOM      3  O   UNL A   1      34.237  24.550  22.416  1.00  0.00    -0.462 OA
BRANCH   3   4
ATOM      4  C   UNL A   1      33.539  25.715  22.320  1.00  0.00     0.325 C 
ATOM      5  O   UNL A   1      33.200  26.212  21.244  1.00  0.00    -0.250 OA
BRANCH   4   6
ATOM      6  C   UNL A   1      33.121  26.383  23.632  1.00  0.00     0.241 C 
BRANCH   6   7
ATOM      7  N   UNL A   1      31.694  26.417  24.043  1.00  0.00    -0.335 N 
BRANCH   7   8
ATOM      8  C   UNL A   1      31.055  27.648  24.091  1.00  0.00     0.147 A 
ATOM      9  C   UNL A   1      31.422  28.738  24.926  1.00  0.00     0.095 A 
ATOM     10  C   UNL A   1      30.862  30.009  24.730  1.00  0.00     0.029 A 
ATOM     11  C   UNL A   1      29.841  30.123  23.825  1.00  0.00    -0.025 A 
ATOM     12  N   UNL A   1      30.008  27.786  23.237  1.00  0.00    -0.234 NA
ATOM     13  C   UNL A   1      29.416  28.990  23.158  1.00  0.00     0.046 A 
ATOM     14  C   UNL A   1      29.032  31.313  23.451  1.00  0.00     0.038 C 
ATOM     15  C   UNL A   1      28.173  29.280  22.364  1.00  0.00     0.057 C 
ATOM     16  C   UNL A   1      27.744  30.621  22.985  1.00  0.00     0.011 C 
BRANCH   9  17
ATOM     17  C   UNL A   1      32.287  28.620  26.065  1.00  0.00     0.103 C 
ATOM     18  N   UNL A   1      32.992  28.519  26.981  1.00  0.00    -0.192 NA
ENDBRANCH   9  17
ENDBRANCH   7   8
BRANCH   7  19
ATOM     19  C   UNL A   1      30.992  25.141  24.281  1.00  0.00     0.234 C 
BRANCH  19  20
ATOM     20  C   UNL A   1      30.794  24.743  25.757  1.00  0.00     0.405 C 
ATOM     21  F   UNL A   1      30.826  23.411  25.972  1.00  0.00    -0.169 F 
ATOM     22  F   UNL A   1      31.778  25.274  26.521  1.00  0.00    -0.169 F 
ATOM     23  F   UNL A   1      29.608  25.177  26.229  1.00  0.00    -0.169 F 
ENDBRANCH  19  20
ENDBRANCH   7  19
ENDBRANCH   6   7
ENDBRANCH   4   6
ENDBRANCH   3   4
ENDBRANCH   2   3
ENDBRANCH   1   2
BRANCH   1  24
ATOM     24  O   UNL A   1      35.154  22.212  23.981  1.00  0.00    -0.374 OA
BRANCH  24  25
ATOM     25  C   UNL A   1      35.456  21.322  25.051  1.00  0.00     0.202 C 
BRANCH  25  26
ATOM     26  C   UNL A   1      36.852  20.677  25.057  1.00  0.00     0.261 C 
BRANCH  26  27
ATOM     27  O   UNL A   1      37.895  21.663  25.191  1.00  0.00    -0.460 OA
BRANCH  27  28
ATOM     28  C   UNL A   1      39.001  21.295  25.881  1.00  0.00     0.338 C 
ATOM     29  O   UNL A   1      39.622  20.253  25.762  1.00  0.00    -0.246 OA
BRANCH  28  30
ATOM     30  C   UNL A   1      39.521  22.449  26.654  1.00  0.00     0.060 A 
ATOM     31  C   UNL A   1      38.937  23.698  26.407  1.00  0.00     0.016 A 
ATOM     32  C   UNL A   1      40.587  22.346  27.550  1.00  0.00     0.016 A 
ATOM     33  C   UNL A   1      39.447  24.848  27.011  1.00  0.00     0.010 A 
ATOM     34  C   UNL A   1      41.097  23.505  28.163  1.00  0.00     0.010 A 
ATOM     35  C   UNL A   1      40.561  24.770  27.857  1.00  0.00    -0.014 A 
BRANCH  35  36
ATOM     36  C   UNL A   1      41.249  26.039  28.236  1.00  0.00     0.031 A 
ATOM     37  C   UNL A   1      42.657  26.278  27.751  1.00  0.00     0.074 A 
ATOM     38  C   UNL A   1      40.598  27.027  28.882  1.00  0.00     0.049 A 
ATOM     39  N   UNL A   1      43.392  27.360  27.834  1.00  0.00    -0.248 NA
ATOM     40  C   UNL A   1      43.325  25.154  27.075  1.00  0.00     0.031 C 
ATOM     41  C   UNL A   1      39.226  26.949  29.376  1.00  0.00     0.029 A 
ATOM     42  N   UNL A   1      40.999  28.302  29.206  1.00  0.00    -0.354 N 
ATOM     43  C   UNL A   1      44.594  27.051  27.209  1.00  0.00     0.074 A 
ATOM     44  C   UNL A   1      44.517  25.665  26.805  1.00  0.00     0.031 C 
ATOM     45  C   UNL A   1      38.888  28.133  29.915  1.00  0.00     0.029 A 
ATOM     46  C   UNL A   1      40.026  29.049  29.828  1.00  0.00     0.049 A 
ATOM     47  H   UNL A   1      41.899  28.649  29.010  1.00  0.00     0.167 HD
ATOM     48  C   UNL A   1      45.655  27.853  26.960  1.00  0.00     0.037 A 
ATOM     49  C   UNL A   1      40.045  30.323  30.274  1.00  0.00     0.037 A 
ATOM     50  C   UNL A   1      45.739  29.235  27.349  1.00  0.00     0.049 A 
ATOM     51  C   UNL A   1      41.276  31.170  30.072  1.00  0.00     0.074 A 
ATOM     52  C   UNL A   1      46.772  30.128  27.121  1.00  0.00     0.029 A 
ATOM     53  N   UNL A   1      44.761  29.923  28.050  1.00  0.00    -0.354 N 
ATOM     54  N   UNL A   1      42.382  30.880  29.430  1.00  0.00    -0.248 NA
ATOM     55  C   UNL A   1      41.263  32.523  30.653  1.00  0.00     0.031 C 
ATOM     56  C   UNL A   1      46.449  31.336  27.742  1.00  0.00     0.029 A 
ATOM     57  C   UNL A   1      45.188  31.218  28.301  1.00  0.00     0.049 A 
ATOM     58  H   UNL A   1      43.894  29.549  28.327  1.00  0.00     0.167 HD
ATOM     59  C   UNL A   1      43.183  32.014  29.512  1.00  0.00     0.074 A 
ATOM     60  C   UNL A   1      42.431  33.007  30.248  1.00  0.00     0.031 C 
ATOM     61  C   UNL A   1      44.432  32.208  29.025  1.00  0.00     0.037 A 
BRANCH  48  62
ATOM     62  C   UNL A   1      46.826  27.262  26.227  1.00  0.00     0.057 A 
ATOM     63  C   UNL A   1      47.842  26.571  26.899  1.00  0.00     0.134 A 
ATOM     64  C   UNL A   1      46.894  27.313  24.829  1.00  0.00     0.134 A 
ATOM     65  F   UNL A   1      47.841  26.492  28.238  1.00  0.00    -0.206 F 
ATOM     66  C   UNL A   1      48.893  25.966  26.208  1.00  0.00     0.040 A 
ATOM     67  C   UNL A   1      47.923  26.685  24.125  1.00  0.00     0.040 A 
ATOM     68  F   UNL A   1      45.947  27.948  24.122  1.00  0.00    -0.206 F 
ATOM     69  C   UNL A   1      48.929  26.013  24.816  1.00  0.00     0.006 A 
ENDBRANCH  48  62
BRANCH  49  70
ATOM     70  C   UNL A   1      38.847  30.889  30.954  1.00  0.00     0.057 A 
ATOM     71  C   UNL A   1      38.652  30.741  32.332  1.00  0.00     0.134 A 
ATOM     72  C   UNL A   1      37.862  31.584  30.239  1.00  0.00     0.134 A 
ATOM     73  F   UNL A   1      39.541  30.061  33.071  1.00  0.00    -0.206 F 
ATOM     74  C   UNL A   1      37.522  31.255  32.974  1.00  0.00     0.040 A 
ATOM     75  C   UNL A   1      36.743  32.129  30.872  1.00  0.00     0.040 A 
ATOM     76  F   UNL A   1      37.981  31.757  28.914  1.00  0.00    -0.206 F 
ATOM     77  C   UNL A   1      36.569  31.961  32.244  1.00  0.00     0.006 A 
ENDBRANCH  49  70
BRANCH  61  78
ATOM     78  C   UNL A   1      45.094  33.538  29.256  1.00  0.00     0.057 A 
ATOM     79  C   UNL A   1      44.893  34.616  28.387  1.00  0.00     0.134 A 
ATOM     80  C   UNL A   1      45.827  33.780  30.426  1.00  0.00     0.134 A 
ATOM     81  F   UNL A   1      44.206  34.451  27.246  1.00  0.00    -0.206 F 
ATOM     82  C   UNL A   1      45.393  35.888  28.672  1.00  0.00     0.040 A 
ATOM     83  C   UNL A   1      46.308  35.054  30.737  1.00  0.00     0.040 A 
ATOM     84  F   UNL A   1      46.046  32.795  31.311  1.00  0.00    -0.206 F 
ATOM     85  C   UNL A   1      46.090  36.113  29.859  1.00  0.00     0.006 A 
ENDBRANCH  61  78
ENDBRANCH  35  36
ENDBRANCH  28  30
ENDBRANCH  27  28
ENDBRANCH  26  27
ENDBRANCH  25  26
ENDBRANCH  24  25
ENDBRANCH   1  24
TORSDOF 19
ENDMDL
MODEL 3
REMARK VINA RESULT:     -10.6      2.562      7.333
REMARK SMILES N#Cc1cc2c(nc1N(CC(=O)OCCOCCOC(=O)c1ccc(-c3c4nc(c(-c5c(F)cccc5F)c5ccc([nH]5)c(-c5c(F)cccc5F)c5nc(c(-c6c(F)cccc6F)c6ccc3[nH]6)C=C5)C=C4)cc1)CC(F)(F)F)CCC2
REMARK SMILES IDX 15 1 14 2 13 3 11 4 12 5 10 6 9 7 8 8 3 9 4 10 5 11 7 12
REMARK SMILES IDX 6 13 83 14 81 15 82 16 2 17 1 18 76 19 77 20 78 21 79 22
REMARK SMILES IDX 80 23 16 24 17 25 18 26 19 27 20 28 21 29 22 30 23 31 75 32
REMARK SMILES IDX 24 33 74 34 25 35 26 36 27 37 68 38 28 39 73 40 67 41 69 42
REMARK SMILES IDX 29 43 72 44 66 45 65 46 30 48 56 49 39 50 55 51 40 52 43 53
REMARK SMILES IDX 54 54 70 55 41 56 42 57 53 59 71 60 44 61 31 62 32 63 37 64
REMARK SMILES IDX 33 65 34 66 36 67 38 68 35 69 57 70 58 71 63 72 59 73 60 74
REMARK SMILES IDX 62 75 64 76 61 77 45 78 46 79 51 80 47 81 48 82 50 83 52 84
REMARK SMILES IDX 49 85
REMARK H PARENT 69 47 43 58
REMARK Flexibility Score: inf
ROOT
ATOM      1  C   UNL A   1      33.029  29.641  26.133  1.00  0.00     0.202 C 
ENDROOT
BRANCH   1   2
ATOM      2  C   UNL A   1      33.349  28.161  26.387  1.00  0.00     0.261 C 
BRANCH   2   3
ATOM      3  O   UNL A   1      32.300  27.413  27.048  1.00  0.00    -0.462 OA
BRANCH   3   4
ATOM      4  C   UNL A   1      31.649  26.519  26.255  1.00  0.00     0.325 C 
ATOM      5  O   UNL A   1      30.525  26.083  26.510  1.00  0.00    -0.250 OA
BRANCH   4   6
ATOM      6  C   UNL A   1      32.353  26.098  24.961  1.00  0.00     0.241 C 
BRANCH   6   7
ATOM      7  N   UNL A   1      31.627  26.116  23.666  1.00  0.00    -0.335 N 
BRANCH   7   8
ATOM      8  C   UNL A   1      31.012  27.297  23.275  1.00  0.00     0.147 A 
ATOM      9  C   UNL A   1      31.668  28.421  22.704  1.00  0.00     0.095 A 
ATOM     10  C   UNL A   1      30.928  29.465  22.131  1.00  0.00     0.029 A 
ATOM     11  C   UNL A   1      29.568  29.443  22.286  1.00  0.00    -0.025 A 
ATOM     12  N   UNL A   1      29.665  27.331  23.453  1.00  0.00    -0.234 NA
ATOM     13  C   UNL A   1      28.998  28.404  22.995  1.00  0.00     0.046 A 
ATOM     14  C   UNL A   1      28.545  30.426  21.841  1.00  0.00     0.038 C 
ATOM     15  C   UNL A   1      27.534  28.658  23.220  1.00  0.00     0.057 C 
ATOM     16  C   UNL A   1      27.449  30.157  22.881  1.00  0.00     0.011 C 
BRANCH   9  17
ATOM     17  C   UNL A   1      33.087  28.630  22.750  1.00  0.00     0.103 C 
ATOM     18  N   UNL A   1      34.235  28.793  22.781  1.00  0.00    -0.192 NA
ENDBRANCH   9  17
ENDBRANCH   7   8
BRANCH   7  19
ATOM     19  C   UNL A   1      31.676  24.916  22.806  1.00  0.00     0.234 C 
BRANCH  19  20
ATOM     20  C   UNL A   1      32.826  24.867  21.781  1.00  0.00     0.405 C 
ATOM     21  F   UNL A   1      33.885  25.633  22.112  1.00  0.00    -0.169 F 
ATOM     22  F   UNL A   1      33.295  23.602  21.664  1.00  0.00    -0.169 F 
ATOM     23  F   UNL A   1      32.419  25.283  20.565  1.00  0.00    -0.169 F 
ENDBRANCH  19  20
ENDBRANCH   7  19
ENDBRANCH   6   7
ENDBRANCH   4   6
ENDBRANCH   3   4
ENDBRANCH   2   3
ENDBRANCH   1   2
BRANCH   1  24
ATOM     24  O   UNL A   1      31.900  30.209  26.787  1.00  0.00    -0.374 OA
BRANCH  24  25
ATOM     25  C   UNL A   1      31.283  31.329  26.159  1.00  0.00     0.202 C 
BRANCH  25  26
ATOM     26  C   UNL A   1      31.432  32.694  26.851  1.00  0.00     0.261 C 
BRANCH  26  27
ATOM     27  O   UNL A   1      32.782  33.193  26.764  1.00  0.00    -0.460 OA
BRANCH  27  28
ATOM     28  C   UNL A   1      33.293  33.777  27.874  1.00  0.00     0.338 C 
ATOM     29  O   UNL A   1      32.750  34.615  28.573  1.00  0.00    -0.246 OA
BRANCH  28  30
ATOM     30  C   UNL A   1      34.535  33.079  28.285  1.00  0.00     0.060 A 
ATOM     31  C   UNL A   1      34.413  31.747  28.700  1.00  0.00     0.016 A 
ATOM     32  C   UNL A   1      35.781  33.709  28.333  1.00  0.00     0.016 A 
ATOM     33  C   UNL A   1      35.516  31.061  29.207  1.00  0.00     0.010 A 
ATOM     34  C   UNL A   1      36.894  33.016  28.840  1.00  0.00     0.010 A 
ATOM     35  C   UNL A   1      36.757  31.702  29.328  1.00  0.00    -0.014 A 
BRANCH  35  36
ATOM     36  C   UNL A   1      37.817  31.040  30.142  1.00  0.00     0.031 A 
ATOM     37  C   UNL A   1      38.765  30.082  29.465  1.00  0.00     0.074 A 
ATOM     38  C   UNL A   1      38.032  31.380  31.428  1.00  0.00     0.049 A 
ATOM     39  N   UNL A   1      39.844  29.507  29.938  1.00  0.00    -0.248 NA
ATOM     40  C   UNL A   1      38.465  29.730  28.067  1.00  0.00     0.031 C 
ATOM     41  C   UNL A   1      37.219  32.318  32.198  1.00  0.00     0.029 A 
ATOM     42  N   UNL A   1      39.019  30.994  32.305  1.00  0.00    -0.354 N 
ATOM     43  C   UNL A   1      40.355  28.745  28.895  1.00  0.00     0.074 A 
ATOM     44  C   UNL A   1      39.440  28.879  27.784  1.00  0.00     0.031 C 
ATOM     45  C   UNL A   1      37.756  32.457  33.424  1.00  0.00     0.029 A 
ATOM     46  C   UNL A   1      38.937  31.601  33.537  1.00  0.00     0.049 A 
ATOM     47  H   UNL A   1      39.720  30.343  32.073  1.00  0.00     0.167 HD
ATOM     48  C   UNL A   1      41.499  28.023  28.849  1.00  0.00     0.037 A 
ATOM     49  C   UNL A   1      39.722  31.487  34.629  1.00  0.00     0.037 A 
ATOM     50  C   UNL A   1      42.422  27.890  29.944  1.00  0.00     0.049 A 
ATOM     51  C   UNL A   1      40.941  30.599  34.586  1.00  0.00     0.074 A 
ATOM     52  C   UNL A   1      43.616  27.192  29.978  1.00  0.00     0.029 A 
ATOM     53  N   UNL A   1      42.253  28.457  31.197  1.00  0.00    -0.354 N 
ATOM     54  N   UNL A   1      41.440  29.930  33.575  1.00  0.00    -0.248 NA
ATOM     55  C   UNL A   1      41.710  30.453  35.833  1.00  0.00     0.031 C 
ATOM     56  C   UNL A   1      44.136  27.280  31.270  1.00  0.00     0.029 A 
ATOM     57  C   UNL A   1      43.301  28.087  32.024  1.00  0.00     0.049 A 
ATOM     58  H   UNL A   1      41.501  29.037  31.460  1.00  0.00     0.167 HD
ATOM     59  C   UNL A   1      42.585  29.303  34.057  1.00  0.00     0.074 A 
ATOM     60  C   UNL A   1      42.721  29.687  35.445  1.00  0.00     0.031 C 
ATOM     61  C   UNL A   1      43.440  28.479  33.404  1.00  0.00     0.037 A 
BRANCH  48  62
ATOM     62  C   UNL A   1      41.831  27.314  27.567  1.00  0.00     0.057 A 
ATOM     63  C   UNL A   1      42.516  27.955  26.527  1.00  0.00     0.134 A 
ATOM     64  C   UNL A   1      41.535  25.954  27.404  1.00  0.00     0.134 A 
ATOM     65  F   UNL A   1      42.823  29.258  26.616  1.00  0.00    -0.206 F 
ATOM     66  C   UNL A   1      42.880  27.273  25.364  1.00  0.00     0.040 A 
ATOM     67  C   UNL A   1      41.921  25.255  26.260  1.00  0.00     0.040 A 
ATOM     68  F   UNL A   1      40.890  25.276  28.366  1.00  0.00    -0.206 F 
ATOM     69  C   UNL A   1      42.593  25.916  25.234  1.00  0.00     0.006 A 
ENDBRANCH  48  62
BRANCH  49  70
ATOM     70  C   UNL A   1      39.387  32.243  35.866  1.00  0.00     0.057 A 
ATOM     71  C   UNL A   1      39.998  33.467  36.162  1.00  0.00     0.134 A 
ATOM     72  C   UNL A   1      38.453  31.754  36.789  1.00  0.00     0.134 A 
ATOM     73  F   UNL A   1      40.923  33.977  35.336  1.00  0.00    -0.206 F 
ATOM     74  C   UNL A   1      39.700  34.174  37.330  1.00  0.00     0.040 A 
ATOM     75  C   UNL A   1      38.122  32.464  37.946  1.00  0.00     0.040 A 
ATOM     76  F   UNL A   1      37.834  30.583  36.573  1.00  0.00    -0.206 F 
ATOM     77  C   UNL A   1      38.751  33.677  38.221  1.00  0.00     0.006 A 
ENDBRANCH  49  70
BRANCH  61  78
ATOM     78  C   UNL A   1      44.612  27.918  34.159  1.00  0.00     0.057 A 
ATOM     79  C   UNL A   1      45.805  28.638  34.300  1.00  0.00     0.134 A 
ATOM     80  C   UNL A   1      44.501  26.710  34.863  1.00  0.00     0.134 A 
ATOM     81  F   UNL A   1      45.979  29.798  33.648  1.00  0.00    -0.206 F 
ATOM     82  C   UNL A   1      46.842  28.181  35.114  1.00  0.00     0.040 A 
ATOM     83  C   UNL A   1      45.520  26.257  35.702  1.00  0.00     0.040 A 
ATOM     84  F   UNL A   1      43.380  25.976  34.784  1.00  0.00    -0.206 F 
ATOM     85  C   UNL A   1      46.694  26.994  35.831  1.00  0.00     0.006 A 
ENDBRANCH  61  78
ENDBRANCH  35  36
ENDBRANCH  28  30
ENDBRANCH  27  28
ENDBRANCH  26  27
ENDBRANCH  25  26
ENDBRANCH  24  25
ENDBRANCH   1  24
TORSDOF 19
ENDMDL
