MODEL 1
REMARK VINA RESULT:     -12.2      0.000      0.000
REMARK SMILES O=C(COc1ccc(Cl)c2ccccc12)N[C@@H](Cc1c[nH]c2ccccc12)C(=O)OCCOCCOC(=O)c1ccc(-c2c3nc(c(-c4c(F)cccc4F)c4ccc([nH]4)c(-c4c(F)cccc4F)c4nc(c(-c5c(F)cccc5F)c5ccc2[nH]5)C=C4)C=C3)cc1
REMARK SMILES IDX 32 1 31 2 30 3 28 4 29 5 17 6 16 7 1 8 2 9 3 11 4 12 5 13
REMARK SMILES IDX 6 14 15 15 7 16 10 17 14 18 8 19 11 20 13 21 9 22 12 23
REMARK SMILES IDX 18 24 19 25 20 26 27 27 21 28 22 29 26 30 23 32 25 33 24 34
REMARK SMILES IDX 33 35 34 36 35 37 36 38 37 39 38 40 39 41 40 42 92 43 41 44
REMARK SMILES IDX 91 45 42 46 43 47 44 48 85 49 45 50 90 51 84 52 86 53 46 54
REMARK SMILES IDX 89 55 83 56 82 57 47 59 73 60 56 61 72 62 57 63 60 64 71 65
REMARK SMILES IDX 87 66 58 67 59 68 70 70 88 71 61 72 48 73 49 74 54 75 50 76
REMARK SMILES IDX 51 77 53 78 55 79 52 80 74 81 75 82 80 83 76 84 77 85 79 86
REMARK SMILES IDX 81 87 78 88 62 89 63 90 68 91 64 92 65 93 67 94 69 95 66 96
REMARK H PARENT 16 10 21 31 86 58 60 69
REMARK Flexibility Score: inf
ROOT
ATOM      1  C   UNL A   1      36.236  22.710  25.749  1.00  0.00     0.202 C 
ENDROOT
BRANCH   1   2
ATOM      2  C   UNL A   1      35.438  23.667  24.858  1.00  0.00     0.261 C 
BRANCH   2   3
ATOM      3  O   UNL A   1      35.279  23.178  23.513  1.00  0.00    -0.462 OA
BRANCH   3   4
ATOM      4  C   UNL A   1      33.987  23.142  23.077  1.00  0.00     0.329 C 
ATOM      5  O   UNL A   1      33.597  23.610  22.011  1.00  0.00    -0.250 OA
BRANCH   4   6
ATOM      6  C   UNL A   1      33.020  22.512  24.087  1.00  0.00     0.196 C 
BRANCH   6   7
ATOM      7  N   UNL A   1      31.820  23.263  24.519  1.00  0.00    -0.339 N 
ATOM      8  O   UNL A   1      32.608  23.504  26.650  1.00  0.00    -0.271 OA
ATOM      9  C   UNL A   1      31.685  23.632  25.843  1.00  0.00     0.258 C 
ATOM     10  H   UNL A   1      31.121  23.498  23.867  1.00  0.00     0.164 HD
BRANCH   9  11
ATOM     11  C   UNL A   1      30.308  24.126  26.321  1.00  0.00     0.329 C 
BRANCH  11  12
ATOM     12  O   UNL A   1      30.062  25.505  26.501  1.00  0.00    -0.483 OA
BRANCH  12  13
ATOM     13  C   UNL A   1      30.284  26.349  25.436  1.00  0.00     0.128 A 
ATOM     14  C   UNL A   1      29.547  26.279  24.250  1.00  0.00     0.048 A 
ATOM     15  C   UNL A   1      31.183  27.427  25.658  1.00  0.00     0.025 A 
ATOM     16  C   UNL A   1      29.585  27.338  23.348  1.00  0.00     0.025 A 
ATOM     17  C   UNL A   1      31.224  28.508  24.738  1.00  0.00     0.004 A 
ATOM     18  C   UNL A   1      32.056  27.453  26.770  1.00  0.00     0.012 A 
ATOM     19  C   UNL A   1      30.383  28.455  23.603  1.00  0.00     0.049 A 
ATOM     20  C   UNL A   1      32.103  29.588  25.007  1.00  0.00     0.010 A 
ATOM     21  C   UNL A   1      32.947  28.506  26.982  1.00  0.00     0.001 A 
ATOM     22  Cl  UNL A   1      30.278  29.759  22.466  1.00  0.00    -0.084 Cl
ATOM     23  C   UNL A   1      32.960  29.581  26.107  1.00  0.00     0.001 A 
ENDBRANCH  12  13
ENDBRANCH  11  12
ENDBRANCH   9  11
ENDBRANCH   6   7
BRANCH   6  24
ATOM     24  C   UNL A   1      32.636  21.118  23.550  1.00  0.00     0.074 C 
BRANCH  24  25
ATOM     25  C   UNL A   1      32.818  20.018  24.561  1.00  0.00    -0.020 A 
ATOM     26  C   UNL A   1      32.700  20.129  25.933  1.00  0.00     0.087 A 
ATOM     27  C   UNL A   1      33.126  18.644  24.282  1.00  0.00     0.003 A 
ATOM     28  N   UNL A   1      32.903  18.893  26.485  1.00  0.00    -0.361 N 
ATOM     29  C   UNL A   1      33.170  17.969  25.502  1.00  0.00     0.046 A 
ATOM     30  C   UNL A   1      33.365  17.907  23.102  1.00  0.00     0.010 A 
ATOM     31  H   UNL A   1      32.863  18.693  27.448  1.00  0.00     0.166 HD
ATOM     32  C   UNL A   1      33.447  16.600  25.604  1.00  0.00     0.026 A 
ATOM     33  C   UNL A   1      33.652  16.539  23.186  1.00  0.00     0.001 A 
ATOM     34  C   UNL A   1      33.692  15.898  24.421  1.00  0.00     0.002 A 
ENDBRANCH  24  25
ENDBRANCH   6  24
ENDBRANCH   4   6
ENDBRANCH   3   4
ENDBRANCH   2   3
ENDBRANCH   1   2
BRANCH   1  35
ATOM     35  O   UNL A   1      37.400  22.104  25.192  1.00  0.00    -0.374 OA
BRANCH  35  36
ATOM     36  C   UNL A   1      37.332  20.726  24.855  1.00  0.00     0.202 C 
BRANCH  36  37
ATOM     37  C   UNL A   1      38.577  19.861  25.085  1.00  0.00     0.261 C 
BRANCH  37  38
ATOM     38  O   UNL A   1      39.296  20.083  26.302  1.00  0.00    -0.460 OA
BRANCH  38  39
ATOM     39  C   UNL A   1      40.624  19.855  26.211  1.00  0.00     0.338 C 
ATOM     40  O   UNL A   1      41.195  18.873  25.750  1.00  0.00    -0.246 OA
BRANCH  39  41
ATOM     41  C   UNL A   1      41.353  21.045  26.656  1.00  0.00     0.060 A 
ATOM     42  C   UNL A   1      41.302  21.376  28.014  1.00  0.00     0.016 A 
ATOM     43  C   UNL A   1      41.986  21.880  25.732  1.00  0.00     0.016 A 
ATOM     44  C   UNL A   1      41.860  22.572  28.452  1.00  0.00     0.010 A 
ATOM     45  C   UNL A   1      42.542  23.082  26.174  1.00  0.00     0.010 A 
ATOM     46  C   UNL A   1      42.452  23.446  27.529  1.00  0.00    -0.014 A 
BRANCH  46  47
ATOM     47  C   UNL A   1      42.866  24.794  27.976  1.00  0.00     0.031 A 
ATOM     48  C   UNL A   1      41.818  25.845  28.205  1.00  0.00     0.074 A 
ATOM     49  C   UNL A   1      44.163  25.061  28.200  1.00  0.00     0.049 A 
ATOM     50  N   UNL A   1      41.960  27.083  28.604  1.00  0.00    -0.248 NA
ATOM     51  C   UNL A   1      40.425  25.450  27.946  1.00  0.00     0.031 C 
ATOM     52  C   UNL A   1      45.260  24.111  28.026  1.00  0.00     0.029 A 
ATOM     53  N   UNL A   1      44.774  26.213  28.622  1.00  0.00    -0.354 N 
ATOM     54  C   UNL A   1      40.677  27.613  28.647  1.00  0.00     0.074 A 
ATOM     55  C   UNL A   1      39.774  26.576  28.197  1.00  0.00     0.031 C 
ATOM     56  C   UNL A   1      46.417  24.724  28.327  1.00  0.00     0.029 A 
ATOM     57  C   UNL A   1      46.140  26.111  28.695  1.00  0.00     0.049 A 
ATOM     58  H   UNL A   1      44.280  27.034  28.848  1.00  0.00     0.167 HD
ATOM     59  C   UNL A   1      40.285  28.849  29.040  1.00  0.00     0.037 A 
ATOM     60  C   UNL A   1      47.062  27.040  29.014  1.00  0.00     0.037 A 
ATOM     61  C   UNL A   1      41.189  29.879  29.481  1.00  0.00     0.049 A 
ATOM     62  C   UNL A   1      46.611  28.418  29.409  1.00  0.00     0.074 A 
ATOM     63  C   UNL A   1      40.897  31.158  29.918  1.00  0.00     0.029 A 
ATOM     64  N   UNL A   1      42.570  29.743  29.532  1.00  0.00    -0.354 N 
ATOM     65  N   UNL A   1      45.392  28.898  29.482  1.00  0.00    -0.248 NA
ATOM     66  C   UNL A   1      47.659  29.380  29.776  1.00  0.00     0.031 C 
ATOM     67  C   UNL A   1      42.105  31.811  30.194  1.00  0.00     0.029 A 
ATOM     68  C   UNL A   1      43.146  30.924  29.970  1.00  0.00     0.049 A 
ATOM     69  H   UNL A   1      43.066  28.928  29.292  1.00  0.00     0.167 HD
ATOM     70  C   UNL A   1      45.525  30.211  29.918  1.00  0.00     0.074 A 
ATOM     71  C   UNL A   1      46.942  30.445  30.106  1.00  0.00     0.031 C 
ATOM     72  C   UNL A   1      44.561  31.137  30.142  1.00  0.00     0.037 A 
BRANCH  59  73
ATOM     73  C   UNL A   1      38.817  29.153  28.983  1.00  0.00     0.057 A 
ATOM     74  C   UNL A   1      38.192  29.560  27.797  1.00  0.00     0.134 A 
ATOM     75  C   UNL A   1      38.018  29.041  30.129  1.00  0.00     0.134 A 
ATOM     76  F   UNL A   1      38.903  29.703  26.668  1.00  0.00    -0.206 F 
ATOM     77  C   UNL A   1      36.832  29.874  27.759  1.00  0.00     0.040 A 
ATOM     78  C   UNL A   1      36.653  29.328  30.097  1.00  0.00     0.040 A 
ATOM     79  F   UNL A   1      38.553  28.653  31.297  1.00  0.00    -0.206 F 
ATOM     80  C   UNL A   1      36.058  29.755  28.912  1.00  0.00     0.006 A 
ENDBRANCH  59  73
BRANCH  60  81
ATOM     81  C   UNL A   1      48.501  26.684  28.964  1.00  0.00     0.057 A 
ATOM     82  C   UNL A   1      49.263  26.891  27.809  1.00  0.00     0.134 A 
ATOM     83  C   UNL A   1      49.153  26.151  30.082  1.00  0.00     0.134 A 
ATOM     84  F   UNL A   1      48.689  27.383  26.701  1.00  0.00    -0.206 F 
ATOM     85  C   UNL A   1      50.622  26.575  27.766  1.00  0.00     0.040 A 
ATOM     86  C   UNL A   1      50.515  25.849  30.060  1.00  0.00     0.040 A 
ATOM     87  F   UNL A   1      48.478  25.937  31.222  1.00  0.00    -0.206 F 
ATOM     88  C   UNL A   1      51.253  26.059  28.897  1.00  0.00     0.006 A 
ENDBRANCH  60  81
BRANCH  72  89
ATOM     89  C   UNL A   1      45.009  32.485  30.625  1.00  0.00     0.057 A 
ATOM     90  C   UNL A   1      45.166  32.763  31.988  1.00  0.00     0.134 A 
ATOM     91  C   UNL A   1      45.325  33.501  29.714  1.00  0.00     0.134 A 
ATOM     92  F   UNL A   1      44.868  31.835  32.910  1.00  0.00    -0.206 F 
ATOM     93  C   UNL A   1      45.605  34.012  32.431  1.00  0.00     0.040 A 
ATOM     94  C   UNL A   1      45.787  34.747  30.144  1.00  0.00     0.040 A 
ATOM     95  F   UNL A   1      45.203  33.296  28.394  1.00  0.00    -0.206 F 
ATOM     96  C   UNL A   1      45.923  35.005  31.507  1.00  0.00     0.006 A 
ENDBRANCH  72  89
ENDBRANCH  46  47
ENDBRANCH  39  41
ENDBRANCH  38  39
ENDBRANCH  37  38
ENDBRANCH  36  37
ENDBRANCH  35  36
ENDBRANCH   1  35
TORSDOF 20
ENDMDL
MODEL 2
REMARK VINA RESULT:     -12.1      0.491      5.804
REMARK SMILES O=C(COc1ccc(Cl)c2ccccc12)N[C@@H](Cc1c[nH]c2ccccc12)C(=O)OCCOCCOC(=O)c1ccc(-c2c3nc(c(-c4c(F)cccc4F)c4ccc([nH]4)c(-c4c(F)cccc4F)c4nc(c(-c5c(F)cccc5F)c5ccc2[nH]5)C=C4)C=C3)cc1
REMARK SMILES IDX 32 1 31 2 30 3 28 4 29 5 17 6 16 7 1 8 2 9 3 11 4 12 5 13
REMARK SMILES IDX 6 14 15 15 7 16 10 17 14 18 8 19 11 20 13 21 9 22 12 23
REMARK SMILES IDX 18 24 19 25 20 26 27 27 21 28 22 29 26 30 23 32 25 33 24 34
REMARK SMILES IDX 33 35 34 36 35 37 36 38 37 39 38 40 39 41 40 42 92 43 41 44
REMARK SMILES IDX 91 45 42 46 43 47 44 48 85 49 45 50 90 51 84 52 86 53 46 54
REMARK SMILES IDX 89 55 83 56 82 57 47 59 73 60 56 61 72 62 57 63 60 64 71 65
REMARK SMILES IDX 87 66 58 67 59 68 70 70 88 71 61 72 48 73 49 74 54 75 50 76
REMARK SMILES IDX 51 77 53 78 55 79 52 80 74 81 75 82 80 83 76 84 77 85 79 86
REMARK SMILES IDX 81 87 78 88 62 89 63 90 68 91 64 92 65 93 67 94 69 95 66 96
REMARK H PARENT 16 10 21 31 86 58 60 69
REMARK Flexibility Score: inf
ROOT
ATOM      1  C   UNL A   1      36.725  22.080  25.752  1.00  0.00     0.202 C 
ENDROOT
BRANCH   1   2
ATOM      2  C   UNL A   1      35.684  23.077  25.233  1.00  0.00     0.261 C 
BRANCH   2   3
ATOM      3  O   UNL A   1      35.592  23.094  23.796  1.00  0.00    -0.462 OA
BRANCH   3   4
ATOM      4  C   UNL A   1      34.316  23.122  23.315  1.00  0.00     0.329 C 
ATOM      5  O   UNL A   1      33.981  23.646  22.256  1.00  0.00    -0.250 OA
BRANCH   4   6
ATOM      6  C   UNL A   1      33.293  22.485  24.263  1.00  0.00     0.196 C 
BRANCH   6   7
ATOM      7  N   UNL A   1      32.091  23.250  24.665  1.00  0.00    -0.339 N 
ATOM      8  O   UNL A   1      32.765  23.368  26.845  1.00  0.00    -0.271 OA
ATOM      9  C   UNL A   1      31.893  23.561  25.995  1.00  0.00     0.258 C 
ATOM     10  H   UNL A   1      31.437  23.536  23.987  1.00  0.00     0.164 HD
BRANCH   9  11
ATOM     11  C   UNL A   1      30.504  24.072  26.420  1.00  0.00     0.329 C 
BRANCH  11  12
ATOM     12  O   UNL A   1      30.277  25.452  26.618  1.00  0.00    -0.483 OA
BRANCH  12  13
ATOM     13  C   UNL A   1      30.435  26.297  25.542  1.00  0.00     0.128 A 
ATOM     14  C   UNL A   1      29.687  26.174  24.368  1.00  0.00     0.048 A 
ATOM     15  C   UNL A   1      31.274  27.426  25.742  1.00  0.00     0.025 A 
ATOM     16  C   UNL A   1      29.652  27.225  23.455  1.00  0.00     0.025 A 
ATOM     17  C   UNL A   1      31.241  28.500  24.812  1.00  0.00     0.004 A 
ATOM     18  C   UNL A   1      32.160  27.514  26.841  1.00  0.00     0.012 A 
ATOM     19  C   UNL A   1      30.389  28.388  23.689  1.00  0.00     0.049 A 
ATOM     20  C   UNL A   1      32.060  29.630  25.058  1.00  0.00     0.010 A 
ATOM     21  C   UNL A   1      32.992  28.617  27.030  1.00  0.00     0.001 A 
ATOM     22  Cl  UNL A   1      30.193  29.673  22.543  1.00  0.00    -0.084 Cl
ATOM     23  C   UNL A   1      32.932  29.683  26.146  1.00  0.00     0.001 A 
ENDBRANCH  12  13
ENDBRANCH  11  12
ENDBRANCH   9  11
ENDBRANCH   6   7
BRANCH   6  24
ATOM     24  C   UNL A   1      32.903  21.116  23.670  1.00  0.00     0.074 C 
BRANCH  24  25
ATOM     25  C   UNL A   1      32.962  19.993  24.670  1.00  0.00    -0.020 A 
ATOM     26  C   UNL A   1      32.758  20.090  26.033  1.00  0.00     0.087 A 
ATOM     27  C   UNL A   1      33.216  18.609  24.388  1.00  0.00     0.003 A 
ATOM     28  N   UNL A   1      32.861  18.837  26.575  1.00  0.00    -0.361 N 
ATOM     29  C   UNL A   1      33.145  17.915  25.596  1.00  0.00     0.046 A 
ATOM     30  C   UNL A   1      33.495  17.877  23.213  1.00  0.00     0.010 A 
ATOM     31  H   UNL A   1      32.747  18.626  27.530  1.00  0.00     0.166 HD
ATOM     32  C   UNL A   1      33.344  16.532  25.691  1.00  0.00     0.026 A 
ATOM     33  C   UNL A   1      33.705  16.495  23.291  1.00  0.00     0.001 A 
ATOM     34  C   UNL A   1      33.631  15.835  24.514  1.00  0.00     0.002 A 
ENDBRANCH  24  25
ENDBRANCH   6  24
ENDBRANCH   4   6
ENDBRANCH   3   4
ENDBRANCH   2   3
ENDBRANCH   1   2
BRANCH   1  35
ATOM     35  O   UNL A   1      37.584  21.465  24.796  1.00  0.00    -0.374 OA
BRANCH  35  36
ATOM     36  C   UNL A   1      37.639  20.046  24.770  1.00  0.00     0.202 C 
BRANCH  36  37
ATOM     37  C   UNL A   1      38.967  19.365  25.121  1.00  0.00     0.261 C 
BRANCH  37  38
ATOM     38  O   UNL A   1      39.654  19.856  26.274  1.00  0.00    -0.460 OA
BRANCH  38  39
ATOM     39  C   UNL A   1      41.000  19.769  26.198  1.00  0.00     0.338 C 
ATOM     40  O   UNL A   1      41.675  18.862  25.723  1.00  0.00    -0.246 OA
BRANCH  39  41
ATOM     41  C   UNL A   1      41.596  21.017  26.680  1.00  0.00     0.060 A 
ATOM     42  C   UNL A   1      41.617  21.242  28.061  1.00  0.00     0.016 A 
ATOM     43  C   UNL A   1      42.028  21.995  25.782  1.00  0.00     0.016 A 
ATOM     44  C   UNL A   1      42.043  22.472  28.550  1.00  0.00     0.010 A 
ATOM     45  C   UNL A   1      42.451  23.230  26.275  1.00  0.00     0.010 A 
ATOM     46  C   UNL A   1      42.430  23.483  27.659  1.00  0.00    -0.014 A 
BRANCH  46  47
ATOM     47  C   UNL A   1      42.693  24.842  28.179  1.00  0.00     0.031 A 
ATOM     48  C   UNL A   1      44.096  25.226  28.555  1.00  0.00     0.074 A 
ATOM     49  C   UNL A   1      41.690  25.730  28.284  1.00  0.00     0.049 A 
ATOM     50  N   UNL A   1      44.547  26.362  29.020  1.00  0.00    -0.248 NA
ATOM     51  C   UNL A   1      45.125  24.188  28.389  1.00  0.00     0.031 C 
ATOM     52  C   UNL A   1      40.296  25.470  27.932  1.00  0.00     0.029 A 
ATOM     53  N   UNL A   1      41.694  27.029  28.721  1.00  0.00    -0.354 N 
ATOM     54  C   UNL A   1      45.913  26.178  29.199  1.00  0.00     0.074 A 
ATOM     55  C   UNL A   1      46.209  24.811  28.830  1.00  0.00     0.031 C 
ATOM     56  C   UNL A   1      39.572  26.575  28.179  1.00  0.00     0.029 A 
ATOM     57  C   UNL A   1      40.451  27.608  28.723  1.00  0.00     0.049 A 
ATOM     58  H   UNL A   1      42.511  27.499  29.006  1.00  0.00     0.167 HD
ATOM     59  C   UNL A   1      46.838  27.073  29.619  1.00  0.00     0.037 A 
ATOM     60  C   UNL A   1      40.067  28.833  29.129  1.00  0.00     0.037 A 
ATOM     61  C   UNL A   1      46.536  28.430  29.991  1.00  0.00     0.049 A 
ATOM     62  C   UNL A   1      41.103  29.800  29.630  1.00  0.00     0.074 A 
ATOM     63  C   UNL A   1      47.400  29.425  30.413  1.00  0.00     0.029 A 
ATOM     64  N   UNL A   1      45.261  28.980  29.992  1.00  0.00    -0.354 N 
ATOM     65  N   UNL A   1      42.396  29.628  29.761  1.00  0.00    -0.248 NA
ATOM     66  C   UNL A   1      40.629  31.132  30.032  1.00  0.00     0.031 C 
ATOM     67  C   UNL A   1      46.642  30.565  30.709  1.00  0.00     0.029 A 
ATOM     68  C   UNL A   1      45.312  30.293  30.430  1.00  0.00     0.049 A 
ATOM     69  H   UNL A   1      44.443  28.507  29.720  1.00  0.00     0.167 HD
ATOM     70  C   UNL A   1      42.895  30.833  30.243  1.00  0.00     0.074 A 
ATOM     71  C   UNL A   1      41.763  31.730  30.367  1.00  0.00     0.031 C 
ATOM     72  C   UNL A   1      44.172  31.165  30.553  1.00  0.00     0.037 A 
BRANCH  59  73
ATOM     73  C   UNL A   1      48.258  26.595  29.720  1.00  0.00     0.057 A 
ATOM     74  C   UNL A   1      49.162  26.739  28.659  1.00  0.00     0.134 A 
ATOM     75  C   UNL A   1      48.724  25.980  30.888  1.00  0.00     0.134 A 
ATOM     76  F   UNL A   1      48.773  27.305  27.506  1.00  0.00    -0.206 F 
ATOM     77  C   UNL A   1      50.471  26.262  28.746  1.00  0.00     0.040 A 
ATOM     78  C   UNL A   1      50.038  25.521  30.996  1.00  0.00     0.040 A 
ATOM     79  F   UNL A   1      47.911  25.813  31.942  1.00  0.00    -0.206 F 
ATOM     80  C   UNL A   1      50.913  25.653  29.919  1.00  0.00     0.006 A 
ENDBRANCH  59  73
BRANCH  60  81
ATOM     81  C   UNL A   1      38.631  29.200  29.078  1.00  0.00     0.057 A 
ATOM     82  C   UNL A   1      37.810  29.094  30.205  1.00  0.00     0.134 A 
ATOM     83  C   UNL A   1      38.052  29.690  27.901  1.00  0.00     0.134 A 
ATOM     84  F   UNL A   1      38.305  28.615  31.357  1.00  0.00    -0.206 F 
ATOM     85  C   UNL A   1      36.463  29.457  30.164  1.00  0.00     0.040 A 
ATOM     86  C   UNL A   1      36.712  30.076  27.850  1.00  0.00     0.040 A 
ATOM     87  F   UNL A   1      38.789  29.823  26.788  1.00  0.00    -0.206 F 
ATOM     88  C   UNL A   1      35.912  29.957  28.985  1.00  0.00     0.006 A 
ENDBRANCH  60  81
BRANCH  72  89
ATOM     89  C   UNL A   1      44.412  32.561  31.048  1.00  0.00     0.057 A 
ATOM     90  C   UNL A   1      44.409  32.869  32.414  1.00  0.00     0.134 A 
ATOM     91  C   UNL A   1      44.690  33.599  30.150  1.00  0.00     0.134 A 
ATOM     92  F   UNL A   1      44.136  31.920  33.323  1.00  0.00    -0.206 F 
ATOM     93  C   UNL A   1      44.655  34.165  32.869  1.00  0.00     0.040 A 
ATOM     94  C   UNL A   1      44.960  34.895  30.594  1.00  0.00     0.040 A 
ATOM     95  F   UNL A   1      44.716  33.369  28.828  1.00  0.00    -0.206 F 
ATOM     96  C   UNL A   1      44.939  35.180  31.958  1.00  0.00     0.006 A 
ENDBRANCH  72  89
ENDBRANCH  46  47
ENDBRANCH  39  41
ENDBRANCH  38  39
ENDBRANCH  37  38
ENDBRANCH  36  37
ENDBRANCH  35  36
ENDBRANCH   1  35
TORSDOF 20
ENDMDL
MODEL 3
REMARK VINA RESULT:     -12.1      3.679      7.540
REMARK SMILES O=C(COc1ccc(Cl)c2ccccc12)N[C@@H](Cc1c[nH]c2ccccc12)C(=O)OCCOCCOC(=O)c1ccc(-c2c3nc(c(-c4c(F)cccc4F)c4ccc([nH]4)c(-c4c(F)cccc4F)c4nc(c(-c5c(F)cccc5F)c5ccc2[nH]5)C=C4)C=C3)cc1
REMARK SMILES IDX 32 1 31 2 30 3 28 4 29 5 17 6 16 7 1 8 2 9 3 11 4 12 5 13
REMARK SMILES IDX 6 14 15 15 7 16 10 17 14 18 8 19 11 20 13 21 9 22 12 23
REMARK SMILES IDX 18 24 19 25 20 26 27 27 21 28 22 29 26 30 23 32 25 33 24 34
REMARK SMILES IDX 33 35 34 36 35 37 36 38 37 39 38 40 39 41 40 42 92 43 41 44
REMARK SMILES IDX 91 45 42 46 43 47 44 48 85 49 45 50 90 51 84 52 86 53 46 54
REMARK SMILES IDX 89 55 83 56 82 57 47 59 73 60 56 61 72 62 57 63 60 64 71 65
REMARK SMILES IDX 87 66 58 67 59 68 70 70 88 71 61 72 48 73 49 74 54 75 50 76
REMARK SMILES IDX 51 77 53 78 55 79 52 80 74 81 75 82 80 83 76 84 77 85 79 86
REMARK SMILES IDX 81 87 78 88 62 89 63 90 68 91 64 92 65 93 67 94 69 95 66 96
REMARK H PARENT 16 10 21 31 86 58 60 69
REMARK Flexibility Score: inf
ROOT
ATOM      1  C   UNL A   1      39.951  21.613  26.484  1.00  0.00     0.202 C 
ENDROOT
BRANCH   1   2
ATOM      2  C   UNL A   1      38.908  22.543  25.856  1.00  0.00     0.261 C 
BRANCH   2   3
ATOM      3  O   UNL A   1      37.562  22.230  26.264  1.00  0.00    -0.462 OA
BRANCH   3   4
ATOM      4  C   UNL A   1      36.640  23.179  25.931  1.00  0.00     0.329 C 
ATOM      5  O   UNL A   1      36.868  24.385  25.879  1.00  0.00    -0.250 OA
BRANCH   4   6
ATOM      6  C   UNL A   1      35.238  22.607  25.687  1.00  0.00     0.196 C 
BRANCH   6   7
ATOM      7  N   UNL A   1      34.048  23.393  26.081  1.00  0.00    -0.339 N 
ATOM      8  O   UNL A   1      33.162  21.655  27.270  1.00  0.00    -0.271 OA
ATOM      9  C   UNL A   1      33.036  22.787  26.799  1.00  0.00     0.258 C 
ATOM     10  H   UNL A   1      33.977  24.343  25.831  1.00  0.00     0.164 HD
BRANCH   9  11
ATOM     11  C   UNL A   1      31.691  23.527  26.921  1.00  0.00     0.329 C 
BRANCH  11  12
ATOM     12  O   UNL A   1      31.655  24.932  27.057  1.00  0.00    -0.483 OA
BRANCH  12  13
ATOM     13  C   UNL A   1      31.211  25.677  25.987  1.00  0.00     0.128 A 
ATOM     14  C   UNL A   1      30.040  25.372  25.288  1.00  0.00     0.048 A 
ATOM     15  C   UNL A   1      31.904  26.890  25.730  1.00  0.00     0.025 A 
ATOM     16  C   UNL A   1      29.472  26.320  24.441  1.00  0.00     0.025 A 
ATOM     17  C   UNL A   1      31.327  27.859  24.865  1.00  0.00     0.004 A 
ATOM     18  C   UNL A   1      33.167  27.164  26.301  1.00  0.00     0.012 A 
ATOM     19  C   UNL A   1      30.085  27.561  24.258  1.00  0.00     0.049 A 
ATOM     20  C   UNL A   1      32.022  29.076  24.658  1.00  0.00     0.010 A 
ATOM     21  C   UNL A   1      33.853  28.351  26.039  1.00  0.00     0.001 A 
ATOM     22  Cl  UNL A   1      29.241  28.704  23.265  1.00  0.00    -0.084 Cl
ATOM     23  C   UNL A   1      33.273  29.314  25.228  1.00  0.00     0.001 A 
ENDBRANCH  12  13
ENDBRANCH  11  12
ENDBRANCH   9  11
ENDBRANCH   6   7
BRANCH   6  24
ATOM     24  C   UNL A   1      35.161  22.193  24.203  1.00  0.00     0.074 C 
BRANCH  24  25
ATOM     25  C   UNL A   1      33.921  22.687  23.509  1.00  0.00    -0.020 A 
ATOM     26  C   UNL A   1      32.804  21.942  23.182  1.00  0.00     0.087 A 
ATOM     27  C   UNL A   1      33.660  24.032  23.080  1.00  0.00     0.003 A 
ATOM     28  N   UNL A   1      31.887  22.773  22.597  1.00  0.00    -0.361 N 
ATOM     29  C   UNL A   1      32.385  24.052  22.518  1.00  0.00     0.046 A 
ATOM     30  C   UNL A   1      34.391  25.240  23.123  1.00  0.00     0.010 A 
ATOM     31  H   UNL A   1      30.998  22.496  22.280  1.00  0.00     0.166 HD
ATOM     32  C   UNL A   1      31.804  25.214  21.991  1.00  0.00     0.026 A 
ATOM     33  C   UNL A   1      33.829  26.408  22.594  1.00  0.00     0.001 A 
ATOM     34  C   UNL A   1      32.554  26.392  22.036  1.00  0.00     0.002 A 
ENDBRANCH  24  25
ENDBRANCH   6  24
ENDBRANCH   4   6
ENDBRANCH   3   4
ENDBRANCH   2   3
ENDBRANCH   1   2
BRANCH   1  35
ATOM     35  O   UNL A   1      40.923  21.030  25.620  1.00  0.00    -0.374 OA
BRANCH  35  36
ATOM     36  C   UNL A   1      42.238  20.852  26.126  1.00  0.00     0.202 C 
BRANCH  36  37
ATOM     37  C   UNL A   1      43.244  21.996  25.952  1.00  0.00     0.261 C 
BRANCH  37  38
ATOM     38  O   UNL A   1      42.936  22.973  24.954  1.00  0.00    -0.460 OA
BRANCH  38  39
ATOM     39  C   UNL A   1      43.676  24.100  25.034  1.00  0.00     0.338 C 
ATOM     40  O   UNL A   1      44.689  24.389  24.408  1.00  0.00    -0.246 OA
BRANCH  39  41
ATOM     41  C   UNL A   1      43.019  25.049  25.937  1.00  0.00     0.060 A 
ATOM     42  C   UNL A   1      43.706  26.222  26.268  1.00  0.00     0.016 A 
ATOM     43  C   UNL A   1      41.794  24.737  26.532  1.00  0.00     0.016 A 
ATOM     44  C   UNL A   1      43.181  27.078  27.229  1.00  0.00     0.010 A 
ATOM     45  C   UNL A   1      41.272  25.596  27.500  1.00  0.00     0.010 A 
ATOM     46  C   UNL A   1      41.979  26.752  27.874  1.00  0.00    -0.014 A 
BRANCH  46  47
ATOM     47  C   UNL A   1      41.534  27.567  29.025  1.00  0.00     0.031 A 
ATOM     48  C   UNL A   1      42.263  27.452  30.333  1.00  0.00     0.074 A 
ATOM     49  C   UNL A   1      40.507  28.422  28.888  1.00  0.00     0.049 A 
ATOM     50  N   UNL A   1      42.046  28.078  31.460  1.00  0.00    -0.248 NA
ATOM     51  C   UNL A   1      43.384  26.500  30.376  1.00  0.00     0.031 C 
ATOM     52  C   UNL A   1      39.739  28.626  27.662  1.00  0.00     0.029 A 
ATOM     53  N   UNL A   1      39.933  29.275  29.795  1.00  0.00    -0.354 N 
ATOM     54  C   UNL A   1      43.004  27.600  32.346  1.00  0.00     0.074 A 
ATOM     55  C   UNL A   1      43.778  26.604  31.637  1.00  0.00     0.031 C 
ATOM     56  C   UNL A   1      38.782  29.541  27.895  1.00  0.00     0.029 A 
ATOM     57  C   UNL A   1      38.861  29.968  29.290  1.00  0.00     0.049 A 
ATOM     58  H   UNL A   1      40.258  29.379  30.718  1.00  0.00     0.167 HD
ATOM     59  C   UNL A   1      43.227  27.968  33.630  1.00  0.00     0.037 A 
ATOM     60  C   UNL A   1      38.032  30.840  29.894  1.00  0.00     0.037 A 
ATOM     61  C   UNL A   1      42.449  28.955  34.332  1.00  0.00     0.049 A 
ATOM     62  C   UNL A   1      38.271  31.207  31.331  1.00  0.00     0.074 A 
ATOM     63  C   UNL A   1      42.601  29.417  35.627  1.00  0.00     0.029 A 
ATOM     64  N   UNL A   1      41.363  29.630  33.792  1.00  0.00    -0.354 N 
ATOM     65  N   UNL A   1      39.202  30.776  32.150  1.00  0.00    -0.248 NA
ATOM     66  C   UNL A   1      37.353  32.187  31.929  1.00  0.00     0.031 C 
ATOM     67  C   UNL A   1      41.581  30.340  35.885  1.00  0.00     0.029 A 
ATOM     68  C   UNL A   1      40.820  30.485  34.736  1.00  0.00     0.049 A 
ATOM     69  H   UNL A   1      41.028  29.516  32.873  1.00  0.00     0.167 HD
ATOM     70  C   UNL A   1      38.993  31.443  33.351  1.00  0.00     0.074 A 
ATOM     71  C   UNL A   1      37.856  32.318  33.148  1.00  0.00     0.031 C 
ATOM     72  C   UNL A   1      39.681  31.341  34.514  1.00  0.00     0.037 A 
BRANCH  59  73
ATOM     73  C   UNL A   1      44.343  27.277  34.357  1.00  0.00     0.057 A 
ATOM     74  C   UNL A   1      44.132  26.097  35.083  1.00  0.00     0.134 A 
ATOM     75  C   UNL A   1      45.643  27.798  34.335  1.00  0.00     0.134 A 
ATOM     76  F   UNL A   1      42.907  25.554  35.158  1.00  0.00    -0.206 F 
ATOM     77  C   UNL A   1      45.168  25.477  35.786  1.00  0.00     0.040 A 
ATOM     78  C   UNL A   1      46.691  27.174  35.013  1.00  0.00     0.040 A 
ATOM     79  F   UNL A   1      45.914  28.923  33.657  1.00  0.00    -0.206 F 
ATOM     80  C   UNL A   1      46.452  26.015  35.749  1.00  0.00     0.006 A 
ENDBRANCH  59  73
BRANCH  60  81
ATOM     81  C   UNL A   1      36.900  31.416  29.129  1.00  0.00     0.057 A 
ATOM     82  C   UNL A   1      35.755  30.665  28.844  1.00  0.00     0.134 A 
ATOM     83  C   UNL A   1      36.928  32.744  28.686  1.00  0.00     0.134 A 
ATOM     84  F   UNL A   1      35.677  29.382  29.228  1.00  0.00    -0.206 F 
ATOM     85  C   UNL A   1      34.680  31.211  28.142  1.00  0.00     0.040 A 
ATOM     86  C   UNL A   1      35.853  33.310  28.001  1.00  0.00     0.040 A 
ATOM     87  F   UNL A   1      37.995  33.519  28.936  1.00  0.00    -0.206 F 
ATOM     88  C   UNL A   1      34.724  32.541  27.724  1.00  0.00     0.006 A 
ENDBRANCH  60  81
BRANCH  72  89
ATOM     89  C   UNL A   1      39.226  32.204  35.654  1.00  0.00     0.057 A 
ATOM     90  C   UNL A   1      39.651  33.531  35.787  1.00  0.00     0.134 A 
ATOM     91  C   UNL A   1      38.321  31.714  36.604  1.00  0.00     0.134 A 
ATOM     92  F   UNL A   1      40.528  34.054  34.916  1.00  0.00    -0.206 F 
ATOM     93  C   UNL A   1      39.207  34.337  36.837  1.00  0.00     0.040 A 
ATOM     94  C   UNL A   1      37.852  32.517  37.645  1.00  0.00     0.040 A 
ATOM     95  F   UNL A   1      37.868  30.453  36.528  1.00  0.00    -0.206 F 
ATOM     96  C   UNL A   1      38.299  33.831  37.765  1.00  0.00     0.006 A 
ENDBRANCH  72  89
ENDBRANCH  46  47
ENDBRANCH  39  41
ENDBRANCH  38  39
ENDBRANCH  37  38
ENDBRANCH  36  37
ENDBRANCH  35  36
ENDBRANCH   1  35
TORSDOF 20
ENDMDL
