MODEL 1
REMARK VINA RESULT:     -12.1      0.000      0.000
REMARK SMILES Cc1cnc2nc(-c3cc(F)c(F)cc3C(=O)OCCOCCOC(=O)c3ccc(-c4c5nc(c(-c6c(F)cccc6F)c6ccc([nH]6)c(-c6c(F)cccc6F)c6nc(c(-c7c(F)cccc7F)c7ccc4[nH]7)C=C6)C=C5)cc3)[nH]c2c1
REMARK SMILES IDX 22 1 21 2 20 3 19 4 18 5 16 6 17 7 15 8 8 9 9 10 10 11 14 12
REMARK SMILES IDX 11 13 12 14 13 15 7 16 1 17 2 18 3 19 83 20 4 21 82 22 5 23
REMARK SMILES IDX 81 24 6 25 23 27 24 28 25 29 26 30 27 31 28 32 80 33 29 34
REMARK SMILES IDX 79 35 30 36 31 37 32 38 73 39 33 40 78 41 72 42 74 43 34 44
REMARK SMILES IDX 77 45 71 46 70 47 35 49 61 50 44 51 60 52 45 53 48 54 59 55
REMARK SMILES IDX 75 56 46 57 47 58 58 60 76 61 49 62 36 63 37 64 42 65 38 66
REMARK SMILES IDX 39 67 41 68 43 69 40 70 62 71 63 72 68 73 64 74 65 75 67 76
REMARK SMILES IDX 69 77 66 78 50 79 51 80 56 81 52 82 53 83 55 84 57 85 54 86
REMARK H PARENT 81 26 74 48 48 59
REMARK Flexibility Score: inf
ROOT
ATOM      1  C   UNL A   1      42.296  20.224  26.492  1.00  0.00     0.202 C 
ENDROOT
BRANCH   1   2
ATOM      2  O   UNL A   1      41.220  20.852  25.805  1.00  0.00    -0.374 OA
BRANCH   2   3
ATOM      3  C   UNL A   1      39.984  21.090  26.481  1.00  0.00     0.202 C 
BRANCH   3   4
ATOM      4  C   UNL A   1      38.994  22.062  25.843  1.00  0.00     0.261 C 
BRANCH   4   5
ATOM      5  O   UNL A   1      37.657  21.535  25.843  1.00  0.00    -0.460 OA
BRANCH   5   6
ATOM      6  C   UNL A   1      36.889  21.935  24.799  1.00  0.00     0.339 C 
ATOM      7  O   UNL A   1      37.230  22.632  23.859  1.00  0.00    -0.246 OA
BRANCH   6   8
ATOM      8  C   UNL A   1      35.609  21.190  24.787  1.00  0.00     0.074 A 
ATOM      9  C   UNL A   1      34.340  21.800  24.769  1.00  0.00     0.035 A 
ATOM     10  C   UNL A   1      33.202  20.978  24.693  1.00  0.00     0.055 A 
ATOM     11  C   UNL A   1      33.333  19.592  24.674  1.00  0.00     0.159 A 
ATOM     12  C   UNL A   1      35.726  19.788  24.784  1.00  0.00     0.058 A 
ATOM     13  F   UNL A   1      32.233  18.832  24.599  1.00  0.00    -0.204 F 
ATOM     14  C   UNL A   1      34.586  19.000  24.737  1.00  0.00     0.159 A 
ATOM     15  F   UNL A   1      34.705  17.666  24.755  1.00  0.00    -0.204 F 
BRANCH   9  16
ATOM     16  C   UNL A   1      34.176  23.250  24.810  1.00  0.00     0.141 A 
ATOM     17  C   UNL A   1      33.333  28.988  23.484  1.00  0.00     0.046 C 
ATOM     18  C   UNL A   1      33.498  27.644  24.123  1.00  0.00    -0.031 A 
ATOM     19  C   UNL A   1      33.285  27.474  25.494  1.00  0.00     0.117 A 
ATOM     20  C   UNL A   1      33.827  26.526  23.348  1.00  0.00     0.035 A 
ATOM     21  N   UNL A   1      33.391  26.313  26.179  1.00  0.00    -0.235 NA
ATOM     22  C   UNL A   1      33.942  25.330  24.052  1.00  0.00     0.085 A 
ATOM     23  C   UNL A   1      33.729  25.251  25.421  1.00  0.00     0.178 A 
ATOM     24  N   UNL A   1      34.242  24.047  23.688  1.00  0.00    -0.337 N 
ATOM     25  N   UNL A   1      33.889  23.972  25.874  1.00  0.00    -0.209 NA
ATOM     26  H   UNL A   1      34.467  23.744  22.779  1.00  0.00     0.168 HD
ENDBRANCH   9  16
ENDBRANCH   6   8
ENDBRANCH   5   6
ENDBRANCH   4   5
ENDBRANCH   3   4
ENDBRANCH   2   3
ENDBRANCH   1   2
BRANCH   1  27
ATOM     27  C   UNL A   1      43.106  19.169  25.751  1.00  0.00     0.261 C 
BRANCH  27  28
ATOM     28  O   UNL A   1      43.449  19.553  24.428  1.00  0.00    -0.460 OA
BRANCH  28  29
ATOM     29  C   UNL A   1      44.778  19.764  24.268  1.00  0.00     0.338 C 
ATOM     30  O   UNL A   1      45.648  18.925  24.121  1.00  0.00    -0.246 OA
BRANCH  29  31
ATOM     31  C   UNL A   1      45.065  21.182  24.496  1.00  0.00     0.060 A 
ATOM     32  C   UNL A   1      45.934  21.460  25.553  1.00  0.00     0.016 A 
ATOM     33  C   UNL A   1      44.225  22.159  23.939  1.00  0.00     0.016 A 
ATOM     34  C   UNL A   1      45.777  22.650  26.219  1.00  0.00     0.010 A 
ATOM     35  C   UNL A   1      44.065  23.346  24.610  1.00  0.00     0.010 A 
ATOM     36  C   UNL A   1      44.772  23.527  25.794  1.00  0.00    -0.014 A 
BRANCH  36  37
ATOM     37  C   UNL A   1      44.541  24.703  26.599  1.00  0.00     0.031 A 
ATOM     38  C   UNL A   1      45.666  25.657  26.532  1.00  0.00     0.074 A 
ATOM     39  C   UNL A   1      43.395  24.909  27.273  1.00  0.00     0.049 A 
ATOM     40  N   UNL A   1      46.501  25.954  27.468  1.00  0.00    -0.248 NA
ATOM     41  C   UNL A   1      46.020  26.189  25.207  1.00  0.00     0.031 C 
ATOM     42  C   UNL A   1      42.137  24.165  27.191  1.00  0.00     0.029 A 
ATOM     43  N   UNL A   1      43.099  25.916  28.133  1.00  0.00    -0.354 N 
ATOM     44  C   UNL A   1      47.367  26.881  26.903  1.00  0.00     0.074 A 
ATOM     45  C   UNL A   1      47.156  26.829  25.481  1.00  0.00     0.031 C 
ATOM     46  C   UNL A   1      41.157  24.881  27.791  1.00  0.00     0.029 A 
ATOM     47  C   UNL A   1      41.746  26.055  28.412  1.00  0.00     0.049 A 
ATOM     48  H   UNL A   1      43.786  26.500  28.529  1.00  0.00     0.167 HD
ATOM     49  C   UNL A   1      47.990  27.810  27.675  1.00  0.00     0.037 A 
ATOM     50  C   UNL A   1      41.178  27.119  29.036  1.00  0.00     0.037 A 
ATOM     51  C   UNL A   1      48.019  27.402  29.057  1.00  0.00     0.049 A 
ATOM     52  C   UNL A   1      42.259  27.826  29.773  1.00  0.00     0.074 A 
ATOM     53  C   UNL A   1      48.552  26.322  29.736  1.00  0.00     0.029 A 
ATOM     54  N   UNL A   1      47.106  27.966  29.912  1.00  0.00    -0.354 N 
ATOM     55  N   UNL A   1      42.874  27.331  30.811  1.00  0.00    -0.248 NA
ATOM     56  C   UNL A   1      42.972  28.884  29.071  1.00  0.00     0.031 C 
ATOM     57  C   UNL A   1      47.603  26.019  30.754  1.00  0.00     0.029 A 
ATOM     58  C   UNL A   1      46.577  26.960  30.679  1.00  0.00     0.049 A 
ATOM     59  H   UNL A   1      46.873  28.922  29.965  1.00  0.00     0.167 HD
ATOM     60  C   UNL A   1      44.203  27.702  30.647  1.00  0.00     0.074 A 
ATOM     61  C   UNL A   1      44.187  28.721  29.601  1.00  0.00     0.031 C 
ATOM     62  C   UNL A   1      45.215  26.945  31.162  1.00  0.00     0.037 A 
BRANCH  49  63
ATOM     63  C   UNL A   1      48.199  29.237  27.238  1.00  0.00     0.057 A 
ATOM     64  C   UNL A   1      49.482  29.798  27.339  1.00  0.00     0.134 A 
ATOM     65  C   UNL A   1      47.159  30.163  26.999  1.00  0.00     0.134 A 
ATOM     66  F   UNL A   1      50.553  29.027  27.582  1.00  0.00    -0.206 F 
ATOM     67  C   UNL A   1      49.704  31.179  27.281  1.00  0.00     0.040 A 
ATOM     68  C   UNL A   1      47.377  31.537  26.885  1.00  0.00     0.040 A 
ATOM     69  F   UNL A   1      45.868  29.814  26.962  1.00  0.00    -0.206 F 
ATOM     70  C   UNL A   1      48.648  32.054  27.059  1.00  0.00     0.006 A 
ENDBRANCH  49  63
BRANCH  50  71
ATOM     71  C   UNL A   1      39.880  27.772  28.737  1.00  0.00     0.057 A 
ATOM     72  C   UNL A   1      38.888  27.884  29.723  1.00  0.00     0.134 A 
ATOM     73  C   UNL A   1      39.691  28.557  27.586  1.00  0.00     0.134 A 
ATOM     74  F   UNL A   1      38.996  27.205  30.875  1.00  0.00    -0.206 F 
ATOM     75  C   UNL A   1      37.796  28.752  29.591  1.00  0.00     0.040 A 
ATOM     76  C   UNL A   1      38.602  29.422  27.437  1.00  0.00     0.040 A 
ATOM     77  F   UNL A   1      40.606  28.587  26.606  1.00  0.00    -0.206 F 
ATOM     78  C   UNL A   1      37.658  29.536  28.450  1.00  0.00     0.006 A 
ENDBRANCH  50  71
BRANCH  62  79
ATOM     79  C   UNL A   1      44.859  25.843  32.123  1.00  0.00     0.057 A 
ATOM     80  C   UNL A   1      44.538  24.534  31.734  1.00  0.00     0.134 A 
ATOM     81  C   UNL A   1      45.026  26.072  33.494  1.00  0.00     0.134 A 
ATOM     82  F   UNL A   1      44.449  24.197  30.441  1.00  0.00    -0.206 F 
ATOM     83  C   UNL A   1      44.364  23.508  32.670  1.00  0.00     0.040 A 
ATOM     84  C   UNL A   1      44.890  25.050  34.436  1.00  0.00     0.040 A 
ATOM     85  F   UNL A   1      45.384  27.288  33.937  1.00  0.00    -0.206 F 
ATOM     86  C   UNL A   1      44.552  23.762  34.024  1.00  0.00     0.006 A 
ENDBRANCH  62  79
ENDBRANCH  36  37
ENDBRANCH  29  31
ENDBRANCH  28  29
ENDBRANCH  27  28
ENDBRANCH   1  27
TORSDOF 15
ENDMDL
MODEL 2
REMARK VINA RESULT:     -11.9      1.393      1.795
REMARK SMILES Cc1cnc2nc(-c3cc(F)c(F)cc3C(=O)OCCOCCOC(=O)c3ccc(-c4c5nc(c(-c6c(F)cccc6F)c6ccc([nH]6)c(-c6c(F)cccc6F)c6nc(c(-c7c(F)cccc7F)c7ccc4[nH]7)C=C6)C=C5)cc3)[nH]c2c1
REMARK SMILES IDX 22 1 21 2 20 3 19 4 18 5 16 6 17 7 15 8 8 9 9 10 10 11 14 12
REMARK SMILES IDX 11 13 12 14 13 15 7 16 1 17 2 18 3 19 83 20 4 21 82 22 5 23
REMARK SMILES IDX 81 24 6 25 23 27 24 28 25 29 26 30 27 31 28 32 80 33 29 34
REMARK SMILES IDX 79 35 30 36 31 37 32 38 73 39 33 40 78 41 72 42 74 43 34 44
REMARK SMILES IDX 77 45 71 46 70 47 35 49 61 50 44 51 60 52 45 53 48 54 59 55
REMARK SMILES IDX 75 56 46 57 47 58 58 60 76 61 49 62 36 63 37 64 42 65 38 66
REMARK SMILES IDX 39 67 41 68 43 69 40 70 62 71 63 72 68 73 64 74 65 75 67 76
REMARK SMILES IDX 69 77 66 78 50 79 51 80 56 81 52 82 53 83 55 84 57 85 54 86
REMARK H PARENT 81 26 74 48 48 59
REMARK Flexibility Score: inf
ROOT
ATOM      1  C   UNL A   1      41.114  20.832  26.833  1.00  0.00     0.202 C 
ENDROOT
BRANCH   1   2
ATOM      2  O   UNL A   1      40.429  21.568  25.827  1.00  0.00    -0.374 OA
BRANCH   2   3
ATOM      3  C   UNL A   1      39.041  21.870  25.985  1.00  0.00     0.202 C 
BRANCH   3   4
ATOM      4  C   UNL A   1      38.031  21.032  25.202  1.00  0.00     0.261 C 
BRANCH   4   5
ATOM      5  O   UNL A   1      37.098  21.857  24.485  1.00  0.00    -0.460 OA
BRANCH   5   6
ATOM      6  C   UNL A   1      35.975  22.174  25.174  1.00  0.00     0.339 C 
ATOM      7  O   UNL A   1      35.808  23.131  25.911  1.00  0.00    -0.246 OA
BRANCH   6   8
ATOM      8  C   UNL A   1      34.838  21.343  24.717  1.00  0.00     0.074 A 
ATOM      9  C   UNL A   1      33.732  21.843  24.003  1.00  0.00     0.035 A 
ATOM     10  C   UNL A   1      32.748  20.936  23.570  1.00  0.00     0.055 A 
ATOM     11  C   UNL A   1      32.854  19.581  23.875  1.00  0.00     0.159 A 
ATOM     12  C   UNL A   1      34.923  19.975  25.033  1.00  0.00     0.058 A 
ATOM     13  F   UNL A   1      31.904  18.738  23.449  1.00  0.00    -0.204 F 
ATOM     14  C   UNL A   1      33.925  19.106  24.618  1.00  0.00     0.159 A 
ATOM     15  F   UNL A   1      34.003  17.809  24.940  1.00  0.00    -0.204 F 
BRANCH   9  16
ATOM     16  C   UNL A   1      33.587  23.261  23.689  1.00  0.00     0.141 A 
ATOM     17  C   UNL A   1      33.090  29.185  23.916  1.00  0.00     0.046 C 
ATOM     18  C   UNL A   1      33.262  27.745  23.542  1.00  0.00    -0.031 A 
ATOM     19  C   UNL A   1      33.606  27.383  22.236  1.00  0.00     0.117 A 
ATOM     20  C   UNL A   1      33.123  26.741  24.506  1.00  0.00     0.035 A 
ATOM     21  N   UNL A   1      33.799  26.124  21.783  1.00  0.00    -0.235 NA
ATOM     22  C   UNL A   1      33.317  25.443  24.041  1.00  0.00     0.085 A 
ATOM     23  C   UNL A   1      33.640  25.167  22.720  1.00  0.00     0.178 A 
ATOM     24  N   UNL A   1      33.271  24.212  24.635  1.00  0.00    -0.337 N 
ATOM     25  N   UNL A   1      33.789  23.824  22.516  1.00  0.00    -0.209 NA
ATOM     26  H   UNL A   1      33.051  24.035  25.578  1.00  0.00     0.168 HD
ENDBRANCH   9  16
ENDBRANCH   6   8
ENDBRANCH   5   6
ENDBRANCH   4   5
ENDBRANCH   3   4
ENDBRANCH   2   3
ENDBRANCH   1   2
BRANCH   1  27
ATOM     27  C   UNL A   1      42.386  20.091  26.441  1.00  0.00     0.261 C 
BRANCH  27  28
ATOM     28  O   UNL A   1      42.885  20.467  25.167  1.00  0.00    -0.460 OA
BRANCH  28  29
ATOM     29  C   UNL A   1      44.211  20.747  25.182  1.00  0.00     0.338 C 
ATOM     30  O   UNL A   1      45.133  19.957  25.267  1.00  0.00    -0.246 OA
BRANCH  29  31
ATOM     31  C   UNL A   1      44.388  22.198  25.277  1.00  0.00     0.060 A 
ATOM     32  C   UNL A   1      45.245  22.636  26.288  1.00  0.00     0.016 A 
ATOM     33  C   UNL A   1      43.469  23.053  24.651  1.00  0.00     0.016 A 
ATOM     34  C   UNL A   1      45.004  23.866  26.848  1.00  0.00     0.010 A 
ATOM     35  C   UNL A   1      43.224  24.280  25.216  1.00  0.00     0.010 A 
ATOM     36  C   UNL A   1      43.929  24.622  26.365  1.00  0.00    -0.014 A 
BRANCH  36  37
ATOM     37  C   UNL A   1      43.615  25.844  27.066  1.00  0.00     0.031 A 
ATOM     38  C   UNL A   1      44.611  26.905  26.813  1.00  0.00     0.074 A 
ATOM     39  C   UNL A   1      42.503  25.993  27.808  1.00  0.00     0.049 A 
ATOM     40  N   UNL A   1      45.469  27.392  27.644  1.00  0.00    -0.248 NA
ATOM     41  C   UNL A   1      44.807  27.327  25.418  1.00  0.00     0.031 C 
ATOM     42  C   UNL A   1      41.340  25.109  27.903  1.00  0.00     0.029 A 
ATOM     43  N   UNL A   1      42.150  27.047  28.586  1.00  0.00    -0.354 N 
ATOM     44  C   UNL A   1      46.177  28.343  26.922  1.00  0.00     0.074 A 
ATOM     45  C   UNL A   1      45.875  28.115  25.534  1.00  0.00     0.031 C 
ATOM     46  C   UNL A   1      40.326  25.772  28.508  1.00  0.00     0.029 A 
ATOM     47  C   UNL A   1      40.813  27.065  28.960  1.00  0.00     0.049 A 
ATOM     48  H   UNL A   1      42.789  27.743  28.865  1.00  0.00     0.167 HD
ATOM     49  C   UNL A   1      46.737  29.413  27.544  1.00  0.00     0.037 A 
ATOM     50  C   UNL A   1      40.168  28.119  29.519  1.00  0.00     0.037 A 
ATOM     51  C   UNL A   1      46.911  29.162  28.953  1.00  0.00     0.049 A 
ATOM     52  C   UNL A   1      41.205  29.017  30.092  1.00  0.00     0.074 A 
ATOM     53  C   UNL A   1      47.615  28.227  29.690  1.00  0.00     0.029 A 
ATOM     54  N   UNL A   1      45.999  29.710  29.820  1.00  0.00    -0.354 N 
ATOM     55  N   UNL A   1      41.946  28.708  31.120  1.00  0.00    -0.248 NA
ATOM     56  C   UNL A   1      41.736  30.067  29.234  1.00  0.00     0.031 C 
ATOM     57  C   UNL A   1      46.782  27.931  30.807  1.00  0.00     0.029 A 
ATOM     58  C   UNL A   1      45.648  28.740  30.723  1.00  0.00     0.049 A 
ATOM     59  H   UNL A   1      45.658  30.634  29.797  1.00  0.00     0.167 HD
ATOM     60  C   UNL A   1      43.206  29.205  30.813  1.00  0.00     0.074 A 
ATOM     61  C   UNL A   1      42.997  30.097  29.676  1.00  0.00     0.031 C 
ATOM     62  C   UNL A   1      44.335  28.625  31.315  1.00  0.00     0.037 A 
BRANCH  49  63
ATOM     63  C   UNL A   1      46.743  30.799  26.953  1.00  0.00     0.057 A 
ATOM     64  C   UNL A   1      47.941  31.532  26.952  1.00  0.00     0.134 A 
ATOM     65  C   UNL A   1      45.584  31.549  26.653  1.00  0.00     0.134 A 
ATOM     66  F   UNL A   1      49.110  30.940  27.239  1.00  0.00    -0.206 F 
ATOM     67  C   UNL A   1      47.974  32.916  26.742  1.00  0.00     0.040 A 
ATOM     68  C   UNL A   1      45.612  32.918  26.388  1.00  0.00     0.040 A 
ATOM     69  F   UNL A   1      44.352  31.030  26.695  1.00  0.00    -0.206 F 
ATOM     70  C   UNL A   1      46.806  33.614  26.465  1.00  0.00     0.006 A 
ENDBRANCH  49  63
BRANCH  50  71
ATOM     71  C   UNL A   1      38.783  28.588  29.264  1.00  0.00     0.057 A 
ATOM     72  C   UNL A   1      37.851  28.675  30.309  1.00  0.00     0.134 A 
ATOM     73  C   UNL A   1      38.427  29.237  28.069  1.00  0.00     0.134 A 
ATOM     74  F   UNL A   1      38.113  28.122  31.503  1.00  0.00    -0.206 F 
ATOM     75  C   UNL A   1      36.655  29.396  30.186  1.00  0.00     0.040 A 
ATOM     76  C   UNL A   1      37.234  29.953  27.930  1.00  0.00     0.040 A 
ATOM     77  F   UNL A   1      39.266  29.282  27.024  1.00  0.00    -0.206 F 
ATOM     78  C   UNL A   1      36.349  30.050  28.997  1.00  0.00     0.006 A 
ENDBRANCH  50  71
BRANCH  62  79
ATOM     79  C   UNL A   1      44.180  27.600  32.407  1.00  0.00     0.057 A 
ATOM     80  C   UNL A   1      44.084  26.219  32.179  1.00  0.00     0.134 A 
ATOM     81  C   UNL A   1      44.317  28.014  33.737  1.00  0.00     0.134 A 
ATOM     82  F   UNL A   1      44.043  25.721  30.937  1.00  0.00    -0.206 F 
ATOM     83  C   UNL A   1      44.096  25.296  33.232  1.00  0.00     0.040 A 
ATOM     84  C   UNL A   1      44.366  27.102  34.793  1.00  0.00     0.040 A 
ATOM     85  F   UNL A   1      44.467  29.317  34.026  1.00  0.00    -0.206 F 
ATOM     86  C   UNL A   1      44.249  25.737  34.542  1.00  0.00     0.006 A 
ENDBRANCH  62  79
ENDBRANCH  36  37
ENDBRANCH  29  31
ENDBRANCH  28  29
ENDBRANCH  27  28
ENDBRANCH   1  27
TORSDOF 15
ENDMDL
MODEL 3
REMARK VINA RESULT:     -11.6      2.074      3.676
REMARK SMILES Cc1cnc2nc(-c3cc(F)c(F)cc3C(=O)OCCOCCOC(=O)c3ccc(-c4c5nc(c(-c6c(F)cccc6F)c6ccc([nH]6)c(-c6c(F)cccc6F)c6nc(c(-c7c(F)cccc7F)c7ccc4[nH]7)C=C6)C=C5)cc3)[nH]c2c1
REMARK SMILES IDX 22 1 21 2 20 3 19 4 18 5 16 6 17 7 15 8 8 9 9 10 10 11 14 12
REMARK SMILES IDX 11 13 12 14 13 15 7 16 1 17 2 18 3 19 83 20 4 21 82 22 5 23
REMARK SMILES IDX 81 24 6 25 23 27 24 28 25 29 26 30 27 31 28 32 80 33 29 34
REMARK SMILES IDX 79 35 30 36 31 37 32 38 73 39 33 40 78 41 72 42 74 43 34 44
REMARK SMILES IDX 77 45 71 46 70 47 35 49 61 50 44 51 60 52 45 53 48 54 59 55
REMARK SMILES IDX 75 56 46 57 47 58 58 60 76 61 49 62 36 63 37 64 42 65 38 66
REMARK SMILES IDX 39 67 41 68 43 69 40 70 62 71 63 72 68 73 64 74 65 75 67 76
REMARK SMILES IDX 69 77 66 78 50 79 51 80 56 81 52 82 53 83 55 84 57 85 54 86
REMARK H PARENT 81 26 74 48 48 59
REMARK Flexibility Score: inf
ROOT
ATOM      1  C   UNL A   1      41.471  21.220  26.605  1.00  0.00     0.202 C 
ENDROOT
BRANCH   1   2
ATOM      2  O   UNL A   1      40.114  20.797  26.653  1.00  0.00    -0.374 OA
BRANCH   2   3
ATOM      3  C   UNL A   1      39.200  21.218  25.638  1.00  0.00     0.202 C 
BRANCH   3   4
ATOM      4  C   UNL A   1      38.218  22.339  25.977  1.00  0.00     0.261 C 
BRANCH   4   5
ATOM      5  O   UNL A   1      36.854  21.917  25.817  1.00  0.00    -0.460 OA
BRANCH   5   6
ATOM      6  C   UNL A   1      36.210  22.468  24.759  1.00  0.00     0.339 C 
ATOM      7  O   UNL A   1      36.452  22.293  23.577  1.00  0.00    -0.246 OA
BRANCH   6   8
ATOM      8  C   UNL A   1      34.963  23.130  25.204  1.00  0.00     0.074 A 
ATOM      9  C   UNL A   1      33.744  22.456  25.417  1.00  0.00     0.035 A 
ATOM     10  C   UNL A   1      32.648  23.192  25.902  1.00  0.00     0.055 A 
ATOM     11  C   UNL A   1      32.761  24.562  26.127  1.00  0.00     0.159 A 
ATOM     12  C   UNL A   1      35.058  24.517  25.419  1.00  0.00     0.058 A 
ATOM     13  F   UNL A   1      31.702  25.238  26.591  1.00  0.00    -0.204 F 
ATOM     14  C   UNL A   1      33.953  25.224  25.871  1.00  0.00     0.159 A 
ATOM     15  F   UNL A   1      34.047  26.546  26.055  1.00  0.00    -0.204 F 
BRANCH   9  16
ATOM     16  C   UNL A   1      33.594  21.027  25.167  1.00  0.00     0.141 A 
ATOM     17  C   UNL A   1      32.405  15.209  25.550  1.00  0.00     0.046 C 
ATOM     18  C   UNL A   1      32.743  16.609  25.138  1.00  0.00    -0.031 A 
ATOM     19  C   UNL A   1      32.914  16.935  23.789  1.00  0.00     0.117 A 
ATOM     20  C   UNL A   1      32.848  17.624  26.095  1.00  0.00     0.035 A 
ATOM     21  N   UNL A   1      33.208  18.159  23.296  1.00  0.00    -0.235 NA
ATOM     22  C   UNL A   1      33.155  18.885  25.591  1.00  0.00     0.085 A 
ATOM     23  C   UNL A   1      33.327  19.120  24.234  1.00  0.00     0.178 A 
ATOM     24  N   UNL A   1      33.347  20.110  26.166  1.00  0.00    -0.337 N 
ATOM     25  N   UNL A   1      33.609  20.435  23.990  1.00  0.00    -0.209 NA
ATOM     26  H   UNL A   1      33.314  20.304  27.131  1.00  0.00     0.168 HD
ENDBRANCH   9  16
ENDBRANCH   6   8
ENDBRANCH   5   6
ENDBRANCH   4   5
ENDBRANCH   3   4
ENDBRANCH   2   3
ENDBRANCH   1   2
BRANCH   1  27
ATOM     27  C   UNL A   1      42.529  20.204  26.192  1.00  0.00     0.261 C 
BRANCH  27  28
ATOM     28  O   UNL A   1      43.132  20.499  24.941  1.00  0.00    -0.460 OA
BRANCH  28  29
ATOM     29  C   UNL A   1      44.459  20.753  25.044  1.00  0.00     0.338 C 
ATOM     30  O   UNL A   1      45.360  19.944  25.170  1.00  0.00    -0.246 OA
BRANCH  29  31
ATOM     31  C   UNL A   1      44.656  22.199  25.179  1.00  0.00     0.060 A 
ATOM     32  C   UNL A   1      45.456  22.601  26.250  1.00  0.00     0.016 A 
ATOM     33  C   UNL A   1      43.792  23.083  24.516  1.00  0.00     0.016 A 
ATOM     34  C   UNL A   1      45.202  23.824  26.819  1.00  0.00     0.010 A 
ATOM     35  C   UNL A   1      43.535  24.303  25.090  1.00  0.00     0.010 A 
ATOM     36  C   UNL A   1      44.173  24.609  26.286  1.00  0.00    -0.014 A 
BRANCH  36  37
ATOM     37  C   UNL A   1      43.839  25.823  26.992  1.00  0.00     0.031 A 
ATOM     38  C   UNL A   1      44.826  26.896  26.758  1.00  0.00     0.074 A 
ATOM     39  C   UNL A   1      42.717  25.956  27.722  1.00  0.00     0.049 A 
ATOM     40  N   UNL A   1      45.669  27.386  27.602  1.00  0.00    -0.248 NA
ATOM     41  C   UNL A   1      45.034  27.330  25.367  1.00  0.00     0.031 C 
ATOM     42  C   UNL A   1      41.561  25.059  27.797  1.00  0.00     0.029 A 
ATOM     43  N   UNL A   1      42.343  27.001  28.502  1.00  0.00    -0.354 N 
ATOM     44  C   UNL A   1      46.375  28.350  26.894  1.00  0.00     0.074 A 
ATOM     45  C   UNL A   1      46.091  28.128  25.501  1.00  0.00     0.031 C 
ATOM     46  C   UNL A   1      40.534  25.707  28.394  1.00  0.00     0.029 A 
ATOM     47  C   UNL A   1      41.001  27.002  28.860  1.00  0.00     0.049 A 
ATOM     48  H   UNL A   1      42.971  27.701  28.793  1.00  0.00     0.167 HD
ATOM     49  C   UNL A   1      46.916  29.421  27.530  1.00  0.00     0.037 A 
ATOM     50  C   UNL A   1      40.338  28.046  29.419  1.00  0.00     0.037 A 
ATOM     51  C   UNL A   1      47.076  29.163  28.939  1.00  0.00     0.049 A 
ATOM     52  C   UNL A   1      41.360  28.951  30.010  1.00  0.00     0.074 A 
ATOM     53  C   UNL A   1      47.782  28.231  29.678  1.00  0.00     0.029 A 
ATOM     54  N   UNL A   1      46.149  29.696  29.799  1.00  0.00    -0.354 N 
ATOM     55  N   UNL A   1      42.092  28.643  31.044  1.00  0.00    -0.248 NA
ATOM     56  C   UNL A   1      41.890  30.012  29.165  1.00  0.00     0.031 C 
ATOM     57  C   UNL A   1      46.939  27.919  30.783  1.00  0.00     0.029 A 
ATOM     58  C   UNL A   1      45.798  28.716  30.691  1.00  0.00     0.049 A 
ATOM     59  H   UNL A   1      45.798  30.616  29.778  1.00  0.00     0.167 HD
ATOM     60  C   UNL A   1      43.350  29.155  30.755  1.00  0.00     0.074 A 
ATOM     61  C   UNL A   1      43.144  30.052  29.621  1.00  0.00     0.031 C 
ATOM     62  C   UNL A   1      44.479  28.584  31.267  1.00  0.00     0.037 A 
BRANCH  49  63
ATOM     63  C   UNL A   1      46.915  30.812  26.948  1.00  0.00     0.057 A 
ATOM     64  C   UNL A   1      48.105  31.557  26.965  1.00  0.00     0.134 A 
ATOM     65  C   UNL A   1      45.751  31.551  26.639  1.00  0.00     0.134 A 
ATOM     66  F   UNL A   1      49.277  30.976  27.262  1.00  0.00    -0.206 F 
ATOM     67  C   UNL A   1      48.126  32.942  26.765  1.00  0.00     0.040 A 
ATOM     68  C   UNL A   1      45.769  32.923  26.383  1.00  0.00     0.040 A 
ATOM     69  F   UNL A   1      44.525  31.019  26.664  1.00  0.00    -0.206 F 
ATOM     70  C   UNL A   1      46.953  33.630  26.478  1.00  0.00     0.006 A 
ENDBRANCH  49  63
BRANCH  50  71
ATOM     71  C   UNL A   1      38.953  28.501  29.151  1.00  0.00     0.057 A 
ATOM     72  C   UNL A   1      37.999  28.546  30.180  1.00  0.00     0.134 A 
ATOM     73  C   UNL A   1      38.609  29.179  27.967  1.00  0.00     0.134 A 
ATOM     74  F   UNL A   1      38.248  27.964  31.362  1.00  0.00    -0.206 F 
ATOM     75  C   UNL A   1      36.795  29.253  30.054  1.00  0.00     0.040 A 
ATOM     76  C   UNL A   1      37.408  29.881  27.826  1.00  0.00     0.040 A 
ATOM     77  F   UNL A   1      39.467  29.265  26.941  1.00  0.00    -0.206 F 
ATOM     78  C   UNL A   1      36.503  29.936  28.878  1.00  0.00     0.006 A 
ENDBRANCH  50  71
BRANCH  62  79
ATOM     79  C   UNL A   1      44.322  27.550  32.350  1.00  0.00     0.057 A 
ATOM     80  C   UNL A   1      44.230  26.170  32.112  1.00  0.00     0.134 A 
ATOM     81  C   UNL A   1      44.454  27.954  33.684  1.00  0.00     0.134 A 
ATOM     82  F   UNL A   1      44.194  25.682  30.865  1.00  0.00    -0.206 F 
ATOM     83  C   UNL A   1      44.240  25.239  33.157  1.00  0.00     0.040 A 
ATOM     84  C   UNL A   1      44.501  27.034  34.733  1.00  0.00     0.040 A 
ATOM     85  F   UNL A   1      44.600  29.254  33.984  1.00  0.00    -0.206 F 
ATOM     86  C   UNL A   1      44.388  25.670  34.471  1.00  0.00     0.006 A 
ENDBRANCH  62  79
ENDBRANCH  36  37
ENDBRANCH  29  31
ENDBRANCH  28  29
ENDBRANCH  27  28
ENDBRANCH   1  27
TORSDOF 15
ENDMDL
