MODEL 1
REMARK VINA RESULT:     -12.9      0.000      0.000
REMARK SMILES Cc1ccc(-c2cc(C(=O)OCCOCCOC(=O)c3ccc(-c4c5nc(c(-c6c(F)cccc6F)c6ccc([nH]6)c(-c6c(F)cccc6F)c6nc(c(-c7c(F)cccc7F)c7ccc4[nH]7)C=C6)C=C5)cc3)c3c(-c4cccc([N+](=O)[O-])c4)[nH]nc3n2)cc1
REMARK SMILES IDX 14 1 13 2 12 3 11 4 9 5 10 6 8 7 6 8 7 9 88 10 87 11 74 12
REMARK SMILES IDX 86 13 75 14 85 15 5 17 1 18 2 19 3 20 90 21 4 22 89 23 76 24
REMARK SMILES IDX 77 25 84 26 78 27 80 28 79 29 81 30 82 31 83 32 15 33 16 34
REMARK SMILES IDX 17 35 18 36 19 37 20 38 21 39 73 40 22 41 72 42 23 43 24 44
REMARK SMILES IDX 25 45 66 46 26 47 71 48 65 49 67 50 27 51 70 52 64 53 63 54
REMARK SMILES IDX 28 56 54 57 37 58 53 59 38 60 41 61 52 62 68 63 39 64 40 65
REMARK SMILES IDX 51 67 69 68 42 69 29 70 30 71 35 72 31 73 32 74 34 75 36 76
REMARK SMILES IDX 33 77 55 78 56 79 61 80 57 81 58 82 60 83 62 84 59 85 43 86
REMARK SMILES IDX 44 87 49 88 45 89 46 90 48 91 50 92 47 93
REMARK H PARENT 85 16 67 55 41 66
REMARK Flexibility Score: inf
ROOT
ATOM      1  O   UNL A   1      33.515  29.951  25.991  1.00  0.00    -0.374 OA
ENDROOT
BRANCH   1   2
ATOM      2  C   UNL A   1      32.731  29.405  24.955  1.00  0.00     0.202 C 
BRANCH   2   3
ATOM      3  C   UNL A   1      31.975  28.340  25.656  1.00  0.00     0.261 C 
BRANCH   3   4
ATOM      4  O   UNL A   1      32.724  27.106  25.652  1.00  0.00    -0.460 OA
BRANCH   4   5
ATOM      5  C   UNL A   1      32.206  25.844  25.773  1.00  0.00     0.339 C 
ATOM      6  O   UNL A   1      31.367  25.444  26.526  1.00  0.00    -0.246 OA
BRANCH   5   7
ATOM      7  C   UNL A   1      32.910  25.056  24.763  1.00  0.00     0.075 A 
ATOM      8  C   UNL A   1      34.867  23.631  24.277  1.00  0.00     0.074 A 
ATOM      9  C   UNL A   1      33.983  24.258  25.164  1.00  0.00     0.045 A 
ATOM     10  N   UNL A   1      34.767  23.673  22.920  1.00  0.00    -0.226 NA
ATOM     11  C   UNL A   1      33.661  24.354  22.485  1.00  0.00     0.182 A 
ATOM     12  C   UNL A   1      32.754  25.030  23.381  1.00  0.00     0.061 A 
ATOM     13  N   UNL A   1      33.278  24.517  21.217  1.00  0.00    -0.154 NA
ATOM     14  C   UNL A   1      31.782  25.610  22.581  1.00  0.00     0.076 A 
ATOM     15  N   UNL A   1      32.145  25.240  21.305  1.00  0.00    -0.275 N 
ATOM     16  H   UNL A   1      31.614  25.487  20.513  1.00  0.00     0.190 HD
BRANCH   8  17
ATOM     17  C   UNL A   1      36.009  22.966  24.937  1.00  0.00     0.000 A 
ATOM     18  C   UNL A   1      39.848  21.407  26.229  1.00  0.00     0.044 C 
ATOM     19  C   UNL A   1      38.526  21.952  25.776  1.00  0.00    -0.051 A 
ATOM     20  C   UNL A   1      37.654  21.169  25.005  1.00  0.00     0.004 A 
ATOM     21  C   UNL A   1      38.138  23.244  26.127  1.00  0.00     0.004 A 
ATOM     22  C   UNL A   1      36.410  21.671  24.589  1.00  0.00     0.010 A 
ATOM     23  C   UNL A   1      36.896  23.736  25.723  1.00  0.00     0.010 A 
ENDBRANCH   8  17
BRANCH  14  24
ATOM     24  C   UNL A   1      30.574  26.400  22.834  1.00  0.00     0.007 A 
ATOM     25  C   UNL A   1      29.505  25.857  23.565  1.00  0.00     0.011 A 
ATOM     26  C   UNL A   1      30.492  27.733  22.406  1.00  0.00     0.096 A 
ATOM     27  C   UNL A   1      28.389  26.636  23.893  1.00  0.00     0.008 A 
ATOM     28  C   UNL A   1      29.380  28.516  22.762  1.00  0.00     0.270 A 
ATOM     29  C   UNL A   1      28.324  27.972  23.503  1.00  0.00     0.085 A 
BRANCH  28  30
ATOM     30  N   UNL A   1      29.348  29.942  22.412  1.00  0.00     0.062 N 
ATOM     31  O   UNL A   1      29.017  30.247  21.257  1.00  0.00    -0.258 OA
ATOM     32  O   UNL A   1      29.641  30.763  23.293  1.00  0.00    -0.258 OA
ENDBRANCH  28  30
ENDBRANCH  14  24
ENDBRANCH   5   7
ENDBRANCH   4   5
ENDBRANCH   3   4
ENDBRANCH   2   3
ENDBRANCH   1   2
BRANCH   1  33
ATOM     33  C   UNL A   1      32.837  30.204  27.189  1.00  0.00     0.202 C 
BRANCH  33  34
ATOM     34  C   UNL A   1      33.640  31.212  28.000  1.00  0.00     0.261 C 
BRANCH  34  35
ATOM     35  O   UNL A   1      34.882  31.514  27.308  1.00  0.00    -0.460 OA
BRANCH  35  36
ATOM     36  C   UNL A   1      35.995  31.709  28.082  1.00  0.00     0.338 C 
ATOM     37  O   UNL A   1      36.497  32.794  28.327  1.00  0.00    -0.246 OA
BRANCH  36  38
ATOM     38  C   UNL A   1      36.701  30.404  28.327  1.00  0.00     0.060 A 
ATOM     39  C   UNL A   1      36.613  29.751  29.576  1.00  0.00     0.016 A 
ATOM     40  C   UNL A   1      37.723  30.057  27.458  1.00  0.00     0.016 A 
ATOM     41  C   UNL A   1      37.658  28.915  30.028  1.00  0.00     0.010 A 
ATOM     42  C   UNL A   1      38.787  29.331  27.951  1.00  0.00     0.010 A 
ATOM     43  C   UNL A   1      38.805  28.795  29.250  1.00  0.00    -0.014 A 
BRANCH  43  44
ATOM     44  C   UNL A   1      40.109  28.215  29.628  1.00  0.00     0.031 A 
ATOM     45  C   UNL A   1      40.467  26.911  29.019  1.00  0.00     0.074 A 
ATOM     46  C   UNL A   1      41.095  28.959  30.201  1.00  0.00     0.049 A 
ATOM     47  N   UNL A   1      41.558  26.287  29.272  1.00  0.00    -0.248 NA
ATOM     48  C   UNL A   1      39.609  26.167  28.095  1.00  0.00     0.031 C 
ATOM     49  C   UNL A   1      42.553  28.827  30.066  1.00  0.00     0.029 A 
ATOM     50  N   UNL A   1      40.993  30.092  31.009  1.00  0.00    -0.354 N 
ATOM     51  C   UNL A   1      41.709  25.290  28.342  1.00  0.00     0.074 A 
ATOM     52  C   UNL A   1      40.413  25.161  27.733  1.00  0.00     0.031 C 
ATOM     53  C   UNL A   1      43.176  29.625  30.955  1.00  0.00     0.029 A 
ATOM     54  C   UNL A   1      42.147  30.220  31.789  1.00  0.00     0.049 A 
ATOM     55  H   UNL A   1      40.225  30.709  31.027  1.00  0.00     0.167 HD
ATOM     56  C   UNL A   1      42.968  24.811  28.136  1.00  0.00     0.037 A 
ATOM     57  C   UNL A   1      42.054  30.230  33.144  1.00  0.00     0.037 A 
ATOM     58  C   UNL A   1      43.883  25.355  29.155  1.00  0.00     0.049 A 
ATOM     59  C   UNL A   1      42.715  28.973  33.622  1.00  0.00     0.074 A 
ATOM     60  C   UNL A   1      44.917  26.273  29.126  1.00  0.00     0.029 A 
ATOM     61  N   UNL A   1      43.565  25.172  30.503  1.00  0.00    -0.354 N 
ATOM     62  N   UNL A   1      42.816  27.910  32.867  1.00  0.00    -0.248 NA
ATOM     63  C   UNL A   1      43.457  28.856  34.870  1.00  0.00     0.031 C 
ATOM     64  C   UNL A   1      45.158  26.697  30.471  1.00  0.00     0.029 A 
ATOM     65  C   UNL A   1      44.298  26.011  31.320  1.00  0.00     0.049 A 
ATOM     66  H   UNL A   1      42.899  24.526  30.831  1.00  0.00     0.167 HD
ATOM     67  C   UNL A   1      43.715  27.055  33.419  1.00  0.00     0.074 A 
ATOM     68  C   UNL A   1      44.049  27.660  34.699  1.00  0.00     0.031 C 
ATOM     69  C   UNL A   1      44.161  25.940  32.776  1.00  0.00     0.037 A 
BRANCH  56  70
ATOM     70  C   UNL A   1      43.431  23.984  26.950  1.00  0.00     0.057 A 
ATOM     71  C   UNL A   1      43.912  24.625  25.790  1.00  0.00     0.134 A 
ATOM     72  C   UNL A   1      43.363  22.580  26.833  1.00  0.00     0.134 A 
ATOM     73  F   UNL A   1      44.019  25.960  25.723  1.00  0.00    -0.206 F 
ATOM     74  C   UNL A   1      44.292  23.935  24.628  1.00  0.00     0.040 A 
ATOM     75  C   UNL A   1      43.782  21.874  25.694  1.00  0.00     0.040 A 
ATOM     76  F   UNL A   1      42.831  21.803  27.780  1.00  0.00    -0.206 F 
ATOM     77  C   UNL A   1      44.242  22.551  24.580  1.00  0.00     0.006 A 
ENDBRANCH  56  70
BRANCH  57  78
ATOM     78  C   UNL A   1      40.797  30.898  33.609  1.00  0.00     0.057 A 
ATOM     79  C   UNL A   1      40.770  32.310  33.602  1.00  0.00     0.134 A 
ATOM     80  C   UNL A   1      39.554  30.255  33.538  1.00  0.00     0.134 A 
ATOM     81  F   UNL A   1      41.920  33.004  33.604  1.00  0.00    -0.206 F 
ATOM     82  C   UNL A   1      39.584  33.039  33.426  1.00  0.00     0.040 A 
ATOM     83  C   UNL A   1      38.367  30.975  33.315  1.00  0.00     0.040 A 
ATOM     84  F   UNL A   1      39.483  28.916  33.516  1.00  0.00    -0.206 F 
ATOM     85  C   UNL A   1      38.382  32.364  33.223  1.00  0.00     0.006 A 
ENDBRANCH  57  78
BRANCH  69  86
ATOM     86  C   UNL A   1      44.546  24.686  33.513  1.00  0.00     0.057 A 
ATOM     87  C   UNL A   1      45.868  24.219  33.610  1.00  0.00     0.134 A 
ATOM     88  C   UNL A   1      43.612  24.009  34.326  1.00  0.00     0.134 A 
ATOM     89  F   UNL A   1      46.893  24.845  33.018  1.00  0.00    -0.206 F 
ATOM     90  C   UNL A   1      46.218  23.111  34.382  1.00  0.00     0.040 A 
ATOM     91  C   UNL A   1      43.968  22.952  35.162  1.00  0.00     0.040 A 
ATOM     92  F   UNL A   1      42.322  24.366  34.385  1.00  0.00    -0.206 F 
ATOM     93  C   UNL A   1      45.270  22.481  35.173  1.00  0.00     0.006 A 
ENDBRANCH  69  86
ENDBRANCH  43  44
ENDBRANCH  36  38
ENDBRANCH  35  36
ENDBRANCH  34  35
ENDBRANCH  33  34
ENDBRANCH   1  33
TORSDOF 17
ENDMDL
MODEL 2
REMARK VINA RESULT:     -12.8      1.259      1.979
REMARK SMILES Cc1ccc(-c2cc(C(=O)OCCOCCOC(=O)c3ccc(-c4c5nc(c(-c6c(F)cccc6F)c6ccc([nH]6)c(-c6c(F)cccc6F)c6nc(c(-c7c(F)cccc7F)c7ccc4[nH]7)C=C6)C=C5)cc3)c3c(-c4cccc([N+](=O)[O-])c4)[nH]nc3n2)cc1
REMARK SMILES IDX 14 1 13 2 12 3 11 4 9 5 10 6 8 7 6 8 7 9 88 10 87 11 74 12
REMARK SMILES IDX 86 13 75 14 85 15 5 17 1 18 2 19 3 20 90 21 4 22 89 23 76 24
REMARK SMILES IDX 77 25 84 26 78 27 80 28 79 29 81 30 82 31 83 32 15 33 16 34
REMARK SMILES IDX 17 35 18 36 19 37 20 38 21 39 73 40 22 41 72 42 23 43 24 44
REMARK SMILES IDX 25 45 66 46 26 47 71 48 65 49 67 50 27 51 70 52 64 53 63 54
REMARK SMILES IDX 28 56 54 57 37 58 53 59 38 60 41 61 52 62 68 63 39 64 40 65
REMARK SMILES IDX 51 67 69 68 42 69 29 70 30 71 35 72 31 73 32 74 34 75 36 76
REMARK SMILES IDX 33 77 55 78 56 79 61 80 57 81 58 82 60 83 62 84 59 85 43 86
REMARK SMILES IDX 44 87 49 88 45 89 46 90 48 91 50 92 47 93
REMARK H PARENT 85 16 67 55 41 66
REMARK Flexibility Score: inf
ROOT
ATOM      1  O   UNL A   1      32.305  29.096  25.364  1.00  0.00    -0.374 OA
ENDROOT
BRANCH   1   2
ATOM      2  C   UNL A   1      33.298  29.336  24.392  1.00  0.00     0.202 C 
BRANCH   2   3
ATOM      3  C   UNL A   1      33.850  27.980  24.162  1.00  0.00     0.261 C 
BRANCH   3   4
ATOM      4  O   UNL A   1      33.827  27.212  25.384  1.00  0.00    -0.460 OA
BRANCH   4   5
ATOM      5  C   UNL A   1      33.118  26.061  25.604  1.00  0.00     0.339 C 
ATOM      6  O   UNL A   1      32.234  25.859  26.385  1.00  0.00    -0.246 OA
BRANCH   5   7
ATOM      7  C   UNL A   1      33.679  25.095  24.662  1.00  0.00     0.075 A 
ATOM      8  C   UNL A   1      35.598  23.640  24.122  1.00  0.00     0.074 A 
ATOM      9  C   UNL A   1      34.849  24.420  25.011  1.00  0.00     0.045 A 
ATOM     10  N   UNL A   1      35.261  23.397  22.825  1.00  0.00    -0.226 NA
ATOM     11  C   UNL A   1      34.058  23.950  22.472  1.00  0.00     0.182 A 
ATOM     12  C   UNL A   1      33.285  24.779  23.365  1.00  0.00     0.061 A 
ATOM     13  N   UNL A   1      33.450  23.837  21.290  1.00  0.00    -0.154 NA
ATOM     14  C   UNL A   1      32.155  25.160  22.657  1.00  0.00     0.076 A 
ATOM     15  N   UNL A   1      32.310  24.541  21.437  1.00  0.00    -0.275 N 
ATOM     16  H   UNL A   1      31.636  24.606  20.723  1.00  0.00     0.190 HD
BRANCH   8  17
ATOM     17  C   UNL A   1      36.875  23.151  24.681  1.00  0.00     0.000 A 
ATOM     18  C   UNL A   1      40.101  21.297  26.918  1.00  0.00     0.044 C 
ATOM     19  C   UNL A   1      38.979  21.933  26.150  1.00  0.00    -0.051 A 
ATOM     20  C   UNL A   1      38.619  23.268  26.379  1.00  0.00     0.004 A 
ATOM     21  C   UNL A   1      38.285  21.205  25.183  1.00  0.00     0.004 A 
ATOM     22  C   UNL A   1      37.578  23.871  25.655  1.00  0.00     0.010 A 
ATOM     23  C   UNL A   1      37.259  21.810  24.455  1.00  0.00     0.010 A 
ENDBRANCH   8  17
BRANCH  14  24
ATOM     24  C   UNL A   1      30.967  25.961  22.964  1.00  0.00     0.007 A 
ATOM     25  C   UNL A   1      29.937  25.435  23.760  1.00  0.00     0.011 A 
ATOM     26  C   UNL A   1      30.868  27.287  22.520  1.00  0.00     0.096 A 
ATOM     27  C   UNL A   1      28.844  26.226  24.136  1.00  0.00     0.008 A 
ATOM     28  C   UNL A   1      29.782  28.083  22.924  1.00  0.00     0.270 A 
ATOM     29  C   UNL A   1      28.764  27.556  23.730  1.00  0.00     0.085 A 
BRANCH  28  30
ATOM     30  N   UNL A   1      29.737  29.503  22.554  1.00  0.00     0.062 N 
ATOM     31  O   UNL A   1      29.695  29.787  21.348  1.00  0.00    -0.258 OA
ATOM     32  O   UNL A   1      29.733  30.341  23.468  1.00  0.00    -0.258 OA
ENDBRANCH  28  30
ENDBRANCH  14  24
ENDBRANCH   5   7
ENDBRANCH   4   5
ENDBRANCH   3   4
ENDBRANCH   2   3
ENDBRANCH   1   2
BRANCH   1  33
ATOM     33  C   UNL A   1      32.096  30.136  26.278  1.00  0.00     0.202 C 
BRANCH  33  34
ATOM     34  C   UNL A   1      33.170  30.061  27.355  1.00  0.00     0.261 C 
BRANCH  34  35
ATOM     35  O   UNL A   1      34.062  31.203  27.233  1.00  0.00    -0.460 OA
BRANCH  35  36
ATOM     36  C   UNL A   1      34.903  31.452  28.284  1.00  0.00     0.338 C 
ATOM     37  O   UNL A   1      35.034  32.535  28.834  1.00  0.00    -0.246 OA
BRANCH  36  38
ATOM     38  C   UNL A   1      35.870  30.316  28.467  1.00  0.00     0.060 A 
ATOM     39  C   UNL A   1      36.089  29.743  29.740  1.00  0.00     0.016 A 
ATOM     40  C   UNL A   1      36.800  30.100  27.464  1.00  0.00     0.016 A 
ATOM     41  C   UNL A   1      37.328  29.142  30.056  1.00  0.00     0.010 A 
ATOM     42  C   UNL A   1      38.042  29.612  27.813  1.00  0.00     0.010 A 
ATOM     43  C   UNL A   1      38.350  29.177  29.114  1.00  0.00    -0.014 A 
BRANCH  43  44
ATOM     44  C   UNL A   1      39.781  28.868  29.306  1.00  0.00     0.031 A 
ATOM     45  C   UNL A   1      40.231  27.507  28.927  1.00  0.00     0.074 A 
ATOM     46  C   UNL A   1      40.718  29.843  29.470  1.00  0.00     0.049 A 
ATOM     47  N   UNL A   1      41.440  27.099  29.058  1.00  0.00    -0.248 NA
ATOM     48  C   UNL A   1      39.352  26.462  28.400  1.00  0.00     0.031 C 
ATOM     49  C   UNL A   1      42.125  29.857  29.044  1.00  0.00     0.029 A 
ATOM     50  N   UNL A   1      40.581  31.119  30.018  1.00  0.00    -0.354 N 
ATOM     51  C   UNL A   1      41.578  25.930  28.353  1.00  0.00     0.074 A 
ATOM     52  C   UNL A   1      40.231  25.502  28.092  1.00  0.00     0.031 C 
ATOM     53  C   UNL A   1      42.762  30.918  29.579  1.00  0.00     0.029 A 
ATOM     54  C   UNL A   1      41.823  31.571  30.474  1.00  0.00     0.049 A 
ATOM     55  H   UNL A   1      39.738  31.624  30.075  1.00  0.00     0.167 HD
ATOM     56  C   UNL A   1      42.838  25.569  27.979  1.00  0.00     0.037 A 
ATOM     57  C   UNL A   1      41.989  31.903  31.781  1.00  0.00     0.037 A 
ATOM     58  C   UNL A   1      43.824  26.452  28.626  1.00  0.00     0.049 A 
ATOM     59  C   UNL A   1      42.931  30.889  32.358  1.00  0.00     0.074 A 
ATOM     60  C   UNL A   1      44.665  27.453  28.171  1.00  0.00     0.029 A 
ATOM     61  N   UNL A   1      43.803  26.569  30.019  1.00  0.00    -0.354 N 
ATOM     62  N   UNL A   1      43.064  29.693  31.846  1.00  0.00    -0.248 NA
ATOM     63  C   UNL A   1      43.904  31.172  33.404  1.00  0.00     0.031 C 
ATOM     64  C   UNL A   1      45.081  28.219  29.305  1.00  0.00     0.029 A 
ATOM     65  C   UNL A   1      44.525  27.664  30.451  1.00  0.00     0.049 A 
ATOM     66  H   UNL A   1      43.330  25.948  30.618  1.00  0.00     0.167 HD
ATOM     67  C   UNL A   1      44.183  29.114  32.353  1.00  0.00     0.074 A 
ATOM     68  C   UNL A   1      44.646  30.050  33.366  1.00  0.00     0.031 C 
ATOM     69  C   UNL A   1      44.680  27.937  31.882  1.00  0.00     0.037 A 
BRANCH  56  70
ATOM     70  C   UNL A   1      43.201  24.538  26.926  1.00  0.00     0.057 A 
ATOM     71  C   UNL A   1      43.221  23.168  27.260  1.00  0.00     0.134 A 
ATOM     72  C   UNL A   1      43.619  24.804  25.605  1.00  0.00     0.134 A 
ATOM     73  F   UNL A   1      42.876  22.742  28.483  1.00  0.00    -0.206 F 
ATOM     74  C   UNL A   1      43.615  22.161  26.363  1.00  0.00     0.040 A 
ATOM     75  C   UNL A   1      43.971  23.804  24.685  1.00  0.00     0.040 A 
ATOM     76  F   UNL A   1      43.775  26.045  25.135  1.00  0.00    -0.206 F 
ATOM     77  C   UNL A   1      43.978  22.475  25.064  1.00  0.00     0.006 A 
ENDBRANCH  56  70
BRANCH  57  78
ATOM     78  C   UNL A   1      40.748  32.509  32.361  1.00  0.00     0.057 A 
ATOM     79  C   UNL A   1      40.462  33.850  32.025  1.00  0.00     0.134 A 
ATOM     80  C   UNL A   1      39.655  31.720  32.745  1.00  0.00     0.134 A 
ATOM     81  F   UNL A   1      41.442  34.657  31.586  1.00  0.00    -0.206 F 
ATOM     82  C   UNL A   1      39.151  34.348  31.969  1.00  0.00     0.040 A 
ATOM     83  C   UNL A   1      38.336  32.197  32.648  1.00  0.00     0.040 A 
ATOM     84  F   UNL A   1      39.828  30.428  33.059  1.00  0.00    -0.206 F 
ATOM     85  C   UNL A   1      38.078  33.499  32.226  1.00  0.00     0.006 A 
ENDBRANCH  57  78
BRANCH  69  86
ATOM     86  C   UNL A   1      45.403  26.958  32.765  1.00  0.00     0.057 A 
ATOM     87  C   UNL A   1      44.761  26.160  33.728  1.00  0.00     0.134 A 
ATOM     88  C   UNL A   1      46.758  26.638  32.534  1.00  0.00     0.134 A 
ATOM     89  F   UNL A   1      43.444  26.238  33.957  1.00  0.00    -0.206 F 
ATOM     90  C   UNL A   1      45.432  25.185  34.466  1.00  0.00     0.040 A 
ATOM     91  C   UNL A   1      47.416  25.611  33.210  1.00  0.00     0.040 A 
ATOM     92  F   UNL A   1      47.496  27.271  31.613  1.00  0.00    -0.206 F 
ATOM     93  C   UNL A   1      46.762  24.898  34.200  1.00  0.00     0.006 A 
ENDBRANCH  69  86
ENDBRANCH  43  44
ENDBRANCH  36  38
ENDBRANCH  35  36
ENDBRANCH  34  35
ENDBRANCH  33  34
ENDBRANCH   1  33
TORSDOF 17
ENDMDL
MODEL 3
REMARK VINA RESULT:     -12.7      3.967      8.999
REMARK SMILES Cc1ccc(-c2cc(C(=O)OCCOCCOC(=O)c3ccc(-c4c5nc(c(-c6c(F)cccc6F)c6ccc([nH]6)c(-c6c(F)cccc6F)c6nc(c(-c7c(F)cccc7F)c7ccc4[nH]7)C=C6)C=C5)cc3)c3c(-c4cccc([N+](=O)[O-])c4)[nH]nc3n2)cc1
REMARK SMILES IDX 14 1 13 2 12 3 11 4 9 5 10 6 8 7 6 8 7 9 88 10 87 11 74 12
REMARK SMILES IDX 86 13 75 14 85 15 5 17 1 18 2 19 3 20 90 21 4 22 89 23 76 24
REMARK SMILES IDX 77 25 84 26 78 27 80 28 79 29 81 30 82 31 83 32 15 33 16 34
REMARK SMILES IDX 17 35 18 36 19 37 20 38 21 39 73 40 22 41 72 42 23 43 24 44
REMARK SMILES IDX 25 45 66 46 26 47 71 48 65 49 67 50 27 51 70 52 64 53 63 54
REMARK SMILES IDX 28 56 54 57 37 58 53 59 38 60 41 61 52 62 68 63 39 64 40 65
REMARK SMILES IDX 51 67 69 68 42 69 29 70 30 71 35 72 31 73 32 74 34 75 36 76
REMARK SMILES IDX 33 77 55 78 56 79 61 80 57 81 58 82 60 83 62 84 59 85 43 86
REMARK SMILES IDX 44 87 49 88 45 89 46 90 48 91 50 92 47 93
REMARK H PARENT 85 16 67 55 41 66
REMARK Flexibility Score: inf
ROOT
ATOM      1  O   UNL A   1      37.652  22.257  24.940  1.00  0.00    -0.374 OA
ENDROOT
BRANCH   1   2
ATOM      2  C   UNL A   1      36.725  22.331  23.881  1.00  0.00     0.202 C 
BRANCH   2   3
ATOM      3  C   UNL A   1      35.428  22.377  24.596  1.00  0.00     0.261 C 
BRANCH   3   4
ATOM      4  O   UNL A   1      34.960  23.739  24.701  1.00  0.00    -0.460 OA
BRANCH   4   5
ATOM      5  C   UNL A   1      34.111  24.373  23.832  1.00  0.00     0.339 C 
ATOM      6  O   UNL A   1      34.161  24.429  22.638  1.00  0.00    -0.246 OA
BRANCH   5   7
ATOM      7  C   UNL A   1      33.100  24.991  24.687  1.00  0.00     0.075 A 
ATOM      8  C   UNL A   1      32.472  26.982  26.004  1.00  0.00     0.074 A 
ATOM      9  C   UNL A   1      33.243  26.336  25.029  1.00  0.00     0.045 A 
ATOM     10  N   UNL A   1      31.456  26.403  26.702  1.00  0.00    -0.226 NA
ATOM     11  C   UNL A   1      31.207  25.113  26.316  1.00  0.00     0.182 A 
ATOM     12  C   UNL A   1      32.008  24.421  25.334  1.00  0.00     0.061 A 
ATOM     13  N   UNL A   1      30.246  24.316  26.785  1.00  0.00    -0.154 NA
ATOM     14  C   UNL A   1      31.467  23.149  25.222  1.00  0.00     0.076 A 
ATOM     15  N   UNL A   1      30.404  23.168  26.098  1.00  0.00    -0.275 N 
ATOM     16  H   UNL A   1      29.803  22.397  26.214  1.00  0.00     0.190 HD
BRANCH   8  17
ATOM     17  C   UNL A   1      32.909  28.362  26.298  1.00  0.00     0.000 A 
ATOM     18  C   UNL A   1      34.044  32.184  28.013  1.00  0.00     0.044 C 
ATOM     19  C   UNL A   1      33.651  30.859  27.429  1.00  0.00    -0.051 A 
ATOM     20  C   UNL A   1      32.372  30.666  26.887  1.00  0.00     0.004 A 
ATOM     21  C   UNL A   1      34.560  29.802  27.405  1.00  0.00     0.004 A 
ATOM     22  C   UNL A   1      32.004  29.431  26.329  1.00  0.00     0.010 A 
ATOM     23  C   UNL A   1      34.196  28.579  26.838  1.00  0.00     0.010 A 
ENDBRANCH   8  17
BRANCH  14  24
ATOM     24  C   UNL A   1      31.766  21.969  24.407  1.00  0.00     0.007 A 
ATOM     25  C   UNL A   1      31.761  22.049  23.005  1.00  0.00     0.011 A 
ATOM     26  C   UNL A   1      32.125  20.757  25.013  1.00  0.00     0.096 A 
ATOM     27  C   UNL A   1      32.139  20.952  22.221  1.00  0.00     0.008 A 
ATOM     28  C   UNL A   1      32.529  19.669  24.219  1.00  0.00     0.270 A 
ATOM     29  C   UNL A   1      32.535  19.760  22.822  1.00  0.00     0.085 A 
BRANCH  28  30
ATOM     30  N   UNL A   1      33.014  18.438  24.857  1.00  0.00     0.062 N 
ATOM     31  O   UNL A   1      32.219  17.799  25.563  1.00  0.00    -0.258 OA
ATOM     32  O   UNL A   1      34.188  18.098  24.647  1.00  0.00    -0.258 OA
ENDBRANCH  28  30
ENDBRANCH  14  24
ENDBRANCH   5   7
ENDBRANCH   4   5
ENDBRANCH   3   4
ENDBRANCH   2   3
ENDBRANCH   1   2
BRANCH   1  33
ATOM     33  C   UNL A   1      37.993  20.963  25.352  1.00  0.00     0.202 C 
BRANCH  33  34
ATOM     34  C   UNL A   1      39.311  21.025  26.112  1.00  0.00     0.261 C 
BRANCH  34  35
ATOM     35  O   UNL A   1      39.898  22.346  25.962  1.00  0.00    -0.460 OA
BRANCH  35  36
ATOM     36  C   UNL A   1      40.393  22.941  27.091  1.00  0.00     0.338 C 
ATOM     37  O   UNL A   1      40.858  22.346  28.050  1.00  0.00    -0.246 OA
BRANCH  36  38
ATOM     38  C   UNL A   1      40.003  24.392  27.136  1.00  0.00     0.060 A 
ATOM     39  C   UNL A   1      40.496  25.310  26.182  1.00  0.00     0.016 A 
ATOM     40  C   UNL A   1      39.474  24.876  28.322  1.00  0.00     0.016 A 
ATOM     41  C   UNL A   1      40.648  26.676  26.506  1.00  0.00     0.010 A 
ATOM     42  C   UNL A   1      39.727  26.187  28.668  1.00  0.00     0.010 A 
ATOM     43  C   UNL A   1      40.361  27.094  27.802  1.00  0.00    -0.014 A 
BRANCH  43  44
ATOM     44  C   UNL A   1      40.692  28.383  28.441  1.00  0.00     0.031 A 
ATOM     45  C   UNL A   1      39.584  29.351  28.615  1.00  0.00     0.074 A 
ATOM     46  C   UNL A   1      41.835  28.562  29.161  1.00  0.00     0.049 A 
ATOM     47  N   UNL A   1      39.734  30.513  29.138  1.00  0.00    -0.248 NA
ATOM     48  C   UNL A   1      38.205  29.118  28.181  1.00  0.00     0.031 C 
ATOM     49  C   UNL A   1      42.065  29.416  30.336  1.00  0.00     0.029 A 
ATOM     50  N   UNL A   1      43.073  27.933  29.028  1.00  0.00    -0.354 N 
ATOM     51  C   UNL A   1      38.491  31.022  29.418  1.00  0.00     0.074 A 
ATOM     52  C   UNL A   1      37.582  30.193  28.674  1.00  0.00     0.031 C 
ATOM     53  C   UNL A   1      43.381  29.467  30.622  1.00  0.00     0.029 A 
ATOM     54  C   UNL A   1      44.074  28.745  29.569  1.00  0.00     0.049 A 
ATOM     55  H   UNL A   1      43.220  27.051  28.615  1.00  0.00     0.167 HD
ATOM     56  C   UNL A   1      38.414  32.004  30.360  1.00  0.00     0.037 A 
ATOM     57  C   UNL A   1      45.105  29.166  28.791  1.00  0.00     0.037 A 
ATOM     58  C   UNL A   1      39.769  32.454  30.725  1.00  0.00     0.049 A 
ATOM     59  C   UNL A   1      44.951  30.650  28.650  1.00  0.00     0.074 A 
ATOM     60  C   UNL A   1      40.557  32.316  31.854  1.00  0.00     0.029 A 
ATOM     61  N   UNL A   1      40.623  32.894  29.709  1.00  0.00    -0.354 N 
ATOM     62  N   UNL A   1      43.793  31.244  28.777  1.00  0.00    -0.248 NA
ATOM     63  C   UNL A   1      46.062  31.586  28.543  1.00  0.00     0.031 C 
ATOM     64  C   UNL A   1      41.907  32.602  31.478  1.00  0.00     0.029 A 
ATOM     65  C   UNL A   1      41.936  32.949  30.133  1.00  0.00     0.049 A 
ATOM     66  H   UNL A   1      40.324  33.134  28.802  1.00  0.00     0.167 HD
ATOM     67  C   UNL A   1      43.991  32.580  28.917  1.00  0.00     0.074 A 
ATOM     68  C   UNL A   1      45.419  32.757  28.708  1.00  0.00     0.031 C 
ATOM     69  C   UNL A   1      42.987  33.442  29.240  1.00  0.00     0.037 A 
BRANCH  56  70
ATOM     70  C   UNL A   1      37.157  32.466  31.075  1.00  0.00     0.057 A 
ATOM     71  C   UNL A   1      36.404  33.538  30.552  1.00  0.00     0.134 A 
ATOM     72  C   UNL A   1      36.669  31.980  32.306  1.00  0.00     0.134 A 
ATOM     73  F   UNL A   1      36.743  34.134  29.400  1.00  0.00    -0.206 F 
ATOM     74  C   UNL A   1      35.272  34.069  31.191  1.00  0.00     0.040 A 
ATOM     75  C   UNL A   1      35.513  32.471  32.932  1.00  0.00     0.040 A 
ATOM     76  F   UNL A   1      37.308  31.044  33.014  1.00  0.00    -0.206 F 
ATOM     77  C   UNL A   1      34.812  33.527  32.380  1.00  0.00     0.006 A 
ENDBRANCH  56  70
BRANCH  57  78
ATOM     78  C   UNL A   1      45.490  28.133  27.776  1.00  0.00     0.057 A 
ATOM     79  C   UNL A   1      44.998  28.297  26.463  1.00  0.00     0.134 A 
ATOM     80  C   UNL A   1      46.660  27.373  27.908  1.00  0.00     0.134 A 
ATOM     81  F   UNL A   1      43.916  29.064  26.241  1.00  0.00    -0.206 F 
ATOM     82  C   UNL A   1      45.688  27.826  25.336  1.00  0.00     0.040 A 
ATOM     83  C   UNL A   1      47.382  26.937  26.783  1.00  0.00     0.040 A 
ATOM     84  F   UNL A   1      47.214  27.184  29.114  1.00  0.00    -0.206 F 
ATOM     85  C   UNL A   1      46.918  27.192  25.495  1.00  0.00     0.006 A 
ENDBRANCH  57  78
BRANCH  69  86
ATOM     86  C   UNL A   1      42.958  34.863  28.748  1.00  0.00     0.057 A 
ATOM     87  C   UNL A   1      43.032  35.980  29.598  1.00  0.00     0.134 A 
ATOM     88  C   UNL A   1      43.056  35.155  27.371  1.00  0.00     0.134 A 
ATOM     89  F   UNL A   1      43.101  35.861  30.930  1.00  0.00    -0.206 F 
ATOM     90  C   UNL A   1      43.106  37.287  29.117  1.00  0.00     0.040 A 
ATOM     91  C   UNL A   1      43.212  36.452  26.884  1.00  0.00     0.040 A 
ATOM     92  F   UNL A   1      43.053  34.197  26.434  1.00  0.00    -0.206 F 
ATOM     93  C   UNL A   1      43.210  37.527  27.756  1.00  0.00     0.006 A 
ENDBRANCH  69  86
ENDBRANCH  43  44
ENDBRANCH  36  38
ENDBRANCH  35  36
ENDBRANCH  34  35
ENDBRANCH  33  34
ENDBRANCH   1  33
TORSDOF 17
ENDMDL
