MODEL 1
REMARK VINA RESULT:     -11.3      0.000      0.000
REMARK SMILES O=C(Cn1c(=O)c2c3c(sc2n(Cc2ccc(Cl)cc2Cl)c1=O)CCCC3)OCCOCCOC(=O)c1ccc(-c2c3nc(c(-c4c(F)cccc4F)c4ccc([nH]4)c(-c4c(F)cccc4F)c4nc(c(-c5c(F)cccc5F)c5ccc2[nH]5)C=C4)C=C3)cc1
REMARK SMILES IDX 30 1 29 2 28 3 2 4 1 5 3 6 4 7 5 8 22 9 6 10 7 11 12 12
REMARK SMILES IDX 23 13 8 14 11 15 9 16 27 17 10 18 24 19 26 20 25 21 13 22
REMARK SMILES IDX 14 23 15 24 20 25 16 26 19 27 21 28 17 29 18 30 31 31 32 32
REMARK SMILES IDX 33 33 34 34 35 35 36 36 37 37 38 38 90 39 39 40 89 41 40 42
REMARK SMILES IDX 41 43 42 44 83 45 43 46 88 47 82 48 84 49 44 50 87 51 81 52
REMARK SMILES IDX 80 53 45 55 71 56 54 57 70 58 55 59 58 60 69 61 85 62 56 63
REMARK SMILES IDX 57 64 68 66 86 67 59 68 46 69 47 70 52 71 48 72 49 73 51 74
REMARK SMILES IDX 53 75 50 76 72 77 73 78 78 79 74 80 75 81 77 82 79 83 76 84
REMARK SMILES IDX 60 85 61 86 66 87 62 88 63 89 65 90 67 91 64 92
REMARK H PARENT 84 54 58 65
REMARK Flexibility Score: inf
ROOT
ATOM      1  C   UNL A   1      36.425  32.076  28.471  1.00  0.00     0.202 C 
ENDROOT
BRANCH   1   2
ATOM      2  C   UNL A   1      35.049  31.454  28.237  1.00  0.00     0.261 C 
BRANCH   2   3
ATOM      3  O   UNL A   1      35.053  30.030  28.063  1.00  0.00    -0.462 OA
BRANCH   3   4
ATOM      4  C   UNL A   1      34.280  29.331  27.202  1.00  0.00     0.326 C 
ATOM      5  O   UNL A   1      34.756  29.011  26.108  1.00  0.00    -0.250 OA
BRANCH   4   6
ATOM      6  C   UNL A   1      32.807  29.059  27.487  1.00  0.00     0.253 C 
BRANCH   6   7
ATOM      7  N   UNL A   1      31.929  28.813  26.354  1.00  0.00    -0.248 N 
ATOM      8  C   UNL A   1      31.380  29.914  25.693  1.00  0.00     0.265 A 
ATOM      9  C   UNL A   1      31.766  27.464  26.000  1.00  0.00     0.332 A 
ATOM     10  O   UNL A   1      31.542  31.083  26.044  1.00  0.00    -0.268 OA
ATOM     11  C   UNL A   1      30.584  29.577  24.538  1.00  0.00     0.079 A 
ATOM     12  N   UNL A   1      30.986  27.173  24.882  1.00  0.00    -0.280 N 
ATOM     13  O   UNL A   1      32.272  26.572  26.685  1.00  0.00    -0.247 OA
ATOM     14  C   UNL A   1      29.773  30.410  23.684  1.00  0.00    -0.019 A 
ATOM     15  C   UNL A   1      30.491  28.257  24.172  1.00  0.00     0.113 A 
ATOM     16  C   UNL A   1      29.197  29.658  22.676  1.00  0.00     0.011 A 
ATOM     17  C   UNL A   1      29.470  31.875  23.820  1.00  0.00     0.037 C 
ATOM     18  S   UNL A   1      29.734  28.060  22.683  1.00  0.00    -0.122 S 
ATOM     19  C   UNL A   1      28.242  30.142  21.635  1.00  0.00     0.047 C 
ATOM     20  C   UNL A   1      28.840  32.440  22.529  1.00  0.00     0.005 C 
ATOM     21  C   UNL A   1      27.719  31.535  21.997  1.00  0.00     0.006 C 
BRANCH  12  22
ATOM     22  C   UNL A   1      30.711  25.751  24.564  1.00  0.00     0.165 C 
BRANCH  22  23
ATOM     23  C   UNL A   1      31.960  24.965  24.183  1.00  0.00    -0.009 A 
ATOM     24  C   UNL A   1      32.851  25.519  23.242  1.00  0.00     0.008 A 
ATOM     25  C   UNL A   1      32.289  23.705  24.721  1.00  0.00     0.047 A 
ATOM     26  C   UNL A   1      34.048  24.872  22.909  1.00  0.00     0.021 A 
ATOM     27  C   UNL A   1      33.529  23.110  24.466  1.00  0.00     0.041 A 
ATOM     28  Cl  UNL A   1      31.160  22.723  25.587  1.00  0.00    -0.084 Cl
ATOM     29  C   UNL A   1      34.401  23.693  23.558  1.00  0.00     0.042 A 
ATOM     30  Cl  UNL A   1      35.898  22.926  23.200  1.00  0.00    -0.084 Cl
ENDBRANCH  22  23
ENDBRANCH  12  22
ENDBRANCH   6   7
ENDBRANCH   4   6
ENDBRANCH   3   4
ENDBRANCH   2   3
ENDBRANCH   1   2
BRANCH   1  31
ATOM     31  O   UNL A   1      37.207  31.524  29.522  1.00  0.00    -0.374 OA
BRANCH  31  32
ATOM     32  C   UNL A   1      36.733  31.705  30.856  1.00  0.00     0.202 C 
BRANCH  32  33
ATOM     33  C   UNL A   1      36.403  30.480  31.716  1.00  0.00     0.261 C 
BRANCH  33  34
ATOM     34  O   UNL A   1      36.804  29.223  31.166  1.00  0.00    -0.460 OA
BRANCH  34  35
ATOM     35  C   UNL A   1      37.677  28.560  31.955  1.00  0.00     0.338 C 
ATOM     36  O   UNL A   1      37.602  28.378  33.166  1.00  0.00    -0.246 OA
BRANCH  35  37
ATOM     37  C   UNL A   1      38.776  28.017  31.163  1.00  0.00     0.060 A 
ATOM     38  C   UNL A   1      40.021  28.653  31.207  1.00  0.00     0.016 A 
ATOM     39  C   UNL A   1      38.505  27.015  30.236  1.00  0.00     0.016 A 
ATOM     40  C   UNL A   1      41.000  28.309  30.278  1.00  0.00     0.010 A 
ATOM     41  C   UNL A   1      39.473  26.704  29.290  1.00  0.00     0.010 A 
ATOM     42  C   UNL A   1      40.724  27.347  29.297  1.00  0.00    -0.014 A 
BRANCH  42  43
ATOM     43  C   UNL A   1      41.803  26.966  28.358  1.00  0.00     0.031 A 
ATOM     44  C   UNL A   1      42.542  28.144  27.802  1.00  0.00     0.074 A 
ATOM     45  C   UNL A   1      42.480  25.802  28.482  1.00  0.00     0.049 A 
ATOM     46  N   UNL A   1      43.438  28.783  28.498  1.00  0.00    -0.248 NA
ATOM     47  C   UNL A   1      42.090  28.875  26.619  1.00  0.00     0.031 C 
ATOM     48  C   UNL A   1      42.729  25.141  29.771  1.00  0.00     0.029 A 
ATOM     49  N   UNL A   1      43.280  25.115  27.592  1.00  0.00    -0.354 N 
ATOM     50  C   UNL A   1      43.598  30.028  27.926  1.00  0.00     0.074 A 
ATOM     51  C   UNL A   1      42.772  30.027  26.738  1.00  0.00     0.031 C 
ATOM     52  C   UNL A   1      43.761  24.286  29.625  1.00  0.00     0.029 A 
ATOM     53  C   UNL A   1      44.156  24.230  28.219  1.00  0.00     0.049 A 
ATOM     54  H   UNL A   1      43.237  25.237  26.616  1.00  0.00     0.167 HD
ATOM     55  C   UNL A   1      44.376  30.991  28.488  1.00  0.00     0.037 A 
ATOM     56  C   UNL A   1      45.416  23.945  27.781  1.00  0.00     0.037 A 
ATOM     57  C   UNL A   1      45.018  30.636  29.721  1.00  0.00     0.049 A 
ATOM     58  C   UNL A   1      46.148  25.198  28.200  1.00  0.00     0.074 A 
ATOM     59  C   UNL A   1      44.854  30.862  31.070  1.00  0.00     0.029 A 
ATOM     60  N   UNL A   1      46.127  29.830  29.643  1.00  0.00    -0.354 N 
ATOM     61  N   UNL A   1      46.543  25.497  29.409  1.00  0.00    -0.248 NA
ATOM     62  C   UNL A   1      46.105  26.332  27.275  1.00  0.00     0.031 C 
ATOM     63  C   UNL A   1      45.572  29.807  31.722  1.00  0.00     0.029 A 
ATOM     64  C   UNL A   1      46.095  28.988  30.723  1.00  0.00     0.049 A 
ATOM     65  H   UNL A   1      46.818  29.854  28.942  1.00  0.00     0.167 HD
ATOM     66  C   UNL A   1      46.520  26.893  29.471  1.00  0.00     0.074 A 
ATOM     67  C   UNL A   1      46.281  27.341  28.114  1.00  0.00     0.031 C 
ATOM     68  C   UNL A   1      46.499  27.602  30.639  1.00  0.00     0.037 A 
BRANCH  55  69
ATOM     69  C   UNL A   1      44.756  32.251  27.828  1.00  0.00     0.057 A 
ATOM     70  C   UNL A   1      43.965  33.377  28.101  1.00  0.00     0.134 A 
ATOM     71  C   UNL A   1      45.696  32.345  26.804  1.00  0.00     0.134 A 
ATOM     72  F   UNL A   1      43.043  33.330  29.077  1.00  0.00    -0.206 F 
ATOM     73  C   UNL A   1      44.061  34.541  27.345  1.00  0.00     0.040 A 
ATOM     74  C   UNL A   1      45.814  33.515  26.046  1.00  0.00     0.040 A 
ATOM     75  F   UNL A   1      46.472  31.298  26.488  1.00  0.00    -0.206 F 
ATOM     76  C   UNL A   1      44.982  34.608  26.305  1.00  0.00     0.006 A 
ENDBRANCH  55  69
BRANCH  56  77
ATOM     77  C   UNL A   1      45.517  23.343  26.413  1.00  0.00     0.057 A 
ATOM     78  C   UNL A   1      44.560  22.380  26.040  1.00  0.00     0.134 A 
ATOM     79  C   UNL A   1      46.486  23.635  25.444  1.00  0.00     0.134 A 
ATOM     80  F   UNL A   1      43.675  21.920  26.939  1.00  0.00    -0.206 F 
ATOM     81  C   UNL A   1      44.476  21.862  24.745  1.00  0.00     0.040 A 
ATOM     82  C   UNL A   1      46.398  23.149  24.132  1.00  0.00     0.040 A 
ATOM     83  F   UNL A   1      47.545  24.406  25.721  1.00  0.00    -0.206 F 
ATOM     84  C   UNL A   1      45.374  22.280  23.772  1.00  0.00     0.006 A 
ENDBRANCH  56  77
BRANCH  68  85
ATOM     85  C   UNL A   1      46.682  26.807  31.885  1.00  0.00     0.057 A 
ATOM     86  C   UNL A   1      45.575  26.307  32.577  1.00  0.00     0.134 A 
ATOM     87  C   UNL A   1      47.953  26.489  32.386  1.00  0.00     0.134 A 
ATOM     88  F   UNL A   1      44.329  26.563  32.146  1.00  0.00    -0.206 F 
ATOM     89  C   UNL A   1      45.723  25.506  33.710  1.00  0.00     0.040 A 
ATOM     90  C   UNL A   1      48.115  25.664  33.501  1.00  0.00     0.040 A 
ATOM     91  F   UNL A   1      49.065  26.949  31.790  1.00  0.00    -0.206 F 
ATOM     92  C   UNL A   1      46.997  25.169  34.166  1.00  0.00     0.006 A 
ENDBRANCH  68  85
ENDBRANCH  42  43
ENDBRANCH  35  37
ENDBRANCH  34  35
ENDBRANCH  33  34
ENDBRANCH  32  33
ENDBRANCH  31  32
ENDBRANCH   1  31
TORSDOF 17
ENDMDL
MODEL 2
REMARK VINA RESULT:     -11.1      4.530      9.422
REMARK SMILES O=C(Cn1c(=O)c2c3c(sc2n(Cc2ccc(Cl)cc2Cl)c1=O)CCCC3)OCCOCCOC(=O)c1ccc(-c2c3nc(c(-c4c(F)cccc4F)c4ccc([nH]4)c(-c4c(F)cccc4F)c4nc(c(-c5c(F)cccc5F)c5ccc2[nH]5)C=C4)C=C3)cc1
REMARK SMILES IDX 30 1 29 2 28 3 2 4 1 5 3 6 4 7 5 8 22 9 6 10 7 11 12 12
REMARK SMILES IDX 23 13 8 14 11 15 9 16 27 17 10 18 24 19 26 20 25 21 13 22
REMARK SMILES IDX 14 23 15 24 20 25 16 26 19 27 21 28 17 29 18 30 31 31 32 32
REMARK SMILES IDX 33 33 34 34 35 35 36 36 37 37 38 38 90 39 39 40 89 41 40 42
REMARK SMILES IDX 41 43 42 44 83 45 43 46 88 47 82 48 84 49 44 50 87 51 81 52
REMARK SMILES IDX 80 53 45 55 71 56 54 57 70 58 55 59 58 60 69 61 85 62 56 63
REMARK SMILES IDX 57 64 68 66 86 67 59 68 46 69 47 70 52 71 48 72 49 73 51 74
REMARK SMILES IDX 53 75 50 76 72 77 73 78 78 79 74 80 75 81 77 82 79 83 76 84
REMARK SMILES IDX 60 85 61 86 66 87 62 88 63 89 65 90 67 91 64 92
REMARK H PARENT 84 54 58 65
REMARK Flexibility Score: inf
ROOT
ATOM      1  C   UNL A   1      41.532  27.992  35.870  1.00  0.00     0.202 C 
ENDROOT
BRANCH   1   2
ATOM      2  C   UNL A   1      41.085  29.294  35.208  1.00  0.00     0.261 C 
BRANCH   2   3
ATOM      3  O   UNL A   1      39.952  29.924  35.824  1.00  0.00    -0.462 OA
BRANCH   3   4
ATOM      4  C   UNL A   1      38.913  30.500  35.177  1.00  0.00     0.326 C 
ATOM      5  O   UNL A   1      38.132  31.204  35.826  1.00  0.00    -0.250 OA
BRANCH   4   6
ATOM      6  C   UNL A   1      38.604  30.187  33.718  1.00  0.00     0.253 C 
BRANCH   6   7
ATOM      7  N   UNL A   1      38.598  31.292  32.771  1.00  0.00    -0.248 N 
ATOM      8  C   UNL A   1      39.818  31.707  32.233  1.00  0.00     0.265 A 
ATOM      9  C   UNL A   1      37.330  31.801  32.449  1.00  0.00     0.332 A 
ATOM     10  O   UNL A   1      40.910  31.238  32.554  1.00  0.00    -0.268 OA
ATOM     11  C   UNL A   1      39.707  32.757  31.250  1.00  0.00     0.079 A 
ATOM     12  N   UNL A   1      37.259  32.818  31.498  1.00  0.00    -0.280 N 
ATOM     13  O   UNL A   1      36.322  31.378  33.019  1.00  0.00    -0.247 OA
ATOM     14  C   UNL A   1      40.728  33.516  30.571  1.00  0.00    -0.019 A 
ATOM     15  C   UNL A   1      38.453  33.194  30.902  1.00  0.00     0.113 A 
ATOM     16  C   UNL A   1      40.159  34.415  29.688  1.00  0.00     0.011 A 
ATOM     17  C   UNL A   1      42.217  33.470  30.770  1.00  0.00     0.037 C 
ATOM     18  S   UNL A   1      38.486  34.238  29.583  1.00  0.00    -0.122 S 
ATOM     19  C   UNL A   1      40.878  35.421  28.851  1.00  0.00     0.047 C 
ATOM     20  C   UNL A   1      42.959  34.193  29.627  1.00  0.00     0.005 C 
ATOM     21  C   UNL A   1      42.332  35.560  29.314  1.00  0.00     0.006 C 
BRANCH  12  22
ATOM     22  C   UNL A   1      35.941  33.443  31.231  1.00  0.00     0.165 C 
BRANCH  22  23
ATOM     23  C   UNL A   1      35.244  32.881  29.997  1.00  0.00    -0.009 A 
ATOM     24  C   UNL A   1      35.542  31.565  29.589  1.00  0.00     0.008 A 
ATOM     25  C   UNL A   1      34.307  33.599  29.230  1.00  0.00     0.047 A 
ATOM     26  C   UNL A   1      34.879  30.975  28.505  1.00  0.00     0.021 A 
ATOM     27  C   UNL A   1      33.573  32.977  28.214  1.00  0.00     0.041 A 
ATOM     28  Cl  UNL A   1      34.096  35.311  29.353  1.00  0.00    -0.084 Cl
ATOM     29  C   UNL A   1      33.865  31.669  27.853  1.00  0.00     0.042 A 
ATOM     30  Cl  UNL A   1      33.004  30.929  26.562  1.00  0.00    -0.084 Cl
ENDBRANCH  22  23
ENDBRANCH  12  22
ENDBRANCH   6   7
ENDBRANCH   4   6
ENDBRANCH   3   4
ENDBRANCH   2   3
ENDBRANCH   1   2
BRANCH   1  31
ATOM     31  O   UNL A   1      41.399  26.804  35.100  1.00  0.00    -0.374 OA
BRANCH  31  32
ATOM     32  C   UNL A   1      41.373  25.565  35.807  1.00  0.00     0.202 C 
BRANCH  32  33
ATOM     33  C   UNL A   1      42.688  24.838  36.111  1.00  0.00     0.261 C 
BRANCH  33  34
ATOM     34  O   UNL A   1      42.905  23.634  35.369  1.00  0.00    -0.460 OA
BRANCH  34  35
ATOM     35  C   UNL A   1      44.171  23.521  34.912  1.00  0.00     0.338 C 
ATOM     36  O   UNL A   1      45.049  22.769  35.323  1.00  0.00    -0.246 OA
BRANCH  35  37
ATOM     37  C   UNL A   1      44.393  24.418  33.783  1.00  0.00     0.060 A 
ATOM     38  C   UNL A   1      44.012  24.004  32.503  1.00  0.00     0.016 A 
ATOM     39  C   UNL A   1      45.158  25.564  33.977  1.00  0.00     0.016 A 
ATOM     40  C   UNL A   1      44.440  24.727  31.392  1.00  0.00     0.010 A 
ATOM     41  C   UNL A   1      45.612  26.259  32.863  1.00  0.00     0.010 A 
ATOM     42  C   UNL A   1      45.263  25.847  31.564  1.00  0.00    -0.014 A 
BRANCH  42  43
ATOM     43  C   UNL A   1      45.657  26.625  30.367  1.00  0.00     0.031 A 
ATOM     44  C   UNL A   1      45.639  25.815  29.108  1.00  0.00     0.074 A 
ATOM     45  C   UNL A   1      45.411  27.951  30.265  1.00  0.00     0.049 A 
ATOM     46  N   UNL A   1      44.527  25.524  28.495  1.00  0.00    -0.248 NA
ATOM     47  C   UNL A   1      46.776  25.008  28.670  1.00  0.00     0.031 C 
ATOM     48  C   UNL A   1      44.261  28.615  30.894  1.00  0.00     0.029 A 
ATOM     49  N   UNL A   1      45.933  28.910  29.420  1.00  0.00    -0.354 N 
ATOM     50  C   UNL A   1      44.775  24.442  27.676  1.00  0.00     0.074 A 
ATOM     51  C   UNL A   1      46.195  24.180  27.785  1.00  0.00     0.031 C 
ATOM     52  C   UNL A   1      44.048  29.792  30.272  1.00  0.00     0.029 A 
ATOM     53  C   UNL A   1      45.114  30.033  29.301  1.00  0.00     0.049 A 
ATOM     54  H   UNL A   1      46.793  28.812  28.951  1.00  0.00     0.167 HD
ATOM     55  C   UNL A   1      43.788  23.809  26.988  1.00  0.00     0.037 A 
ATOM     56  C   UNL A   1      44.971  30.770  28.163  1.00  0.00     0.037 A 
ATOM     57  C   UNL A   1      42.465  24.334  27.169  1.00  0.00     0.049 A 
ATOM     58  C   UNL A   1      44.088  29.857  27.346  1.00  0.00     0.074 A 
ATOM     59  C   UNL A   1      41.319  24.020  27.867  1.00  0.00     0.029 A 
ATOM     60  N   UNL A   1      42.149  25.490  26.499  1.00  0.00    -0.354 N 
ATOM     61  N   UNL A   1      42.801  29.683  27.499  1.00  0.00    -0.248 NA
ATOM     62  C   UNL A   1      44.754  28.815  26.563  1.00  0.00     0.031 C 
ATOM     63  C   UNL A   1      40.575  25.243  27.946  1.00  0.00     0.029 A 
ATOM     64  C   UNL A   1      41.338  26.228  27.319  1.00  0.00     0.049 A 
ATOM     65  H   UNL A   1      42.450  25.741  25.596  1.00  0.00     0.167 HD
ATOM     66  C   UNL A   1      42.553  28.372  27.080  1.00  0.00     0.074 A 
ATOM     67  C   UNL A   1      43.789  27.913  26.480  1.00  0.00     0.031 C 
ATOM     68  C   UNL A   1      41.431  27.668  27.414  1.00  0.00     0.037 A 
BRANCH  55  69
ATOM     69  C   UNL A   1      44.011  22.796  25.943  1.00  0.00     0.057 A 
ATOM     70  C   UNL A   1      43.621  21.481  26.238  1.00  0.00     0.134 A 
ATOM     71  C   UNL A   1      44.770  23.011  24.795  1.00  0.00     0.134 A 
ATOM     72  F   UNL A   1      42.893  21.227  27.339  1.00  0.00    -0.206 F 
ATOM     73  C   UNL A   1      44.017  20.405  25.451  1.00  0.00     0.040 A 
ATOM     74  C   UNL A   1      45.161  21.940  23.984  1.00  0.00     0.040 A 
ATOM     75  F   UNL A   1      45.184  24.245  24.467  1.00  0.00    -0.206 F 
ATOM     76  C   UNL A   1      44.800  20.633  24.324  1.00  0.00     0.006 A 
ENDBRANCH  55  69
BRANCH  56  77
ATOM     77  C   UNL A   1      46.216  31.412  27.632  1.00  0.00     0.057 A 
ATOM     78  C   UNL A   1      46.125  32.727  27.137  1.00  0.00     0.134 A 
ATOM     79  C   UNL A   1      47.491  30.832  27.569  1.00  0.00     0.134 A 
ATOM     80  F   UNL A   1      44.928  33.324  27.017  1.00  0.00    -0.206 F 
ATOM     81  C   UNL A   1      47.246  33.468  26.754  1.00  0.00     0.040 A 
ATOM     82  C   UNL A   1      48.628  31.571  27.217  1.00  0.00     0.040 A 
ATOM     83  F   UNL A   1      47.687  29.539  27.852  1.00  0.00    -0.206 F 
ATOM     84  C   UNL A   1      48.511  32.902  26.833  1.00  0.00     0.006 A 
ENDBRANCH  56  77
BRANCH  68  85
ATOM     85  C   UNL A   1      40.368  28.434  28.122  1.00  0.00     0.057 A 
ATOM     86  C   UNL A   1      39.472  29.233  27.405  1.00  0.00     0.134 A 
ATOM     87  C   UNL A   1      40.191  28.352  29.511  1.00  0.00     0.134 A 
ATOM     88  F   UNL A   1      39.577  29.347  26.071  1.00  0.00    -0.206 F 
ATOM     89  C   UNL A   1      38.428  29.909  28.039  1.00  0.00     0.040 A 
ATOM     90  C   UNL A   1      39.134  29.000  30.153  1.00  0.00     0.040 A 
ATOM     91  F   UNL A   1      41.024  27.624  30.272  1.00  0.00    -0.206 F 
ATOM     92  C   UNL A   1      38.248  29.780  29.416  1.00  0.00     0.006 A 
ENDBRANCH  68  85
ENDBRANCH  42  43
ENDBRANCH  35  37
ENDBRANCH  34  35
ENDBRANCH  33  34
ENDBRANCH  32  33
ENDBRANCH  31  32
ENDBRANCH   1  31
TORSDOF 17
ENDMDL
MODEL 3
REMARK VINA RESULT:     -10.8      9.261     15.051
REMARK SMILES O=C(Cn1c(=O)c2c3c(sc2n(Cc2ccc(Cl)cc2Cl)c1=O)CCCC3)OCCOCCOC(=O)c1ccc(-c2c3nc(c(-c4c(F)cccc4F)c4ccc([nH]4)c(-c4c(F)cccc4F)c4nc(c(-c5c(F)cccc5F)c5ccc2[nH]5)C=C4)C=C3)cc1
REMARK SMILES IDX 30 1 29 2 28 3 2 4 1 5 3 6 4 7 5 8 22 9 6 10 7 11 12 12
REMARK SMILES IDX 23 13 8 14 11 15 9 16 27 17 10 18 24 19 26 20 25 21 13 22
REMARK SMILES IDX 14 23 15 24 20 25 16 26 19 27 21 28 17 29 18 30 31 31 32 32
REMARK SMILES IDX 33 33 34 34 35 35 36 36 37 37 38 38 90 39 39 40 89 41 40 42
REMARK SMILES IDX 41 43 42 44 83 45 43 46 88 47 82 48 84 49 44 50 87 51 81 52
REMARK SMILES IDX 80 53 45 55 71 56 54 57 70 58 55 59 58 60 69 61 85 62 56 63
REMARK SMILES IDX 57 64 68 66 86 67 59 68 46 69 47 70 52 71 48 72 49 73 51 74
REMARK SMILES IDX 53 75 50 76 72 77 73 78 78 79 74 80 75 81 77 82 79 83 76 84
REMARK SMILES IDX 60 85 61 86 66 87 62 88 63 89 65 90 67 91 64 92
REMARK H PARENT 84 54 58 65
REMARK Flexibility Score: inf
ROOT
ATOM      1  C   UNL A   1      42.570  41.296  26.484  1.00  0.00     0.202 C 
ENDROOT
BRANCH   1   2
ATOM      2  C   UNL A   1      42.945  41.629  25.040  1.00  0.00     0.261 C 
BRANCH   2   3
ATOM      3  O   UNL A   1      41.837  41.964  24.193  1.00  0.00    -0.462 OA
BRANCH   3   4
ATOM      4  C   UNL A   1      41.904  42.262  22.875  1.00  0.00     0.326 C 
ATOM      5  O   UNL A   1      41.904  41.334  22.060  1.00  0.00    -0.250 OA
BRANCH   4   6
ATOM      6  C   UNL A   1      42.124  43.689  22.386  1.00  0.00     0.253 C 
BRANCH   6   7
ATOM      7  N   UNL A   1      43.384  43.996  21.728  1.00  0.00    -0.248 N 
ATOM      8  C   UNL A   1      44.503  44.245  22.526  1.00  0.00     0.265 A 
ATOM      9  C   UNL A   1      43.355  43.955  20.325  1.00  0.00     0.332 A 
ATOM     10  O   UNL A   1      44.480  44.281  23.756  1.00  0.00    -0.268 OA
ATOM     11  C   UNL A   1      45.722  44.465  21.787  1.00  0.00     0.079 A 
ATOM     12  N   UNL A   1      44.550  44.178  19.642  1.00  0.00    -0.280 N 
ATOM     13  O   UNL A   1      42.295  43.762  19.726  1.00  0.00    -0.247 OA
ATOM     14  C   UNL A   1      47.033  44.861  22.240  1.00  0.00    -0.019 A 
ATOM     15  C   UNL A   1      45.685  44.356  20.419  1.00  0.00     0.113 A 
ATOM     16  C   UNL A   1      47.914  44.933  21.177  1.00  0.00     0.011 A 
ATOM     17  C   UNL A   1      47.470  45.235  23.628  1.00  0.00     0.037 C 
ATOM     18  S   UNL A   1      47.220  44.404  19.734  1.00  0.00    -0.122 S 
ATOM     19  C   UNL A   1      49.341  45.370  21.227  1.00  0.00     0.047 C 
ATOM     20  C   UNL A   1      49.009  45.274  23.741  1.00  0.00     0.005 C 
ATOM     21  C   UNL A   1      49.648  46.037  22.571  1.00  0.00     0.006 C 
BRANCH  12  22
ATOM     22  C   UNL A   1      44.513  44.252  18.161  1.00  0.00     0.165 C 
BRANCH  22  23
ATOM     23  C   UNL A   1      44.353  45.672  17.631  1.00  0.00    -0.009 A 
ATOM     24  C   UNL A   1      43.071  46.258  17.638  1.00  0.00     0.008 A 
ATOM     25  C   UNL A   1      45.417  46.448  17.133  1.00  0.00     0.047 A 
ATOM     26  C   UNL A   1      42.880  47.584  17.229  1.00  0.00     0.021 A 
ATOM     27  C   UNL A   1      45.242  47.801  16.822  1.00  0.00     0.041 A 
ATOM     28  Cl  UNL A   1      46.955  45.784  16.710  1.00  0.00    -0.084 Cl
ATOM     29  C   UNL A   1      43.974  48.362  16.867  1.00  0.00     0.042 A 
ATOM     30  Cl  UNL A   1      43.755  50.010  16.423  1.00  0.00    -0.084 Cl
ENDBRANCH  22  23
ENDBRANCH  12  22
ENDBRANCH   6   7
ENDBRANCH   4   6
ENDBRANCH   3   4
ENDBRANCH   2   3
ENDBRANCH   1   2
BRANCH   1  31
ATOM     31  O   UNL A   1      42.550  39.919  26.839  1.00  0.00    -0.374 OA
BRANCH  31  32
ATOM     32  C   UNL A   1      43.806  39.284  27.070  1.00  0.00     0.202 C 
BRANCH  32  33
ATOM     33  C   UNL A   1      43.915  37.758  26.965  1.00  0.00     0.261 C 
BRANCH  33  34
ATOM     34  O   UNL A   1      42.736  37.093  26.505  1.00  0.00    -0.460 OA
BRANCH  34  35
ATOM     35  C   UNL A   1      42.891  35.755  26.414  1.00  0.00     0.338 C 
ATOM     36  O   UNL A   1      43.148  35.099  25.409  1.00  0.00    -0.246 OA
BRANCH  35  37
ATOM     37  C   UNL A   1      42.745  35.129  27.724  1.00  0.00     0.060 A 
ATOM     38  C   UNL A   1      43.655  34.138  28.106  1.00  0.00     0.016 A 
ATOM     39  C   UNL A   1      41.596  35.384  28.466  1.00  0.00     0.016 A 
ATOM     40  C   UNL A   1      43.389  33.358  29.229  1.00  0.00     0.010 A 
ATOM     41  C   UNL A   1      41.319  34.579  29.563  1.00  0.00     0.010 A 
ATOM     42  C   UNL A   1      42.206  33.559  29.953  1.00  0.00    -0.014 A 
BRANCH  42  43
ATOM     43  C   UNL A   1      41.978  32.750  31.173  1.00  0.00     0.031 A 
ATOM     44  C   UNL A   1      40.582  32.869  31.703  1.00  0.00     0.074 A 
ATOM     45  C   UNL A   1      42.638  31.591  31.395  1.00  0.00     0.049 A 
ATOM     46  N   UNL A   1      39.584  32.238  31.154  1.00  0.00    -0.248 NA
ATOM     47  C   UNL A   1      40.170  33.935  32.614  1.00  0.00     0.031 C 
ATOM     48  C   UNL A   1      43.094  30.697  30.321  1.00  0.00     0.029 A 
ATOM     49  N   UNL A   1      42.814  30.852  32.547  1.00  0.00    -0.354 N 
ATOM     50  C   UNL A   1      38.424  32.871  31.550  1.00  0.00     0.074 A 
ATOM     51  C   UNL A   1      38.833  33.894  32.489  1.00  0.00     0.031 C 
ATOM     52  C   UNL A   1      43.306  29.471  30.842  1.00  0.00     0.029 A 
ATOM     53  C   UNL A   1      43.139  29.519  32.293  1.00  0.00     0.049 A 
ATOM     54  H   UNL A   1      42.721  31.225  33.453  1.00  0.00     0.167 HD
ATOM     55  C   UNL A   1      37.205  32.534  31.051  1.00  0.00     0.037 A 
ATOM     56  C   UNL A   1      42.740  28.465  33.061  1.00  0.00     0.037 A 
ATOM     57  C   UNL A   1      37.197  31.479  30.079  1.00  0.00     0.049 A 
ATOM     58  C   UNL A   1      41.293  28.346  32.644  1.00  0.00     0.074 A 
ATOM     59  C   UNL A   1      37.099  31.338  28.712  1.00  0.00     0.029 A 
ATOM     60  N   UNL A   1      37.328  30.194  30.545  1.00  0.00    -0.354 N 
ATOM     61  N   UNL A   1      40.847  27.819  31.535  1.00  0.00    -0.248 NA
ATOM     62  C   UNL A   1      40.329  29.195  33.346  1.00  0.00     0.031 C 
ATOM     63  C   UNL A   1      37.651  30.047  28.422  1.00  0.00     0.029 A 
ATOM     64  C   UNL A   1      38.081  29.504  29.632  1.00  0.00     0.049 A 
ATOM     65  H   UNL A   1      36.949  29.835  31.380  1.00  0.00     0.167 HD
ATOM     66  C   UNL A   1      39.656  28.496  31.255  1.00  0.00     0.074 A 
ATOM     67  C   UNL A   1      39.379  29.298  32.429  1.00  0.00     0.031 C 
ATOM     68  C   UNL A   1      39.068  28.523  30.023  1.00  0.00     0.037 A 
BRANCH  55  69
ATOM     69  C   UNL A   1      35.920  33.018  31.582  1.00  0.00     0.057 A 
ATOM     70  C   UNL A   1      35.240  33.981  30.822  1.00  0.00     0.134 A 
ATOM     71  C   UNL A   1      35.455  32.751  32.867  1.00  0.00     0.134 A 
ATOM     72  F   UNL A   1      35.656  34.273  29.578  1.00  0.00    -0.206 F 
ATOM     73  C   UNL A   1      34.166  34.698  31.339  1.00  0.00     0.040 A 
ATOM     74  C   UNL A   1      34.366  33.454  33.394  1.00  0.00     0.040 A 
ATOM     75  F   UNL A   1      36.072  31.851  33.647  1.00  0.00    -0.206 F 
ATOM     76  C   UNL A   1      33.733  34.443  32.635  1.00  0.00     0.006 A 
ENDBRANCH  55  69
BRANCH  56  77
ATOM     77  C   UNL A   1      43.193  28.480  34.488  1.00  0.00     0.057 A 
ATOM     78  C   UNL A   1      43.900  27.362  34.971  1.00  0.00     0.134 A 
ATOM     79  C   UNL A   1      42.983  29.507  35.419  1.00  0.00     0.134 A 
ATOM     80  F   UNL A   1      44.033  26.264  34.210  1.00  0.00    -0.206 F 
ATOM     81  C   UNL A   1      44.491  27.333  36.237  1.00  0.00     0.040 A 
ATOM     82  C   UNL A   1      43.594  29.506  36.680  1.00  0.00     0.040 A 
ATOM     83  F   UNL A   1      42.190  30.550  35.144  1.00  0.00    -0.206 F 
ATOM     84  C   UNL A   1      44.374  28.428  37.083  1.00  0.00     0.006 A 
ENDBRANCH  56  77
BRANCH  68  85
ATOM     85  C   UNL A   1      39.673  27.630  28.994  1.00  0.00     0.057 A 
ATOM     86  C   UNL A   1      39.354  26.268  28.961  1.00  0.00     0.134 A 
ATOM     87  C   UNL A   1      40.535  28.115  28.001  1.00  0.00     0.134 A 
ATOM     88  F   UNL A   1      38.524  25.740  29.875  1.00  0.00    -0.206 F 
ATOM     89  C   UNL A   1      39.856  25.426  27.969  1.00  0.00     0.040 A 
ATOM     90  C   UNL A   1      41.021  27.289  26.986  1.00  0.00     0.040 A 
ATOM     91  F   UNL A   1      40.906  29.405  27.978  1.00  0.00    -0.206 F 
ATOM     92  C   UNL A   1      40.680  25.939  26.968  1.00  0.00     0.006 A 
ENDBRANCH  68  85
ENDBRANCH  42  43
ENDBRANCH  35  37
ENDBRANCH  34  35
ENDBRANCH  33  34
ENDBRANCH  32  33
ENDBRANCH  31  32
ENDBRANCH   1  31
TORSDOF 17
ENDMDL
