MODEL 1
REMARK VINA RESULT:     -12.3      0.000      0.000
REMARK SMILES CN1C(=O)[C@@H]2CC=CC[C@]2(C(=O)OCCOCCOC(=O)c2ccc(-c3c4nc(c(-c5c(F)cccc5F)c5ccc([nH]5)c(-c5c(F)cccc5F)c5nc(c(-c6c(F)cccc6F)c6ccc3[nH]6)C=C5)C=C4)cc2)[C@H]1c1ccccc1
REMARK SMILES IDX 17 1 16 2 15 3 14 4 13 5 11 6 12 7 10 8 1 9 2 10 3 11 76 12
REMARK SMILES IDX 4 13 5 14 6 15 9 16 7 17 8 18 77 19 78 20 82 21 79 22 81 23
REMARK SMILES IDX 80 24 18 25 19 26 20 27 21 28 22 29 23 30 75 31 24 32 74 33
REMARK SMILES IDX 25 34 26 35 27 36 68 37 28 38 73 39 67 40 69 41 29 42 72 43
REMARK SMILES IDX 66 44 65 45 30 47 56 48 39 49 55 50 40 51 43 52 54 53 70 54
REMARK SMILES IDX 41 55 42 56 53 58 71 59 44 60 31 61 32 62 37 63 33 64 34 65
REMARK SMILES IDX 36 66 38 67 35 68 57 69 58 70 63 71 59 72 60 73 62 74 64 75
REMARK SMILES IDX 61 76 45 77 46 78 51 79 47 80 48 81 50 82 52 83 49 84
REMARK H PARENT 69 46 43 57
REMARK Flexibility Score: inf
ROOT
ATOM      1  C   UNL A   1      36.290  20.503  25.010  1.00  0.00     0.202 C 
ENDROOT
BRANCH   1   2
ATOM      2  O   UNL A   1      35.922  21.473  25.996  1.00  0.00    -0.374 OA
BRANCH   2   3
ATOM      3  C   UNL A   1      34.527  21.631  26.268  1.00  0.00     0.202 C 
BRANCH   3   4
ATOM      4  C   UNL A   1      34.344  22.762  27.302  1.00  0.00     0.261 C 
BRANCH   4   5
ATOM      5  O   UNL A   1      33.829  23.884  26.566  1.00  0.00    -0.463 OA
BRANCH   5   6
ATOM      6  C   UNL A   1      32.488  24.077  26.322  1.00  0.00     0.315 C 
ATOM      7  O   UNL A   1      31.617  24.204  27.165  1.00  0.00    -0.251 OA
BRANCH   6   8
ATOM      8  C   UNL A   1      32.360  24.331  24.805  1.00  0.00     0.108 C 
ATOM      9  C   UNL A   1      31.731  27.533  22.857  1.00  0.00     0.147 C 
ATOM     10  N   UNL A   1      32.231  26.296  23.427  1.00  0.00    -0.337 N 
ATOM     11  C   UNL A   1      33.302  25.586  22.942  1.00  0.00     0.227 C 
ATOM     12  C   UNL A   1      31.767  25.794  24.691  1.00  0.00     0.133 C 
ATOM     13  O   UNL A   1      33.954  25.898  21.955  1.00  0.00    -0.275 OA
ATOM     14  C   UNL A   1      33.580  24.379  23.846  1.00  0.00     0.102 C 
ATOM     15  C   UNL A   1      33.851  23.183  22.904  1.00  0.00     0.041 C 
ATOM     16  C   UNL A   1      31.416  23.155  24.469  1.00  0.00     0.049 C 
ATOM     17  C   UNL A   1      32.662  22.371  22.506  1.00  0.00    -0.030 C 
ATOM     18  C   UNL A   1      31.535  22.383  23.210  1.00  0.00    -0.030 C 
BRANCH  12  19
ATOM     19  C   UNL A   1      32.235  26.749  25.812  1.00  0.00    -0.024 A 
ATOM     20  C   UNL A   1      31.308  27.365  26.673  1.00  0.00     0.006 A 
ATOM     21  C   UNL A   1      33.574  27.171  25.862  1.00  0.00     0.006 A 
ATOM     22  C   UNL A   1      31.669  28.473  27.434  1.00  0.00     0.000 A 
ATOM     23  C   UNL A   1      33.937  28.271  26.644  1.00  0.00     0.000 A 
ATOM     24  C   UNL A   1      32.977  28.943  27.399  1.00  0.00     0.000 A 
ENDBRANCH  12  19
ENDBRANCH   6   8
ENDBRANCH   5   6
ENDBRANCH   4   5
ENDBRANCH   3   4
ENDBRANCH   2   3
ENDBRANCH   1   2
BRANCH   1  25
ATOM     25  C   UNL A   1      37.783  20.096  24.997  1.00  0.00     0.261 C 
BRANCH  25  26
ATOM     26  O   UNL A   1      38.661  21.209  25.184  1.00  0.00    -0.460 OA
BRANCH  26  27
ATOM     27  C   UNL A   1      39.646  20.935  26.067  1.00  0.00     0.338 C 
ATOM     28  O   UNL A   1      40.327  19.928  26.129  1.00  0.00    -0.246 OA
BRANCH  27  29
ATOM     29  C   UNL A   1      39.909  22.130  26.866  1.00  0.00     0.060 A 
ATOM     30  C   UNL A   1      39.185  23.279  26.543  1.00  0.00     0.016 A 
ATOM     31  C   UNL A   1      40.940  22.148  27.808  1.00  0.00     0.016 A 
ATOM     32  C   UNL A   1      39.567  24.493  27.089  1.00  0.00     0.010 A 
ATOM     33  C   UNL A   1      41.317  23.369  28.361  1.00  0.00     0.010 A 
ATOM     34  C   UNL A   1      40.676  24.550  27.945  1.00  0.00    -0.014 A 
BRANCH  34  35
ATOM     35  C   UNL A   1      41.291  25.867  28.210  1.00  0.00     0.031 A 
ATOM     36  C   UNL A   1      42.669  26.137  27.671  1.00  0.00     0.074 A 
ATOM     37  C   UNL A   1      40.594  26.825  28.842  1.00  0.00     0.049 A 
ATOM     38  N   UNL A   1      43.385  27.228  27.735  1.00  0.00    -0.248 NA
ATOM     39  C   UNL A   1      43.330  25.026  26.965  1.00  0.00     0.031 C 
ATOM     40  C   UNL A   1      39.239  26.675  29.369  1.00  0.00     0.029 A 
ATOM     41  N   UNL A   1      40.934  28.117  29.136  1.00  0.00    -0.354 N 
ATOM     42  C   UNL A   1      44.579  26.934  27.085  1.00  0.00     0.074 A 
ATOM     43  C   UNL A   1      44.509  25.551  26.672  1.00  0.00     0.031 C 
ATOM     44  C   UNL A   1      38.858  27.840  29.921  1.00  0.00     0.029 A 
ATOM     45  C   UNL A   1      39.952  28.802  29.806  1.00  0.00     0.049 A 
ATOM     46  H   UNL A   1      41.799  28.518  28.892  1.00  0.00     0.167 HD
ATOM     47  C   UNL A   1      45.629  27.750  26.839  1.00  0.00     0.037 A 
ATOM     48  C   UNL A   1      39.947  30.063  30.275  1.00  0.00     0.037 A 
ATOM     49  C   UNL A   1      45.686  29.128  27.251  1.00  0.00     0.049 A 
ATOM     50  C   UNL A   1      41.149  30.935  30.032  1.00  0.00     0.074 A 
ATOM     51  C   UNL A   1      46.697  30.049  27.051  1.00  0.00     0.029 A 
ATOM     52  N   UNL A   1      44.682  29.779  27.954  1.00  0.00    -0.354 N 
ATOM     53  N   UNL A   1      42.262  30.656  29.397  1.00  0.00    -0.248 NA
ATOM     54  C   UNL A   1      41.085  32.305  30.560  1.00  0.00     0.031 C 
ATOM     55  C   UNL A   1      46.328  31.244  27.677  1.00  0.00     0.029 A 
ATOM     56  C   UNL A   1      45.058  31.087  28.212  1.00  0.00     0.049 A 
ATOM     57  H   UNL A   1      43.829  29.372  28.229  1.00  0.00     0.167 HD
ATOM     58  C   UNL A   1      43.015  31.824  29.417  1.00  0.00     0.074 A 
ATOM     59  C   UNL A   1      42.223  32.816  30.115  1.00  0.00     0.031 C 
ATOM     60  C   UNL A   1      44.248  32.059  28.901  1.00  0.00     0.037 A 
BRANCH  47  61
ATOM     61  C   UNL A   1      46.808  27.163  26.116  1.00  0.00     0.057 A 
ATOM     62  C   UNL A   1      46.956  27.269  24.726  1.00  0.00     0.134 A 
ATOM     63  C   UNL A   1      47.816  26.495  26.822  1.00  0.00     0.134 A 
ATOM     64  F   UNL A   1      46.019  27.880  23.985  1.00  0.00    -0.206 F 
ATOM     65  C   UNL A   1      48.051  26.709  24.062  1.00  0.00     0.040 A 
ATOM     66  C   UNL A   1      48.929  25.957  26.173  1.00  0.00     0.040 A 
ATOM     67  F   UNL A   1      47.738  26.357  28.153  1.00  0.00    -0.206 F 
ATOM     68  C   UNL A   1      49.045  26.057  24.788  1.00  0.00     0.006 A 
ENDBRANCH  47  61
BRANCH  48  69
ATOM     69  C   UNL A   1      38.764  30.576  31.011  1.00  0.00     0.057 A 
ATOM     70  C   UNL A   1      38.627  30.389  32.391  1.00  0.00     0.134 A 
ATOM     71  C   UNL A   1      37.732  31.251  30.347  1.00  0.00     0.134 A 
ATOM     72  F   UNL A   1      39.575  29.735  33.080  1.00  0.00    -0.206 F 
ATOM     73  C   UNL A   1      37.499  30.832  33.081  1.00  0.00     0.040 A 
ATOM     74  C   UNL A   1      36.611  31.725  31.028  1.00  0.00     0.040 A 
ATOM     75  F   UNL A   1      37.806  31.471  29.026  1.00  0.00    -0.206 F 
ATOM     76  C   UNL A   1      36.488  31.507  32.399  1.00  0.00     0.006 A 
ENDBRANCH  48  69
BRANCH  60  77
ATOM     77  C   UNL A   1      44.786  33.456  29.026  1.00  0.00     0.057 A 
ATOM     78  C   UNL A   1      44.517  34.447  28.073  1.00  0.00     0.134 A 
ATOM     79  C   UNL A   1      45.570  33.816  30.130  1.00  0.00     0.134 A 
ATOM     80  F   UNL A   1      43.780  34.166  26.988  1.00  0.00    -0.206 F 
ATOM     81  C   UNL A   1      45.041  35.735  28.194  1.00  0.00     0.040 A 
ATOM     82  C   UNL A   1      46.073  35.109  30.278  1.00  0.00     0.040 A 
ATOM     83  F   UNL A   1      45.854  32.919  31.087  1.00  0.00    -0.206 F 
ATOM     84  C   UNL A   1      45.817  36.070  29.303  1.00  0.00     0.006 A 
ENDBRANCH  60  77
ENDBRANCH  34  35
ENDBRANCH  27  29
ENDBRANCH  26  27
ENDBRANCH  25  26
ENDBRANCH   1  25
TORSDOF 15
ENDMDL
MODEL 2
REMARK VINA RESULT:     -12.1      3.786      8.867
REMARK SMILES CN1C(=O)[C@@H]2CC=CC[C@]2(C(=O)OCCOCCOC(=O)c2ccc(-c3c4nc(c(-c5c(F)cccc5F)c5ccc([nH]5)c(-c5c(F)cccc5F)c5nc(c(-c6c(F)cccc6F)c6ccc3[nH]6)C=C5)C=C4)cc2)[C@H]1c1ccccc1
REMARK SMILES IDX 17 1 16 2 15 3 14 4 13 5 11 6 12 7 10 8 1 9 2 10 3 11 76 12
REMARK SMILES IDX 4 13 5 14 6 15 9 16 7 17 8 18 77 19 78 20 82 21 79 22 81 23
REMARK SMILES IDX 80 24 18 25 19 26 20 27 21 28 22 29 23 30 75 31 24 32 74 33
REMARK SMILES IDX 25 34 26 35 27 36 68 37 28 38 73 39 67 40 69 41 29 42 72 43
REMARK SMILES IDX 66 44 65 45 30 47 56 48 39 49 55 50 40 51 43 52 54 53 70 54
REMARK SMILES IDX 41 55 42 56 53 58 71 59 44 60 31 61 32 62 37 63 33 64 34 65
REMARK SMILES IDX 36 66 38 67 35 68 57 69 58 70 63 71 59 72 60 73 62 74 64 75
REMARK SMILES IDX 61 76 45 77 46 78 51 79 47 80 48 81 50 82 52 83 49 84
REMARK H PARENT 69 46 43 57
REMARK Flexibility Score: inf
ROOT
ATOM      1  C   UNL A   1      31.443  30.127  25.903  1.00  0.00     0.202 C 
ENDROOT
BRANCH   1   2
ATOM      2  O   UNL A   1      32.182  29.720  24.746  1.00  0.00    -0.374 OA
BRANCH   2   3
ATOM      3  C   UNL A   1      33.446  29.088  24.968  1.00  0.00     0.202 C 
BRANCH   3   4
ATOM      4  C   UNL A   1      33.903  28.411  23.659  1.00  0.00     0.261 C 
BRANCH   4   5
ATOM      5  O   UNL A   1      33.981  27.006  23.952  1.00  0.00    -0.463 OA
BRANCH   5   6
ATOM      6  C   UNL A   1      33.464  26.032  23.129  1.00  0.00     0.315 C 
ATOM      7  O   UNL A   1      33.896  25.714  22.035  1.00  0.00    -0.251 OA
BRANCH   6   8
ATOM      8  C   UNL A   1      32.400  25.286  23.963  1.00  0.00     0.108 C 
ATOM      9  C   UNL A   1      32.537  21.943  25.764  1.00  0.00     0.147 C 
ATOM     10  N   UNL A   1      32.416  23.331  25.361  1.00  0.00    -0.337 N 
ATOM     11  C   UNL A   1      31.942  24.341  26.161  1.00  0.00     0.227 C 
ATOM     12  C   UNL A   1      32.976  23.821  24.132  1.00  0.00     0.133 C 
ATOM     13  O   UNL A   1      31.542  24.191  27.307  1.00  0.00    -0.275 OA
ATOM     14  C   UNL A   1      32.033  25.680  25.419  1.00  0.00     0.102 C 
ATOM     15  C   UNL A   1      30.703  26.420  25.691  1.00  0.00     0.041 C 
ATOM     16  C   UNL A   1      31.204  25.473  23.003  1.00  0.00     0.049 C 
ATOM     17  C   UNL A   1      29.597  26.173  24.719  1.00  0.00    -0.030 C 
ATOM     18  C   UNL A   1      29.827  25.710  23.494  1.00  0.00    -0.030 C 
BRANCH  12  19
ATOM     19  C   UNL A   1      34.517  23.760  24.223  1.00  0.00    -0.024 A 
ATOM     20  C   UNL A   1      35.271  23.050  23.270  1.00  0.00     0.006 A 
ATOM     21  C   UNL A   1      35.173  24.244  25.366  1.00  0.00     0.006 A 
ATOM     22  C   UNL A   1      36.591  22.693  23.528  1.00  0.00     0.000 A 
ATOM     23  C   UNL A   1      36.506  23.901  25.611  1.00  0.00     0.000 A 
ATOM     24  C   UNL A   1      37.201  23.095  24.711  1.00  0.00     0.000 A 
ENDBRANCH  12  19
ENDBRANCH   6   8
ENDBRANCH   5   6
ENDBRANCH   4   5
ENDBRANCH   3   4
ENDBRANCH   2   3
ENDBRANCH   1   2
BRANCH   1  25
ATOM     25  C   UNL A   1      31.846  31.492  26.508  1.00  0.00     0.261 C 
BRANCH  25  26
ATOM     26  O   UNL A   1      32.735  31.363  27.620  1.00  0.00    -0.460 OA
BRANCH  26  27
ATOM     27  C   UNL A   1      33.554  32.429  27.742  1.00  0.00     0.338 C 
ATOM     28  O   UNL A   1      33.237  33.600  27.850  1.00  0.00    -0.246 OA
BRANCH  27  29
ATOM     29  C   UNL A   1      34.927  31.955  27.900  1.00  0.00     0.060 A 
ATOM     30  C   UNL A   1      35.115  30.574  27.972  1.00  0.00     0.016 A 
ATOM     31  C   UNL A   1      35.975  32.853  28.115  1.00  0.00     0.016 A 
ATOM     32  C   UNL A   1      36.345  30.079  28.372  1.00  0.00     0.010 A 
ATOM     33  C   UNL A   1      37.213  32.353  28.509  1.00  0.00     0.010 A 
ATOM     34  C   UNL A   1      37.374  30.970  28.707  1.00  0.00    -0.014 A 
BRANCH  34  35
ATOM     35  C   UNL A   1      38.525  30.454  29.477  1.00  0.00     0.031 A 
ATOM     36  C   UNL A   1      38.673  30.874  30.914  1.00  0.00     0.074 A 
ATOM     37  C   UNL A   1      39.365  29.564  28.925  1.00  0.00     0.049 A 
ATOM     38  N   UNL A   1      39.568  30.514  31.795  1.00  0.00    -0.248 NA
ATOM     39  C   UNL A   1      37.677  31.830  31.427  1.00  0.00     0.031 C 
ATOM     40  C   UNL A   1      39.285  29.065  27.553  1.00  0.00     0.029 A 
ATOM     41  N   UNL A   1      40.444  28.916  29.462  1.00  0.00    -0.354 N 
ATOM     42  C   UNL A   1      39.247  31.201  32.960  1.00  0.00     0.074 A 
ATOM     43  C   UNL A   1      38.103  32.032  32.663  1.00  0.00     0.031 C 
ATOM     44  C   UNL A   1      40.276  28.179  27.356  1.00  0.00     0.029 A 
ATOM     45  C   UNL A   1      41.069  28.072  28.579  1.00  0.00     0.049 A 
ATOM     46  H   UNL A   1      40.744  29.042  30.391  1.00  0.00     0.167 HD
ATOM     47  C   UNL A   1      39.843  31.130  34.173  1.00  0.00     0.037 A 
ATOM     48  C   UNL A   1      42.163  27.307  28.746  1.00  0.00     0.037 A 
ATOM     49  C   UNL A   1      40.981  30.295  34.458  1.00  0.00     0.049 A 
ATOM     50  C   UNL A   1      42.838  27.284  30.091  1.00  0.00     0.074 A 
ATOM     51  C   UNL A   1      41.661  30.140  35.652  1.00  0.00     0.029 A 
ATOM     52  N   UNL A   1      41.605  29.474  33.530  1.00  0.00    -0.354 N 
ATOM     53  N   UNL A   1      42.515  27.919  31.193  1.00  0.00    -0.248 NA
ATOM     54  C   UNL A   1      44.023  26.425  30.218  1.00  0.00     0.031 C 
ATOM     55  C   UNL A   1      42.730  29.264  35.433  1.00  0.00     0.029 A 
ATOM     56  C   UNL A   1      42.676  28.824  34.119  1.00  0.00     0.049 A 
ATOM     57  H   UNL A   1      41.328  29.371  32.591  1.00  0.00     0.167 HD
ATOM     58  C   UNL A   1      43.432  27.509  32.152  1.00  0.00     0.074 A 
ATOM     59  C   UNL A   1      44.314  26.560  31.504  1.00  0.00     0.031 C 
ATOM     60  C   UNL A   1      43.535  27.877  33.454  1.00  0.00     0.037 A 
BRANCH  47  61
ATOM     61  C   UNL A   1      39.292  31.998  35.268  1.00  0.00     0.057 A 
ATOM     62  C   UNL A   1      38.391  31.508  36.223  1.00  0.00     0.134 A 
ATOM     63  C   UNL A   1      39.678  33.340  35.376  1.00  0.00     0.134 A 
ATOM     64  F   UNL A   1      37.964  30.237  36.168  1.00  0.00    -0.206 F 
ATOM     65  C   UNL A   1      37.874  32.327  37.230  1.00  0.00     0.040 A 
ATOM     66  C   UNL A   1      39.191  34.161  36.395  1.00  0.00     0.040 A 
ATOM     67  F   UNL A   1      40.536  33.874  34.495  1.00  0.00    -0.206 F 
ATOM     68  C   UNL A   1      38.281  33.657  37.322  1.00  0.00     0.006 A 
ENDBRANCH  47  61
BRANCH  48  69
ATOM     69  C   UNL A   1      42.680  26.495  27.616  1.00  0.00     0.057 A 
ATOM     70  C   UNL A   1      43.572  27.033  26.681  1.00  0.00     0.134 A 
ATOM     71  C   UNL A   1      42.281  25.165  27.435  1.00  0.00     0.134 A 
ATOM     72  F   UNL A   1      43.978  28.307  26.792  1.00  0.00    -0.206 F 
ATOM     73  C   UNL A   1      44.028  26.288  25.594  1.00  0.00     0.040 A 
ATOM     74  C   UNL A   1      42.751  24.399  26.368  1.00  0.00     0.040 A 
ATOM     75  F   UNL A   1      41.435  24.588  28.301  1.00  0.00    -0.206 F 
ATOM     76  C   UNL A   1      43.621  24.964  25.438  1.00  0.00     0.006 A 
ENDBRANCH  48  69
BRANCH  60  77
ATOM     77  C   UNL A   1      44.605  27.210  34.271  1.00  0.00     0.057 A 
ATOM     78  C   UNL A   1      45.880  27.767  34.428  1.00  0.00     0.134 A 
ATOM     79  C   UNL A   1      44.344  25.998  34.926  1.00  0.00     0.134 A 
ATOM     80  F   UNL A   1      46.198  28.920  33.820  1.00  0.00    -0.206 F 
ATOM     81  C   UNL A   1      46.869  27.124  35.174  1.00  0.00     0.040 A 
ATOM     82  C   UNL A   1      45.314  25.364  35.701  1.00  0.00     0.040 A 
ATOM     83  F   UNL A   1      43.138  25.417  34.829  1.00  0.00    -0.206 F 
ATOM     84  C   UNL A   1      46.584  25.921  35.818  1.00  0.00     0.006 A 
ENDBRANCH  60  77
ENDBRANCH  34  35
ENDBRANCH  27  29
ENDBRANCH  26  27
ENDBRANCH  25  26
ENDBRANCH   1  25
TORSDOF 15
ENDMDL
MODEL 3
REMARK VINA RESULT:     -12.0      0.390      6.289
REMARK SMILES CN1C(=O)[C@@H]2CC=CC[C@]2(C(=O)OCCOCCOC(=O)c2ccc(-c3c4nc(c(-c5c(F)cccc5F)c5ccc([nH]5)c(-c5c(F)cccc5F)c5nc(c(-c6c(F)cccc6F)c6ccc3[nH]6)C=C5)C=C4)cc2)[C@H]1c1ccccc1
REMARK SMILES IDX 17 1 16 2 15 3 14 4 13 5 11 6 12 7 10 8 1 9 2 10 3 11 76 12
REMARK SMILES IDX 4 13 5 14 6 15 9 16 7 17 8 18 77 19 78 20 82 21 79 22 81 23
REMARK SMILES IDX 80 24 18 25 19 26 20 27 21 28 22 29 23 30 75 31 24 32 74 33
REMARK SMILES IDX 25 34 26 35 27 36 68 37 28 38 73 39 67 40 69 41 29 42 72 43
REMARK SMILES IDX 66 44 65 45 30 47 56 48 39 49 55 50 40 51 43 52 54 53 70 54
REMARK SMILES IDX 41 55 42 56 53 58 71 59 44 60 31 61 32 62 37 63 33 64 34 65
REMARK SMILES IDX 36 66 38 67 35 68 57 69 58 70 63 71 59 72 60 73 62 74 64 75
REMARK SMILES IDX 61 76 45 77 46 78 51 79 47 80 48 81 50 82 52 83 49 84
REMARK H PARENT 69 46 43 57
REMARK Flexibility Score: inf
ROOT
ATOM      1  C   UNL A   1      35.981  20.240  24.985  1.00  0.00     0.202 C 
ENDROOT
BRANCH   1   2
ATOM      2  O   UNL A   1      35.501  21.543  25.334  1.00  0.00    -0.374 OA
BRANCH   2   3
ATOM      3  C   UNL A   1      34.404  21.611  26.250  1.00  0.00     0.202 C 
BRANCH   3   4
ATOM      4  C   UNL A   1      34.598  22.833  27.172  1.00  0.00     0.261 C 
BRANCH   4   5
ATOM      5  O   UNL A   1      33.990  23.940  26.485  1.00  0.00    -0.463 OA
BRANCH   5   6
ATOM      6  C   UNL A   1      32.633  24.049  26.279  1.00  0.00     0.315 C 
ATOM      7  O   UNL A   1      31.778  24.107  27.145  1.00  0.00    -0.251 OA
BRANCH   6   8
ATOM      8  C   UNL A   1      32.449  24.315  24.770  1.00  0.00     0.108 C 
ATOM      9  C   UNL A   1      31.633  27.511  22.883  1.00  0.00     0.147 C 
ATOM     10  N   UNL A   1      32.200  26.289  23.422  1.00  0.00    -0.337 N 
ATOM     11  C   UNL A   1      33.283  25.630  22.895  1.00  0.00     0.227 C 
ATOM     12  C   UNL A   1      31.795  25.754  24.692  1.00  0.00     0.133 C 
ATOM     13  O   UNL A   1      33.892  25.979  21.894  1.00  0.00    -0.275 OA
ATOM     14  C   UNL A   1      33.636  24.424  23.775  1.00  0.00     0.102 C 
ATOM     15  C   UNL A   1      33.927  23.251  22.810  1.00  0.00     0.041 C 
ATOM     16  C   UNL A   1      31.544  23.105  24.446  1.00  0.00     0.049 C 
ATOM     17  C   UNL A   1      32.761  22.397  22.437  1.00  0.00    -0.030 C 
ATOM     18  C   UNL A   1      31.656  22.354  23.175  1.00  0.00    -0.030 C 
BRANCH  12  19
ATOM     19  C   UNL A   1      32.258  26.715  25.811  1.00  0.00    -0.024 A 
ATOM     20  C   UNL A   1      31.328  27.315  26.680  1.00  0.00     0.006 A 
ATOM     21  C   UNL A   1      33.591  27.156  25.851  1.00  0.00     0.006 A 
ATOM     22  C   UNL A   1      31.679  28.427  27.440  1.00  0.00     0.000 A 
ATOM     23  C   UNL A   1      33.943  28.260  26.633  1.00  0.00     0.000 A 
ATOM     24  C   UNL A   1      32.980  28.916  27.396  1.00  0.00     0.000 A 
ENDBRANCH  12  19
ENDBRANCH   6   8
ENDBRANCH   5   6
ENDBRANCH   4   5
ENDBRANCH   3   4
ENDBRANCH   2   3
ENDBRANCH   1   2
BRANCH   1  25
ATOM     25  C   UNL A   1      37.519  20.082  24.948  1.00  0.00     0.261 C 
BRANCH  25  26
ATOM     26  O   UNL A   1      38.207  21.278  25.322  1.00  0.00    -0.460 OA
BRANCH  26  27
ATOM     27  C   UNL A   1      39.318  21.020  26.044  1.00  0.00     0.338 C 
ATOM     28  O   UNL A   1      39.999  20.011  26.022  1.00  0.00    -0.246 OA
BRANCH  27  29
ATOM     29  C   UNL A   1      39.705  22.230  26.765  1.00  0.00     0.060 A 
ATOM     30  C   UNL A   1      39.023  23.405  26.440  1.00  0.00     0.016 A 
ATOM     31  C   UNL A   1      40.802  22.230  27.628  1.00  0.00     0.016 A 
ATOM     32  C   UNL A   1      39.511  24.617  26.899  1.00  0.00     0.010 A 
ATOM     33  C   UNL A   1      41.286  23.450  28.094  1.00  0.00     0.010 A 
ATOM     34  C   UNL A   1      40.682  24.647  27.669  1.00  0.00    -0.014 A 
BRANCH  34  35
ATOM     35  C   UNL A   1      41.385  25.937  27.826  1.00  0.00     0.031 A 
ATOM     36  C   UNL A   1      40.702  27.039  28.588  1.00  0.00     0.074 A 
ATOM     37  C   UNL A   1      42.639  26.084  27.371  1.00  0.00     0.049 A 
ATOM     38  N   UNL A   1      41.139  28.231  28.893  1.00  0.00    -0.248 NA
ATOM     39  C   UNL A   1      39.338  26.758  29.071  1.00  0.00     0.031 C 
ATOM     40  C   UNL A   1      43.403  25.065  26.653  1.00  0.00     0.029 A 
ATOM     41  N   UNL A   1      43.492  27.151  27.458  1.00  0.00    -0.354 N 
ATOM     42  C   UNL A   1      40.108  28.843  29.597  1.00  0.00     0.074 A 
ATOM     43  C   UNL A   1      39.007  27.908  29.636  1.00  0.00     0.031 C 
ATOM     44  C   UNL A   1      44.621  25.556  26.368  1.00  0.00     0.029 A 
ATOM     45  C   UNL A   1      44.708  26.929  26.861  1.00  0.00     0.049 A 
ATOM     46  H   UNL A   1      43.257  27.996  27.904  1.00  0.00     0.167 HD
ATOM     47  C   UNL A   1      40.089  30.067  30.173  1.00  0.00     0.037 A 
ATOM     48  C   UNL A   1      45.764  27.751  26.728  1.00  0.00     0.037 A 
ATOM     49  C   UNL A   1      41.194  30.988  30.132  1.00  0.00     0.049 A 
ATOM     50  C   UNL A   1      45.699  29.127  27.335  1.00  0.00     0.074 A 
ATOM     51  C   UNL A   1      41.287  32.251  30.686  1.00  0.00     0.029 A 
ATOM     52  N   UNL A   1      42.400  30.739  29.492  1.00  0.00    -0.354 N 
ATOM     53  N   UNL A   1      44.730  29.687  28.017  1.00  0.00    -0.248 NA
ATOM     54  C   UNL A   1      46.885  29.977  27.165  1.00  0.00     0.031 C 
ATOM     55  C   UNL A   1      42.532  32.788  30.339  1.00  0.00     0.029 A 
ATOM     56  C   UNL A   1      43.238  31.834  29.623  1.00  0.00     0.049 A 
ATOM     57  H   UNL A   1      42.627  29.908  29.016  1.00  0.00     0.167 HD
ATOM     58  C   UNL A   1      45.200  30.941  28.389  1.00  0.00     0.074 A 
ATOM     59  C   UNL A   1      46.547  31.049  27.867  1.00  0.00     0.031 C 
ATOM     60  C   UNL A   1      44.580  31.914  29.101  1.00  0.00     0.037 A 
BRANCH  47  61
ATOM     61  C   UNL A   1      38.826  30.485  30.871  1.00  0.00     0.057 A 
ATOM     62  C   UNL A   1      38.599  30.209  32.227  1.00  0.00     0.134 A 
ATOM     63  C   UNL A   1      37.829  31.185  30.180  1.00  0.00     0.134 A 
ATOM     64  F   UNL A   1      39.504  29.526  32.944  1.00  0.00    -0.206 F 
ATOM     65  C   UNL A   1      37.415  30.592  32.862  1.00  0.00     0.040 A 
ATOM     66  C   UNL A   1      36.655  31.598  30.812  1.00  0.00     0.040 A 
ATOM     67  F   UNL A   1      37.981  31.481  28.882  1.00  0.00    -0.206 F 
ATOM     68  C   UNL A   1      36.442  31.295  32.156  1.00  0.00     0.006 A 
ENDBRANCH  47  61
BRANCH  48  69
ATOM     69  C   UNL A   1      46.973  27.292  25.998  1.00  0.00     0.057 A 
ATOM     70  C   UNL A   1      47.106  27.478  24.618  1.00  0.00     0.134 A 
ATOM     71  C   UNL A   1      48.019  26.639  26.664  1.00  0.00     0.134 A 
ATOM     72  F   UNL A   1      46.130  28.082  23.922  1.00  0.00    -0.206 F 
ATOM     73  C   UNL A   1      48.220  27.011  23.921  1.00  0.00     0.040 A 
ATOM     74  C   UNL A   1      49.152  26.192  25.985  1.00  0.00     0.040 A 
ATOM     75  F   UNL A   1      47.957  26.437  27.988  1.00  0.00    -0.206 F 
ATOM     76  C   UNL A   1      49.251  26.370  24.606  1.00  0.00     0.006 A 
ENDBRANCH  48  69
BRANCH  60  77
ATOM     77  C   UNL A   1      45.374  33.153  29.402  1.00  0.00     0.057 A 
ATOM     78  C   UNL A   1      46.182  33.263  30.541  1.00  0.00     0.134 A 
ATOM     79  C   UNL A   1      45.341  34.245  28.524  1.00  0.00     0.134 A 
ATOM     80  F   UNL A   1      46.251  32.258  31.426  1.00  0.00    -0.206 F 
ATOM     81  C   UNL A   1      46.898  34.429  30.816  1.00  0.00     0.040 A 
ATOM     82  C   UNL A   1      46.078  35.403  28.772  1.00  0.00     0.040 A 
ATOM     83  F   UNL A   1      44.599  34.201  27.408  1.00  0.00    -0.206 F 
ATOM     84  C   UNL A   1      46.851  35.501  29.926  1.00  0.00     0.006 A 
ENDBRANCH  60  77
ENDBRANCH  34  35
ENDBRANCH  27  29
ENDBRANCH  26  27
ENDBRANCH  25  26
ENDBRANCH   1  25
TORSDOF 15
ENDMDL
