MODEL 1
REMARK VINA RESULT:     -11.8      0.000      0.000
REMARK SMILES CN1C(=O)C[C@@H](C(=O)OCCOCCOC(=O)c2ccc(-c3c4nc(c(-c5c(F)cccc5F)c5ccc([nH]5)c(-c5c(F)cccc5F)c5nc(c(-c6c(F)cccc6F)c6ccc3[nH]6)C=C5)C=C4)cc2)C12CCN(S(=O)(=O)c1ccccc1F)CC2
REMARK SMILES IDX 12 1 11 2 10 3 9 4 7 5 8 6 6 7 1 8 2 9 3 10 72 11 4 12 5 13
REMARK SMILES IDX 73 14 87 15 74 16 86 17 75 18 76 19 77 20 78 21 79 22 80 23
REMARK SMILES IDX 84 24 81 25 83 26 85 27 82 28 13 29 14 30 15 31 16 32 17 33
REMARK SMILES IDX 18 34 19 35 71 36 20 37 70 38 21 39 22 40 23 41 64 42 24 43
REMARK SMILES IDX 69 44 63 45 65 46 25 47 68 48 62 49 61 50 26 52 52 53 35 54
REMARK SMILES IDX 51 55 36 56 39 57 50 58 66 59 37 60 38 61 49 63 67 64 40 65
REMARK SMILES IDX 27 66 28 67 33 68 29 69 30 70 32 71 34 72 31 73 53 74 54 75
REMARK SMILES IDX 59 76 55 77 56 78 58 79 60 80 57 81 41 82 42 83 47 84 43 85
REMARK SMILES IDX 44 86 46 87 48 88 45 89
REMARK H PARENT 65 51 39 62
REMARK Flexibility Score: inf
ROOT
ATOM      1  O   UNL A   1      39.750  20.959  26.513  1.00  0.00    -0.374 OA
ENDROOT
BRANCH   1   2
ATOM      2  C   UNL A   1      39.003  22.104  26.117  1.00  0.00     0.202 C 
BRANCH   2   3
ATOM      3  C   UNL A   1      37.749  21.877  25.259  1.00  0.00     0.261 C 
BRANCH   3   4
ATOM      4  O   UNL A   1      36.485  21.833  25.961  1.00  0.00    -0.463 OA
BRANCH   4   5
ATOM      5  C   UNL A   1      35.581  20.950  25.474  1.00  0.00     0.311 C 
ATOM      6  O   UNL A   1      35.883  19.871  24.970  1.00  0.00    -0.252 OA
BRANCH   5   7
ATOM      7  C   UNL A   1      34.132  21.414  25.464  1.00  0.00     0.134 C 
ATOM      8  C   UNL A   1      32.050  20.853  22.378  1.00  0.00     0.147 C 
ATOM      9  N   UNL A   1      32.717  20.854  23.672  1.00  0.00    -0.339 N 
ATOM     10  C   UNL A   1      32.635  19.787  24.547  1.00  0.00     0.223 C 
ATOM     11  C   UNL A   1      33.411  22.025  24.232  1.00  0.00     0.059 C 
ATOM     12  O   UNL A   1      32.088  18.715  24.347  1.00  0.00    -0.275 OA
ATOM     13  C   UNL A   1      33.290  20.186  25.838  1.00  0.00     0.118 C 
ATOM     14  C   UNL A   1      34.314  22.696  23.189  1.00  0.00     0.046 C 
ATOM     15  C   UNL A   1      32.332  23.056  24.718  1.00  0.00     0.046 C 
ATOM     16  C   UNL A   1      34.830  24.044  23.652  1.00  0.00     0.105 C 
ATOM     17  C   UNL A   1      32.866  24.461  25.022  1.00  0.00     0.105 C 
ATOM     18  N   UNL A   1      33.723  24.980  23.919  1.00  0.00    -0.198 NA
BRANCH  18  19
ATOM     19  S   UNL A   1      32.859  25.678  22.604  1.00  0.00     0.245 S 
ATOM     20  O   UNL A   1      33.812  26.153  21.623  1.00  0.00    -0.207 OA
ATOM     21  O   UNL A   1      31.863  24.700  22.217  1.00  0.00    -0.207 OA
BRANCH  19  22
ATOM     22  C   UNL A   1      31.997  27.080  23.254  1.00  0.00     0.118 A 
ATOM     23  C   UNL A   1      30.620  27.220  23.046  1.00  0.00     0.025 A 
ATOM     24  C   UNL A   1      32.703  28.107  23.875  1.00  0.00     0.143 A 
ATOM     25  C   UNL A   1      29.962  28.366  23.507  1.00  0.00     0.002 A 
ATOM     26  C   UNL A   1      32.044  29.230  24.366  1.00  0.00     0.041 A 
ATOM     27  F   UNL A   1      34.028  28.042  24.057  1.00  0.00    -0.206 F 
ATOM     28  C   UNL A   1      30.671  29.363  24.180  1.00  0.00     0.003 A 
ENDBRANCH  19  22
ENDBRANCH  18  19
ENDBRANCH   5   7
ENDBRANCH   4   5
ENDBRANCH   3   4
ENDBRANCH   2   3
ENDBRANCH   1   2
BRANCH   1  29
ATOM     29  C   UNL A   1      41.012  21.168  27.141  1.00  0.00     0.202 C 
BRANCH  29  30
ATOM     30  C   UNL A   1      42.111  21.753  26.249  1.00  0.00     0.261 C 
BRANCH  30  31
ATOM     31  O   UNL A   1      42.743  22.869  26.897  1.00  0.00    -0.460 OA
BRANCH  31  32
ATOM     32  C   UNL A   1      42.761  23.993  26.146  1.00  0.00     0.338 C 
ATOM     33  O   UNL A   1      43.042  24.084  24.964  1.00  0.00    -0.246 OA
BRANCH  32  34
ATOM     34  C   UNL A   1      42.230  25.118  26.936  1.00  0.00     0.060 A 
ATOM     35  C   UNL A   1      43.013  26.271  27.063  1.00  0.00     0.016 A 
ATOM     36  C   UNL A   1      41.048  24.977  27.663  1.00  0.00     0.016 A 
ATOM     37  C   UNL A   1      42.643  27.265  27.972  1.00  0.00     0.010 A 
ATOM     38  C   UNL A   1      40.674  25.980  28.566  1.00  0.00     0.010 A 
ATOM     39  C   UNL A   1      41.494  27.107  28.761  1.00  0.00    -0.014 A 
BRANCH  39  40
ATOM     40  C   UNL A   1      41.246  28.044  29.889  1.00  0.00     0.031 A 
ATOM     41  C   UNL A   1      40.137  29.057  29.774  1.00  0.00     0.074 A 
ATOM     42  C   UNL A   1      41.961  27.962  31.026  1.00  0.00     0.049 A 
ATOM     43  N   UNL A   1      39.718  29.936  30.651  1.00  0.00    -0.248 NA
ATOM     44  C   UNL A   1      39.399  29.080  28.502  1.00  0.00     0.031 C 
ATOM     45  C   UNL A   1      43.039  27.009  31.277  1.00  0.00     0.029 A 
ATOM     46  N   UNL A   1      41.876  28.690  32.187  1.00  0.00    -0.354 N 
ATOM     47  C   UNL A   1      38.667  30.610  30.040  1.00  0.00     0.074 A 
ATOM     48  C   UNL A   1      38.539  30.068  28.704  1.00  0.00     0.031 C 
ATOM     49  C   UNL A   1      43.510  27.203  32.522  1.00  0.00     0.029 A 
ATOM     50  C   UNL A   1      42.784  28.308  33.145  1.00  0.00     0.049 A 
ATOM     51  H   UNL A   1      41.226  29.418  32.322  1.00  0.00     0.167 HD
ATOM     52  C   UNL A   1      37.868  31.579  30.547  1.00  0.00     0.037 A 
ATOM     53  C   UNL A   1      43.006  28.798  34.381  1.00  0.00     0.037 A 
ATOM     54  C   UNL A   1      37.997  32.128  31.872  1.00  0.00     0.049 A 
ATOM     55  C   UNL A   1      42.158  29.931  34.895  1.00  0.00     0.074 A 
ATOM     56  C   UNL A   1      37.232  33.108  32.481  1.00  0.00     0.029 A 
ATOM     57  N   UNL A   1      38.964  31.749  32.791  1.00  0.00    -0.354 N 
ATOM     58  N   UNL A   1      41.146  30.535  34.319  1.00  0.00    -0.248 NA
ATOM     59  C   UNL A   1      42.481  30.447  36.232  1.00  0.00     0.031 C 
ATOM     60  C   UNL A   1      37.765  33.355  33.752  1.00  0.00     0.029 A 
ATOM     61  C   UNL A   1      38.831  32.493  33.953  1.00  0.00     0.049 A 
ATOM     62  H   UNL A   1      39.645  31.055  32.641  1.00  0.00     0.167 HD
ATOM     63  C   UNL A   1      40.693  31.477  35.235  1.00  0.00     0.074 A 
ATOM     64  C   UNL A   1      41.535  31.359  36.407  1.00  0.00     0.031 C 
ATOM     65  C   UNL A   1      39.671  32.360  35.116  1.00  0.00     0.037 A 
BRANCH  52  66
ATOM     66  C   UNL A   1      36.792  32.122  29.652  1.00  0.00     0.057 A 
ATOM     67  C   UNL A   1      35.556  31.476  29.507  1.00  0.00     0.134 A 
ATOM     68  C   UNL A   1      36.985  33.311  28.938  1.00  0.00     0.134 A 
ATOM     69  F   UNL A   1      35.310  30.326  30.152  1.00  0.00    -0.206 F 
ATOM     70  C   UNL A   1      34.564  31.979  28.662  1.00  0.00     0.040 A 
ATOM     71  C   UNL A   1      35.992  33.837  28.110  1.00  0.00     0.040 A 
ATOM     72  F   UNL A   1      38.142  33.984  29.036  1.00  0.00    -0.206 F 
ATOM     73  C   UNL A   1      34.779  33.166  27.964  1.00  0.00     0.006 A 
ENDBRANCH  52  66
BRANCH  53  74
ATOM     74  C   UNL A   1      44.075  28.212  35.231  1.00  0.00     0.057 A 
ATOM     75  C   UNL A   1      43.807  27.150  36.100  1.00  0.00     0.134 A 
ATOM     76  C   UNL A   1      45.382  28.712  35.206  1.00  0.00     0.134 A 
ATOM     77  F   UNL A   1      42.567  26.645  36.187  1.00  0.00    -0.206 F 
ATOM     78  C   UNL A   1      44.796  26.612  36.926  1.00  0.00     0.040 A 
ATOM     79  C   UNL A   1      46.388  28.168  36.008  1.00  0.00     0.040 A 
ATOM     80  F   UNL A   1      45.702  29.731  34.396  1.00  0.00    -0.206 F 
ATOM     81  C   UNL A   1      46.094  27.119  36.876  1.00  0.00     0.006 A 
ENDBRANCH  53  74
BRANCH  65  82
ATOM     82  C   UNL A   1      39.380  33.242  36.296  1.00  0.00     0.057 A 
ATOM     83  C   UNL A   1      38.441  32.887  37.272  1.00  0.00     0.134 A 
ATOM     84  C   UNL A   1      40.076  34.445  36.475  1.00  0.00     0.134 A 
ATOM     85  F   UNL A   1      37.731  31.754  37.153  1.00  0.00    -0.206 F 
ATOM     86  C   UNL A   1      38.188  33.708  38.374  1.00  0.00     0.040 A 
ATOM     87  C   UNL A   1      39.850  35.261  37.585  1.00  0.00     0.040 A 
ATOM     88  F   UNL A   1      40.996  34.839  35.581  1.00  0.00    -0.206 F 
ATOM     89  C   UNL A   1      38.899  34.896  38.535  1.00  0.00     0.006 A 
ENDBRANCH  65  82
ENDBRANCH  39  40
ENDBRANCH  32  34
ENDBRANCH  31  32
ENDBRANCH  30  31
ENDBRANCH  29  30
ENDBRANCH   1  29
TORSDOF 16
ENDMDL
MODEL 2
REMARK VINA RESULT:     -11.6      4.719      9.787
REMARK SMILES CN1C(=O)C[C@@H](C(=O)OCCOCCOC(=O)c2ccc(-c3c4nc(c(-c5c(F)cccc5F)c5ccc([nH]5)c(-c5c(F)cccc5F)c5nc(c(-c6c(F)cccc6F)c6ccc3[nH]6)C=C5)C=C4)cc2)C12CCN(S(=O)(=O)c1ccccc1F)CC2
REMARK SMILES IDX 12 1 11 2 10 3 9 4 7 5 8 6 6 7 1 8 2 9 3 10 72 11 4 12 5 13
REMARK SMILES IDX 73 14 87 15 74 16 86 17 75 18 76 19 77 20 78 21 79 22 80 23
REMARK SMILES IDX 84 24 81 25 83 26 85 27 82 28 13 29 14 30 15 31 16 32 17 33
REMARK SMILES IDX 18 34 19 35 71 36 20 37 70 38 21 39 22 40 23 41 64 42 24 43
REMARK SMILES IDX 69 44 63 45 65 46 25 47 68 48 62 49 61 50 26 52 52 53 35 54
REMARK SMILES IDX 51 55 36 56 39 57 50 58 66 59 37 60 38 61 49 63 67 64 40 65
REMARK SMILES IDX 27 66 28 67 33 68 29 69 30 70 32 71 34 72 31 73 53 74 54 75
REMARK SMILES IDX 59 76 55 77 56 78 58 79 60 80 57 81 41 82 42 83 47 84 43 85
REMARK SMILES IDX 44 86 46 87 48 88 45 89
REMARK H PARENT 65 51 39 62
REMARK Flexibility Score: inf
ROOT
ATOM      1  O   UNL A   1      34.270  31.736  28.834  1.00  0.00    -0.374 OA
ENDROOT
BRANCH   1   2
ATOM      2  C   UNL A   1      34.272  31.272  27.488  1.00  0.00     0.202 C 
BRANCH   2   3
ATOM      3  C   UNL A   1      33.133  30.338  27.053  1.00  0.00     0.261 C 
BRANCH   3   4
ATOM      4  O   UNL A   1      33.262  29.727  25.748  1.00  0.00    -0.463 OA
BRANCH   4   5
ATOM      5  C   UNL A   1      32.120  29.662  25.022  1.00  0.00     0.311 C 
ATOM      6  O   UNL A   1      31.182  30.443  25.156  1.00  0.00    -0.252 OA
BRANCH   5   7
ATOM      7  C   UNL A   1      31.990  28.471  24.086  1.00  0.00     0.134 C 
ATOM      8  C   UNL A   1      28.687  26.679  23.849  1.00  0.00     0.147 C 
ATOM      9  N   UNL A   1      29.891  27.485  23.701  1.00  0.00    -0.339 N 
ATOM     10  C   UNL A   1      29.981  28.517  22.786  1.00  0.00     0.223 C 
ATOM     11  C   UNL A   1      31.158  27.196  24.392  1.00  0.00     0.059 C 
ATOM     12  O   UNL A   1      29.093  28.935  22.062  1.00  0.00    -0.275 OA
ATOM     13  C   UNL A   1      31.396  29.019  22.781  1.00  0.00     0.118 C 
ATOM     14  C   UNL A   1      30.931  26.882  25.876  1.00  0.00     0.046 C 
ATOM     15  C   UNL A   1      31.828  25.957  23.700  1.00  0.00     0.046 C 
ATOM     16  C   UNL A   1      32.171  26.326  26.546  1.00  0.00     0.105 C 
ATOM     17  C   UNL A   1      32.979  25.318  24.487  1.00  0.00     0.105 C 
ATOM     18  N   UNL A   1      32.609  25.070  25.910  1.00  0.00    -0.198 NA
BRANCH  18  19
ATOM     19  S   UNL A   1      31.721  23.622  26.181  1.00  0.00     0.245 S 
ATOM     20  O   UNL A   1      31.504  23.469  27.605  1.00  0.00    -0.207 OA
ATOM     21  O   UNL A   1      30.582  23.677  25.288  1.00  0.00    -0.207 OA
BRANCH  19  22
ATOM     22  C   UNL A   1      32.752  22.289  25.639  1.00  0.00     0.118 A 
ATOM     23  C   UNL A   1      32.244  21.310  24.777  1.00  0.00     0.025 A 
ATOM     24  C   UNL A   1      34.035  22.145  26.158  1.00  0.00     0.143 A 
ATOM     25  C   UNL A   1      33.048  20.225  24.409  1.00  0.00     0.002 A 
ATOM     26  C   UNL A   1      34.849  21.086  25.764  1.00  0.00     0.041 A 
ATOM     27  F   UNL A   1      34.551  23.028  27.020  1.00  0.00    -0.206 F 
ATOM     28  C   UNL A   1      34.354  20.122  24.890  1.00  0.00     0.003 A 
ENDBRANCH  19  22
ENDBRANCH  18  19
ENDBRANCH   5   7
ENDBRANCH   4   5
ENDBRANCH   3   4
ENDBRANCH   2   3
ENDBRANCH   1   2
BRANCH   1  29
ATOM     29  C   UNL A   1      34.286  33.143  29.057  1.00  0.00     0.202 C 
BRANCH  29  30
ATOM     30  C   UNL A   1      34.470  33.585  30.511  1.00  0.00     0.261 C 
BRANCH  30  31
ATOM     31  O   UNL A   1      35.104  32.546  31.275  1.00  0.00    -0.460 OA
BRANCH  31  32
ATOM     32  C   UNL A   1      36.348  32.864  31.697  1.00  0.00     0.338 C 
ATOM     33  O   UNL A   1      36.653  33.718  32.512  1.00  0.00    -0.246 OA
BRANCH  32  34
ATOM     34  C   UNL A   1      37.316  31.906  31.134  1.00  0.00     0.060 A 
ATOM     35  C   UNL A   1      38.116  31.171  32.018  1.00  0.00     0.016 A 
ATOM     36  C   UNL A   1      37.535  31.846  29.759  1.00  0.00     0.016 A 
ATOM     37  C   UNL A   1      39.184  30.418  31.525  1.00  0.00     0.010 A 
ATOM     38  C   UNL A   1      38.601  31.083  29.266  1.00  0.00     0.010 A 
ATOM     39  C   UNL A   1      39.461  30.403  30.149  1.00  0.00    -0.014 A 
BRANCH  39  40
ATOM     40  C   UNL A   1      40.734  29.805  29.666  1.00  0.00     0.031 A 
ATOM     41  C   UNL A   1      41.991  30.636  29.683  1.00  0.00     0.074 A 
ATOM     42  C   UNL A   1      40.787  28.521  29.268  1.00  0.00     0.049 A 
ATOM     43  N   UNL A   1      43.213  30.303  29.352  1.00  0.00    -0.248 NA
ATOM     44  C   UNL A   1      41.850  32.029  30.137  1.00  0.00     0.031 C 
ATOM     45  C   UNL A   1      39.652  27.601  29.232  1.00  0.00     0.029 A 
ATOM     46  N   UNL A   1      41.847  27.768  28.826  1.00  0.00    -0.354 N 
ATOM     47  C   UNL A   1      43.987  31.438  29.563  1.00  0.00     0.074 A 
ATOM     48  C   UNL A   1      43.088  32.482  30.009  1.00  0.00     0.031 C 
ATOM     49  C   UNL A   1      40.079  26.401  28.802  1.00  0.00     0.029 A 
ATOM     50  C   UNL A   1      41.509  26.474  28.510  1.00  0.00     0.049 A 
ATOM     51  H   UNL A   1      42.762  28.121  28.744  1.00  0.00     0.167 HD
ATOM     52  C   UNL A   1      45.324  31.597  29.416  1.00  0.00     0.037 A 
ATOM     53  C   UNL A   1      42.268  25.466  28.034  1.00  0.00     0.037 A 
ATOM     54  C   UNL A   1      46.220  30.564  28.964  1.00  0.00     0.049 A 
ATOM     55  C   UNL A   1      43.739  25.689  27.802  1.00  0.00     0.074 A 
ATOM     56  C   UNL A   1      47.591  30.625  28.789  1.00  0.00     0.029 A 
ATOM     57  N   UNL A   1      45.829  29.284  28.604  1.00  0.00    -0.354 N 
ATOM     58  N   UNL A   1      44.462  26.757  28.038  1.00  0.00    -0.248 NA
ATOM     59  C   UNL A   1      44.499  24.563  27.241  1.00  0.00     0.031 C 
ATOM     60  C   UNL A   1      48.024  29.396  28.279  1.00  0.00     0.029 A 
ATOM     61  C   UNL A   1      46.928  28.553  28.183  1.00  0.00     0.049 A 
ATOM     62  H   UNL A   1      44.905  28.944  28.640  1.00  0.00     0.167 HD
ATOM     63  C   UNL A   1      45.764  26.422  27.685  1.00  0.00     0.074 A 
ATOM     64  C   UNL A   1      45.733  25.049  27.228  1.00  0.00     0.031 C 
ATOM     65  C   UNL A   1      46.884  27.183  27.738  1.00  0.00     0.037 A 
BRANCH  52  66
ATOM     66  C   UNL A   1      45.895  32.949  29.732  1.00  0.00     0.057 A 
ATOM     67  C   UNL A   1      46.362  33.273  31.014  1.00  0.00     0.134 A 
ATOM     68  C   UNL A   1      45.994  33.935  28.742  1.00  0.00     0.134 A 
ATOM     69  F   UNL A   1      46.285  32.379  32.011  1.00  0.00    -0.206 F 
ATOM     70  C   UNL A   1      46.880  34.537  31.305  1.00  0.00     0.040 A 
ATOM     71  C   UNL A   1      46.533  35.193  29.015  1.00  0.00     0.040 A 
ATOM     72  F   UNL A   1      45.572  33.690  27.493  1.00  0.00    -0.206 F 
ATOM     73  C   UNL A   1      46.970  35.500  30.302  1.00  0.00     0.006 A 
ENDBRANCH  52  66
BRANCH  53  74
ATOM     74  C   UNL A   1      41.654  24.143  27.753  1.00  0.00     0.057 A 
ATOM     75  C   UNL A   1      40.817  23.953  26.648  1.00  0.00     0.134 A 
ATOM     76  C   UNL A   1      41.874  23.044  28.592  1.00  0.00     0.134 A 
ATOM     77  F   UNL A   1      40.548  24.975  25.822  1.00  0.00    -0.206 F 
ATOM     78  C   UNL A   1      40.211  22.722  26.392  1.00  0.00     0.040 A 
ATOM     79  C   UNL A   1      41.294  21.801  28.335  1.00  0.00     0.040 A 
ATOM     80  F   UNL A   1      42.664  23.162  29.669  1.00  0.00    -0.206 F 
ATOM     81  C   UNL A   1      40.454  21.639  27.236  1.00  0.00     0.006 A 
ENDBRANCH  53  74
BRANCH  65  82
ATOM     82  C   UNL A   1      48.176  26.538  27.325  1.00  0.00     0.057 A 
ATOM     83  C   UNL A   1      48.948  25.787  28.220  1.00  0.00     0.134 A 
ATOM     84  C   UNL A   1      48.635  26.642  26.005  1.00  0.00     0.134 A 
ATOM     85  F   UNL A   1      48.571  25.659  29.502  1.00  0.00    -0.206 F 
ATOM     86  C   UNL A   1      50.141  25.178  27.823  1.00  0.00     0.040 A 
ATOM     87  C   UNL A   1      49.813  26.017  25.591  1.00  0.00     0.040 A 
ATOM     88  F   UNL A   1      47.940  27.340  25.095  1.00  0.00    -0.206 F 
ATOM     89  C   UNL A   1      50.572  25.288  26.503  1.00  0.00     0.006 A 
ENDBRANCH  65  82
ENDBRANCH  39  40
ENDBRANCH  32  34
ENDBRANCH  31  32
ENDBRANCH  30  31
ENDBRANCH  29  30
ENDBRANCH   1  29
TORSDOF 16
ENDMDL
MODEL 3
REMARK VINA RESULT:     -11.5      4.579      8.197
REMARK SMILES CN1C(=O)C[C@@H](C(=O)OCCOCCOC(=O)c2ccc(-c3c4nc(c(-c5c(F)cccc5F)c5ccc([nH]5)c(-c5c(F)cccc5F)c5nc(c(-c6c(F)cccc6F)c6ccc3[nH]6)C=C5)C=C4)cc2)C12CCN(S(=O)(=O)c1ccccc1F)CC2
REMARK SMILES IDX 12 1 11 2 10 3 9 4 7 5 8 6 6 7 1 8 2 9 3 10 72 11 4 12 5 13
REMARK SMILES IDX 73 14 87 15 74 16 86 17 75 18 76 19 77 20 78 21 79 22 80 23
REMARK SMILES IDX 84 24 81 25 83 26 85 27 82 28 13 29 14 30 15 31 16 32 17 33
REMARK SMILES IDX 18 34 19 35 71 36 20 37 70 38 21 39 22 40 23 41 64 42 24 43
REMARK SMILES IDX 69 44 63 45 65 46 25 47 68 48 62 49 61 50 26 52 52 53 35 54
REMARK SMILES IDX 51 55 36 56 39 57 50 58 66 59 37 60 38 61 49 63 67 64 40 65
REMARK SMILES IDX 27 66 28 67 33 68 29 69 30 70 32 71 34 72 31 73 53 74 54 75
REMARK SMILES IDX 59 76 55 77 56 78 58 79 60 80 57 81 41 82 42 83 47 84 43 85
REMARK SMILES IDX 44 86 46 87 48 88 45 89
REMARK H PARENT 65 51 39 62
REMARK Flexibility Score: inf
ROOT
ATOM      1  O   UNL A   1      38.851  22.401  26.623  1.00  0.00    -0.374 OA
ENDROOT
BRANCH   1   2
ATOM      2  C   UNL A   1      38.206  23.582  26.159  1.00  0.00     0.202 C 
BRANCH   2   3
ATOM      3  C   UNL A   1      36.765  23.452  25.642  1.00  0.00     0.261 C 
BRANCH   3   4
ATOM      4  O   UNL A   1      35.915  22.505  26.330  1.00  0.00    -0.463 OA
BRANCH   4   5
ATOM      5  C   UNL A   1      35.368  21.543  25.549  1.00  0.00     0.311 C 
ATOM      6  O   UNL A   1      35.982  20.947  24.668  1.00  0.00    -0.252 OA
BRANCH   5   7
ATOM      7  C   UNL A   1      33.876  21.304  25.731  1.00  0.00     0.134 C 
ATOM      8  C   UNL A   1      31.603  21.567  22.741  1.00  0.00     0.147 C 
ATOM      9  N   UNL A   1      32.454  21.194  23.861  1.00  0.00    -0.339 N 
ATOM     10  C   UNL A   1      32.939  19.909  24.026  1.00  0.00     0.223 C 
ATOM     11  C   UNL A   1      32.761  22.089  24.988  1.00  0.00     0.059 C 
ATOM     12  O   UNL A   1      32.798  18.969  23.262  1.00  0.00    -0.275 OA
ATOM     13  C   UNL A   1      33.633  19.835  25.356  1.00  0.00     0.118 C 
ATOM     14  C   UNL A   1      33.139  23.495  24.503  1.00  0.00     0.046 C 
ATOM     15  C   UNL A   1      31.492  22.184  25.906  1.00  0.00     0.046 C 
ATOM     16  C   UNL A   1      33.200  24.500  25.635  1.00  0.00     0.105 C 
ATOM     17  C   UNL A   1      31.518  23.321  26.936  1.00  0.00     0.105 C 
ATOM     18  N   UNL A   1      31.898  24.622  26.317  1.00  0.00    -0.198 NA
BRANCH  18  19
ATOM     19  S   UNL A   1      30.606  25.456  25.545  1.00  0.00     0.245 S 
ATOM     20  O   UNL A   1      30.392  24.874  24.237  1.00  0.00    -0.207 OA
ATOM     21  O   UNL A   1      29.518  25.481  26.501  1.00  0.00    -0.207 OA
BRANCH  19  22
ATOM     22  C   UNL A   1      31.147  27.126  25.319  1.00  0.00     0.118 A 
ATOM     23  C   UNL A   1      31.275  27.658  24.030  1.00  0.00     0.025 A 
ATOM     24  C   UNL A   1      31.557  27.881  26.414  1.00  0.00     0.143 A 
ATOM     25  C   UNL A   1      31.768  28.956  23.861  1.00  0.00     0.002 A 
ATOM     26  C   UNL A   1      32.012  29.187  26.250  1.00  0.00     0.041 A 
ATOM     27  F   UNL A   1      31.497  27.403  27.662  1.00  0.00    -0.206 F 
ATOM     28  C   UNL A   1      32.121  29.725  24.971  1.00  0.00     0.003 A 
ENDBRANCH  19  22
ENDBRANCH  18  19
ENDBRANCH   5   7
ENDBRANCH   4   5
ENDBRANCH   3   4
ENDBRANCH   2   3
ENDBRANCH   1   2
BRANCH   1  29
ATOM     29  C   UNL A   1      39.156  21.387  25.668  1.00  0.00     0.202 C 
BRANCH  29  30
ATOM     30  C   UNL A   1      39.667  20.064  26.244  1.00  0.00     0.261 C 
BRANCH  30  31
ATOM     31  O   UNL A   1      40.646  19.481  25.368  1.00  0.00    -0.460 OA
BRANCH  31  32
ATOM     32  C   UNL A   1      41.802  19.152  25.987  1.00  0.00     0.338 C 
ATOM     33  O   UNL A   1      42.270  18.036  26.128  1.00  0.00    -0.246 OA
BRANCH  32  34
ATOM     34  C   UNL A   1      42.527  20.382  26.353  1.00  0.00     0.060 A 
ATOM     35  C   UNL A   1      42.430  20.845  27.671  1.00  0.00     0.016 A 
ATOM     36  C   UNL A   1      43.166  21.144  25.376  1.00  0.00     0.016 A 
ATOM     37  C   UNL A   1      42.922  22.110  28.000  1.00  0.00     0.010 A 
ATOM     38  C   UNL A   1      43.667  22.408  25.711  1.00  0.00     0.010 A 
ATOM     39  C   UNL A   1      43.506  22.919  27.012  1.00  0.00    -0.014 A 
BRANCH  39  40
ATOM     40  C   UNL A   1      43.800  24.345  27.314  1.00  0.00     0.031 A 
ATOM     41  C   UNL A   1      45.207  24.858  27.151  1.00  0.00     0.074 A 
ATOM     42  C   UNL A   1      42.818  25.191  27.675  1.00  0.00     0.049 A 
ATOM     43  N   UNL A   1      45.675  26.070  27.313  1.00  0.00    -0.248 NA
ATOM     44  C   UNL A   1      46.221  23.871  26.748  1.00  0.00     0.031 C 
ATOM     45  C   UNL A   1      41.411  24.831  27.840  1.00  0.00     0.029 A 
ATOM     46  N   UNL A   1      42.858  26.534  27.961  1.00  0.00    -0.354 N 
ATOM     47  C   UNL A   1      47.033  25.994  27.027  1.00  0.00     0.074 A 
ATOM     48  C   UNL A   1      47.322  24.609  26.723  1.00  0.00     0.031 C 
ATOM     49  C   UNL A   1      40.718  25.930  28.186  1.00  0.00     0.029 A 
ATOM     50  C   UNL A   1      41.635  27.064  28.292  1.00  0.00     0.049 A 
ATOM     51  H   UNL A   1      43.685  27.067  27.931  1.00  0.00     0.167 HD
ATOM     52  C   UNL A   1      47.955  26.986  27.003  1.00  0.00     0.037 A 
ATOM     53  C   UNL A   1      41.295  28.320  28.644  1.00  0.00     0.037 A 
ATOM     54  C   UNL A   1      47.674  28.364  27.314  1.00  0.00     0.049 A 
ATOM     55  C   UNL A   1      42.352  29.391  28.688  1.00  0.00     0.074 A 
ATOM     56  C   UNL A   1      48.539  29.445  27.310  1.00  0.00     0.029 A 
ATOM     57  N   UNL A   1      46.433  28.848  27.695  1.00  0.00    -0.354 N 
ATOM     58  N   UNL A   1      43.624  29.312  28.382  1.00  0.00    -0.248 NA
ATOM     59  C   UNL A   1      41.923  30.728  29.122  1.00  0.00     0.031 C 
ATOM     60  C   UNL A   1      47.831  30.575  27.735  1.00  0.00     0.029 A 
ATOM     61  C   UNL A   1      46.513  30.207  27.954  1.00  0.00     0.049 A 
ATOM     62  H   UNL A   1      45.614  28.307  27.772  1.00  0.00     0.167 HD
ATOM     63  C   UNL A   1      44.139  30.592  28.556  1.00  0.00     0.074 A 
ATOM     64  C   UNL A   1      43.040  31.429  28.985  1.00  0.00     0.031 C 
ATOM     65  C   UNL A   1      45.408  31.032  28.374  1.00  0.00     0.037 A 
BRANCH  52  66
ATOM     66  C   UNL A   1      49.363  26.609  26.643  1.00  0.00     0.057 A 
ATOM     67  C   UNL A   1      49.832  26.674  25.323  1.00  0.00     0.134 A 
ATOM     68  C   UNL A   1      50.267  26.188  27.627  1.00  0.00     0.134 A 
ATOM     69  F   UNL A   1      49.014  27.057  24.330  1.00  0.00    -0.206 F 
ATOM     70  C   UNL A   1      51.138  26.309  24.992  1.00  0.00     0.040 A 
ATOM     71  C   UNL A   1      51.582  25.845  27.313  1.00  0.00     0.040 A 
ATOM     72  F   UNL A   1      49.886  26.109  28.911  1.00  0.00    -0.206 F 
ATOM     73  C   UNL A   1      52.019  25.897  25.990  1.00  0.00     0.006 A 
ENDBRANCH  52  66
BRANCH  53  74
ATOM     74  C   UNL A   1      39.883  28.642  28.975  1.00  0.00     0.057 A 
ATOM     75  C   UNL A   1      39.006  29.133  28.003  1.00  0.00     0.134 A 
ATOM     76  C   UNL A   1      39.383  28.483  30.273  1.00  0.00     0.134 A 
ATOM     77  F   UNL A   1      39.432  29.331  26.747  1.00  0.00    -0.206 F 
ATOM     78  C   UNL A   1      37.686  29.468  28.310  1.00  0.00     0.040 A 
ATOM     79  C   UNL A   1      38.059  28.790  30.590  1.00  0.00     0.040 A 
ATOM     80  F   UNL A   1      40.175  28.019  31.251  1.00  0.00    -0.206 F 
ATOM     81  C   UNL A   1      37.207  29.291  29.608  1.00  0.00     0.006 A 
ENDBRANCH  53  74
BRANCH  65  82
ATOM     82  C   UNL A   1      45.671  32.493  28.602  1.00  0.00     0.057 A 
ATOM     83  C   UNL A   1      46.089  32.986  29.844  1.00  0.00     0.134 A 
ATOM     84  C   UNL A   1      45.537  33.412  27.553  1.00  0.00     0.134 A 
ATOM     85  F   UNL A   1      46.224  32.159  30.893  1.00  0.00    -0.206 F 
ATOM     86  C   UNL A   1      46.344  34.345  30.041  1.00  0.00     0.040 A 
ATOM     87  C   UNL A   1      45.814  34.769  27.731  1.00  0.00     0.040 A 
ATOM     88  F   UNL A   1      45.148  33.005  26.335  1.00  0.00    -0.206 F 
ATOM     89  C   UNL A   1      46.213  35.239  28.980  1.00  0.00     0.006 A 
ENDBRANCH  65  82
ENDBRANCH  39  40
ENDBRANCH  32  34
ENDBRANCH  31  32
ENDBRANCH  30  31
ENDBRANCH  29  30
ENDBRANCH   1  29
TORSDOF 16
ENDMDL
