MODEL 1
REMARK VINA RESULT:     -10.0      0.000      0.000
REMARK SMILES COCCN(CC(=O)OCCOCCOC(=O)c1ccc(-c2c3nc(c(-c4c(F)cccc4F)c4ccc([nH]4)c(-c4c(F)cccc4F)c4nc(c(-c5c(F)cccc5F)c5ccc2[nH]5)C=C4)C=C3)cc1)C(=O)N[C@H]1CC[N@H+]2CCC[C@H]12
REMARK SMILES IDX 11 1 10 2 9 3 7 4 8 5 6 6 5 7 4 8 3 9 2 10 1 11 72 12 73 13
REMARK SMILES IDX 74 14 75 16 76 17 82 18 77 19 78 20 81 21 79 22 80 24 12 25
REMARK SMILES IDX 13 26 14 27 15 28 16 29 17 30 18 31 19 32 71 33 20 34 70 35
REMARK SMILES IDX 21 36 22 37 23 38 64 39 24 40 69 41 63 42 65 43 25 44 68 45
REMARK SMILES IDX 62 46 61 47 26 49 52 50 35 51 51 52 36 53 39 54 50 55 66 56
REMARK SMILES IDX 37 57 38 58 49 60 67 61 40 62 27 63 28 64 33 65 29 66 30 67
REMARK SMILES IDX 32 68 34 69 31 70 53 71 54 72 59 73 55 74 56 75 58 76 60 77
REMARK SMILES IDX 57 78 41 79 42 80 47 81 43 82 44 83 46 84 48 85 45 86
REMARK H PARENT 74 15 78 23 65 48 39 59
REMARK Flexibility Score: inf
ROOT
ATOM      1  C   UNL A   1      34.201  21.457  27.245  1.00  0.00     0.202 C 
ENDROOT
BRANCH   1   2
ATOM      2  C   UNL A   1      33.002  22.417  27.231  1.00  0.00     0.261 C 
BRANCH   2   3
ATOM      3  O   UNL A   1      32.216  22.252  26.031  1.00  0.00    -0.462 OA
BRANCH   3   4
ATOM      4  C   UNL A   1      31.603  23.387  25.590  1.00  0.00     0.325 C 
ATOM      5  O   UNL A   1      30.721  23.396  24.736  1.00  0.00    -0.250 OA
BRANCH   4   6
ATOM      6  C   UNL A   1      31.976  24.643  26.404  1.00  0.00     0.244 C 
BRANCH   6   7
ATOM      7  N   UNL A   1      32.710  25.714  25.728  1.00  0.00    -0.311 N 
BRANCH   7   8
ATOM      8  C   UNL A   1      33.931  25.251  25.030  1.00  0.00     0.150 C 
BRANCH   8   9
ATOM      9  C   UNL A   1      33.798  25.319  23.494  1.00  0.00     0.181 C 
BRANCH   9  10
ATOM     10  O   UNL A   1      34.434  24.209  22.861  1.00  0.00    -0.383 OA
ATOM     11  C   UNL A   1      33.542  23.189  22.439  1.00  0.00     0.194 C 
ENDBRANCH   9  10
ENDBRANCH   8   9
ENDBRANCH   7   8
BRANCH   7  12
ATOM     12  C   UNL A   1      32.450  27.043  25.660  1.00  0.00     0.318 C 
ATOM     13  O   UNL A   1      33.023  27.833  26.425  1.00  0.00    -0.249 OA
ATOM     14  N   UNL A   1      31.628  27.681  24.827  1.00  0.00    -0.329 N 
ATOM     15  H   UNL A   1      31.568  28.608  25.155  1.00  0.00     0.165 HD
BRANCH  14  16
ATOM     16  C   UNL A   1      30.765  27.612  23.626  1.00  0.00     0.147 C 
ATOM     17  C   UNL A   1      29.785  26.429  23.710  1.00  0.00     0.092 C 
ATOM     18  C   UNL A   1      29.897  28.801  23.284  1.00  0.00     0.207 C 
ATOM     19  C   UNL A   1      28.393  27.062  23.753  1.00  0.00     0.264 C 
ATOM     20  N   UNL A   1      28.620  28.206  22.912  1.00  0.00    -0.331 N 
ATOM     21  C   UNL A   1      30.021  29.718  22.092  1.00  0.00     0.073 C 
ATOM     22  C   UNL A   1      27.701  29.313  22.804  1.00  0.00     0.262 C 
ATOM     23  H   UNL A   1      28.525  27.755  22.002  1.00  0.00     0.348 HD
ATOM     24  C   UNL A   1      28.600  30.340  22.082  1.00  0.00     0.068 C 
ENDBRANCH  14  16
ENDBRANCH   7  12
ENDBRANCH   6   7
ENDBRANCH   4   6
ENDBRANCH   3   4
ENDBRANCH   2   3
ENDBRANCH   1   2
BRANCH   1  25
ATOM     25  O   UNL A   1      34.775  21.097  25.981  1.00  0.00    -0.374 OA
BRANCH  25  26
ATOM     26  C   UNL A   1      35.963  21.792  25.609  1.00  0.00     0.202 C 
BRANCH  26  27
ATOM     27  C   UNL A   1      37.152  20.951  25.140  1.00  0.00     0.261 C 
BRANCH  27  28
ATOM     28  O   UNL A   1      38.344  21.735  25.120  1.00  0.00    -0.460 OA
BRANCH  28  29
ATOM     29  C   UNL A   1      39.273  21.331  26.011  1.00  0.00     0.338 C 
ATOM     30  O   UNL A   1      39.807  20.237  26.097  1.00  0.00    -0.246 OA
BRANCH  29  31
ATOM     31  C   UNL A   1      39.750  22.514  26.739  1.00  0.00     0.060 A 
ATOM     32  C   UNL A   1      39.059  23.707  26.497  1.00  0.00     0.016 A 
ATOM     33  C   UNL A   1      40.810  22.459  27.650  1.00  0.00     0.016 A 
ATOM     34  C   UNL A   1      39.478  24.877  27.108  1.00  0.00     0.010 A 
ATOM     35  C   UNL A   1      41.242  23.639  28.251  1.00  0.00     0.010 A 
ATOM     36  C   UNL A   1      40.608  24.854  27.935  1.00  0.00    -0.014 A 
BRANCH  36  37
ATOM     37  C   UNL A   1      41.259  26.143  28.233  1.00  0.00     0.031 A 
ATOM     38  C   UNL A   1      42.647  26.357  27.699  1.00  0.00     0.074 A 
ATOM     39  C   UNL A   1      40.583  27.122  28.854  1.00  0.00     0.049 A 
ATOM     40  N   UNL A   1      43.407  27.417  27.765  1.00  0.00    -0.248 NA
ATOM     41  C   UNL A   1      43.257  25.222  26.982  1.00  0.00     0.031 C 
ATOM     42  C   UNL A   1      39.210  27.021  29.347  1.00  0.00     0.029 A 
ATOM     43  N   UNL A   1      40.961  28.401  29.162  1.00  0.00    -0.354 N 
ATOM     44  C   UNL A   1      44.577  27.079  27.095  1.00  0.00     0.074 A 
ATOM     45  C   UNL A   1      44.446  25.708  26.662  1.00  0.00     0.031 C 
ATOM     46  C   UNL A   1      38.859  28.196  29.899  1.00  0.00     0.029 A 
ATOM     47  C   UNL A   1      39.991  29.116  29.819  1.00  0.00     0.049 A 
ATOM     48  H   UNL A   1      41.843  28.773  28.933  1.00  0.00     0.167 HD
ATOM     49  C   UNL A   1      45.658  27.853  26.853  1.00  0.00     0.037 A 
ATOM     50  C   UNL A   1      40.033  30.369  30.309  1.00  0.00     0.037 A 
ATOM     51  C   UNL A   1      45.773  29.214  27.301  1.00  0.00     0.049 A 
ATOM     52  C   UNL A   1      41.284  31.182  30.101  1.00  0.00     0.074 A 
ATOM     53  C   UNL A   1      46.826  30.093  27.132  1.00  0.00     0.029 A 
ATOM     54  N   UNL A   1      44.792  29.888  28.015  1.00  0.00    -0.354 N 
ATOM     55  N   UNL A   1      42.383  30.859  29.460  1.00  0.00    -0.248 NA
ATOM     56  C   UNL A   1      41.300  32.531  30.677  1.00  0.00     0.031 C 
ATOM     57  C   UNL A   1      46.501  31.285  27.787  1.00  0.00     0.029 A 
ATOM     58  C   UNL A   1      45.224  31.167  28.315  1.00  0.00     0.049 A 
ATOM     59  H   UNL A   1      43.919  29.511  28.269  1.00  0.00     0.167 HD
ATOM     60  C   UNL A   1      43.209  31.973  29.531  1.00  0.00     0.074 A 
ATOM     61  C   UNL A   1      42.476  32.986  30.266  1.00  0.00     0.031 C 
ATOM     62  C   UNL A   1      44.460  32.151  29.040  1.00  0.00     0.037 A 
BRANCH  49  63
ATOM     63  C   UNL A   1      46.801  27.234  26.105  1.00  0.00     0.057 A 
ATOM     64  C   UNL A   1      46.948  27.382  24.720  1.00  0.00     0.134 A 
ATOM     65  C   UNL A   1      47.776  26.490  26.782  1.00  0.00     0.134 A 
ATOM     66  F   UNL A   1      46.038  28.062  24.007  1.00  0.00    -0.206 F 
ATOM     67  C   UNL A   1      48.016  26.799  24.032  1.00  0.00     0.040 A 
ATOM     68  C   UNL A   1      48.860  25.924  26.110  1.00  0.00     0.040 A 
ATOM     69  F   UNL A   1      47.691  26.305  28.108  1.00  0.00    -0.206 F 
ATOM     70  C   UNL A   1      48.980  26.073  24.730  1.00  0.00     0.006 A 
ENDBRANCH  49  63
BRANCH  50  71
ATOM     71  C   UNL A   1      38.872  30.923  31.053  1.00  0.00     0.057 A 
ATOM     72  C   UNL A   1      37.889  31.687  30.414  1.00  0.00     0.134 A 
ATOM     73  C   UNL A   1      38.733  30.721  32.433  1.00  0.00     0.134 A 
ATOM     74  F   UNL A   1      37.975  31.934  29.099  1.00  0.00    -0.206 F 
ATOM     75  C   UNL A   1      36.824  32.249  31.121  1.00  0.00     0.040 A 
ATOM     76  C   UNL A   1      37.658  31.253  33.147  1.00  0.00     0.040 A 
ATOM     77  F   UNL A   1      39.637  29.995  33.106  1.00  0.00    -0.206 F 
ATOM     78  C   UNL A   1      36.705  32.028  32.492  1.00  0.00     0.006 A 
ENDBRANCH  50  71
BRANCH  62  79
ATOM     79  C   UNL A   1      45.091  33.495  29.248  1.00  0.00     0.057 A 
ATOM     80  C   UNL A   1      44.897  34.550  28.350  1.00  0.00     0.134 A 
ATOM     81  C   UNL A   1      45.867  33.746  30.388  1.00  0.00     0.134 A 
ATOM     82  F   UNL A   1      44.174  34.369  27.234  1.00  0.00    -0.206 F 
ATOM     83  C   UNL A   1      45.473  35.802  28.564  1.00  0.00     0.040 A 
ATOM     84  C   UNL A   1      46.422  35.002  30.628  1.00  0.00     0.040 A 
ATOM     85  F   UNL A   1      46.079  32.780  31.295  1.00  0.00    -0.206 F 
ATOM     86  C   UNL A   1      46.232  36.033  29.710  1.00  0.00     0.006 A 
ENDBRANCH  62  79
ENDBRANCH  36  37
ENDBRANCH  29  31
ENDBRANCH  28  29
ENDBRANCH  27  28
ENDBRANCH  26  27
ENDBRANCH  25  26
ENDBRANCH   1  25
TORSDOF 20
ENDMDL
MODEL 2
REMARK VINA RESULT:      -9.9      3.973      9.084
REMARK SMILES COCCN(CC(=O)OCCOCCOC(=O)c1ccc(-c2c3nc(c(-c4c(F)cccc4F)c4ccc([nH]4)c(-c4c(F)cccc4F)c4nc(c(-c5c(F)cccc5F)c5ccc2[nH]5)C=C4)C=C3)cc1)C(=O)N[C@H]1CC[N@H+]2CCC[C@H]12
REMARK SMILES IDX 11 1 10 2 9 3 7 4 8 5 6 6 5 7 4 8 3 9 2 10 1 11 72 12 73 13
REMARK SMILES IDX 74 14 75 16 76 17 82 18 77 19 78 20 81 21 79 22 80 24 12 25
REMARK SMILES IDX 13 26 14 27 15 28 16 29 17 30 18 31 19 32 71 33 20 34 70 35
REMARK SMILES IDX 21 36 22 37 23 38 64 39 24 40 69 41 63 42 65 43 25 44 68 45
REMARK SMILES IDX 62 46 61 47 26 49 52 50 35 51 51 52 36 53 39 54 50 55 66 56
REMARK SMILES IDX 37 57 38 58 49 60 67 61 40 62 27 63 28 64 33 65 29 66 30 67
REMARK SMILES IDX 32 68 34 69 31 70 53 71 54 72 59 73 55 74 56 75 58 76 60 77
REMARK SMILES IDX 57 78 41 79 42 80 47 81 43 82 44 83 46 84 48 85 45 86
REMARK H PARENT 74 15 78 23 65 48 39 59
REMARK Flexibility Score: inf
ROOT
ATOM      1  C   UNL A   1      31.204  27.425  25.518  1.00  0.00     0.202 C 
ENDROOT
BRANCH   1   2
ATOM      2  C   UNL A   1      31.650  26.073  24.944  1.00  0.00     0.261 C 
BRANCH   2   3
ATOM      3  O   UNL A   1      31.412  25.003  25.883  1.00  0.00    -0.462 OA
BRANCH   3   4
ATOM      4  C   UNL A   1      32.488  24.200  26.119  1.00  0.00     0.325 C 
ATOM      5  O   UNL A   1      32.480  23.269  26.919  1.00  0.00    -0.250 OA
BRANCH   4   6
ATOM      6  C   UNL A   1      33.659  24.440  25.143  1.00  0.00     0.244 C 
BRANCH   6   7
ATOM      7  N   UNL A   1      34.410  23.278  24.666  1.00  0.00    -0.311 N 
BRANCH   7   8
ATOM      8  C   UNL A   1      34.487  23.183  23.190  1.00  0.00     0.150 C 
BRANCH   8   9
ATOM      9  C   UNL A   1      33.256  23.798  22.491  1.00  0.00     0.181 C 
BRANCH   9  10
ATOM     10  O   UNL A   1      33.630  24.836  21.586  1.00  0.00    -0.383 OA
ATOM     11  C   UNL A   1      32.562  25.691  21.207  1.00  0.00     0.194 C 
ENDBRANCH   9  10
ENDBRANCH   8   9
ENDBRANCH   7   8
BRANCH   7  12
ATOM     12  C   UNL A   1      35.022  22.287  25.361  1.00  0.00     0.318 C 
ATOM     13  O   UNL A   1      36.073  22.512  25.980  1.00  0.00    -0.249 OA
ATOM     14  N   UNL A   1      34.631  21.020  25.509  1.00  0.00    -0.329 N 
ATOM     15  H   UNL A   1      35.380  20.550  25.941  1.00  0.00     0.165 HD
BRANCH  14  16
ATOM     16  C   UNL A   1      33.567  20.010  25.310  1.00  0.00     0.147 C 
ATOM     17  C   UNL A   1      32.314  20.636  24.675  1.00  0.00     0.092 C 
ATOM     18  C   UNL A   1      33.865  18.801  24.453  1.00  0.00     0.207 C 
ATOM     19  C   UNL A   1      32.173  19.959  23.310  1.00  0.00     0.264 C 
ATOM     20  N   UNL A   1      32.667  18.649  23.638  1.00  0.00    -0.331 N 
ATOM     21  C   UNL A   1      33.964  17.361  24.896  1.00  0.00     0.073 C 
ATOM     22  C   UNL A   1      33.003  17.652  22.649  1.00  0.00     0.262 C 
ATOM     23  H   UNL A   1      31.822  18.261  24.058  1.00  0.00     0.348 HD
ATOM     24  C   UNL A   1      33.775  16.647  23.533  1.00  0.00     0.068 C 
ENDBRANCH  14  16
ENDBRANCH   7  12
ENDBRANCH   6   7
ENDBRANCH   4   6
ENDBRANCH   3   4
ENDBRANCH   2   3
ENDBRANCH   1   2
BRANCH   1  25
ATOM     25  O   UNL A   1      32.171  28.484  25.549  1.00  0.00    -0.374 OA
BRANCH  25  26
ATOM     26  C   UNL A   1      31.660  29.807  25.410  1.00  0.00     0.202 C 
BRANCH  26  27
ATOM     27  C   UNL A   1      31.955  30.797  26.539  1.00  0.00     0.261 C 
BRANCH  27  28
ATOM     28  O   UNL A   1      33.235  30.538  27.112  1.00  0.00    -0.460 OA
BRANCH  28  29
ATOM     29  C   UNL A   1      33.830  31.634  27.628  1.00  0.00     0.338 C 
ATOM     30  O   UNL A   1      33.315  32.700  27.923  1.00  0.00    -0.246 OA
BRANCH  29  31
ATOM     31  C   UNL A   1      35.194  31.266  28.027  1.00  0.00     0.060 A 
ATOM     32  C   UNL A   1      35.418  29.906  28.277  1.00  0.00     0.016 A 
ATOM     33  C   UNL A   1      36.228  32.203  28.123  1.00  0.00     0.016 A 
ATOM     34  C   UNL A   1      36.666  29.485  28.704  1.00  0.00     0.010 A 
ATOM     35  C   UNL A   1      37.478  31.782  28.571  1.00  0.00     0.010 A 
ATOM     36  C   UNL A   1      37.677  30.432  28.912  1.00  0.00    -0.014 A 
BRANCH  36  37
ATOM     37  C   UNL A   1      38.830  30.025  29.736  1.00  0.00     0.031 A 
ATOM     38  C   UNL A   1      38.901  30.560  31.138  1.00  0.00     0.074 A 
ATOM     39  C   UNL A   1      39.710  29.119  29.281  1.00  0.00     0.049 A 
ATOM     40  N   UNL A   1      39.770  30.306  32.080  1.00  0.00    -0.248 NA
ATOM     41  C   UNL A   1      37.840  31.503  31.536  1.00  0.00     0.031 C 
ATOM     42  C   UNL A   1      39.677  28.500  27.956  1.00  0.00     0.029 A 
ATOM     43  N   UNL A   1      40.794  28.552  29.893  1.00  0.00    -0.354 N 
ATOM     44  C   UNL A   1      39.356  31.049  33.179  1.00  0.00     0.074 A 
ATOM     45  C   UNL A   1      38.184  31.793  32.781  1.00  0.00     0.031 C 
ATOM     46  C   UNL A   1      40.702  27.635  27.856  1.00  0.00     0.029 A 
ATOM     47  C   UNL A   1      41.471  27.663  29.097  1.00  0.00     0.049 A 
ATOM     48  H   UNL A   1      41.063  28.763  30.817  1.00  0.00     0.167 HD
ATOM     49  C   UNL A   1      39.902  31.094  34.414  1.00  0.00     0.037 A 
ATOM     50  C   UNL A   1      42.594  26.966  29.352  1.00  0.00     0.037 A 
ATOM     51  C   UNL A   1      41.075  30.353  34.788  1.00  0.00     0.049 A 
ATOM     52  C   UNL A   1      43.233  27.101  30.709  1.00  0.00     0.074 A 
ATOM     53  C   UNL A   1      41.732  30.331  36.004  1.00  0.00     0.029 A 
ATOM     54  N   UNL A   1      41.769  29.504  33.937  1.00  0.00    -0.354 N 
ATOM     55  N   UNL A   1      42.832  27.800  31.747  1.00  0.00    -0.248 NA
ATOM     56  C   UNL A   1      44.473  26.349  30.936  1.00  0.00     0.031 C 
ATOM     57  C   UNL A   1      42.853  29.504  35.873  1.00  0.00     0.029 A 
ATOM     58  C   UNL A   1      42.862  28.969  34.594  1.00  0.00     0.049 A 
ATOM     59  H   UNL A   1      41.519  29.312  33.004  1.00  0.00     0.167 HD
ATOM     60  C   UNL A   1      43.754  27.550  32.755  1.00  0.00     0.074 A 
ATOM     61  C   UNL A   1      44.725  26.623  32.208  1.00  0.00     0.031 C 
ATOM     62  C   UNL A   1      43.801  28.040  34.019  1.00  0.00     0.037 A 
BRANCH  49  63
ATOM     63  C   UNL A   1      39.257  31.995  35.426  1.00  0.00     0.057 A 
ATOM     64  C   UNL A   1      39.538  33.366  35.484  1.00  0.00     0.134 A 
ATOM     65  C   UNL A   1      38.331  31.486  36.345  1.00  0.00     0.134 A 
ATOM     66  F   UNL A   1      40.433  33.914  34.647  1.00  0.00    -0.206 F 
ATOM     67  C   UNL A   1      38.933  34.196  36.431  1.00  0.00     0.040 A 
ATOM     68  C   UNL A   1      37.702  32.309  37.279  1.00  0.00     0.040 A 
ATOM     69  F   UNL A   1      38.022  30.180  36.347  1.00  0.00    -0.206 F 
ATOM     70  C   UNL A   1      38.006  33.668  37.328  1.00  0.00     0.006 A 
ENDBRANCH  49  63
BRANCH  50  71
ATOM     71  C   UNL A   1      43.194  26.100  28.305  1.00  0.00     0.057 A 
ATOM     72  C   UNL A   1      44.125  26.598  27.386  1.00  0.00     0.134 A 
ATOM     73  C   UNL A   1      42.828  24.753  28.182  1.00  0.00     0.134 A 
ATOM     74  F   UNL A   1      44.502  27.884  27.437  1.00  0.00    -0.206 F 
ATOM     75  C   UNL A   1      44.653  25.797  26.371  1.00  0.00     0.040 A 
ATOM     76  C   UNL A   1      43.369  23.934  27.190  1.00  0.00     0.040 A 
ATOM     77  F   UNL A   1      41.944  24.211  29.031  1.00  0.00    -0.206 F 
ATOM     78  C   UNL A   1      44.277  24.458  26.274  1.00  0.00     0.006 A 
ENDBRANCH  50  71
BRANCH  62  79
ATOM     79  C   UNL A   1      44.913  27.552  34.899  1.00  0.00     0.057 A 
ATOM     80  C   UNL A   1      46.130  28.235  35.001  1.00  0.00     0.134 A 
ATOM     81  C   UNL A   1      44.742  26.407  35.689  1.00  0.00     0.134 A 
ATOM     82  F   UNL A   1      46.358  29.332  34.261  1.00  0.00    -0.206 F 
ATOM     83  C   UNL A   1      47.149  27.783  35.838  1.00  0.00     0.040 A 
ATOM     84  C   UNL A   1      45.742  25.963  36.552  1.00  0.00     0.040 A 
ATOM     85  F   UNL A   1      43.593  25.716  35.647  1.00  0.00    -0.206 F 
ATOM     86  C   UNL A   1      46.954  26.648  36.623  1.00  0.00     0.006 A 
ENDBRANCH  62  79
ENDBRANCH  36  37
ENDBRANCH  29  31
ENDBRANCH  28  29
ENDBRANCH  27  28
ENDBRANCH  26  27
ENDBRANCH  25  26
ENDBRANCH   1  25
TORSDOF 20
ENDMDL
MODEL 3
REMARK VINA RESULT:      -9.9      4.316      9.489
REMARK SMILES COCCN(CC(=O)OCCOCCOC(=O)c1ccc(-c2c3nc(c(-c4c(F)cccc4F)c4ccc([nH]4)c(-c4c(F)cccc4F)c4nc(c(-c5c(F)cccc5F)c5ccc2[nH]5)C=C4)C=C3)cc1)C(=O)N[C@H]1CC[N@H+]2CCC[C@H]12
REMARK SMILES IDX 11 1 10 2 9 3 7 4 8 5 6 6 5 7 4 8 3 9 2 10 1 11 72 12 73 13
REMARK SMILES IDX 74 14 75 16 76 17 82 18 77 19 78 20 81 21 79 22 80 24 12 25
REMARK SMILES IDX 13 26 14 27 15 28 16 29 17 30 18 31 19 32 71 33 20 34 70 35
REMARK SMILES IDX 21 36 22 37 23 38 64 39 24 40 69 41 63 42 65 43 25 44 68 45
REMARK SMILES IDX 62 46 61 47 26 49 52 50 35 51 51 52 36 53 39 54 50 55 66 56
REMARK SMILES IDX 37 57 38 58 49 60 67 61 40 62 27 63 28 64 33 65 29 66 30 67
REMARK SMILES IDX 32 68 34 69 31 70 53 71 54 72 59 73 55 74 56 75 58 76 60 77
REMARK SMILES IDX 57 78 41 79 42 80 47 81 43 82 44 83 46 84 48 85 45 86
REMARK H PARENT 74 15 78 23 65 48 39 59
REMARK Flexibility Score: inf
ROOT
ATOM      1  C   UNL A   1      33.434  30.102  27.085  1.00  0.00     0.202 C 
ENDROOT
BRANCH   1   2
ATOM      2  C   UNL A   1      33.972  28.728  26.658  1.00  0.00     0.261 C 
BRANCH   2   3
ATOM      3  O   UNL A   1      33.132  27.663  27.152  1.00  0.00    -0.462 OA
BRANCH   3   4
ATOM      4  C   UNL A   1      32.435  26.994  26.191  1.00  0.00     0.325 C 
ATOM      5  O   UNL A   1      31.456  27.458  25.614  1.00  0.00    -0.250 OA
BRANCH   4   6
ATOM      6  C   UNL A   1      33.105  25.677  25.749  1.00  0.00     0.244 C 
BRANCH   6   7
ATOM      7  N   UNL A   1      32.346  24.769  24.888  1.00  0.00    -0.311 N 
BRANCH   7   8
ATOM      8  C   UNL A   1      32.285  25.199  23.473  1.00  0.00     0.150 C 
BRANCH   8   9
ATOM      9  C   UNL A   1      33.644  25.068  22.754  1.00  0.00     0.181 C 
BRANCH   9  10
ATOM     10  O   UNL A   1      33.691  25.863  21.569  1.00  0.00    -0.383 OA
ATOM     11  C   UNL A   1      32.612  25.638  20.674  1.00  0.00     0.194 C 
ENDBRANCH   9  10
ENDBRANCH   8   9
ENDBRANCH   7   8
BRANCH   7  12
ATOM     12  C   UNL A   1      31.690  23.621  25.193  1.00  0.00     0.318 C 
ATOM     13  O   UNL A   1      30.626  23.657  25.828  1.00  0.00    -0.249 OA
ATOM     14  N   UNL A   1      32.026  22.370  24.876  1.00  0.00    -0.329 N 
ATOM     15  H   UNL A   1      31.417  21.785  25.382  1.00  0.00     0.165 HD
BRANCH  14  16
ATOM     16  C   UNL A   1      32.911  21.473  24.100  1.00  0.00     0.147 C 
ATOM     17  C   UNL A   1      34.390  21.704  24.453  1.00  0.00     0.092 C 
ATOM     18  C   UNL A   1      32.720  19.978  24.222  1.00  0.00     0.207 C 
ATOM     19  C   UNL A   1      34.863  20.392  25.084  1.00  0.00     0.264 C 
ATOM     20  N   UNL A   1      34.077  19.460  24.322  1.00  0.00    -0.331 N 
ATOM     21  C   UNL A   1      32.241  19.022  23.158  1.00  0.00     0.073 C 
ATOM     22  C   UNL A   1      33.929  18.068  24.672  1.00  0.00     0.262 C 
ATOM     23  H   UNL A   1      34.658  19.412  23.484  1.00  0.00     0.348 HD
ATOM     24  C   UNL A   1      32.751  17.682  23.750  1.00  0.00     0.068 C 
ENDBRANCH  14  16
ENDBRANCH   7  12
ENDBRANCH   6   7
ENDBRANCH   4   6
ENDBRANCH   3   4
ENDBRANCH   2   3
ENDBRANCH   1   2
BRANCH   1  25
ATOM     25  O   UNL A   1      32.484  30.740  26.220  1.00  0.00    -0.374 OA
BRANCH  25  26
ATOM     26  C   UNL A   1      31.521  31.577  26.853  1.00  0.00     0.202 C 
BRANCH  26  27
ATOM     27  C   UNL A   1      31.807  33.080  26.883  1.00  0.00     0.261 C 
BRANCH  27  28
ATOM     28  O   UNL A   1      33.166  33.325  27.239  1.00  0.00    -0.460 OA
BRANCH  28  29
ATOM     29  C   UNL A   1      33.310  34.187  28.268  1.00  0.00     0.338 C 
ATOM     30  O   UNL A   1      32.568  35.099  28.593  1.00  0.00    -0.246 OA
BRANCH  29  31
ATOM     31  C   UNL A   1      34.402  33.700  29.120  1.00  0.00     0.060 A 
ATOM     32  C   UNL A   1      35.671  34.232  28.862  1.00  0.00     0.016 A 
ATOM     33  C   UNL A   1      34.195  32.784  30.156  1.00  0.00     0.016 A 
ATOM     34  C   UNL A   1      36.761  33.788  29.591  1.00  0.00     0.010 A 
ATOM     35  C   UNL A   1      35.294  32.323  30.877  1.00  0.00     0.010 A 
ATOM     36  C   UNL A   1      36.582  32.787  30.554  1.00  0.00    -0.014 A 
BRANCH  36  37
ATOM     37  C   UNL A   1      37.781  32.060  31.010  1.00  0.00     0.031 A 
ATOM     38  C   UNL A   1      38.268  32.336  32.404  1.00  0.00     0.074 A 
ATOM     39  C   UNL A   1      38.335  31.107  30.245  1.00  0.00     0.049 A 
ATOM     40  N   UNL A   1      39.253  31.786  33.063  1.00  0.00    -0.248 NA
ATOM     41  C   UNL A   1      37.536  33.365  33.165  1.00  0.00     0.031 C 
ATOM     42  C   UNL A   1      37.884  30.730  28.905  1.00  0.00     0.029 A 
ATOM     43  N   UNL A   1      39.389  30.271  30.495  1.00  0.00    -0.354 N 
ATOM     44  C   UNL A   1      39.253  32.396  34.311  1.00  0.00     0.074 A 
ATOM     45  C   UNL A   1      38.199  33.383  34.310  1.00  0.00     0.031 C 
ATOM     46  C   UNL A   1      38.663  29.733  28.449  1.00  0.00     0.029 A 
ATOM     47  C   UNL A   1      39.677  29.424  29.455  1.00  0.00     0.049 A 
ATOM     48  H   UNL A   1      39.892  30.277  31.342  1.00  0.00     0.167 HD
ATOM     49  C   UNL A   1      40.056  32.143  35.368  1.00  0.00     0.037 A 
ATOM     50  C   UNL A   1      40.662  28.515  29.336  1.00  0.00     0.037 A 
ATOM     51  C   UNL A   1      41.107  31.163  35.347  1.00  0.00     0.049 A 
ATOM     52  C   UNL A   1      41.599  28.313  30.498  1.00  0.00     0.074 A 
ATOM     53  C   UNL A   1      41.997  30.828  36.349  1.00  0.00     0.029 A 
ATOM     54  N   UNL A   1      41.407  30.361  34.254  1.00  0.00    -0.354 N 
ATOM     55  N   UNL A   1      41.589  28.888  31.679  1.00  0.00    -0.248 NA
ATOM     56  C   UNL A   1      42.679  27.336  30.317  1.00  0.00     0.031 C 
ATOM     57  C   UNL A   1      42.869  29.857  35.845  1.00  0.00     0.029 A 
ATOM     58  C   UNL A   1      42.485  29.548  34.549  1.00  0.00     0.049 A 
ATOM     59  H   UNL A   1      40.923  30.371  33.396  1.00  0.00     0.167 HD
ATOM     60  C   UNL A   1      42.640  28.323  32.389  1.00  0.00     0.074 A 
ATOM     61  C   UNL A   1      43.256  27.348  31.510  1.00  0.00     0.031 C 
ATOM     62  C   UNL A   1      43.065  28.581  33.650  1.00  0.00     0.037 A 
BRANCH  49  63
ATOM     63  C   UNL A   1      39.848  32.959  36.609  1.00  0.00     0.057 A 
ATOM     64  C   UNL A   1      40.597  34.114  36.872  1.00  0.00     0.134 A 
ATOM     65  C   UNL A   1      38.876  32.593  37.548  1.00  0.00     0.134 A 
ATOM     66  F   UNL A   1      41.561  34.507  36.025  1.00  0.00    -0.206 F 
ATOM     67  C   UNL A   1      40.397  34.866  38.032  1.00  0.00     0.040 A 
ATOM     68  C   UNL A   1      38.650  33.351  38.698  1.00  0.00     0.040 A 
ATOM     69  F   UNL A   1      38.128  31.496  37.361  1.00  0.00    -0.206 F 
ATOM     70  C   UNL A   1      39.415  34.488  38.946  1.00  0.00     0.006 A 
ENDBRANCH  49  63
BRANCH  50  71
ATOM     71  C   UNL A   1      40.826  27.746  28.076  1.00  0.00     0.057 A 
ATOM     72  C   UNL A   1      40.243  26.485  27.906  1.00  0.00     0.134 A 
ATOM     73  C   UNL A   1      41.595  28.246  27.016  1.00  0.00     0.134 A 
ATOM     74  F   UNL A   1      39.511  25.942  28.889  1.00  0.00    -0.206 F 
ATOM     75  C   UNL A   1      40.436  25.740  26.740  1.00  0.00     0.040 A 
ATOM     76  C   UNL A   1      41.773  27.524  25.835  1.00  0.00     0.040 A 
ATOM     77  F   UNL A   1      42.179  29.449  27.112  1.00  0.00    -0.206 F 
ATOM     78  C   UNL A   1      41.201  26.263  25.698  1.00  0.00     0.006 A 
ENDBRANCH  50  71
BRANCH  62  79
ATOM     79  C   UNL A   1      44.220  27.773  34.161  1.00  0.00     0.057 A 
ATOM     80  C   UNL A   1      45.540  28.228  34.066  1.00  0.00     0.134 A 
ATOM     81  C   UNL A   1      44.000  26.544  34.797  1.00  0.00     0.134 A 
ATOM     82  F   UNL A   1      45.816  29.392  33.458  1.00  0.00    -0.206 F 
ATOM     83  C   UNL A   1      46.605  27.477  34.563  1.00  0.00     0.040 A 
ATOM     84  C   UNL A   1      45.054  25.799  35.325  1.00  0.00     0.040 A 
ATOM     85  F   UNL A   1      42.756  26.059  34.933  1.00  0.00    -0.206 F 
ATOM     86  C   UNL A   1      46.362  26.262  35.201  1.00  0.00     0.006 A 
ENDBRANCH  62  79
ENDBRANCH  36  37
ENDBRANCH  29  31
ENDBRANCH  28  29
ENDBRANCH  27  28
ENDBRANCH  26  27
ENDBRANCH  25  26
ENDBRANCH   1  25
TORSDOF 20
ENDMDL
