MODEL 1
REMARK VINA RESULT:      -9.8      0.000      0.000
REMARK SMILES CC(C)[C@H](NC(=O)[C@H](C)NC(=O)C[NH3+])C(=O)OCCOCCOC(=O)c1ccc(-c2c3nc(c(-c4c(F)cccc4F)c4ccc([nH]4)c(-c4c(F)cccc4F)c4nc(c(-c5c(F)cccc5F)c5ccc2[nH]5)C=C4)C=C3)cc1
REMARK SMILES IDX 18 1 17 2 15 3 16 4 4 5 2 6 1 7 3 8 5 9 6 10 7 12 8 13 9 14
REMARK SMILES IDX 10 15 11 16 12 18 13 19 14 20 19 24 20 25 21 26 22 27 23 28
REMARK SMILES IDX 24 29 25 30 26 31 27 32 79 33 28 34 78 35 29 36 30 37 31 38
REMARK SMILES IDX 72 39 32 40 77 41 71 42 73 43 33 44 76 45 70 46 69 47 34 49
REMARK SMILES IDX 60 50 43 51 59 52 44 53 47 54 58 55 74 56 45 57 46 58 57 60
REMARK SMILES IDX 75 61 48 62 35 63 36 64 41 65 37 66 38 67 40 68 42 69 39 70
REMARK SMILES IDX 61 71 62 72 67 73 63 74 64 75 66 76 68 77 65 78 49 79 50 80
REMARK SMILES IDX 55 81 51 82 52 83 54 84 56 85 53 86
REMARK H PARENT 5 11 10 17 14 21 14 22 14 23 73 48 47 59
REMARK Flexibility Score: inf
ROOT
ATOM      1  C   UNL A   1      33.374  30.113  26.390  1.00  0.00     0.261 C 
ENDROOT
BRANCH   1   2
ATOM      2  O   UNL A   1      33.789  28.763  26.667  1.00  0.00    -0.462 OA
BRANCH   2   3
ATOM      3  C   UNL A   1      32.824  27.805  26.565  1.00  0.00     0.328 C 
ATOM      4  O   UNL A   1      31.843  27.747  27.296  1.00  0.00    -0.250 OA
BRANCH   3   5
ATOM      5  C   UNL A   1      33.062  26.866  25.358  1.00  0.00     0.194 C 
BRANCH   5   6
ATOM      6  C   UNL A   1      33.761  25.539  25.754  1.00  0.00     0.017 C 
ATOM      7  C   UNL A   1      32.724  24.482  26.173  1.00  0.00     0.010 C 
ATOM      8  C   UNL A   1      34.632  24.922  24.653  1.00  0.00     0.010 C 
ENDBRANCH   5   6
BRANCH   5   9
ATOM      9  N   UNL A   1      33.565  27.516  24.140  1.00  0.00    -0.341 N 
ATOM     10  C   UNL A   1      32.968  28.154  23.098  1.00  0.00     0.243 C 
ATOM     11  H   UNL A   1      34.547  27.481  24.061  1.00  0.00     0.164 HD
ATOM     12  O   UNL A   1      33.742  28.607  22.246  1.00  0.00    -0.273 OA
BRANCH  10  13
ATOM     13  C   UNL A   1      31.432  28.151  22.880  1.00  0.00     0.168 C 
ATOM     14  C   UNL A   1      31.025  26.837  22.211  1.00  0.00     0.041 C 
BRANCH  13  15
ATOM     15  N   UNL A   1      30.949  29.236  22.031  1.00  0.00    -0.340 N 
ATOM     16  C   UNL A   1      29.713  29.807  21.968  1.00  0.00     0.275 C 
ATOM     17  H   UNL A   1      31.616  29.611  21.410  1.00  0.00     0.164 HD
ATOM     18  O   UNL A   1      29.454  30.513  20.990  1.00  0.00    -0.268 OA
BRANCH  16  19
ATOM     19  C   UNL A   1      28.717  29.656  23.115  1.00  0.00     0.360 C 
BRANCH  19  20
ATOM     20  N   UNL A   1      27.353  29.389  22.642  1.00  0.00    -0.350 N 
ATOM     21  H   UNL A   1      27.085  30.097  21.959  1.00  0.00     0.344 HD
ATOM     22  H   UNL A   1      26.708  29.418  23.432  1.00  0.00     0.344 HD
ATOM     23  H   UNL A   1      27.319  28.468  22.208  1.00  0.00     0.344 HD
ENDBRANCH  19  20
ENDBRANCH  16  19
ENDBRANCH  13  15
ENDBRANCH  10  13
ENDBRANCH   5   9
ENDBRANCH   3   5
ENDBRANCH   2   3
ENDBRANCH   1   2
BRANCH   1  24
ATOM     24  C   UNL A   1      33.582  31.002  27.616  1.00  0.00     0.202 C 
BRANCH  24  25
ATOM     25  O   UNL A   1      34.502  32.077  27.433  1.00  0.00    -0.374 OA
BRANCH  25  26
ATOM     26  C   UNL A   1      34.177  33.335  28.022  1.00  0.00     0.202 C 
BRANCH  26  27
ATOM     27  C   UNL A   1      34.059  33.358  29.551  1.00  0.00     0.261 C 
BRANCH  27  28
ATOM     28  O   UNL A   1      35.329  33.385  30.229  1.00  0.00    -0.460 OA
BRANCH  28  29
ATOM     29  C   UNL A   1      35.479  32.450  31.196  1.00  0.00     0.338 C 
ATOM     30  O   UNL A   1      34.807  32.314  32.210  1.00  0.00    -0.246 OA
BRANCH  29  31
ATOM     31  C   UNL A   1      36.550  31.503  30.851  1.00  0.00     0.060 A 
ATOM     32  C   UNL A   1      37.491  31.163  31.831  1.00  0.00     0.016 A 
ATOM     33  C   UNL A   1      36.728  31.101  29.527  1.00  0.00     0.016 A 
ATOM     34  C   UNL A   1      38.639  30.447  31.479  1.00  0.00     0.010 A 
ATOM     35  C   UNL A   1      37.882  30.396  29.176  1.00  0.00     0.010 A 
ATOM     36  C   UNL A   1      38.859  30.090  30.142  1.00  0.00    -0.014 A 
BRANCH  36  37
ATOM     37  C   UNL A   1      40.162  29.532  29.699  1.00  0.00     0.031 A 
ATOM     38  C   UNL A   1      41.343  30.457  29.583  1.00  0.00     0.074 A 
ATOM     39  C   UNL A   1      40.295  28.236  29.368  1.00  0.00     0.049 A 
ATOM     40  N   UNL A   1      42.518  30.245  29.048  1.00  0.00    -0.248 NA
ATOM     41  C   UNL A   1      41.170  31.808  30.143  1.00  0.00     0.031 C 
ATOM     42  C   UNL A   1      39.254  27.218  29.493  1.00  0.00     0.029 A 
ATOM     43  N   UNL A   1      41.364  27.561  28.832  1.00  0.00    -0.354 N 
ATOM     44  C   UNL A   1      43.216  31.438  29.187  1.00  0.00     0.074 A 
ATOM     45  C   UNL A   1      42.330  32.375  29.845  1.00  0.00     0.031 C 
ATOM     46  C   UNL A   1      39.727  26.052  29.016  1.00  0.00     0.029 A 
ATOM     47  C   UNL A   1      41.086  26.253  28.519  1.00  0.00     0.049 A 
ATOM     48  H   UNL A   1      42.246  27.975  28.687  1.00  0.00     0.167 HD
ATOM     49  C   UNL A   1      44.481  31.728  28.803  1.00  0.00     0.037 A 
ATOM     50  C   UNL A   1      41.831  25.336  27.870  1.00  0.00     0.037 A 
ATOM     51  C   UNL A   1      45.366  30.798  28.154  1.00  0.00     0.049 A 
ATOM     52  C   UNL A   1      43.205  25.705  27.374  1.00  0.00     0.074 A 
ATOM     53  C   UNL A   1      46.666  31.002  27.723  1.00  0.00     0.029 A 
ATOM     54  N   UNL A   1      45.041  29.487  27.846  1.00  0.00    -0.354 N 
ATOM     55  N   UNL A   1      43.852  26.838  27.497  1.00  0.00    -0.248 NA
ATOM     56  C   UNL A   1      43.949  24.668  26.642  1.00  0.00     0.031 C 
ATOM     57  C   UNL A   1      47.115  29.821  27.122  1.00  0.00     0.029 A 
ATOM     58  C   UNL A   1      46.110  28.873  27.219  1.00  0.00     0.049 A 
ATOM     59  H   UNL A   1      44.178  29.057  28.045  1.00  0.00     0.167 HD
ATOM     60  C   UNL A   1      45.088  26.639  26.893  1.00  0.00     0.074 A 
ATOM     61  C   UNL A   1      45.102  25.279  26.400  1.00  0.00     0.031 C 
ATOM     62  C   UNL A   1      46.121  27.507  26.762  1.00  0.00     0.037 A 
BRANCH  49  63
ATOM     63  C   UNL A   1      44.975  33.121  29.052  1.00  0.00     0.057 A 
ATOM     64  C   UNL A   1      45.693  33.454  30.207  1.00  0.00     0.134 A 
ATOM     65  C   UNL A   1      44.758  34.133  28.109  1.00  0.00     0.134 A 
ATOM     66  F   UNL A   1      45.922  32.531  31.155  1.00  0.00    -0.206 F 
ATOM     67  C   UNL A   1      46.163  34.750  30.425  1.00  0.00     0.040 A 
ATOM     68  C   UNL A   1      45.242  35.428  28.305  1.00  0.00     0.040 A 
ATOM     69  F   UNL A   1      44.081  33.879  26.979  1.00  0.00    -0.206 F 
ATOM     70  C   UNL A   1      45.942  35.740  29.468  1.00  0.00     0.006 A 
ENDBRANCH  49  63
BRANCH  50  71
ATOM     71  C   UNL A   1      41.288  23.977  27.622  1.00  0.00     0.057 A 
ATOM     72  C   UNL A   1      41.763  22.869  28.332  1.00  0.00     0.134 A 
ATOM     73  C   UNL A   1      40.306  23.748  26.649  1.00  0.00     0.134 A 
ATOM     74  F   UNL A   1      42.721  23.022  29.257  1.00  0.00    -0.206 F 
ATOM     75  C   UNL A   1      41.293  21.580  28.076  1.00  0.00     0.040 A 
ATOM     76  C   UNL A   1      39.811  22.468  26.399  1.00  0.00     0.040 A 
ATOM     77  F   UNL A   1      39.813  24.768  25.932  1.00  0.00    -0.206 F 
ATOM     78  C   UNL A   1      40.310  21.378  27.109  1.00  0.00     0.006 A 
ENDBRANCH  50  71
BRANCH  62  79
ATOM     79  C   UNL A   1      47.377  27.003  26.119  1.00  0.00     0.057 A 
ATOM     80  C   UNL A   1      47.637  27.185  24.756  1.00  0.00     0.134 A 
ATOM     81  C   UNL A   1      48.372  26.391  26.893  1.00  0.00     0.134 A 
ATOM     82  F   UNL A   1      46.720  27.755  23.959  1.00  0.00    -0.206 F 
ATOM     83  C   UNL A   1      48.840  26.770  24.182  1.00  0.00     0.040 A 
ATOM     84  C   UNL A   1      49.587  25.990  26.336  1.00  0.00     0.040 A 
ATOM     85  F   UNL A   1      48.187  26.195  28.207  1.00  0.00    -0.206 F 
ATOM     86  C   UNL A   1      49.823  26.178  24.976  1.00  0.00     0.006 A 
ENDBRANCH  62  79
ENDBRANCH  36  37
ENDBRANCH  29  31
ENDBRANCH  28  29
ENDBRANCH  27  28
ENDBRANCH  26  27
ENDBRANCH  25  26
ENDBRANCH  24  25
ENDBRANCH   1  24
TORSDOF 20
ENDMDL
MODEL 2
REMARK VINA RESULT:      -9.6      2.672      3.999
REMARK SMILES CC(C)[C@H](NC(=O)[C@H](C)NC(=O)C[NH3+])C(=O)OCCOCCOC(=O)c1ccc(-c2c3nc(c(-c4c(F)cccc4F)c4ccc([nH]4)c(-c4c(F)cccc4F)c4nc(c(-c5c(F)cccc5F)c5ccc2[nH]5)C=C4)C=C3)cc1
REMARK SMILES IDX 18 1 17 2 15 3 16 4 4 5 2 6 1 7 3 8 5 9 6 10 7 12 8 13 9 14
REMARK SMILES IDX 10 15 11 16 12 18 13 19 14 20 19 24 20 25 21 26 22 27 23 28
REMARK SMILES IDX 24 29 25 30 26 31 27 32 79 33 28 34 78 35 29 36 30 37 31 38
REMARK SMILES IDX 72 39 32 40 77 41 71 42 73 43 33 44 76 45 70 46 69 47 34 49
REMARK SMILES IDX 60 50 43 51 59 52 44 53 47 54 58 55 74 56 45 57 46 58 57 60
REMARK SMILES IDX 75 61 48 62 35 63 36 64 41 65 37 66 38 67 40 68 42 69 39 70
REMARK SMILES IDX 61 71 62 72 67 73 63 74 64 75 66 76 68 77 65 78 49 79 50 80
REMARK SMILES IDX 55 81 51 82 52 83 54 84 56 85 53 86
REMARK H PARENT 5 11 10 17 14 21 14 22 14 23 73 48 47 59
REMARK Flexibility Score: inf
ROOT
ATOM      1  C   UNL A   1      32.824  26.663  24.728  1.00  0.00     0.261 C 
ENDROOT
BRANCH   1   2
ATOM      2  O   UNL A   1      33.860  26.640  23.728  1.00  0.00    -0.462 OA
BRANCH   2   3
ATOM      3  C   UNL A   1      33.783  25.639  22.806  1.00  0.00     0.328 C 
ATOM      4  O   UNL A   1      33.674  25.830  21.601  1.00  0.00    -0.250 OA
BRANCH   3   5
ATOM      5  C   UNL A   1      33.952  24.242  23.449  1.00  0.00     0.194 C 
BRANCH   5   6
ATOM      6  C   UNL A   1      35.393  23.987  23.967  1.00  0.00     0.017 C 
ATOM      7  C   UNL A   1      35.416  23.934  25.505  1.00  0.00     0.010 C 
ATOM      8  C   UNL A   1      36.040  22.697  23.450  1.00  0.00     0.010 C 
ENDBRANCH   5   6
BRANCH   5   9
ATOM      9  N   UNL A   1      33.329  23.128  22.721  1.00  0.00    -0.341 N 
ATOM     10  C   UNL A   1      32.595  22.048  23.102  1.00  0.00     0.243 C 
ATOM     11  H   UNL A   1      33.472  23.175  21.748  1.00  0.00     0.164 HD
ATOM     12  O   UNL A   1      32.209  21.323  22.176  1.00  0.00    -0.273 OA
BRANCH  10  13
ATOM     13  C   UNL A   1      32.416  21.635  24.586  1.00  0.00     0.168 C 
ATOM     14  C   UNL A   1      32.316  20.111  24.672  1.00  0.00     0.041 C 
BRANCH  13  15
ATOM     15  N   UNL A   1      31.218  22.182  25.215  1.00  0.00    -0.340 N 
ATOM     16  C   UNL A   1      31.060  22.735  26.451  1.00  0.00     0.275 C 
ATOM     17  H   UNL A   1      30.402  22.147  24.665  1.00  0.00     0.164 HD
ATOM     18  O   UNL A   1      29.911  22.875  26.877  1.00  0.00    -0.268 OA
BRANCH  16  19
ATOM     19  C   UNL A   1      32.260  23.252  27.242  1.00  0.00     0.360 C 
BRANCH  19  20
ATOM     20  N   UNL A   1      32.953  22.183  27.971  1.00  0.00    -0.350 N 
ATOM     21  H   UNL A   1      33.520  21.640  27.320  1.00  0.00     0.344 HD
ATOM     22  H   UNL A   1      32.267  21.573  28.414  1.00  0.00     0.344 HD
ATOM     23  H   UNL A   1      33.555  22.593  28.684  1.00  0.00     0.344 HD
ENDBRANCH  19  20
ENDBRANCH  16  19
ENDBRANCH  13  15
ENDBRANCH  10  13
ENDBRANCH   5   9
ENDBRANCH   3   5
ENDBRANCH   2   3
ENDBRANCH   1   2
BRANCH   1  24
ATOM     24  C   UNL A   1      33.319  27.355  25.998  1.00  0.00     0.202 C 
BRANCH  24  25
ATOM     25  O   UNL A   1      32.344  28.151  26.670  1.00  0.00    -0.374 OA
BRANCH  25  26
ATOM     26  C   UNL A   1      32.240  29.525  26.299  1.00  0.00     0.202 C 
BRANCH  26  27
ATOM     27  C   UNL A   1      32.816  30.541  27.291  1.00  0.00     0.261 C 
BRANCH  27  28
ATOM     28  O   UNL A   1      34.233  30.753  27.147  1.00  0.00    -0.460 OA
BRANCH  28  29
ATOM     29  C   UNL A   1      34.890  31.015  28.300  1.00  0.00     0.338 C 
ATOM     30  O   UNL A   1      34.546  31.774  29.197  1.00  0.00    -0.246 OA
BRANCH  29  31
ATOM     31  C   UNL A   1      36.102  30.189  28.416  1.00  0.00     0.060 A 
ATOM     32  C   UNL A   1      36.426  29.635  29.660  1.00  0.00     0.016 A 
ATOM     33  C   UNL A   1      37.002  30.118  27.352  1.00  0.00     0.016 A 
ATOM     34  C   UNL A   1      37.674  29.038  29.856  1.00  0.00     0.010 A 
ATOM     35  C   UNL A   1      38.254  29.530  27.554  1.00  0.00     0.010 A 
ATOM     36  C   UNL A   1      38.610  29.012  28.814  1.00  0.00    -0.014 A 
BRANCH  36  37
ATOM     37  C   UNL A   1      40.015  28.591  29.050  1.00  0.00     0.031 A 
ATOM     38  C   UNL A   1      40.982  29.590  29.623  1.00  0.00     0.074 A 
ATOM     39  C   UNL A   1      40.440  27.357  28.730  1.00  0.00     0.049 A 
ATOM     40  N   UNL A   1      42.283  29.515  29.743  1.00  0.00    -0.248 NA
ATOM     41  C   UNL A   1      40.401  30.846  30.124  1.00  0.00     0.031 C 
ATOM     42  C   UNL A   1      39.599  26.273  28.227  1.00  0.00     0.029 A 
ATOM     43  N   UNL A   1      41.703  26.817  28.758  1.00  0.00    -0.354 N 
ATOM     44  C   UNL A   1      42.678  30.719  30.312  1.00  0.00     0.074 A 
ATOM     45  C   UNL A   1      41.482  31.513  30.502  1.00  0.00     0.031 C 
ATOM     46  C   UNL A   1      40.375  25.206  27.965  1.00  0.00     0.029 A 
ATOM     47  C   UNL A   1      41.769  25.546  28.244  1.00  0.00     0.049 A 
ATOM     48  H   UNL A   1      42.486  27.297  29.114  1.00  0.00     0.167 HD
ATOM     49  C   UNL A   1      43.924  31.127  30.648  1.00  0.00     0.037 A 
ATOM     50  C   UNL A   1      42.836  24.763  27.991  1.00  0.00     0.037 A 
ATOM     51  C   UNL A   1      45.114  30.340  30.466  1.00  0.00     0.049 A 
ATOM     52  C   UNL A   1      44.223  25.270  28.293  1.00  0.00     0.074 A 
ATOM     53  C   UNL A   1      46.423  30.671  30.771  1.00  0.00     0.029 A 
ATOM     54  N   UNL A   1      45.136  29.062  29.931  1.00  0.00    -0.354 N 
ATOM     55  N   UNL A   1      44.589  26.414  28.817  1.00  0.00    -0.248 NA
ATOM     56  C   UNL A   1      45.344  24.379  27.959  1.00  0.00     0.031 C 
ATOM     57  C   UNL A   1      47.242  29.603  30.389  1.00  0.00     0.029 A 
ATOM     58  C   UNL A   1      46.438  28.594  29.887  1.00  0.00     0.049 A 
ATOM     59  H   UNL A   1      44.344  28.561  29.630  1.00  0.00     0.167 HD
ATOM     60  C   UNL A   1      45.975  26.364  28.910  1.00  0.00     0.074 A 
ATOM     61  C   UNL A   1      46.387  25.080  28.385  1.00  0.00     0.031 C 
ATOM     62  C   UNL A   1      46.830  27.300  29.391  1.00  0.00     0.037 A 
BRANCH  49  63
ATOM     63  C   UNL A   1      44.067  32.504  31.224  1.00  0.00     0.057 A 
ATOM     64  C   UNL A   1      44.085  32.727  32.606  1.00  0.00     0.134 A 
ATOM     65  C   UNL A   1      44.221  33.615  30.385  1.00  0.00     0.134 A 
ATOM     66  F   UNL A   1      43.929  31.705  33.462  1.00  0.00    -0.206 F 
ATOM     67  C   UNL A   1      44.233  34.011  33.135  1.00  0.00     0.040 A 
ATOM     68  C   UNL A   1      44.392  34.900  30.902  1.00  0.00     0.040 A 
ATOM     69  F   UNL A   1      44.217  33.468  29.051  1.00  0.00    -0.206 F 
ATOM     70  C   UNL A   1      44.394  35.101  32.280  1.00  0.00     0.006 A 
ENDBRANCH  49  63
BRANCH  50  71
ATOM     71  C   UNL A   1      42.647  23.417  27.395  1.00  0.00     0.057 A 
ATOM     72  C   UNL A   1      42.356  22.307  28.195  1.00  0.00     0.134 A 
ATOM     73  C   UNL A   1      42.783  23.202  26.017  1.00  0.00     0.134 A 
ATOM     74  F   UNL A   1      42.240  22.445  29.523  1.00  0.00    -0.206 F 
ATOM     75  C   UNL A   1      42.221  21.029  27.650  1.00  0.00     0.040 A 
ATOM     76  C   UNL A   1      42.629  21.934  25.457  1.00  0.00     0.040 A 
ATOM     77  F   UNL A   1      43.065  24.226  25.198  1.00  0.00    -0.206 F 
ATOM     78  C   UNL A   1      42.353  20.841  26.276  1.00  0.00     0.006 A 
ENDBRANCH  50  71
BRANCH  62  79
ATOM     79  C   UNL A   1      48.287  26.955  29.436  1.00  0.00     0.057 A 
ATOM     80  C   UNL A   1      48.838  26.197  30.476  1.00  0.00     0.134 A 
ATOM     81  C   UNL A   1      49.135  27.326  28.384  1.00  0.00     0.134 A 
ATOM     82  F   UNL A   1      48.080  25.819  31.517  1.00  0.00    -0.206 F 
ATOM     83  C   UNL A   1      50.184  25.826  30.472  1.00  0.00     0.040 A 
ATOM     84  C   UNL A   1      50.477  26.945  28.359  1.00  0.00     0.040 A 
ATOM     85  F   UNL A   1      48.666  28.046  27.353  1.00  0.00    -0.206 F 
ATOM     86  C   UNL A   1      51.005  26.193  29.406  1.00  0.00     0.006 A 
ENDBRANCH  62  79
ENDBRANCH  36  37
ENDBRANCH  29  31
ENDBRANCH  28  29
ENDBRANCH  27  28
ENDBRANCH  26  27
ENDBRANCH  25  26
ENDBRANCH  24  25
ENDBRANCH   1  24
TORSDOF 20
ENDMDL
MODEL 3
REMARK VINA RESULT:      -9.4      4.154      7.800
REMARK SMILES CC(C)[C@H](NC(=O)[C@H](C)NC(=O)C[NH3+])C(=O)OCCOCCOC(=O)c1ccc(-c2c3nc(c(-c4c(F)cccc4F)c4ccc([nH]4)c(-c4c(F)cccc4F)c4nc(c(-c5c(F)cccc5F)c5ccc2[nH]5)C=C4)C=C3)cc1
REMARK SMILES IDX 18 1 17 2 15 3 16 4 4 5 2 6 1 7 3 8 5 9 6 10 7 12 8 13 9 14
REMARK SMILES IDX 10 15 11 16 12 18 13 19 14 20 19 24 20 25 21 26 22 27 23 28
REMARK SMILES IDX 24 29 25 30 26 31 27 32 79 33 28 34 78 35 29 36 30 37 31 38
REMARK SMILES IDX 72 39 32 40 77 41 71 42 73 43 33 44 76 45 70 46 69 47 34 49
REMARK SMILES IDX 60 50 43 51 59 52 44 53 47 54 58 55 74 56 45 57 46 58 57 60
REMARK SMILES IDX 75 61 48 62 35 63 36 64 41 65 37 66 38 67 40 68 42 69 39 70
REMARK SMILES IDX 61 71 62 72 67 73 63 74 64 75 66 76 68 77 65 78 49 79 50 80
REMARK SMILES IDX 55 81 51 82 52 83 54 84 56 85 53 86
REMARK H PARENT 5 11 10 17 14 21 14 22 14 23 73 48 47 59
REMARK Flexibility Score: inf
ROOT
ATOM      1  C   UNL A   1      33.749  26.930  25.865  1.00  0.00     0.261 C 
ENDROOT
BRANCH   1   2
ATOM      2  O   UNL A   1      33.600  25.518  26.102  1.00  0.00    -0.462 OA
BRANCH   2   3
ATOM      3  C   UNL A   1      34.332  24.694  25.299  1.00  0.00     0.328 C 
ATOM      4  O   UNL A   1      35.518  24.446  25.480  1.00  0.00    -0.250 OA
BRANCH   3   5
ATOM      5  C   UNL A   1      33.466  24.032  24.200  1.00  0.00     0.194 C 
BRANCH   5   6
ATOM      6  C   UNL A   1      33.533  22.482  24.233  1.00  0.00     0.017 C 
ATOM      7  C   UNL A   1      32.964  21.941  25.557  1.00  0.00     0.010 C 
ATOM      8  C   UNL A   1      32.785  21.786  23.089  1.00  0.00     0.010 C 
ENDBRANCH   5   6
BRANCH   5   9
ATOM      9  N   UNL A   1      33.551  24.649  22.869  1.00  0.00    -0.341 N 
ATOM     10  C   UNL A   1      32.912  25.690  22.272  1.00  0.00     0.243 C 
ATOM     11  H   UNL A   1      34.213  24.214  22.284  1.00  0.00     0.164 HD
ATOM     12  O   UNL A   1      33.279  25.938  21.117  1.00  0.00    -0.273 OA
BRANCH  10  13
ATOM     13  C   UNL A   1      31.683  26.395  22.904  1.00  0.00     0.168 C 
ATOM     14  C   UNL A   1      30.566  25.368  23.103  1.00  0.00     0.041 C 
BRANCH  13  15
ATOM     15  N   UNL A   1      31.135  27.477  22.091  1.00  0.00    -0.340 N 
ATOM     16  C   UNL A   1      30.522  28.631  22.479  1.00  0.00     0.275 C 
ATOM     17  H   UNL A   1      31.220  27.354  21.117  1.00  0.00     0.164 HD
ATOM     18  O   UNL A   1      29.893  29.263  21.627  1.00  0.00    -0.268 OA
BRANCH  16  19
ATOM     19  C   UNL A   1      30.688  29.173  23.896  1.00  0.00     0.360 C 
BRANCH  19  20
ATOM     20  N   UNL A   1      30.212  30.555  24.028  1.00  0.00    -0.350 N 
ATOM     21  H   UNL A   1      29.193  30.567  24.019  1.00  0.00     0.344 HD
ATOM     22  H   UNL A   1      30.565  31.112  23.249  1.00  0.00     0.344 HD
ATOM     23  H   UNL A   1      30.549  30.948  24.906  1.00  0.00     0.344 HD
ENDBRANCH  19  20
ENDBRANCH  16  19
ENDBRANCH  13  15
ENDBRANCH  10  13
ENDBRANCH   5   9
ENDBRANCH   3   5
ENDBRANCH   2   3
ENDBRANCH   1   2
BRANCH   1  24
ATOM     24  C   UNL A   1      32.714  27.721  26.667  1.00  0.00     0.202 C 
BRANCH  24  25
ATOM     25  O   UNL A   1      33.239  28.820  27.410  1.00  0.00    -0.374 OA
BRANCH  25  26
ATOM     26  C   UNL A   1      33.343  30.079  26.747  1.00  0.00     0.202 C 
BRANCH  26  27
ATOM     27  C   UNL A   1      33.705  31.281  27.626  1.00  0.00     0.261 C 
BRANCH  27  28
ATOM     28  O   UNL A   1      33.145  32.525  27.164  1.00  0.00    -0.460 OA
BRANCH  28  29
ATOM     29  C   UNL A   1      33.282  33.565  28.020  1.00  0.00     0.338 C 
ATOM     30  O   UNL A   1      32.528  34.518  28.159  1.00  0.00    -0.246 OA
BRANCH  29  31
ATOM     31  C   UNL A   1      34.465  33.388  28.878  1.00  0.00     0.060 A 
ATOM     32  C   UNL A   1      35.715  33.793  28.395  1.00  0.00     0.016 A 
ATOM     33  C   UNL A   1      34.363  32.664  30.066  1.00  0.00     0.016 A 
ATOM     34  C   UNL A   1      36.878  33.440  29.084  1.00  0.00     0.010 A 
ATOM     35  C   UNL A   1      35.529  32.303  30.747  1.00  0.00     0.010 A 
ATOM     36  C   UNL A   1      36.795  32.663  30.247  1.00  0.00    -0.014 A 
BRANCH  36  37
ATOM     37  C   UNL A   1      38.010  32.084  30.876  1.00  0.00     0.031 A 
ATOM     38  C   UNL A   1      38.747  30.990  30.152  1.00  0.00     0.074 A 
ATOM     39  C   UNL A   1      38.437  32.492  32.083  1.00  0.00     0.049 A 
ATOM     40  N   UNL A   1      39.710  30.214  30.577  1.00  0.00    -0.248 NA
ATOM     41  C   UNL A   1      38.336  30.736  28.762  1.00  0.00     0.031 C 
ATOM     42  C   UNL A   1      37.857  33.582  32.864  1.00  0.00     0.029 A 
ATOM     43  N   UNL A   1      39.450  32.011  32.876  1.00  0.00    -0.354 N 
ATOM     44  C   UNL A   1      40.005  29.366  29.517  1.00  0.00     0.074 A 
ATOM     45  C   UNL A   1      39.112  29.714  28.433  1.00  0.00     0.031 C 
ATOM     46  C   UNL A   1      38.505  33.667  34.040  1.00  0.00     0.029 A 
ATOM     47  C   UNL A   1      39.517  32.615  34.108  1.00  0.00     0.049 A 
ATOM     48  H   UNL A   1      40.070  31.303  32.587  1.00  0.00     0.167 HD
ATOM     49  C   UNL A   1      40.938  28.388  29.450  1.00  0.00     0.037 A 
ATOM     50  C   UNL A   1      40.280  32.324  35.180  1.00  0.00     0.037 A 
ATOM     51  C   UNL A   1      41.832  28.043  30.524  1.00  0.00     0.049 A 
ATOM     52  C   UNL A   1      41.252  31.174  35.115  1.00  0.00     0.074 A 
ATOM     53  C   UNL A   1      42.808  27.062  30.552  1.00  0.00     0.029 A 
ATOM     54  N   UNL A   1      41.858  28.672  31.758  1.00  0.00    -0.354 N 
ATOM     55  N   UNL A   1      41.515  30.369  34.114  1.00  0.00    -0.248 NA
ATOM     56  C   UNL A   1      42.027  30.888  36.332  1.00  0.00     0.031 C 
ATOM     57  C   UNL A   1      43.403  27.076  31.818  1.00  0.00     0.029 A 
ATOM     58  C   UNL A   1      42.825  28.092  32.560  1.00  0.00     0.049 A 
ATOM     59  H   UNL A   1      41.276  29.420  32.024  1.00  0.00     0.167 HD
ATOM     60  C   UNL A   1      42.509  29.510  34.568  1.00  0.00     0.074 A 
ATOM     61  C   UNL A   1      42.800  29.886  35.934  1.00  0.00     0.031 C 
ATOM     62  C   UNL A   1      43.126  28.499  33.909  1.00  0.00     0.037 A 
BRANCH  49  63
ATOM     63  C   UNL A   1      41.021  27.599  28.178  1.00  0.00     0.057 A 
ATOM     64  C   UNL A   1      40.286  26.422  27.991  1.00  0.00     0.134 A 
ATOM     65  C   UNL A   1      41.820  28.040  27.117  1.00  0.00     0.134 A 
ATOM     66  F   UNL A   1      39.512  25.939  28.976  1.00  0.00    -0.206 F 
ATOM     67  C   UNL A   1      40.357  25.700  26.798  1.00  0.00     0.040 A 
ATOM     68  C   UNL A   1      41.882  27.340  25.911  1.00  0.00     0.040 A 
ATOM     69  F   UNL A   1      42.545  29.164  27.230  1.00  0.00    -0.206 F 
ATOM     70  C   UNL A   1      41.153  26.164  25.752  1.00  0.00     0.006 A 
ENDBRANCH  49  63
BRANCH  50  71
ATOM     71  C   UNL A   1      40.144  33.116  36.427  1.00  0.00     0.057 A 
ATOM     72  C   UNL A   1      39.169  32.801  37.380  1.00  0.00     0.134 A 
ATOM     73  C   UNL A   1      40.962  34.224  36.683  1.00  0.00     0.134 A 
ATOM     74  F   UNL A   1      38.339  31.768  37.178  1.00  0.00    -0.206 F 
ATOM     75  C   UNL A   1      39.002  33.566  38.535  1.00  0.00     0.040 A 
ATOM     76  C   UNL A   1      40.820  34.984  37.845  1.00  0.00     0.040 A 
ATOM     77  F   UNL A   1      41.912  34.580  35.806  1.00  0.00    -0.206 F 
ATOM     78  C   UNL A   1      39.833  34.659  38.772  1.00  0.00     0.006 A 
ENDBRANCH  50  71
BRANCH  62  79
ATOM     79  C   UNL A   1      44.222  27.768  34.623  1.00  0.00     0.057 A 
ATOM     80  C   UNL A   1      43.979  26.601  35.355  1.00  0.00     0.134 A 
ATOM     81  C   UNL A   1      45.550  28.201  34.512  1.00  0.00     0.134 A 
ATOM     82  F   UNL A   1      42.728  26.140  35.506  1.00  0.00    -0.206 F 
ATOM     83  C   UNL A   1      45.019  25.892  35.961  1.00  0.00     0.040 A 
ATOM     84  C   UNL A   1      46.600  27.490  35.096  1.00  0.00     0.040 A 
ATOM     85  F   UNL A   1      45.850  29.309  33.817  1.00  0.00    -0.206 F 
ATOM     86  C   UNL A   1      46.335  26.333  35.824  1.00  0.00     0.006 A 
ENDBRANCH  62  79
ENDBRANCH  36  37
ENDBRANCH  29  31
ENDBRANCH  28  29
ENDBRANCH  27  28
ENDBRANCH  26  27
ENDBRANCH  25  26
ENDBRANCH  24  25
ENDBRANCH   1  24
TORSDOF 20
ENDMDL
