MODEL 1
REMARK VINA RESULT:     -11.2      0.000      0.000
REMARK SMILES C[C@H](C(=O)OCCOCCOC(=O)c1ccc(-c2c3nc(c(-c4c(F)cccc4F)c4ccc([nH]4)c(-c4c(F)cccc4F)c4nc(c(-c5c(F)cccc5F)c5ccc2[nH]5)C=C4)C=C3)cc1)c1ccc(C[C@@H]2CCC[C@H]2O)cc1
REMARK SMILES IDX 7 1 6 2 5 3 3 4 4 5 2 6 1 7 68 8 69 9 80 10 70 11 79 12
REMARK SMILES IDX 71 13 72 14 73 15 74 16 77 17 75 18 76 19 78 20 8 22 9 23
REMARK SMILES IDX 10 24 11 25 12 26 13 27 14 28 15 29 67 30 16 31 66 32 17 33
REMARK SMILES IDX 18 34 19 35 60 36 20 37 65 38 59 39 61 40 21 41 64 42 58 43
REMARK SMILES IDX 57 44 22 46 48 47 31 48 47 49 32 50 35 51 46 52 62 53 33 54
REMARK SMILES IDX 34 55 45 57 63 58 36 59 23 60 24 61 29 62 25 63 26 64 28 65
REMARK SMILES IDX 30 66 27 67 49 68 50 69 55 70 51 71 52 72 54 73 56 74 53 75
REMARK SMILES IDX 37 76 38 77 43 78 39 79 40 80 42 81 44 82 41 83
REMARK H PARENT 78 21 61 45 35 56
REMARK Flexibility Score: inf
ROOT
ATOM      1  C   UNL A   1      31.802  29.116  24.830  1.00  0.00     0.202 C 
ENDROOT
BRANCH   1   2
ATOM      2  C   UNL A   1      31.115  27.823  25.279  1.00  0.00     0.261 C 
BRANCH   2   3
ATOM      3  O   UNL A   1      31.858  27.110  26.287  1.00  0.00    -0.463 OA
BRANCH   3   4
ATOM      4  C   UNL A   1      31.815  25.749  26.188  1.00  0.00     0.313 C 
ATOM      5  O   UNL A   1      31.114  25.032  26.895  1.00  0.00    -0.252 OA
BRANCH   4   6
ATOM      6  C   UNL A   1      32.800  25.205  25.157  1.00  0.00     0.126 C 
ATOM      7  C   UNL A   1      34.138  25.948  25.309  1.00  0.00     0.025 C 
BRANCH   6   8
ATOM      8  C   UNL A   1      33.011  23.693  25.172  1.00  0.00    -0.034 A 
ATOM      9  C   UNL A   1      33.965  23.082  26.000  1.00  0.00     0.005 A 
ATOM     10  C   UNL A   1      32.280  22.875  24.300  1.00  0.00     0.005 A 
ATOM     11  C   UNL A   1      34.219  21.709  25.916  1.00  0.00     0.004 A 
ATOM     12  C   UNL A   1      32.555  21.506  24.197  1.00  0.00     0.004 A 
ATOM     13  C   UNL A   1      33.556  20.914  24.978  1.00  0.00    -0.048 A 
BRANCH  13  14
ATOM     14  C   UNL A   1      33.920  19.462  24.789  1.00  0.00     0.041 C 
BRANCH  14  15
ATOM     15  C   UNL A   1      32.826  18.496  24.272  1.00  0.00     0.022 C 
ATOM     16  C   UNL A   1      32.524  17.309  25.197  1.00  0.00     0.007 C 
ATOM     17  C   UNL A   1      33.122  17.834  22.923  1.00  0.00     0.117 C 
ATOM     18  C   UNL A   1      33.244  16.093  24.614  1.00  0.00     0.003 C 
ATOM     19  C   UNL A   1      33.803  16.512  23.255  1.00  0.00     0.032 C 
BRANCH  17  20
ATOM     20  O   UNL A   1      31.892  17.567  22.243  1.00  0.00    -0.393 OA
ATOM     21  H   UNL A   1      31.436  18.403  22.059  1.00  0.00     0.210 HD
ENDBRANCH  17  20
ENDBRANCH  14  15
ENDBRANCH  13  14
ENDBRANCH   6   8
ENDBRANCH   4   6
ENDBRANCH   3   4
ENDBRANCH   2   3
ENDBRANCH   1   2
BRANCH   1  22
ATOM     22  O   UNL A   1      31.200  30.344  25.236  1.00  0.00    -0.374 OA
BRANCH  22  23
ATOM     23  C   UNL A   1      31.579  30.853  26.515  1.00  0.00     0.202 C 
BRANCH  23  24
ATOM     24  C   UNL A   1      31.441  32.365  26.719  1.00  0.00     0.261 C 
BRANCH  24  25
ATOM     25  O   UNL A   1      32.708  33.038  26.586  1.00  0.00    -0.460 OA
BRANCH  25  26
ATOM     26  C   UNL A   1      33.172  33.600  27.721  1.00  0.00     0.338 C 
ATOM     27  O   UNL A   1      32.604  34.419  28.434  1.00  0.00    -0.246 OA
BRANCH  26  28
ATOM     28  C   UNL A   1      34.434  32.958  28.129  1.00  0.00     0.060 A 
ATOM     29  C   UNL A   1      34.377  31.606  28.492  1.00  0.00     0.016 A 
ATOM     30  C   UNL A   1      35.629  33.672  28.237  1.00  0.00     0.016 A 
ATOM     31  C   UNL A   1      35.498  30.979  29.029  1.00  0.00     0.010 A 
ATOM     32  C   UNL A   1      36.753  33.044  28.787  1.00  0.00     0.010 A 
ATOM     33  C   UNL A   1      36.678  31.709  29.224  1.00  0.00    -0.014 A 
BRANCH  33  34
ATOM     34  C   UNL A   1      37.763  31.114  30.039  1.00  0.00     0.031 A 
ATOM     35  C   UNL A   1      38.704  30.133  29.390  1.00  0.00     0.074 A 
ATOM     36  C   UNL A   1      37.948  31.480  31.318  1.00  0.00     0.049 A 
ATOM     37  N   UNL A   1      39.728  29.501  29.904  1.00  0.00    -0.248 NA
ATOM     38  C   UNL A   1      38.456  29.827  27.971  1.00  0.00     0.031 C 
ATOM     39  C   UNL A   1      37.132  32.451  32.044  1.00  0.00     0.029 A 
ATOM     40  N   UNL A   1      38.888  31.077  32.233  1.00  0.00    -0.354 N 
ATOM     41  C   UNL A   1      40.244  28.722  28.875  1.00  0.00     0.074 A 
ATOM     42  C   UNL A   1      39.404  28.938  27.716  1.00  0.00     0.031 C 
ATOM     43  C   UNL A   1      37.606  32.567  33.297  1.00  0.00     0.029 A 
ATOM     44  C   UNL A   1      38.740  31.661  33.466  1.00  0.00     0.049 A 
ATOM     45  H   UNL A   1      39.600  30.430  32.024  1.00  0.00     0.167 HD
ATOM     46  C   UNL A   1      41.325  27.907  28.892  1.00  0.00     0.037 A 
ATOM     47  C   UNL A   1      39.436  31.473  34.605  1.00  0.00     0.037 A 
ATOM     48  C   UNL A   1      42.164  27.697  30.041  1.00  0.00     0.049 A 
ATOM     49  C   UNL A   1      40.593  30.511  34.615  1.00  0.00     0.074 A 
ATOM     50  C   UNL A   1      43.297  26.909  30.148  1.00  0.00     0.029 A 
ATOM     51  N   UNL A   1      41.957  28.274  31.284  1.00  0.00    -0.354 N 
ATOM     52  N   UNL A   1      41.088  29.801  33.630  1.00  0.00    -0.248 NA
ATOM     53  C   UNL A   1      41.290  30.325  35.897  1.00  0.00     0.031 C 
ATOM     54  C   UNL A   1      43.750  26.976  31.471  1.00  0.00     0.029 A 
ATOM     55  C   UNL A   1      42.925  27.840  32.173  1.00  0.00     0.049 A 
ATOM     56  H   UNL A   1      41.229  28.900  31.501  1.00  0.00     0.167 HD
ATOM     57  C   UNL A   1      42.167  29.107  34.165  1.00  0.00     0.074 A 
ATOM     58  C   UNL A   1      42.261  29.489  35.558  1.00  0.00     0.031 C 
ATOM     59  C   UNL A   1      43.007  28.234  33.555  1.00  0.00     0.037 A 
BRANCH  46  60
ATOM     60  C   UNL A   1      41.648  27.164  27.630  1.00  0.00     0.057 A 
ATOM     61  C   UNL A   1      42.429  27.730  26.616  1.00  0.00     0.134 A 
ATOM     62  C   UNL A   1      41.194  25.852  27.441  1.00  0.00     0.134 A 
ATOM     63  F   UNL A   1      42.882  28.989  26.729  1.00  0.00    -0.206 F 
ATOM     64  C   UNL A   1      42.734  27.025  25.450  1.00  0.00     0.040 A 
ATOM     65  C   UNL A   1      41.510  25.129  26.290  1.00  0.00     0.040 A 
ATOM     66  F   UNL A   1      40.443  25.250  28.376  1.00  0.00    -0.206 F 
ATOM     67  C   UNL A   1      42.279  25.718  25.288  1.00  0.00     0.006 A 
ENDBRANCH  46  60
BRANCH  47  68
ATOM     68  C   UNL A   1      39.055  32.205  35.837  1.00  0.00     0.057 A 
ATOM     69  C   UNL A   1      38.219  31.624  36.797  1.00  0.00     0.134 A 
ATOM     70  C   UNL A   1      39.498  33.513  36.073  1.00  0.00     0.134 A 
ATOM     71  F   UNL A   1      37.742  30.384  36.615  1.00  0.00    -0.206 F 
ATOM     72  C   UNL A   1      37.826  32.321  37.942  1.00  0.00     0.040 A 
ATOM     73  C   UNL A   1      39.131  34.212  37.223  1.00  0.00     0.040 A 
ATOM     74  F   UNL A   1      40.300  34.125  35.190  1.00  0.00    -0.206 F 
ATOM     75  C   UNL A   1      38.286  33.618  38.159  1.00  0.00     0.006 A 
ENDBRANCH  47  68
BRANCH  59  76
ATOM     76  C   UNL A   1      44.118  27.659  34.382  1.00  0.00     0.057 A 
ATOM     77  C   UNL A   1      43.999  26.415  35.014  1.00  0.00     0.134 A 
ATOM     78  C   UNL A   1      45.337  28.337  34.512  1.00  0.00     0.134 A 
ATOM     79  F   UNL A   1      42.854  25.720  34.938  1.00  0.00    -0.206 F 
ATOM     80  C   UNL A   1      45.047  25.875  35.762  1.00  0.00     0.040 A 
ATOM     81  C   UNL A   1      46.399  27.798  35.236  1.00  0.00     0.040 A 
ATOM     82  F   UNL A   1      45.518  29.530  33.923  1.00  0.00    -0.206 F 
ATOM     83  C   UNL A   1      46.254  26.565  35.869  1.00  0.00     0.006 A 
ENDBRANCH  59  76
ENDBRANCH  33  34
ENDBRANCH  26  28
ENDBRANCH  25  26
ENDBRANCH  24  25
ENDBRANCH  23  24
ENDBRANCH  22  23
ENDBRANCH   1  22
TORSDOF 18
ENDMDL
MODEL 2
REMARK VINA RESULT:     -11.1      2.406      7.924
REMARK SMILES C[C@H](C(=O)OCCOCCOC(=O)c1ccc(-c2c3nc(c(-c4c(F)cccc4F)c4ccc([nH]4)c(-c4c(F)cccc4F)c4nc(c(-c5c(F)cccc5F)c5ccc2[nH]5)C=C4)C=C3)cc1)c1ccc(C[C@@H]2CCC[C@H]2O)cc1
REMARK SMILES IDX 7 1 6 2 5 3 3 4 4 5 2 6 1 7 68 8 69 9 80 10 70 11 79 12
REMARK SMILES IDX 71 13 72 14 73 15 74 16 77 17 75 18 76 19 78 20 8 22 9 23
REMARK SMILES IDX 10 24 11 25 12 26 13 27 14 28 15 29 67 30 16 31 66 32 17 33
REMARK SMILES IDX 18 34 19 35 60 36 20 37 65 38 59 39 61 40 21 41 64 42 58 43
REMARK SMILES IDX 57 44 22 46 48 47 31 48 47 49 32 50 35 51 46 52 62 53 33 54
REMARK SMILES IDX 34 55 45 57 63 58 36 59 23 60 24 61 29 62 25 63 26 64 28 65
REMARK SMILES IDX 30 66 27 67 49 68 50 69 55 70 51 71 52 72 54 73 56 74 53 75
REMARK SMILES IDX 37 76 38 77 43 78 39 79 40 80 42 81 44 82 41 83
REMARK H PARENT 78 21 61 45 35 56
REMARK Flexibility Score: inf
ROOT
ATOM      1  C   UNL A   1      33.727  27.412  25.727  1.00  0.00     0.202 C 
ENDROOT
BRANCH   1   2
ATOM      2  C   UNL A   1      34.074  25.921  25.655  1.00  0.00     0.261 C 
BRANCH   2   3
ATOM      3  O   UNL A   1      32.986  25.068  26.059  1.00  0.00    -0.463 OA
BRANCH   3   4
ATOM      4  C   UNL A   1      32.509  24.233  25.090  1.00  0.00     0.313 C 
ATOM      5  O   UNL A   1      33.204  23.435  24.471  1.00  0.00    -0.252 OA
BRANCH   4   6
ATOM      6  C   UNL A   1      31.028  24.459  24.798  1.00  0.00     0.126 C 
ATOM      7  C   UNL A   1      30.254  24.447  26.127  1.00  0.00     0.025 C 
BRANCH   6   8
ATOM      8  C   UNL A   1      30.693  25.705  23.983  1.00  0.00    -0.034 A 
ATOM      9  C   UNL A   1      31.572  26.226  23.021  1.00  0.00     0.005 A 
ATOM     10  C   UNL A   1      29.500  26.400  24.226  1.00  0.00     0.005 A 
ATOM     11  C   UNL A   1      31.294  27.431  22.368  1.00  0.00     0.004 A 
ATOM     12  C   UNL A   1      29.236  27.620  23.591  1.00  0.00     0.004 A 
ATOM     13  C   UNL A   1      30.151  28.169  22.683  1.00  0.00    -0.048 A 
BRANCH  13  14
ATOM     14  C   UNL A   1      29.912  29.533  22.081  1.00  0.00     0.041 C 
BRANCH  14  15
ATOM     15  C   UNL A   1      28.502  30.156  22.222  1.00  0.00     0.022 C 
ATOM     16  C   UNL A   1      28.003  30.910  20.982  1.00  0.00     0.007 C 
ATOM     17  C   UNL A   1      28.350  31.181  23.351  1.00  0.00     0.117 C 
ATOM     18  C   UNL A   1      28.201  32.400  21.254  1.00  0.00     0.003 C 
ATOM     19  C   UNL A   1      28.631  32.537  22.715  1.00  0.00     0.032 C 
BRANCH  17  20
ATOM     20  O   UNL A   1      27.003  31.162  23.834  1.00  0.00    -0.393 OA
ATOM     21  H   UNL A   1      26.530  31.941  23.501  1.00  0.00     0.210 HD
ENDBRANCH  17  20
ENDBRANCH  14  15
ENDBRANCH  13  14
ENDBRANCH   6   8
ENDBRANCH   4   6
ENDBRANCH   3   4
ENDBRANCH   2   3
ENDBRANCH   1   2
BRANCH   1  22
ATOM     22  O   UNL A   1      32.523  27.763  26.405  1.00  0.00    -0.374 OA
BRANCH  22  23
ATOM     23  C   UNL A   1      31.787  28.867  25.877  1.00  0.00     0.202 C 
BRANCH  23  24
ATOM     24  C   UNL A   1      32.451  30.244  25.977  1.00  0.00     0.261 C 
BRANCH  24  25
ATOM     25  O   UNL A   1      32.659  30.635  27.347  1.00  0.00    -0.460 OA
BRANCH  25  26
ATOM     26  C   UNL A   1      33.473  31.699  27.514  1.00  0.00     0.338 C 
ATOM     27  O   UNL A   1      33.159  32.884  27.512  1.00  0.00    -0.246 OA
BRANCH  26  28
ATOM     28  C   UNL A   1      34.824  31.253  27.894  1.00  0.00     0.060 A 
ATOM     29  C   UNL A   1      34.982  29.903  28.232  1.00  0.00     0.016 A 
ATOM     30  C   UNL A   1      35.896  32.142  28.003  1.00  0.00     0.016 A 
ATOM     31  C   UNL A   1      36.194  29.448  28.744  1.00  0.00     0.010 A 
ATOM     32  C   UNL A   1      37.111  31.685  28.528  1.00  0.00     0.010 A 
ATOM     33  C   UNL A   1      37.249  30.347  28.940  1.00  0.00    -0.014 A 
BRANCH  33  34
ATOM     34  C   UNL A   1      38.425  29.913  29.730  1.00  0.00     0.031 A 
ATOM     35  C   UNL A   1      38.580  30.421  31.139  1.00  0.00     0.074 A 
ATOM     36  C   UNL A   1      39.311  29.036  29.228  1.00  0.00     0.049 A 
ATOM     37  N   UNL A   1      39.517  30.165  32.015  1.00  0.00    -0.248 NA
ATOM     38  C   UNL A   1      37.536  31.339  31.624  1.00  0.00     0.031 C 
ATOM     39  C   UNL A   1      39.245  28.440  27.896  1.00  0.00     0.029 A 
ATOM     40  N   UNL A   1      40.440  28.493  29.786  1.00  0.00    -0.354 N 
ATOM     41  C   UNL A   1      39.179  30.891  33.151  1.00  0.00     0.074 A 
ATOM     42  C   UNL A   1      37.967  31.619  32.845  1.00  0.00     0.031 C 
ATOM     43  C   UNL A   1      40.294  27.613  27.737  1.00  0.00     0.029 A 
ATOM     44  C   UNL A   1      41.114  27.643  28.946  1.00  0.00     0.049 A 
ATOM     45  H   UNL A   1      40.739  28.695  30.703  1.00  0.00     0.167 HD
ATOM     46  C   UNL A   1      39.816  30.939  34.346  1.00  0.00     0.037 A 
ATOM     47  C   UNL A   1      42.270  26.976  29.130  1.00  0.00     0.037 A 
ATOM     48  C   UNL A   1      41.017  30.209  34.653  1.00  0.00     0.049 A 
ATOM     49  C   UNL A   1      42.995  27.098  30.444  1.00  0.00     0.074 A 
ATOM     50  C   UNL A   1      41.723  30.174  35.843  1.00  0.00     0.029 A 
ATOM     51  N   UNL A   1      41.693  29.392  33.761  1.00  0.00    -0.354 N 
ATOM     52  N   UNL A   1      42.651  27.765  31.519  1.00  0.00    -0.248 NA
ATOM     53  C   UNL A   1      44.268  26.373  30.569  1.00  0.00     0.031 C 
ATOM     54  C   UNL A   1      42.851  29.368  35.657  1.00  0.00     0.029 A 
ATOM     55  C   UNL A   1      42.824  28.868  34.365  1.00  0.00     0.049 A 
ATOM     56  H   UNL A   1      41.411  29.211  32.836  1.00  0.00     0.167 HD
ATOM     57  C   UNL A   1      43.649  27.519  32.455  1.00  0.00     0.074 A 
ATOM     58  C   UNL A   1      44.605  26.633  31.824  1.00  0.00     0.031 C 
ATOM     59  C   UNL A   1      43.761  27.983  33.724  1.00  0.00     0.037 A 
BRANCH  46  60
ATOM     60  C   UNL A   1      39.234  31.830  35.402  1.00  0.00     0.057 A 
ATOM     61  C   UNL A   1      38.318  31.356  36.348  1.00  0.00     0.134 A 
ATOM     62  C   UNL A   1      39.620  33.174  35.490  1.00  0.00     0.134 A 
ATOM     63  F   UNL A   1      37.898  30.082  36.308  1.00  0.00    -0.206 F 
ATOM     64  C   UNL A   1      37.791  32.190  37.336  1.00  0.00     0.040 A 
ATOM     65  C   UNL A   1      39.117  34.012  36.486  1.00  0.00     0.040 A 
ATOM     66  F   UNL A   1      40.496  33.690  34.616  1.00  0.00    -0.206 F 
ATOM     67  C   UNL A   1      38.196  33.522  37.410  1.00  0.00     0.006 A 
ENDBRANCH  46  60
BRANCH  47  68
ATOM     68  C   UNL A   1      42.825  26.135  28.041  1.00  0.00     0.057 A 
ATOM     69  C   UNL A   1      42.448  24.795  27.895  1.00  0.00     0.134 A 
ATOM     70  C   UNL A   1      43.762  26.645  27.134  1.00  0.00     0.134 A 
ATOM     71  F   UNL A   1      41.574  24.243  28.748  1.00  0.00    -0.206 F 
ATOM     72  C   UNL A   1      42.995  23.988  26.895  1.00  0.00     0.040 A 
ATOM     73  C   UNL A   1      44.298  25.856  26.116  1.00  0.00     0.040 A 
ATOM     74  F   UNL A   1      44.163  27.922  27.222  1.00  0.00    -0.206 F 
ATOM     75  C   UNL A   1      43.919  24.520  25.999  1.00  0.00     0.006 A 
ENDBRANCH  47  68
BRANCH  59  76
ATOM     76  C   UNL A   1      44.940  27.516  34.525  1.00  0.00     0.057 A 
ATOM     77  C   UNL A   1      46.126  28.258  34.595  1.00  0.00     0.134 A 
ATOM     78  C   UNL A   1      44.874  26.330  35.269  1.00  0.00     0.134 A 
ATOM     79  F   UNL A   1      46.257  29.396  33.897  1.00  0.00    -0.206 F 
ATOM     80  C   UNL A   1      47.210  27.828  35.362  1.00  0.00     0.040 A 
ATOM     81  C   UNL A   1      45.942  25.903  36.057  1.00  0.00     0.040 A 
ATOM     82  F   UNL A   1      43.763  25.577  35.252  1.00  0.00    -0.206 F 
ATOM     83  C   UNL A   1      47.117  26.650  36.101  1.00  0.00     0.006 A 
ENDBRANCH  59  76
ENDBRANCH  33  34
ENDBRANCH  26  28
ENDBRANCH  25  26
ENDBRANCH  24  25
ENDBRANCH  23  24
ENDBRANCH  22  23
ENDBRANCH   1  22
TORSDOF 18
ENDMDL
MODEL 3
REMARK VINA RESULT:     -10.9      3.463      8.590
REMARK SMILES C[C@H](C(=O)OCCOCCOC(=O)c1ccc(-c2c3nc(c(-c4c(F)cccc4F)c4ccc([nH]4)c(-c4c(F)cccc4F)c4nc(c(-c5c(F)cccc5F)c5ccc2[nH]5)C=C4)C=C3)cc1)c1ccc(C[C@@H]2CCC[C@H]2O)cc1
REMARK SMILES IDX 7 1 6 2 5 3 3 4 4 5 2 6 1 7 68 8 69 9 80 10 70 11 79 12
REMARK SMILES IDX 71 13 72 14 73 15 74 16 77 17 75 18 76 19 78 20 8 22 9 23
REMARK SMILES IDX 10 24 11 25 12 26 13 27 14 28 15 29 67 30 16 31 66 32 17 33
REMARK SMILES IDX 18 34 19 35 60 36 20 37 65 38 59 39 61 40 21 41 64 42 58 43
REMARK SMILES IDX 57 44 22 46 48 47 31 48 47 49 32 50 35 51 46 52 62 53 33 54
REMARK SMILES IDX 34 55 45 57 63 58 36 59 23 60 24 61 29 62 25 63 26 64 28 65
REMARK SMILES IDX 30 66 27 67 49 68 50 69 55 70 51 71 52 72 54 73 56 74 53 75
REMARK SMILES IDX 37 76 38 77 43 78 39 79 40 80 42 81 44 82 41 83
REMARK H PARENT 78 21 61 45 35 56
REMARK Flexibility Score: inf
ROOT
ATOM      1  C   UNL A   1      41.878  19.501  26.097  1.00  0.00     0.202 C 
ENDROOT
BRANCH   1   2
ATOM      2  C   UNL A   1      40.926  20.629  26.507  1.00  0.00     0.261 C 
BRANCH   2   3
ATOM      3  O   UNL A   1      39.562  20.386  26.114  1.00  0.00    -0.463 OA
BRANCH   3   4
ATOM      4  C   UNL A   1      38.848  21.497  25.767  1.00  0.00     0.313 C 
ATOM      5  O   UNL A   1      39.035  22.609  26.248  1.00  0.00    -0.252 OA
BRANCH   4   6
ATOM      6  C   UNL A   1      37.732  21.189  24.772  1.00  0.00     0.126 C 
ATOM      7  C   UNL A   1      37.251  19.746  24.999  1.00  0.00     0.025 C 
BRANCH   6   8
ATOM      8  C   UNL A   1      36.555  22.162  24.772  1.00  0.00    -0.034 A 
ATOM      9  C   UNL A   1      35.441  21.986  25.606  1.00  0.00     0.005 A 
ATOM     10  C   UNL A   1      36.541  23.241  23.877  1.00  0.00     0.005 A 
ATOM     11  C   UNL A   1      34.327  22.825  25.508  1.00  0.00     0.004 A 
ATOM     12  C   UNL A   1      35.413  24.064  23.761  1.00  0.00     0.004 A 
ATOM     13  C   UNL A   1      34.277  23.840  24.549  1.00  0.00    -0.048 A 
BRANCH  13  14
ATOM     14  C   UNL A   1      33.027  24.662  24.347  1.00  0.00     0.041 C 
BRANCH  14  15
ATOM     15  C   UNL A   1      33.128  25.943  23.484  1.00  0.00     0.022 C 
ATOM     16  C   UNL A   1      32.133  27.052  23.854  1.00  0.00     0.007 C 
ATOM     17  C   UNL A   1      32.898  25.741  21.983  1.00  0.00     0.117 C 
ATOM     18  C   UNL A   1      30.996  26.991  22.835  1.00  0.00     0.003 C 
ATOM     19  C   UNL A   1      31.411  25.988  21.759  1.00  0.00     0.032 C 
BRANCH  17  20
ATOM     20  O   UNL A   1      33.648  26.714  21.249  1.00  0.00    -0.393 OA
ATOM     21  H   UNL A   1      33.870  26.359  20.375  1.00  0.00     0.210 HD
ENDBRANCH  17  20
ENDBRANCH  14  15
ENDBRANCH  13  14
ENDBRANCH   6   8
ENDBRANCH   4   6
ENDBRANCH   3   4
ENDBRANCH   2   3
ENDBRANCH   1   2
BRANCH   1  22
ATOM     22  O   UNL A   1      42.934  19.840  25.200  1.00  0.00    -0.374 OA
BRANCH  22  23
ATOM     23  C   UNL A   1      43.853  20.841  25.637  1.00  0.00     0.202 C 
BRANCH  23  24
ATOM     24  C   UNL A   1      44.164  21.966  24.645  1.00  0.00     0.261 C 
BRANCH  24  25
ATOM     25  O   UNL A   1      43.327  23.117  24.867  1.00  0.00    -0.460 OA
BRANCH  25  26
ATOM     26  C   UNL A   1      43.996  24.264  25.114  1.00  0.00     0.338 C 
ATOM     27  O   UNL A   1      45.046  24.638  24.606  1.00  0.00    -0.246 OA
BRANCH  26  28
ATOM     28  C   UNL A   1      43.193  25.145  25.981  1.00  0.00     0.060 A 
ATOM     29  C   UNL A   1      43.649  26.457  26.157  1.00  0.00     0.016 A 
ATOM     30  C   UNL A   1      42.072  24.683  26.673  1.00  0.00     0.016 A 
ATOM     31  C   UNL A   1      43.026  27.295  27.078  1.00  0.00     0.010 A 
ATOM     32  C   UNL A   1      41.452  25.523  27.607  1.00  0.00     0.010 A 
ATOM     33  C   UNL A   1      41.955  26.816  27.843  1.00  0.00    -0.014 A 
BRANCH  33  34
ATOM     34  C   UNL A   1      41.483  27.615  28.998  1.00  0.00     0.031 A 
ATOM     35  C   UNL A   1      42.224  27.510  30.305  1.00  0.00     0.074 A 
ATOM     36  C   UNL A   1      40.450  28.465  28.875  1.00  0.00     0.049 A 
ATOM     37  N   UNL A   1      42.000  28.123  31.438  1.00  0.00    -0.248 NA
ATOM     38  C   UNL A   1      43.374  26.591  30.334  1.00  0.00     0.031 C 
ATOM     39  C   UNL A   1      39.682  28.688  27.653  1.00  0.00     0.029 A 
ATOM     40  N   UNL A   1      39.872  29.303  29.796  1.00  0.00    -0.354 N 
ATOM     41  C   UNL A   1      42.975  27.663  32.314  1.00  0.00     0.074 A 
ATOM     42  C   UNL A   1      43.776  26.699  31.591  1.00  0.00     0.031 C 
ATOM     43  C   UNL A   1      38.727  29.603  27.900  1.00  0.00     0.029 A 
ATOM     44  C   UNL A   1      38.804  30.010  29.302  1.00  0.00     0.049 A 
ATOM     45  H   UNL A   1      40.193  29.388  30.722  1.00  0.00     0.167 HD
ATOM     46  C   UNL A   1      43.190  28.019  33.604  1.00  0.00     0.037 A 
ATOM     47  C   UNL A   1      37.976  30.875  29.918  1.00  0.00     0.037 A 
ATOM     48  C   UNL A   1      42.399  28.983  34.321  1.00  0.00     0.049 A 
ATOM     49  C   UNL A   1      38.195  31.204  31.370  1.00  0.00     0.074 A 
ATOM     50  C   UNL A   1      42.554  29.427  35.622  1.00  0.00     0.029 A 
ATOM     51  N   UNL A   1      41.299  29.645  33.799  1.00  0.00    -0.354 N 
ATOM     52  N   UNL A   1      39.137  30.784  32.181  1.00  0.00    -0.248 NA
ATOM     53  C   UNL A   1      37.237  32.129  31.993  1.00  0.00     0.031 C 
ATOM     54  C   UNL A   1      41.520  30.328  35.901  1.00  0.00     0.029 A 
ATOM     55  C   UNL A   1      40.748  30.476  34.759  1.00  0.00     0.049 A 
ATOM     56  H   UNL A   1      40.960  29.539  32.881  1.00  0.00     0.167 HD
ATOM     57  C   UNL A   1      38.900  31.412  33.397  1.00  0.00     0.074 A 
ATOM     58  C   UNL A   1      37.733  32.250  33.216  1.00  0.00     0.031 C 
ATOM     59  C   UNL A   1      39.590  31.307  34.560  1.00  0.00     0.037 A 
BRANCH  46  60
ATOM     60  C   UNL A   1      44.316  27.343  34.327  1.00  0.00     0.057 A 
ATOM     61  C   UNL A   1      44.153  26.104  34.958  1.00  0.00     0.134 A 
ATOM     62  C   UNL A   1      45.590  27.926  34.364  1.00  0.00     0.134 A 
ATOM     63  F   UNL A   1      42.955  25.500  34.970  1.00  0.00    -0.206 F 
ATOM     64  C   UNL A   1      45.211  25.476  35.618  1.00  0.00     0.040 A 
ATOM     65  C   UNL A   1      46.660  27.298  35.001  1.00  0.00     0.040 A 
ATOM     66  F   UNL A   1      45.813  29.111  33.776  1.00  0.00    -0.206 F 
ATOM     67  C   UNL A   1      46.472  26.071  35.635  1.00  0.00     0.006 A 
ENDBRANCH  46  60
BRANCH  47  68
ATOM     68  C   UNL A   1      36.853  31.490  29.168  1.00  0.00     0.057 A 
ATOM     69  C   UNL A   1      35.700  30.761  28.860  1.00  0.00     0.134 A 
ATOM     70  C   UNL A   1      36.917  32.816  28.721  1.00  0.00     0.134 A 
ATOM     71  F   UNL A   1      35.591  29.479  29.240  1.00  0.00    -0.206 F 
ATOM     72  C   UNL A   1      34.655  31.322  28.123  1.00  0.00     0.040 A 
ATOM     73  C   UNL A   1      35.871  33.396  28.003  1.00  0.00     0.040 A 
ATOM     74  F   UNL A   1      37.997  33.567  28.983  1.00  0.00    -0.206 F 
ATOM     75  C   UNL A   1      34.738  32.645  27.696  1.00  0.00     0.006 A 
ENDBRANCH  47  68
BRANCH  59  76
ATOM     76  C   UNL A   1      39.121  32.141  35.715  1.00  0.00     0.057 A 
ATOM     77  C   UNL A   1      39.528  33.471  35.879  1.00  0.00     0.134 A 
ATOM     78  C   UNL A   1      38.217  31.620  36.651  1.00  0.00     0.134 A 
ATOM     79  F   UNL A   1      40.400  34.024  35.024  1.00  0.00    -0.206 F 
ATOM     80  C   UNL A   1      39.068  34.248  36.944  1.00  0.00     0.040 A 
ATOM     81  C   UNL A   1      37.733  32.393  37.705  1.00  0.00     0.040 A 
ATOM     82  F   UNL A   1      37.781  30.355  36.546  1.00  0.00    -0.206 F 
ATOM     83  C   UNL A   1      38.161  33.710  37.857  1.00  0.00     0.006 A 
ENDBRANCH  59  76
ENDBRANCH  33  34
ENDBRANCH  26  28
ENDBRANCH  25  26
ENDBRANCH  24  25
ENDBRANCH  23  24
ENDBRANCH  22  23
ENDBRANCH   1  22
TORSDOF 18
ENDMDL
