MODEL 1
REMARK VINA RESULT:      -9.1      0.000      0.000
REMARK SMILES CC[C@@](C)(NC(=O)N(C)CCO)C(=O)OCCOCCOC(=O)c1ccc(-c2c3nc(c(-c4c(F)cccc4F)c4ccc([nH]4)c(-c4c(F)cccc4F)c4nc(c(-c5c(F)cccc5F)c5ccc2[nH]5)C=C4)C=C3)cc1
REMARK SMILES IDX 16 1 15 2 13 3 14 4 3 5 4 6 2 7 1 8 5 9 6 10 7 12 8 13 9 14
REMARK SMILES IDX 10 15 11 16 12 17 17 19 18 20 19 21 20 22 21 23 22 24 23 25
REMARK SMILES IDX 24 26 25 27 77 28 26 29 76 30 27 31 28 32 29 33 70 34 30 35
REMARK SMILES IDX 75 36 69 37 71 38 31 39 74 40 68 41 67 42 32 44 58 45 41 46
REMARK SMILES IDX 57 47 42 48 45 49 56 50 72 51 43 52 44 53 55 55 73 56 46 57
REMARK SMILES IDX 33 58 34 59 39 60 35 61 36 62 38 63 40 64 37 65 59 66 60 67
REMARK SMILES IDX 65 68 61 69 62 70 64 71 66 72 63 73 47 74 48 75 53 76 49 77
REMARK SMILES IDX 50 78 52 79 54 80 51 81
REMARK H PARENT 5 11 12 18 71 43 45 54
REMARK Flexibility Score: inf
ROOT
ATOM      1  C   UNL A   1      46.909  19.550  40.186  1.00  0.00     0.261 C 
ENDROOT
BRANCH   1   2
ATOM      2  O   UNL A   1      47.274  18.502  41.106  1.00  0.00    -0.462 OA
BRANCH   2   3
ATOM      3  C   UNL A   1      46.597  18.488  42.278  1.00  0.00     0.331 C 
ATOM      4  O   UNL A   1      46.775  19.336  43.148  1.00  0.00    -0.249 OA
BRANCH   3   5
ATOM      5  C   UNL A   1      45.662  17.248  42.472  1.00  0.00     0.136 C 
ATOM      6  C   UNL A   1      46.285  16.199  41.519  1.00  0.00     0.047 C 
BRANCH   5   7
ATOM      7  C   UNL A   1      45.752  16.783  43.956  1.00  0.00     0.037 C 
ATOM      8  C   UNL A   1      44.625  17.233  44.889  1.00  0.00     0.007 C 
ENDBRANCH   5   7
BRANCH   5   9
ATOM      9  N   UNL A   1      44.213  17.274  42.039  1.00  0.00    -0.322 N 
ATOM     10  C   UNL A   1      43.610  16.711  40.955  1.00  0.00     0.318 C 
ATOM     11  H   UNL A   1      43.612  17.778  42.633  1.00  0.00     0.166 HD
ATOM     12  O   UNL A   1      43.646  17.296  39.875  1.00  0.00    -0.249 OA
BRANCH  10  13
ATOM     13  N   UNL A   1      42.742  15.668  41.221  1.00  0.00    -0.326 N 
ATOM     14  C   UNL A   1      42.278  15.372  42.561  1.00  0.00     0.148 C 
BRANCH  13  15
ATOM     15  C   UNL A   1      42.356  14.729  40.155  1.00  0.00     0.149 C 
BRANCH  15  16
ATOM     16  C   UNL A   1      41.819  13.403  40.716  1.00  0.00     0.177 C 
BRANCH  16  17
ATOM     17  O   UNL A   1      41.026  12.723  39.749  1.00  0.00    -0.395 OA
ATOM     18  H   UNL A   1      41.572  12.070  39.285  1.00  0.00     0.210 HD
ENDBRANCH  16  17
ENDBRANCH  15  16
ENDBRANCH  13  15
ENDBRANCH  10  13
ENDBRANCH   5   9
ENDBRANCH   3   5
ENDBRANCH   2   3
ENDBRANCH   1   2
BRANCH   1  19
ATOM     19  C   UNL A   1      46.602  18.986  38.796  1.00  0.00     0.202 C 
BRANCH  19  20
ATOM     20  O   UNL A   1      45.880  19.858  37.930  1.00  0.00    -0.374 OA
BRANCH  20  21
ATOM     21  C   UNL A   1      46.407  21.173  37.743  1.00  0.00     0.202 C 
BRANCH  21  22
ATOM     22  C   UNL A   1      46.252  21.764  36.333  1.00  0.00     0.261 C 
BRANCH  22  23
ATOM     23  O   UNL A   1      45.530  23.013  36.327  1.00  0.00    -0.460 OA
BRANCH  23  24
ATOM     24  C   UNL A   1      46.267  24.138  36.157  1.00  0.00     0.338 C 
ATOM     25  O   UNL A   1      47.465  24.256  36.306  1.00  0.00    -0.246 OA
BRANCH  24  26
ATOM     26  C   UNL A   1      45.416  25.206  35.569  1.00  0.00     0.060 A 
ATOM     27  C   UNL A   1      44.040  24.977  35.503  1.00  0.00     0.016 A 
ATOM     28  C   UNL A   1      45.941  26.396  35.059  1.00  0.00     0.016 A 
ATOM     29  C   UNL A   1      43.204  25.905  34.875  1.00  0.00     0.010 A 
ATOM     30  C   UNL A   1      45.090  27.355  34.486  1.00  0.00     0.010 A 
ATOM     31  C   UNL A   1      43.718  27.096  34.334  1.00  0.00    -0.014 A 
BRANCH  31  32
ATOM     32  C   UNL A   1      42.821  27.983  33.529  1.00  0.00     0.031 A 
ATOM     33  C   UNL A   1      42.644  27.753  32.043  1.00  0.00     0.074 A 
ATOM     34  C   UNL A   1      42.096  28.950  34.130  1.00  0.00     0.049 A 
ATOM     35  N   UNL A   1      41.794  28.310  31.212  1.00  0.00    -0.248 NA
ATOM     36  C   UNL A   1      43.546  26.784  31.401  1.00  0.00     0.031 C 
ATOM     37  C   UNL A   1      42.202  29.332  35.539  1.00  0.00     0.029 A 
ATOM     38  N   UNL A   1      41.112  29.774  33.637  1.00  0.00    -0.354 N 
ATOM     39  C   UNL A   1      42.055  27.752  29.964  1.00  0.00     0.074 A 
ATOM     40  C   UNL A   1      43.190  26.872  30.129  1.00  0.00     0.031 C 
ATOM     41  C   UNL A   1      41.292  30.286  35.805  1.00  0.00     0.029 A 
ATOM     42  C   UNL A   1      40.549  30.596  34.586  1.00  0.00     0.049 A 
ATOM     43  H   UNL A   1      40.835  29.776  32.692  1.00  0.00     0.167 HD
ATOM     44  C   UNL A   1      41.394  27.922  28.793  1.00  0.00     0.037 A 
ATOM     45  C   UNL A   1      39.541  31.487  34.493  1.00  0.00     0.037 A 
ATOM     46  C   UNL A   1      40.257  28.789  28.618  1.00  0.00     0.049 A 
ATOM     47  C   UNL A   1      38.816  31.653  33.182  1.00  0.00     0.074 A 
ATOM     48  C   UNL A   1      39.494  28.993  27.480  1.00  0.00     0.029 A 
ATOM     49  N   UNL A   1      39.723  29.601  29.605  1.00  0.00    -0.354 N 
ATOM     50  N   UNL A   1      39.017  31.043  32.039  1.00  0.00    -0.248 NA
ATOM     51  C   UNL A   1      37.708  32.619  33.156  1.00  0.00     0.031 C 
ATOM     52  C   UNL A   1      38.529  29.963  27.766  1.00  0.00     0.029 A 
ATOM     53  C   UNL A   1      38.653  30.321  29.098  1.00  0.00     0.049 A 
ATOM     54  H   UNL A   1      40.054  29.658  30.531  1.00  0.00     0.167 HD
ATOM     55  C   UNL A   1      38.051  31.533  31.169  1.00  0.00     0.074 A 
ATOM     56  C   UNL A   1      37.240  32.464  31.926  1.00  0.00     0.031 C 
ATOM     57  C   UNL A   1      37.854  31.248  29.858  1.00  0.00     0.037 A 
BRANCH  44  58
ATOM     58  C   UNL A   1      41.866  27.133  27.601  1.00  0.00     0.057 A 
ATOM     59  C   UNL A   1      41.379  25.846  27.331  1.00  0.00     0.134 A 
ATOM     60  C   UNL A   1      42.764  27.685  26.679  1.00  0.00     0.134 A 
ATOM     61  F   UNL A   1      40.523  25.252  28.177  1.00  0.00    -0.206 F 
ATOM     62  C   UNL A   1      41.782  25.131  26.202  1.00  0.00     0.040 A 
ATOM     63  C   UNL A   1      43.151  26.993  25.530  1.00  0.00     0.040 A 
ATOM     64  F   UNL A   1      43.263  28.916  26.866  1.00  0.00    -0.206 F 
ATOM     65  C   UNL A   1      42.664  25.709  25.292  1.00  0.00     0.006 A 
ENDBRANCH  44  58
BRANCH  45  66
ATOM     66  C   UNL A   1      39.133  32.287  35.681  1.00  0.00     0.057 A 
ATOM     67  C   UNL A   1      39.628  33.579  35.900  1.00  0.00     0.134 A 
ATOM     68  C   UNL A   1      38.272  31.759  36.650  1.00  0.00     0.134 A 
ATOM     69  F   UNL A   1      40.475  34.136  35.023  1.00  0.00    -0.206 F 
ATOM     70  C   UNL A   1      39.307  34.302  37.051  1.00  0.00     0.040 A 
ATOM     71  C   UNL A   1      37.915  32.483  37.789  1.00  0.00     0.040 A 
ATOM     72  F   UNL A   1      37.756  30.529  36.500  1.00  0.00    -0.206 F 
ATOM     73  C   UNL A   1      38.445  33.755  37.998  1.00  0.00     0.006 A 
ENDBRANCH  45  66
BRANCH  57  74
ATOM     74  C   UNL A   1      36.705  31.931  29.171  1.00  0.00     0.057 A 
ATOM     75  C   UNL A   1      36.757  33.282  28.804  1.00  0.00     0.134 A 
ATOM     76  C   UNL A   1      35.532  31.227  28.868  1.00  0.00     0.134 A 
ATOM     77  F   UNL A   1      37.848  34.018  29.073  1.00  0.00    -0.206 F 
ATOM     78  C   UNL A   1      35.670  33.920  28.203  1.00  0.00     0.040 A 
ATOM     79  C   UNL A   1      34.451  31.845  28.236  1.00  0.00     0.040 A 
ATOM     80  F   UNL A   1      35.418  29.927  29.175  1.00  0.00    -0.206 F 
ATOM     81  C   UNL A   1      34.514  33.199  27.914  1.00  0.00     0.006 A 
ENDBRANCH  57  74
ENDBRANCH  31  32
ENDBRANCH  24  26
ENDBRANCH  23  24
ENDBRANCH  22  23
ENDBRANCH  21  22
ENDBRANCH  20  21
ENDBRANCH  19  20
ENDBRANCH   1  19
TORSDOF 20
ENDMDL
MODEL 2
REMARK VINA RESULT:      -9.1      7.337     14.472
REMARK SMILES CC[C@@](C)(NC(=O)N(C)CCO)C(=O)OCCOCCOC(=O)c1ccc(-c2c3nc(c(-c4c(F)cccc4F)c4ccc([nH]4)c(-c4c(F)cccc4F)c4nc(c(-c5c(F)cccc5F)c5ccc2[nH]5)C=C4)C=C3)cc1
REMARK SMILES IDX 16 1 15 2 13 3 14 4 3 5 4 6 2 7 1 8 5 9 6 10 7 12 8 13 9 14
REMARK SMILES IDX 10 15 11 16 12 17 17 19 18 20 19 21 20 22 21 23 22 24 23 25
REMARK SMILES IDX 24 26 25 27 77 28 26 29 76 30 27 31 28 32 29 33 70 34 30 35
REMARK SMILES IDX 75 36 69 37 71 38 31 39 74 40 68 41 67 42 32 44 58 45 41 46
REMARK SMILES IDX 57 47 42 48 45 49 56 50 72 51 43 52 44 53 55 55 73 56 46 57
REMARK SMILES IDX 33 58 34 59 39 60 35 61 36 62 38 63 40 64 37 65 59 66 60 67
REMARK SMILES IDX 65 68 61 69 62 70 64 71 66 72 63 73 47 74 48 75 53 76 49 77
REMARK SMILES IDX 50 78 52 79 54 80 51 81
REMARK H PARENT 5 11 12 18 71 43 45 54
REMARK Flexibility Score: inf
ROOT
ATOM      1  C   UNL A   1      32.894  26.820  23.014  1.00  0.00     0.261 C 
ENDROOT
BRANCH   1   2
ATOM      2  O   UNL A   1      33.121  25.788  23.994  1.00  0.00    -0.462 OA
BRANCH   2   3
ATOM      3  C   UNL A   1      33.461  24.575  23.500  1.00  0.00     0.331 C 
ATOM      4  O   UNL A   1      33.822  24.418  22.337  1.00  0.00    -0.249 OA
BRANCH   3   5
ATOM      5  C   UNL A   1      33.247  23.386  24.496  1.00  0.00     0.136 C 
ATOM      6  C   UNL A   1      33.770  23.965  25.834  1.00  0.00     0.047 C 
BRANCH   5   7
ATOM      7  C   UNL A   1      31.724  23.070  24.577  1.00  0.00     0.037 C 
ATOM      8  C   UNL A   1      30.848  23.607  23.442  1.00  0.00     0.007 C 
ENDBRANCH   5   7
BRANCH   5   9
ATOM      9  N   UNL A   1      34.024  22.095  24.366  1.00  0.00    -0.322 N 
ATOM     10  C   UNL A   1      33.876  20.909  25.020  1.00  0.00     0.318 C 
ATOM     11  H   UNL A   1      34.752  22.116  23.703  1.00  0.00     0.166 HD
ATOM     12  O   UNL A   1      34.382  20.768  26.130  1.00  0.00    -0.249 OA
BRANCH  10  13
ATOM     13  N   UNL A   1      33.422  19.851  24.256  1.00  0.00    -0.326 N 
ATOM     14  C   UNL A   1      32.302  19.979  23.345  1.00  0.00     0.148 C 
BRANCH  13  15
ATOM     15  C   UNL A   1      33.987  18.503  24.439  1.00  0.00     0.149 C 
BRANCH  15  16
ATOM     16  C   UNL A   1      33.121  17.632  25.363  1.00  0.00     0.177 C 
BRANCH  16  17
ATOM     17  O   UNL A   1      32.514  18.416  26.383  1.00  0.00    -0.395 OA
ATOM     18  H   UNL A   1      31.855  19.007  25.987  1.00  0.00     0.210 HD
ENDBRANCH  16  17
ENDBRANCH  15  16
ENDBRANCH  13  15
ENDBRANCH  10  13
ENDBRANCH   5   9
ENDBRANCH   3   5
ENDBRANCH   2   3
ENDBRANCH   1   2
BRANCH   1  19
ATOM     19  C   UNL A   1      33.544  28.141  23.438  1.00  0.00     0.202 C 
BRANCH  19  20
ATOM     20  O   UNL A   1      32.652  29.243  23.576  1.00  0.00    -0.374 OA
BRANCH  20  21
ATOM     21  C   UNL A   1      31.656  29.152  24.597  1.00  0.00     0.202 C 
BRANCH  21  22
ATOM     22  C   UNL A   1      31.844  30.086  25.803  1.00  0.00     0.261 C 
BRANCH  22  23
ATOM     23  O   UNL A   1      33.229  30.250  26.172  1.00  0.00    -0.460 OA
BRANCH  23  24
ATOM     24  C   UNL A   1      33.505  31.224  27.073  1.00  0.00     0.338 C 
ATOM     25  O   UNL A   1      32.743  32.074  27.487  1.00  0.00    -0.246 OA
BRANCH  24  26
ATOM     26  C   UNL A   1      34.860  31.005  27.644  1.00  0.00     0.060 A 
ATOM     27  C   UNL A   1      35.235  29.693  27.938  1.00  0.00     0.016 A 
ATOM     28  C   UNL A   1      35.741  32.053  27.922  1.00  0.00     0.016 A 
ATOM     29  C   UNL A   1      36.459  29.438  28.564  1.00  0.00     0.010 A 
ATOM     30  C   UNL A   1      36.996  31.787  28.493  1.00  0.00     0.010 A 
ATOM     31  C   UNL A   1      37.348  30.482  28.875  1.00  0.00    -0.014 A 
BRANCH  31  32
ATOM     32  C   UNL A   1      38.569  30.188  29.689  1.00  0.00     0.031 A 
ATOM     33  C   UNL A   1      38.701  30.723  31.099  1.00  0.00     0.074 A 
ATOM     34  C   UNL A   1      39.533  29.376  29.206  1.00  0.00     0.049 A 
ATOM     35  N   UNL A   1      39.603  30.447  32.011  1.00  0.00    -0.248 NA
ATOM     36  C   UNL A   1      37.701  31.709  31.539  1.00  0.00     0.031 C 
ATOM     37  C   UNL A   1      39.579  28.833  27.849  1.00  0.00     0.029 A 
ATOM     38  N   UNL A   1      40.650  28.850  29.811  1.00  0.00    -0.354 N 
ATOM     39  C   UNL A   1      39.270  31.212  33.125  1.00  0.00     0.074 A 
ATOM     40  C   UNL A   1      38.133  32.021  32.752  1.00  0.00     0.031 C 
ATOM     41  C   UNL A   1      40.644  28.020  27.736  1.00  0.00     0.029 A 
ATOM     42  C   UNL A   1      41.367  27.995  29.005  1.00  0.00     0.049 A 
ATOM     43  H   UNL A   1      40.914  29.064  30.736  1.00  0.00     0.167 HD
ATOM     44  C   UNL A   1      39.831  31.219  34.360  1.00  0.00     0.037 A 
ATOM     45  C   UNL A   1      42.471  27.262  29.259  1.00  0.00     0.037 A 
ATOM     46  C   UNL A   1      40.959  30.412  34.746  1.00  0.00     0.049 A 
ATOM     47  C   UNL A   1      43.072  27.282  30.641  1.00  0.00     0.074 A 
ATOM     48  C   UNL A   1      41.569  30.318  35.986  1.00  0.00     0.029 A 
ATOM     49  N   UNL A   1      41.651  29.562  33.898  1.00  0.00    -0.354 N 
ATOM     50  N   UNL A   1      42.682  27.938  31.707  1.00  0.00    -0.248 NA
ATOM     51  C   UNL A   1      44.256  26.438  30.860  1.00  0.00     0.031 C 
ATOM     52  C   UNL A   1      42.659  29.449  35.876  1.00  0.00     0.029 A 
ATOM     53  C   UNL A   1      42.693  28.956  34.582  1.00  0.00     0.049 A 
ATOM     54  H   UNL A   1      41.435  29.412  32.949  1.00  0.00     0.167 HD
ATOM     55  C   UNL A   1      43.556  27.571  32.723  1.00  0.00     0.074 A 
ATOM     56  C   UNL A   1      44.474  26.606  32.156  1.00  0.00     0.031 C 
ATOM     57  C   UNL A   1      43.604  27.999  34.009  1.00  0.00     0.037 A 
BRANCH  44  58
ATOM     58  C   UNL A   1      39.218  32.115  35.401  1.00  0.00     0.057 A 
ATOM     59  C   UNL A   1      38.307  31.625  36.349  1.00  0.00     0.134 A 
ATOM     60  C   UNL A   1      39.587  33.463  35.504  1.00  0.00     0.134 A 
ATOM     61  F   UNL A   1      37.903  30.347  36.305  1.00  0.00    -0.206 F 
ATOM     62  C   UNL A   1      37.772  32.445  37.345  1.00  0.00     0.040 A 
ATOM     63  C   UNL A   1      39.082  34.285  36.513  1.00  0.00     0.040 A 
ATOM     64  F   UNL A   1      40.461  33.997  34.639  1.00  0.00    -0.206 F 
ATOM     65  C   UNL A   1      38.167  33.778  37.434  1.00  0.00     0.006 A 
ENDBRANCH  44  58
BRANCH  45  66
ATOM     66  C   UNL A   1      43.080  26.425  28.189  1.00  0.00     0.057 A 
ATOM     67  C   UNL A   1      42.686  25.096  27.984  1.00  0.00     0.134 A 
ATOM     68  C   UNL A   1      44.103  26.921  27.374  1.00  0.00     0.134 A 
ATOM     69  F   UNL A   1      41.726  24.551  28.746  1.00  0.00    -0.206 F 
ATOM     70  C   UNL A   1      43.307  24.285  27.032  1.00  0.00     0.040 A 
ATOM     71  C   UNL A   1      44.711  26.133  26.395  1.00  0.00     0.040 A 
ATOM     72  F   UNL A   1      44.525  28.188  27.512  1.00  0.00    -0.206 F 
ATOM     73  C   UNL A   1      44.321  24.805  26.231  1.00  0.00     0.006 A 
ENDBRANCH  45  66
BRANCH  57  74
ATOM     74  C   UNL A   1      44.666  27.407  34.891  1.00  0.00     0.057 A 
ATOM     75  C   UNL A   1      45.926  28.002  35.037  1.00  0.00     0.134 A 
ATOM     76  C   UNL A   1      44.425  26.228  35.609  1.00  0.00     0.134 A 
ATOM     77  F   UNL A   1      46.227  29.128  34.372  1.00  0.00    -0.206 F 
ATOM     78  C   UNL A   1      46.922  27.423  35.827  1.00  0.00     0.040 A 
ATOM     79  C   UNL A   1      45.401  25.657  36.429  1.00  0.00     0.040 A 
ATOM     80  F   UNL A   1      43.236  25.612  35.530  1.00  0.00    -0.206 F 
ATOM     81  C   UNL A   1      46.658  26.249  36.529  1.00  0.00     0.006 A 
ENDBRANCH  57  74
ENDBRANCH  31  32
ENDBRANCH  24  26
ENDBRANCH  23  24
ENDBRANCH  22  23
ENDBRANCH  21  22
ENDBRANCH  20  21
ENDBRANCH  19  20
ENDBRANCH   1  19
TORSDOF 20
ENDMDL
MODEL 3
REMARK VINA RESULT:      -8.9      7.653     14.598
REMARK SMILES CC[C@@](C)(NC(=O)N(C)CCO)C(=O)OCCOCCOC(=O)c1ccc(-c2c3nc(c(-c4c(F)cccc4F)c4ccc([nH]4)c(-c4c(F)cccc4F)c4nc(c(-c5c(F)cccc5F)c5ccc2[nH]5)C=C4)C=C3)cc1
REMARK SMILES IDX 16 1 15 2 13 3 14 4 3 5 4 6 2 7 1 8 5 9 6 10 7 12 8 13 9 14
REMARK SMILES IDX 10 15 11 16 12 17 17 19 18 20 19 21 20 22 21 23 22 24 23 25
REMARK SMILES IDX 24 26 25 27 77 28 26 29 76 30 27 31 28 32 29 33 70 34 30 35
REMARK SMILES IDX 75 36 69 37 71 38 31 39 74 40 68 41 67 42 32 44 58 45 41 46
REMARK SMILES IDX 57 47 42 48 45 49 56 50 72 51 43 52 44 53 55 55 73 56 46 57
REMARK SMILES IDX 33 58 34 59 39 60 35 61 36 62 38 63 40 64 37 65 59 66 60 67
REMARK SMILES IDX 65 68 61 69 62 70 64 71 66 72 63 73 47 74 48 75 53 76 49 77
REMARK SMILES IDX 50 78 52 79 54 80 51 81
REMARK H PARENT 5 11 12 18 71 43 45 54
REMARK Flexibility Score: inf
ROOT
ATOM      1  C   UNL A   1      32.309  28.315  26.445  1.00  0.00     0.261 C 
ENDROOT
BRANCH   1   2
ATOM      2  O   UNL A   1      32.043  27.334  25.423  1.00  0.00    -0.462 OA
BRANCH   2   3
ATOM      3  C   UNL A   1      32.699  26.158  25.553  1.00  0.00     0.331 C 
ATOM      4  O   UNL A   1      33.900  26.101  25.805  1.00  0.00    -0.249 OA
BRANCH   3   5
ATOM      5  C   UNL A   1      31.830  24.893  25.246  1.00  0.00     0.136 C 
ATOM      6  C   UNL A   1      30.500  25.210  25.971  1.00  0.00     0.047 C 
BRANCH   5   7
ATOM      7  C   UNL A   1      31.621  24.793  23.706  1.00  0.00     0.037 C 
ATOM      8  C   UNL A   1      32.880  24.650  22.847  1.00  0.00     0.007 C 
ENDBRANCH   5   7
BRANCH   5   9
ATOM      9  N   UNL A   1      32.193  23.531  25.795  1.00  0.00    -0.322 N 
ATOM     10  C   UNL A   1      31.817  22.288  25.383  1.00  0.00     0.318 C 
ATOM     11  H   UNL A   1      32.795  23.546  26.574  1.00  0.00     0.166 HD
ATOM     12  O   UNL A   1      30.738  21.833  25.752  1.00  0.00    -0.249 OA
BRANCH  10  13
ATOM     13  N   UNL A   1      32.814  21.511  24.825  1.00  0.00    -0.326 N 
ATOM     14  C   UNL A   1      34.221  21.776  25.053  1.00  0.00     0.148 C 
BRANCH  13  15
ATOM     15  C   UNL A   1      32.481  20.448  23.861  1.00  0.00     0.149 C 
BRANCH  15  16
ATOM     16  C   UNL A   1      32.704  19.044  24.445  1.00  0.00     0.177 C 
BRANCH  16  17
ATOM     17  O   UNL A   1      32.151  18.942  25.752  1.00  0.00    -0.395 OA
ATOM     18  H   UNL A   1      31.963  18.012  25.951  1.00  0.00     0.210 HD
ENDBRANCH  16  17
ENDBRANCH  15  16
ENDBRANCH  13  15
ENDBRANCH  10  13
ENDBRANCH   5   9
ENDBRANCH   3   5
ENDBRANCH   2   3
ENDBRANCH   1   2
BRANCH   1  19
ATOM     19  C   UNL A   1      33.134  29.482  25.894  1.00  0.00     0.202 C 
BRANCH  19  20
ATOM     20  O   UNL A   1      33.062  30.689  26.646  1.00  0.00    -0.374 OA
BRANCH  20  21
ATOM     21  C   UNL A   1      31.778  31.307  26.766  1.00  0.00     0.202 C 
BRANCH  21  22
ATOM     22  C   UNL A   1      31.779  32.840  26.874  1.00  0.00     0.261 C 
BRANCH  22  23
ATOM     23  O   UNL A   1      33.097  33.382  27.099  1.00  0.00    -0.460 OA
BRANCH  23  24
ATOM     24  C   UNL A   1      33.264  34.119  28.225  1.00  0.00     0.338 C 
ATOM     25  O   UNL A   1      32.528  34.986  28.648  1.00  0.00    -0.246 OA
BRANCH  24  26
ATOM     26  C   UNL A   1      34.416  33.588  29.001  1.00  0.00     0.060 A 
ATOM     27  C   UNL A   1      35.652  34.216  28.839  1.00  0.00     0.016 A 
ATOM     28  C   UNL A   1      34.312  32.480  29.845  1.00  0.00     0.016 A 
ATOM     29  C   UNL A   1      36.789  33.701  29.470  1.00  0.00     0.010 A 
ATOM     30  C   UNL A   1      35.444  32.003  30.527  1.00  0.00     0.010 A 
ATOM     31  C   UNL A   1      36.708  32.572  30.303  1.00  0.00    -0.014 A 
BRANCH  31  32
ATOM     32  C   UNL A   1      37.967  31.955  30.827  1.00  0.00     0.031 A 
ATOM     33  C   UNL A   1      38.461  32.280  32.221  1.00  0.00     0.074 A 
ATOM     34  C   UNL A   1      38.636  31.039  30.095  1.00  0.00     0.049 A 
ATOM     35  N   UNL A   1      39.434  31.728  32.906  1.00  0.00    -0.248 NA
ATOM     36  C   UNL A   1      37.786  33.377  32.933  1.00  0.00     0.031 C 
ATOM     37  C   UNL A   1      38.321  30.666  28.716  1.00  0.00     0.029 A 
ATOM     38  N   UNL A   1      39.708  30.240  30.417  1.00  0.00    -0.354 N 
ATOM     39  C   UNL A   1      39.476  32.402  34.124  1.00  0.00     0.074 A 
ATOM     40  C   UNL A   1      38.485  33.451  34.055  1.00  0.00     0.031 C 
ATOM     41  C   UNL A   1      39.153  29.686  28.324  1.00  0.00     0.029 A 
ATOM     42  C   UNL A   1      40.072  29.370  29.415  1.00  0.00     0.049 A 
ATOM     43  H   UNL A   1      40.173  30.287  31.284  1.00  0.00     0.167 HD
ATOM     44  C   UNL A   1      40.240  32.152  35.216  1.00  0.00     0.037 A 
ATOM     45  C   UNL A   1      41.024  28.415  29.381  1.00  0.00     0.037 A 
ATOM     46  C   UNL A   1      41.224  31.104  35.300  1.00  0.00     0.049 A 
ATOM     47  C   UNL A   1      41.855  28.152  30.610  1.00  0.00     0.074 A 
ATOM     48  C   UNL A   1      42.014  30.746  36.380  1.00  0.00     0.029 A 
ATOM     49  N   UNL A   1      41.557  30.248  34.263  1.00  0.00    -0.354 N 
ATOM     50  N   UNL A   1      41.811  28.736  31.783  1.00  0.00    -0.248 NA
ATOM     51  C   UNL A   1      42.855  27.078  30.516  1.00  0.00     0.031 C 
ATOM     52  C   UNL A   1      42.859  29.706  35.981  1.00  0.00     0.029 A 
ATOM     53  C   UNL A   1      42.555  29.377  34.671  1.00  0.00     0.049 A 
ATOM     54  H   UNL A   1      41.146  30.258  33.368  1.00  0.00     0.167 HD
ATOM     55  C   UNL A   1      42.758  28.089  32.568  1.00  0.00     0.074 A 
ATOM     56  C   UNL A   1      43.334  27.043  31.750  1.00  0.00     0.031 C 
ATOM     57  C   UNL A   1      43.125  28.341  33.849  1.00  0.00     0.037 A 
BRANCH  44  58
ATOM     58  C   UNL A   1      40.026  33.015  36.431  1.00  0.00     0.057 A 
ATOM     59  C   UNL A   1      40.764  34.190  36.637  1.00  0.00     0.134 A 
ATOM     60  C   UNL A   1      39.033  32.709  37.370  1.00  0.00     0.134 A 
ATOM     61  F   UNL A   1      41.738  34.540  35.782  1.00  0.00    -0.206 F 
ATOM     62  C   UNL A   1      40.536  35.016  37.739  1.00  0.00     0.040 A 
ATOM     63  C   UNL A   1      38.775  33.543  38.460  1.00  0.00     0.040 A 
ATOM     64  F   UNL A   1      38.281  31.608  37.232  1.00  0.00    -0.206 F 
ATOM     65  C   UNL A   1      39.532  34.697  38.650  1.00  0.00     0.006 A 
ENDBRANCH  44  58
BRANCH  45  66
ATOM     66  C   UNL A   1      41.240  27.614  28.145  1.00  0.00     0.057 A 
ATOM     67  C   UNL A   1      42.083  28.061  27.118  1.00  0.00     0.134 A 
ATOM     68  C   UNL A   1      40.573  26.400  27.941  1.00  0.00     0.134 A 
ATOM     69  F   UNL A   1      42.735  29.227  27.240  1.00  0.00    -0.206 F 
ATOM     70  C   UNL A   1      42.229  27.349  25.926  1.00  0.00     0.040 A 
ATOM     71  C   UNL A   1      40.735  25.661  26.768  1.00  0.00     0.040 A 
ATOM     72  F   UNL A   1      39.756  25.910  28.885  1.00  0.00    -0.206 F 
ATOM     73  C   UNL A   1      41.556  26.142  25.750  1.00  0.00     0.006 A 
ENDBRANCH  45  66
BRANCH  57  74
ATOM     74  C   UNL A   1      44.181  27.455  34.447  1.00  0.00     0.057 A 
ATOM     75  C   UNL A   1      45.538  27.803  34.432  1.00  0.00     0.134 A 
ATOM     76  C   UNL A   1      43.836  26.239  35.052  1.00  0.00     0.134 A 
ATOM     77  F   UNL A   1      45.939  28.950  33.861  1.00  0.00    -0.206 F 
ATOM     78  C   UNL A   1      46.518  26.955  34.953  1.00  0.00     0.040 A 
ATOM     79  C   UNL A   1      44.803  25.398  35.608  1.00  0.00     0.040 A 
ATOM     80  F   UNL A   1      42.555  25.849  35.118  1.00  0.00    -0.206 F 
ATOM     81  C   UNL A   1      46.149  25.750  35.547  1.00  0.00     0.006 A 
ENDBRANCH  57  74
ENDBRANCH  31  32
ENDBRANCH  24  26
ENDBRANCH  23  24
ENDBRANCH  22  23
ENDBRANCH  21  22
ENDBRANCH  20  21
ENDBRANCH  19  20
ENDBRANCH   1  19
TORSDOF 20
ENDMDL
