MODEL 1
REMARK VINA RESULT:     -13.2      0.000      0.000
REMARK SMILES Cc1ccc([C@H]2NC(=O)N(C)C3=C2C(=O)N(c2cccc(C(=O)OCCOCCOC(=O)c4ccc(-c5c6nc(c(-c7c(F)cccc7F)c7ccc([nH]7)c(-c7c(F)cccc7F)c7nc(c(-c8c(F)cccc8F)c8ccc5[nH]8)C=C7)C=C6)cc4)c2)C3)cc1
REMARK SMILES IDX 27 1 26 2 25 3 24 4 22 5 23 6 21 7 17 8 18 9 87 10 19 11
REMARK SMILES IDX 20 12 16 13 6 14 7 15 13 16 8 17 12 19 14 20 9 21 10 22
REMARK SMILES IDX 88 23 15 24 11 25 5 26 1 27 2 28 3 29 90 30 4 31 89 32 28 33
REMARK SMILES IDX 29 34 30 35 31 36 32 37 33 38 34 39 86 40 35 41 85 42 36 43
REMARK SMILES IDX 37 44 38 45 79 46 39 47 84 48 78 49 80 50 40 51 83 52 77 53
REMARK SMILES IDX 76 54 41 56 67 57 50 58 66 59 51 60 54 61 65 62 81 63 52 64
REMARK SMILES IDX 53 65 64 67 82 68 55 69 42 70 43 71 48 72 44 73 45 74 47 75
REMARK SMILES IDX 49 76 46 77 68 78 69 79 74 80 70 81 71 82 73 83 75 84 72 85
REMARK SMILES IDX 56 86 57 87 62 88 58 89 59 90 61 91 63 92 60 93
REMARK H PARENT 7 18 80 55 54 66
REMARK Flexibility Score: inf
ROOT
ATOM      1  O   UNL A   1      41.398  19.948  25.730  1.00  0.00    -0.374 OA
ENDROOT
BRANCH   1   2
ATOM      2  C   UNL A   1      40.498  20.433  26.715  1.00  0.00     0.202 C 
BRANCH   2   3
ATOM      3  C   UNL A   1      40.063  21.785  26.237  1.00  0.00     0.261 C 
BRANCH   3   4
ATOM      4  O   UNL A   1      38.794  21.708  25.579  1.00  0.00    -0.460 OA
BRANCH   4   5
ATOM      5  C   UNL A   1      37.923  22.743  25.751  1.00  0.00     0.338 C 
ATOM      6  O   UNL A   1      38.162  23.897  25.979  1.00  0.00    -0.246 OA
BRANCH   5   7
ATOM      7  C   UNL A   1      36.586  22.202  25.455  1.00  0.00     0.062 A 
ATOM      8  C   UNL A   1      34.367  22.690  24.689  1.00  0.00     0.045 A 
ATOM      9  C   UNL A   1      34.095  21.319  24.626  1.00  0.00     0.026 A 
ATOM     10  C   UNL A   1      35.613  23.133  25.113  1.00  0.00     0.042 A 
ATOM     11  C   UNL A   1      35.073  20.389  24.977  1.00  0.00     0.003 A 
ATOM     12  C   UNL A   1      36.319  20.830  25.409  1.00  0.00     0.016 A 
BRANCH   8  13
ATOM     13  N   UNL A   1      33.390  23.630  24.360  1.00  0.00    -0.303 N 
ATOM     14  C   UNL A   1      31.315  26.556  25.188  1.00  0.00     0.152 C 
ATOM     15  N   UNL A   1      30.580  27.227  24.122  1.00  0.00    -0.327 N 
ATOM     16  C   UNL A   1      31.986  25.395  24.598  1.00  0.00     0.066 C 
ATOM     17  C   UNL A   1      30.805  27.110  22.776  1.00  0.00     0.322 C 
ATOM     18  H   UNL A   1      29.847  27.824  24.397  1.00  0.00     0.166 HD
ATOM     19  C   UNL A   1      32.243  25.252  23.299  1.00  0.00     0.053 C 
ATOM     20  C   UNL A   1      32.632  24.299  25.311  1.00  0.00     0.258 C 
ATOM     21  O   UNL A   1      30.200  27.847  22.000  1.00  0.00    -0.248 OA
ATOM     22  N   UNL A   1      31.700  26.118  22.377  1.00  0.00    -0.299 N 
ATOM     23  C   UNL A   1      33.211  24.159  23.028  1.00  0.00     0.180 C 
ATOM     24  O   UNL A   1      32.544  24.112  26.510  1.00  0.00    -0.269 OA
ATOM     25  C   UNL A   1      31.992  25.953  20.961  1.00  0.00     0.155 C 
BRANCH  14  26
ATOM     26  C   UNL A   1      32.252  27.550  25.880  1.00  0.00    -0.021 A 
ATOM     27  C   UNL A   1      35.038  30.294  27.759  1.00  0.00     0.044 C 
ATOM     28  C   UNL A   1      34.069  29.348  27.115  1.00  0.00    -0.051 A 
ATOM     29  C   UNL A   1      34.535  28.259  26.373  1.00  0.00     0.004 A 
ATOM     30  C   UNL A   1      32.693  29.532  27.248  1.00  0.00     0.004 A 
ATOM     31  C   UNL A   1      33.639  27.375  25.760  1.00  0.00     0.006 A 
ATOM     32  C   UNL A   1      31.797  28.641  26.646  1.00  0.00     0.006 A 
ENDBRANCH  14  26
ENDBRANCH   8  13
ENDBRANCH   5   7
ENDBRANCH   4   5
ENDBRANCH   3   4
ENDBRANCH   2   3
ENDBRANCH   1   2
BRANCH   1  33
ATOM     33  C   UNL A   1      42.330  18.982  26.171  1.00  0.00     0.202 C 
BRANCH  33  34
ATOM     34  C   UNL A   1      43.656  19.025  25.399  1.00  0.00     0.261 C 
BRANCH  34  35
ATOM     35  O   UNL A   1      43.736  20.240  24.622  1.00  0.00    -0.460 OA
BRANCH  35  36
ATOM     36  C   UNL A   1      44.620  21.182  25.058  1.00  0.00     0.338 C 
ATOM     37  O   UNL A   1      45.803  20.989  25.291  1.00  0.00    -0.246 OA
BRANCH  36  38
ATOM     38  C   UNL A   1      43.875  22.397  25.501  1.00  0.00     0.060 A 
ATOM     39  C   UNL A   1      43.764  23.513  24.645  1.00  0.00     0.016 A 
ATOM     40  C   UNL A   1      43.612  22.538  26.860  1.00  0.00     0.016 A 
ATOM     41  C   UNL A   1      43.534  24.792  25.178  1.00  0.00     0.010 A 
ATOM     42  C   UNL A   1      43.517  23.806  27.386  1.00  0.00     0.010 A 
ATOM     43  C   UNL A   1      43.482  24.943  26.563  1.00  0.00    -0.014 A 
BRANCH  43  44
ATOM     44  C   UNL A   1      43.490  26.209  27.299  1.00  0.00     0.031 A 
ATOM     45  C   UNL A   1      42.194  26.840  27.636  1.00  0.00     0.074 A 
ATOM     46  C   UNL A   1      44.616  26.676  27.888  1.00  0.00     0.049 A 
ATOM     47  N   UNL A   1      42.067  28.087  27.932  1.00  0.00    -0.248 NA
ATOM     48  C   UNL A   1      40.917  26.127  27.636  1.00  0.00     0.031 C 
ATOM     49  C   UNL A   1      44.721  27.559  29.050  1.00  0.00     0.029 A 
ATOM     50  N   UNL A   1      45.947  26.427  27.556  1.00  0.00    -0.354 N 
ATOM     51  C   UNL A   1      40.813  28.256  28.467  1.00  0.00     0.074 A 
ATOM     52  C   UNL A   1      40.103  27.037  28.172  1.00  0.00     0.031 C 
ATOM     53  C   UNL A   1      45.998  27.951  29.205  1.00  0.00     0.029 A 
ATOM     54  C   UNL A   1      46.756  27.443  28.075  1.00  0.00     0.049 A 
ATOM     55  H   UNL A   1      46.268  25.654  27.037  1.00  0.00     0.167 HD
ATOM     56  C   UNL A   1      40.563  29.342  29.252  1.00  0.00     0.037 A 
ATOM     57  C   UNL A   1      47.601  28.129  27.260  1.00  0.00     0.037 A 
ATOM     58  C   UNL A   1      41.789  30.125  29.450  1.00  0.00     0.049 A 
ATOM     59  C   UNL A   1      47.109  29.542  27.150  1.00  0.00     0.074 A 
ATOM     60  C   UNL A   1      42.690  30.178  30.502  1.00  0.00     0.029 A 
ATOM     61  N   UNL A   1      42.435  30.708  28.360  1.00  0.00    -0.354 N 
ATOM     62  N   UNL A   1      45.891  29.873  27.480  1.00  0.00    -0.248 NA
ATOM     63  C   UNL A   1      47.909  30.689  26.743  1.00  0.00     0.031 C 
ATOM     64  C   UNL A   1      43.892  30.768  30.028  1.00  0.00     0.029 A 
ATOM     65  C   UNL A   1      43.720  31.097  28.693  1.00  0.00     0.049 A 
ATOM     66  H   UNL A   1      42.030  30.826  27.470  1.00  0.00     0.167 HD
ATOM     67  C   UNL A   1      45.740  31.219  27.399  1.00  0.00     0.074 A 
ATOM     68  C   UNL A   1      47.021  31.691  26.905  1.00  0.00     0.031 C 
ATOM     69  C   UNL A   1      44.567  31.817  27.745  1.00  0.00     0.037 A 
BRANCH  56  70
ATOM     70  C   UNL A   1      39.307  29.489  30.085  1.00  0.00     0.057 A 
ATOM     71  C   UNL A   1      39.073  28.673  31.207  1.00  0.00     0.134 A 
ATOM     72  C   UNL A   1      38.277  30.414  29.823  1.00  0.00     0.134 A 
ATOM     73  F   UNL A   1      39.998  27.820  31.665  1.00  0.00    -0.206 F 
ATOM     74  C   UNL A   1      37.874  28.696  31.934  1.00  0.00     0.040 A 
ATOM     75  C   UNL A   1      37.048  30.407  30.502  1.00  0.00     0.040 A 
ATOM     76  F   UNL A   1      38.436  31.409  28.941  1.00  0.00    -0.206 F 
ATOM     77  C   UNL A   1      36.838  29.537  31.559  1.00  0.00     0.006 A 
ENDBRANCH  56  70
BRANCH  57  78
ATOM     78  C   UNL A   1      48.199  27.261  26.202  1.00  0.00     0.057 A 
ATOM     79  C   UNL A   1      47.719  27.416  24.885  1.00  0.00     0.134 A 
ATOM     80  C   UNL A   1      49.466  26.683  26.341  1.00  0.00     0.134 A 
ATOM     81  F   UNL A   1      46.536  28.013  24.664  1.00  0.00    -0.206 F 
ATOM     82  C   UNL A   1      48.494  27.093  23.762  1.00  0.00     0.040 A 
ATOM     83  C   UNL A   1      50.262  26.383  25.223  1.00  0.00     0.040 A 
ATOM     84  F   UNL A   1      50.015  26.530  27.555  1.00  0.00    -0.206 F 
ATOM     85  C   UNL A   1      49.788  26.609  23.932  1.00  0.00     0.006 A 
ENDBRANCH  57  78
BRANCH  69  86
ATOM     86  C   UNL A   1      44.153  33.181  27.284  1.00  0.00     0.057 A 
ATOM     87  C   UNL A   1      43.808  33.470  25.957  1.00  0.00     0.134 A 
ATOM     88  C   UNL A   1      43.901  34.208  28.217  1.00  0.00     0.134 A 
ATOM     89  F   UNL A   1      43.885  32.547  24.987  1.00  0.00    -0.206 F 
ATOM     90  C   UNL A   1      43.299  34.713  25.573  1.00  0.00     0.040 A 
ATOM     91  C   UNL A   1      43.330  35.427  27.855  1.00  0.00     0.040 A 
ATOM     92  F   UNL A   1      44.159  34.061  29.524  1.00  0.00    -0.206 F 
ATOM     93  C   UNL A   1      43.043  35.690  26.525  1.00  0.00     0.006 A 
ENDBRANCH  69  86
ENDBRANCH  43  44
ENDBRANCH  36  38
ENDBRANCH  35  36
ENDBRANCH  34  35
ENDBRANCH  33  34
ENDBRANCH   1  33
TORSDOF 16
ENDMDL
MODEL 2
REMARK VINA RESULT:     -13.0      4.439     10.277
REMARK SMILES Cc1ccc([C@H]2NC(=O)N(C)C3=C2C(=O)N(c2cccc(C(=O)OCCOCCOC(=O)c4ccc(-c5c6nc(c(-c7c(F)cccc7F)c7ccc([nH]7)c(-c7c(F)cccc7F)c7nc(c(-c8c(F)cccc8F)c8ccc5[nH]8)C=C7)C=C6)cc4)c2)C3)cc1
REMARK SMILES IDX 27 1 26 2 25 3 24 4 22 5 23 6 21 7 17 8 18 9 87 10 19 11
REMARK SMILES IDX 20 12 16 13 6 14 7 15 13 16 8 17 12 19 14 20 9 21 10 22
REMARK SMILES IDX 88 23 15 24 11 25 5 26 1 27 2 28 3 29 90 30 4 31 89 32 28 33
REMARK SMILES IDX 29 34 30 35 31 36 32 37 33 38 34 39 86 40 35 41 85 42 36 43
REMARK SMILES IDX 37 44 38 45 79 46 39 47 84 48 78 49 80 50 40 51 83 52 77 53
REMARK SMILES IDX 76 54 41 56 67 57 50 58 66 59 51 60 54 61 65 62 81 63 52 64
REMARK SMILES IDX 53 65 64 67 82 68 55 69 42 70 43 71 48 72 44 73 45 74 47 75
REMARK SMILES IDX 49 76 46 77 68 78 69 79 74 80 70 81 71 82 73 83 75 84 72 85
REMARK SMILES IDX 56 86 57 87 62 88 58 89 59 90 61 91 63 92 60 93
REMARK H PARENT 7 18 80 55 54 66
REMARK Flexibility Score: inf
ROOT
ATOM      1  O   UNL A   1      33.403  33.715  28.771  1.00  0.00    -0.374 OA
ENDROOT
BRANCH   1   2
ATOM      2  C   UNL A   1      34.497  33.393  27.925  1.00  0.00     0.202 C 
BRANCH   2   3
ATOM      3  C   UNL A   1      34.776  31.939  28.159  1.00  0.00     0.261 C 
BRANCH   3   4
ATOM      4  O   UNL A   1      33.803  31.121  27.501  1.00  0.00    -0.460 OA
BRANCH   4   5
ATOM      5  C   UNL A   1      34.151  29.840  27.192  1.00  0.00     0.338 C 
ATOM      6  O   UNL A   1      35.008  29.155  27.678  1.00  0.00    -0.246 OA
BRANCH   5   7
ATOM      7  C   UNL A   1      33.155  29.374  26.212  1.00  0.00     0.062 A 
ATOM      8  C   UNL A   1      32.145  27.476  25.151  1.00  0.00     0.045 A 
ATOM      9  C   UNL A   1      31.177  28.314  24.589  1.00  0.00     0.026 A 
ATOM     10  C   UNL A   1      33.143  28.008  25.958  1.00  0.00     0.042 A 
ATOM     11  C   UNL A   1      31.198  29.685  24.843  1.00  0.00     0.003 A 
ATOM     12  C   UNL A   1      32.200  30.222  25.644  1.00  0.00     0.016 A 
BRANCH   8  13
ATOM     13  N   UNL A   1      32.146  26.105  24.888  1.00  0.00    -0.303 N 
ATOM     14  C   UNL A   1      33.858  23.020  23.837  1.00  0.00     0.152 C 
ATOM     15  N   UNL A   1      33.203  21.736  24.062  1.00  0.00    -0.327 N 
ATOM     16  C   UNL A   1      32.932  24.069  24.275  1.00  0.00     0.066 C 
ATOM     17  C   UNL A   1      32.157  21.490  24.912  1.00  0.00     0.322 C 
ATOM     18  H   UNL A   1      33.547  20.968  23.551  1.00  0.00     0.166 HD
ATOM     19  C   UNL A   1      31.917  23.877  25.115  1.00  0.00     0.053 C 
ATOM     20  C   UNL A   1      33.048  25.501  24.024  1.00  0.00     0.258 C 
ATOM     21  O   UNL A   1      31.801  20.330  25.104  1.00  0.00    -0.248 OA
ATOM     22  N   UNL A   1      31.539  22.604  25.478  1.00  0.00    -0.299 N 
ATOM     23  C   UNL A   1      31.362  25.151  25.637  1.00  0.00     0.180 C 
ATOM     24  O   UNL A   1      33.847  26.002  23.256  1.00  0.00    -0.269 OA
ATOM     25  C   UNL A   1      30.430  22.408  26.400  1.00  0.00     0.155 C 
BRANCH  14  26
ATOM     26  C   UNL A   1      35.220  23.039  24.536  1.00  0.00    -0.021 A 
ATOM     27  C   UNL A   1      39.134  22.971  26.406  1.00  0.00     0.044 C 
ATOM     28  C   UNL A   1      37.778  22.998  25.766  1.00  0.00    -0.051 A 
ATOM     29  C   UNL A   1      37.427  22.036  24.815  1.00  0.00     0.004 A 
ATOM     30  C   UNL A   1      36.844  23.976  26.109  1.00  0.00     0.004 A 
ATOM     31  C   UNL A   1      36.168  22.058  24.205  1.00  0.00     0.006 A 
ATOM     32  C   UNL A   1      35.579  23.990  25.509  1.00  0.00     0.006 A 
ENDBRANCH  14  26
ENDBRANCH   8  13
ENDBRANCH   5   7
ENDBRANCH   4   5
ENDBRANCH   3   4
ENDBRANCH   2   3
ENDBRANCH   1   2
BRANCH   1  33
ATOM     33  C   UNL A   1      33.158  35.094  28.961  1.00  0.00     0.202 C 
BRANCH  33  34
ATOM     34  C   UNL A   1      32.884  35.463  30.425  1.00  0.00     0.261 C 
BRANCH  34  35
ATOM     35  O   UNL A   1      34.131  35.610  31.139  1.00  0.00    -0.460 OA
BRANCH  35  36
ATOM     36  C   UNL A   1      34.380  34.694  32.118  1.00  0.00     0.338 C 
ATOM     37  O   UNL A   1      34.151  34.848  33.307  1.00  0.00    -0.246 OA
BRANCH  36  38
ATOM     38  C   UNL A   1      35.249  33.609  31.574  1.00  0.00     0.060 A 
ATOM     39  C   UNL A   1      35.153  32.299  32.089  1.00  0.00     0.016 A 
ATOM     40  C   UNL A   1      36.364  33.981  30.831  1.00  0.00     0.016 A 
ATOM     41  C   UNL A   1      36.239  31.416  31.980  1.00  0.00     0.010 A 
ATOM     42  C   UNL A   1      37.468  33.160  30.842  1.00  0.00     0.010 A 
ATOM     43  C   UNL A   1      37.427  31.879  31.414  1.00  0.00    -0.014 A 
BRANCH  43  44
ATOM     44  C   UNL A   1      38.721  31.193  31.432  1.00  0.00     0.031 A 
ATOM     45  C   UNL A   1      38.943  30.078  30.485  1.00  0.00     0.074 A 
ATOM     46  C   UNL A   1      39.783  31.707  32.095  1.00  0.00     0.049 A 
ATOM     47  N   UNL A   1      39.855  29.182  30.645  1.00  0.00    -0.248 NA
ATOM     48  C   UNL A   1      38.134  29.852  29.288  1.00  0.00     0.031 C 
ATOM     49  C   UNL A   1      41.204  31.503  31.812  1.00  0.00     0.029 A 
ATOM     50  N   UNL A   1      39.798  32.564  33.195  1.00  0.00    -0.354 N 
ATOM     51  C   UNL A   1      39.969  28.496  29.460  1.00  0.00     0.074 A 
ATOM     52  C   UNL A   1      38.818  28.879  28.683  1.00  0.00     0.031 C 
ATOM     53  C   UNL A   1      41.943  32.017  32.811  1.00  0.00     0.029 A 
ATOM     54  C   UNL A   1      41.030  32.463  33.850  1.00  0.00     0.049 A 
ATOM     55  H   UNL A   1      39.056  33.151  33.469  1.00  0.00     0.167 HD
ATOM     56  C   UNL A   1      41.116  27.808  29.194  1.00  0.00     0.037 A 
ATOM     57  C   UNL A   1      41.079  32.184  35.180  1.00  0.00     0.037 A 
ATOM     58  C   UNL A   1      42.099  28.018  30.264  1.00  0.00     0.049 A 
ATOM     59  C   UNL A   1      41.669  30.816  35.356  1.00  0.00     0.074 A 
ATOM     60  C   UNL A   1      43.198  28.858  30.356  1.00  0.00     0.029 A 
ATOM     61  N   UNL A   1      41.819  27.607  31.567  1.00  0.00    -0.354 N 
ATOM     62  N   UNL A   1      41.735  29.965  34.370  1.00  0.00    -0.248 NA
ATOM     63  C   UNL A   1      42.279  30.306  36.576  1.00  0.00     0.031 C 
ATOM     64  C   UNL A   1      43.556  28.973  31.725  1.00  0.00     0.029 A 
ATOM     65  C   UNL A   1      42.692  28.187  32.471  1.00  0.00     0.049 A 
ATOM     66  H   UNL A   1      41.095  26.986  31.812  1.00  0.00     0.167 HD
ATOM     67  C   UNL A   1      42.413  28.856  34.760  1.00  0.00     0.074 A 
ATOM     68  C   UNL A   1      42.712  29.098  36.161  1.00  0.00     0.031 C 
ATOM     69  C   UNL A   1      42.660  27.840  33.889  1.00  0.00     0.037 A 
BRANCH  56  70
ATOM     70  C   UNL A   1      41.440  27.237  27.830  1.00  0.00     0.057 A 
ATOM     71  C   UNL A   1      41.507  25.848  27.616  1.00  0.00     0.134 A 
ATOM     72  C   UNL A   1      41.711  28.008  26.683  1.00  0.00     0.134 A 
ATOM     73  F   UNL A   1      41.167  24.969  28.567  1.00  0.00    -0.206 F 
ATOM     74  C   UNL A   1      41.918  25.279  26.402  1.00  0.00     0.040 A 
ATOM     75  C   UNL A   1      42.183  27.458  25.481  1.00  0.00     0.040 A 
ATOM     76  F   UNL A   1      41.472  29.326  26.653  1.00  0.00    -0.206 F 
ATOM     77  C   UNL A   1      42.297  26.085  25.339  1.00  0.00     0.006 A 
ENDBRANCH  56  70
BRANCH  57  78
ATOM     78  C   UNL A   1      39.961  32.825  35.935  1.00  0.00     0.057 A 
ATOM     79  C   UNL A   1      38.896  31.998  36.350  1.00  0.00     0.134 A 
ATOM     80  C   UNL A   1      40.128  34.026  36.635  1.00  0.00     0.134 A 
ATOM     81  F   UNL A   1      38.704  30.804  35.766  1.00  0.00    -0.206 F 
ATOM     82  C   UNL A   1      38.094  32.308  37.457  1.00  0.00     0.040 A 
ATOM     83  C   UNL A   1      39.349  34.332  37.763  1.00  0.00     0.040 A 
ATOM     84  F   UNL A   1      41.135  34.857  36.331  1.00  0.00    -0.206 F 
ATOM     85  C   UNL A   1      38.346  33.463  38.191  1.00  0.00     0.006 A 
ENDBRANCH  57  78
BRANCH  69  86
ATOM     86  C   UNL A   1      42.983  26.437  34.307  1.00  0.00     0.057 A 
ATOM     87  C   UNL A   1      42.078  25.614  34.992  1.00  0.00     0.134 A 
ATOM     88  C   UNL A   1      44.158  25.805  33.852  1.00  0.00     0.134 A 
ATOM     89  F   UNL A   1      40.872  26.054  35.378  1.00  0.00    -0.206 F 
ATOM     90  C   UNL A   1      42.348  24.270  35.256  1.00  0.00     0.040 A 
ATOM     91  C   UNL A   1      44.406  24.448  34.051  1.00  0.00     0.040 A 
ATOM     92  F   UNL A   1      45.099  26.465  33.161  1.00  0.00    -0.206 F 
ATOM     93  C   UNL A   1      43.506  23.678  34.771  1.00  0.00     0.006 A 
ENDBRANCH  69  86
ENDBRANCH  43  44
ENDBRANCH  36  38
ENDBRANCH  35  36
ENDBRANCH  34  35
ENDBRANCH  33  34
ENDBRANCH   1  33
TORSDOF 16
ENDMDL
MODEL 3
REMARK VINA RESULT:     -12.1      4.031      9.604
REMARK SMILES Cc1ccc([C@H]2NC(=O)N(C)C3=C2C(=O)N(c2cccc(C(=O)OCCOCCOC(=O)c4ccc(-c5c6nc(c(-c7c(F)cccc7F)c7ccc([nH]7)c(-c7c(F)cccc7F)c7nc(c(-c8c(F)cccc8F)c8ccc5[nH]8)C=C7)C=C6)cc4)c2)C3)cc1
REMARK SMILES IDX 27 1 26 2 25 3 24 4 22 5 23 6 21 7 17 8 18 9 87 10 19 11
REMARK SMILES IDX 20 12 16 13 6 14 7 15 13 16 8 17 12 19 14 20 9 21 10 22
REMARK SMILES IDX 88 23 15 24 11 25 5 26 1 27 2 28 3 29 90 30 4 31 89 32 28 33
REMARK SMILES IDX 29 34 30 35 31 36 32 37 33 38 34 39 86 40 35 41 85 42 36 43
REMARK SMILES IDX 37 44 38 45 79 46 39 47 84 48 78 49 80 50 40 51 83 52 77 53
REMARK SMILES IDX 76 54 41 56 67 57 50 58 66 59 51 60 54 61 65 62 81 63 52 64
REMARK SMILES IDX 53 65 64 67 82 68 55 69 42 70 43 71 48 72 44 73 45 74 47 75
REMARK SMILES IDX 49 76 46 77 68 78 69 79 74 80 70 81 71 82 73 83 75 84 72 85
REMARK SMILES IDX 56 86 57 87 62 88 58 89 59 90 61 91 63 92 60 93
REMARK H PARENT 7 18 80 55 54 66
REMARK Flexibility Score: inf
ROOT
ATOM      1  O   UNL A   1      33.900  33.902  27.584  1.00  0.00    -0.374 OA
ENDROOT
BRANCH   1   2
ATOM      2  C   UNL A   1      32.538  33.816  27.978  1.00  0.00     0.202 C 
BRANCH   2   3
ATOM      3  C   UNL A   1      31.805  33.273  26.789  1.00  0.00     0.261 C 
BRANCH   3   4
ATOM      4  O   UNL A   1      31.292  31.964  27.060  1.00  0.00    -0.460 OA
BRANCH   4   5
ATOM      5  C   UNL A   1      31.283  31.059  26.042  1.00  0.00     0.338 C 
ATOM      6  O   UNL A   1      30.653  31.083  25.020  1.00  0.00    -0.246 OA
BRANCH   5   7
ATOM      7  C   UNL A   1      32.329  30.074  26.363  1.00  0.00     0.062 A 
ATOM      8  C   UNL A   1      33.095  27.820  26.078  1.00  0.00     0.045 A 
ATOM      9  C   UNL A   1      34.315  28.167  26.666  1.00  0.00     0.026 A 
ATOM     10  C   UNL A   1      32.095  28.774  25.933  1.00  0.00     0.042 A 
ATOM     11  C   UNL A   1      34.543  29.473  27.100  1.00  0.00     0.003 A 
ATOM     12  C   UNL A   1      33.541  30.428  26.964  1.00  0.00     0.016 A 
BRANCH   8  13
ATOM     13  N   UNL A   1      32.849  26.512  25.658  1.00  0.00    -0.303 N 
ATOM     14  C   UNL A   1      33.944  23.359  24.104  1.00  0.00     0.152 C 
ATOM     15  N   UNL A   1      33.102  22.176  24.235  1.00  0.00    -0.327 N 
ATOM     16  C   UNL A   1      33.240  24.475  24.743  1.00  0.00     0.066 C 
ATOM     17  C   UNL A   1      32.091  21.989  25.141  1.00  0.00     0.322 C 
ATOM     18  H   UNL A   1      33.276  21.437  23.609  1.00  0.00     0.166 HD
ATOM     19  C   UNL A   1      32.267  24.337  25.643  1.00  0.00     0.053 C 
ATOM     20  C   UNL A   1      33.575  25.891  24.651  1.00  0.00     0.258 C 
ATOM     21  O   UNL A   1      31.561  20.884  25.228  1.00  0.00    -0.248 OA
ATOM     22  N   UNL A   1      31.709  23.103  25.887  1.00  0.00    -0.299 N 
ATOM     23  C   UNL A   1      31.971  25.603  26.358  1.00  0.00     0.180 C 
ATOM     24  O   UNL A   1      34.391  26.356  23.877  1.00  0.00    -0.269 OA
ATOM     25  C   UNL A   1      30.650  22.965  26.876  1.00  0.00     0.155 C 
BRANCH  14  26
ATOM     26  C   UNL A   1      35.336  23.074  24.674  1.00  0.00    -0.021 A 
ATOM     27  C   UNL A   1      39.299  22.140  26.172  1.00  0.00     0.044 C 
ATOM     28  C   UNL A   1      37.927  22.467  25.661  1.00  0.00    -0.051 A 
ATOM     29  C   UNL A   1      37.315  21.646  24.710  1.00  0.00     0.004 A 
ATOM     30  C   UNL A   1      37.238  23.587  26.125  1.00  0.00     0.004 A 
ATOM     31  C   UNL A   1      36.039  21.947  24.220  1.00  0.00     0.006 A 
ATOM     32  C   UNL A   1      35.957  23.882  25.645  1.00  0.00     0.006 A 
ENDBRANCH  14  26
ENDBRANCH   8  13
ENDBRANCH   5   7
ENDBRANCH   4   5
ENDBRANCH   3   4
ENDBRANCH   2   3
ENDBRANCH   1   2
BRANCH   1  33
ATOM     33  C   UNL A   1      34.707  34.773  28.349  1.00  0.00     0.202 C 
BRANCH  33  34
ATOM     34  C   UNL A   1      35.863  34.057  29.061  1.00  0.00     0.261 C 
BRANCH  34  35
ATOM     35  O   UNL A   1      35.871  32.658  28.704  1.00  0.00    -0.460 OA
BRANCH  35  36
ATOM     36  C   UNL A   1      35.735  31.770  29.730  1.00  0.00     0.338 C 
ATOM     37  O   UNL A   1      35.181  31.995  30.794  1.00  0.00    -0.246 OA
BRANCH  36  38
ATOM     38  C   UNL A   1      36.623  30.594  29.490  1.00  0.00     0.060 A 
ATOM     39  C   UNL A   1      36.644  29.522  30.407  1.00  0.00     0.016 A 
ATOM     40  C   UNL A   1      37.656  30.736  28.568  1.00  0.00     0.016 A 
ATOM     41  C   UNL A   1      37.769  28.686  30.492  1.00  0.00     0.010 A 
ATOM     42  C   UNL A   1      38.804  29.998  28.744  1.00  0.00     0.010 A 
ATOM     43  C   UNL A   1      38.882  28.975  29.701  1.00  0.00    -0.014 A 
BRANCH  43  44
ATOM     44  C   UNL A   1      40.211  28.373  29.822  1.00  0.00     0.031 A 
ATOM     45  C   UNL A   1      40.475  27.095  29.125  1.00  0.00     0.074 A 
ATOM     46  C   UNL A   1      41.257  29.068  30.330  1.00  0.00     0.049 A 
ATOM     47  N   UNL A   1      41.437  26.299  29.442  1.00  0.00    -0.248 NA
ATOM     48  C   UNL A   1      39.656  26.582  28.028  1.00  0.00     0.031 C 
ATOM     49  C   UNL A   1      42.680  28.879  30.051  1.00  0.00     0.029 A 
ATOM     50  N   UNL A   1      41.247  30.138  31.223  1.00  0.00    -0.354 N 
ATOM     51  C   UNL A   1      41.565  25.385  28.424  1.00  0.00     0.074 A 
ATOM     52  C   UNL A   1      40.379  25.537  27.620  1.00  0.00     0.031 C 
ATOM     53  C   UNL A   1      43.410  29.628  30.896  1.00  0.00     0.029 A 
ATOM     54  C   UNL A   1      42.495  30.239  31.846  1.00  0.00     0.049 A 
ATOM     55  H   UNL A   1      40.480  30.732  31.391  1.00  0.00     0.167 HD
ATOM     56  C   UNL A   1      42.742  24.714  28.273  1.00  0.00     0.037 A 
ATOM     57  C   UNL A   1      42.586  30.251  33.203  1.00  0.00     0.037 A 
ATOM     58  C   UNL A   1      43.734  25.194  29.244  1.00  0.00     0.049 A 
ATOM     59  C   UNL A   1      43.254  28.982  33.643  1.00  0.00     0.074 A 
ATOM     60  C   UNL A   1      44.786  26.087  29.123  1.00  0.00     0.029 A 
ATOM     61  N   UNL A   1      43.503  25.054  30.612  1.00  0.00    -0.354 N 
ATOM     62  N   UNL A   1      43.347  27.945  32.857  1.00  0.00    -0.248 NA
ATOM     63  C   UNL A   1      43.915  28.771  34.924  1.00  0.00     0.031 C 
ATOM     64  C   UNL A   1      45.166  26.507  30.425  1.00  0.00     0.029 A 
ATOM     65  C   UNL A   1      44.361  25.855  31.346  1.00  0.00     0.049 A 
ATOM     66  H   UNL A   1      42.819  24.465  31.005  1.00  0.00     0.167 HD
ATOM     67  C   UNL A   1      44.091  26.979  33.451  1.00  0.00     0.074 A 
ATOM     68  C   UNL A   1      44.405  27.527  34.759  1.00  0.00     0.031 C 
ATOM     69  C   UNL A   1      44.377  25.814  32.806  1.00  0.00     0.037 A 
BRANCH  56  70
ATOM     70  C   UNL A   1      43.070  23.883  27.050  1.00  0.00     0.057 A 
ATOM     71  C   UNL A   1      42.987  22.479  27.076  1.00  0.00     0.134 A 
ATOM     72  C   UNL A   1      43.488  24.411  25.813  1.00  0.00     0.134 A 
ATOM     73  F   UNL A   1      42.498  21.820  28.134  1.00  0.00    -0.206 F 
ATOM     74  C   UNL A   1      43.393  21.668  26.006  1.00  0.00     0.040 A 
ATOM     75  C   UNL A   1      43.956  23.613  24.757  1.00  0.00     0.040 A 
ATOM     76  F   UNL A   1      43.405  25.721  25.546  1.00  0.00    -0.206 F 
ATOM     77  C   UNL A   1      43.918  22.233  24.854  1.00  0.00     0.006 A 
ENDBRANCH  56  70
BRANCH  57  78
ATOM     78  C   UNL A   1      41.451  30.981  33.841  1.00  0.00     0.057 A 
ATOM     79  C   UNL A   1      40.411  30.209  34.400  1.00  0.00     0.134 A 
ATOM     80  C   UNL A   1      41.582  32.290  34.318  1.00  0.00     0.134 A 
ATOM     81  F   UNL A   1      40.254  28.925  34.035  1.00  0.00    -0.206 F 
ATOM     82  C   UNL A   1      39.600  30.683  35.440  1.00  0.00     0.040 A 
ATOM     83  C   UNL A   1      40.795  32.766  35.380  1.00  0.00     0.040 A 
ATOM     84  F   UNL A   1      42.564  33.084  33.868  1.00  0.00    -0.206 F 
ATOM     85  C   UNL A   1      39.818  31.957  35.959  1.00  0.00     0.006 A 
ENDBRANCH  57  78
BRANCH  69  86
ATOM     86  C   UNL A   1      44.784  24.550  33.499  1.00  0.00     0.057 A 
ATOM     87  C   UNL A   1      46.118  24.134  33.614  1.00  0.00     0.134 A 
ATOM     88  C   UNL A   1      43.848  23.810  34.249  1.00  0.00     0.134 A 
ATOM     89  F   UNL A   1      47.124  24.816  33.050  1.00  0.00    -0.206 F 
ATOM     90  C   UNL A   1      46.488  23.024  34.376  1.00  0.00     0.040 A 
ATOM     91  C   UNL A   1      44.216  22.742  35.066  1.00  0.00     0.040 A 
ATOM     92  F   UNL A   1      42.541  24.111  34.253  1.00  0.00    -0.206 F 
ATOM     93  C   UNL A   1      45.539  22.334  35.119  1.00  0.00     0.006 A 
ENDBRANCH  69  86
ENDBRANCH  43  44
ENDBRANCH  36  38
ENDBRANCH  35  36
ENDBRANCH  34  35
ENDBRANCH  33  34
ENDBRANCH   1  33
TORSDOF 16
ENDMDL
