MODEL 1
REMARK VINA RESULT:     -11.2      0.000      0.000
REMARK SMILES [NH3+][C@H](C(=O)OCCOCCOC(=O)c1ccc(-c2c3nc(c(-c4c(F)cccc4F)c4ccc([nH]4)c(-c4c(F)cccc4F)c4nc(c(-c5c(F)cccc5F)c5ccc2[nH]5)C=C4)C=C3)cc1)c1ccc(OCC(=O)N2CCCC2)cc1
REMARK SMILES IDX 7 1 6 2 5 3 3 4 4 5 2 6 1 7 68 11 69 12 82 13 70 14 81 15
REMARK SMILES IDX 71 16 72 17 73 18 74 19 75 20 76 21 77 22 80 23 78 24 79 25
REMARK SMILES IDX 8 26 9 27 10 28 11 29 12 30 13 31 14 32 15 33 67 34 16 35
REMARK SMILES IDX 66 36 17 37 18 38 19 39 60 40 20 41 65 42 59 43 61 44 21 45
REMARK SMILES IDX 64 46 58 47 57 48 22 50 48 51 31 52 47 53 32 54 35 55 46 56
REMARK SMILES IDX 62 57 33 58 34 59 45 61 63 62 36 63 23 64 24 65 29 66 25 67
REMARK SMILES IDX 26 68 28 69 30 70 27 71 49 72 50 73 55 74 51 75 52 76 54 77
REMARK SMILES IDX 56 78 53 79 37 80 38 81 43 82 39 83 40 84 42 85 44 86 41 87
REMARK H PARENT 1 8 1 9 1 10 61 49 35 60
REMARK Flexibility Score: inf
ROOT
ATOM      1  C   UNL A   1      33.608  36.954  32.177  1.00  0.00     0.202 C 
ENDROOT
BRANCH   1   2
ATOM      2  C   UNL A   1      32.522  35.912  31.889  1.00  0.00     0.261 C 
BRANCH   2   3
ATOM      3  O   UNL A   1      32.920  34.957  30.890  1.00  0.00    -0.459 OA
BRANCH   3   4
ATOM      4  C   UNL A   1      32.939  35.434  29.616  1.00  0.00     0.369 C 
ATOM      5  O   UNL A   1      32.271  36.392  29.227  1.00  0.00    -0.245 OA
BRANCH   4   6
ATOM      6  C   UNL A   1      33.886  34.677  28.657  1.00  0.00     0.323 C 
BRANCH   6   7
ATOM      7  N   UNL A   1      35.149  34.391  29.396  1.00  0.00    -0.342 N 
ATOM      8  H   UNL A   1      35.505  33.477  29.117  1.00  0.00     0.345 HD
ATOM      9  H   UNL A   1      34.965  34.393  30.399  1.00  0.00     0.345 HD
ATOM     10  H   UNL A   1      35.842  35.107  29.176  1.00  0.00     0.345 HD
ENDBRANCH   6   7
BRANCH   6  11
ATOM     11  C   UNL A   1      33.346  33.434  27.957  1.00  0.00     0.021 A 
ATOM     12  C   UNL A   1      32.133  33.426  27.251  1.00  0.00     0.014 A 
ATOM     13  C   UNL A   1      34.044  32.219  28.064  1.00  0.00     0.014 A 
ATOM     14  C   UNL A   1      31.631  32.246  26.697  1.00  0.00     0.047 A 
ATOM     15  C   UNL A   1      33.533  31.031  27.519  1.00  0.00     0.047 A 
ATOM     16  C   UNL A   1      32.317  31.041  26.841  1.00  0.00     0.120 A 
BRANCH  16  17
ATOM     17  O   UNL A   1      31.690  29.972  26.274  1.00  0.00    -0.484 OA
BRANCH  17  18
ATOM     18  C   UNL A   1      31.910  29.712  24.901  1.00  0.00     0.329 C 
BRANCH  18  19
ATOM     19  C   UNL A   1      30.903  28.816  24.167  1.00  0.00     0.260 C 
ATOM     20  O   UNL A   1      31.102  27.601  24.082  1.00  0.00    -0.271 OA
ATOM     21  N   UNL A   1      29.744  29.394  23.695  1.00  0.00    -0.340 N 
ATOM     22  C   UNL A   1      29.437  30.808  23.608  1.00  0.00     0.119 C 
ATOM     23  C   UNL A   1      28.667  28.577  23.175  1.00  0.00     0.119 C 
ATOM     24  C   UNL A   1      27.927  30.860  23.462  1.00  0.00     0.023 C 
ATOM     25  C   UNL A   1      27.563  29.548  22.778  1.00  0.00     0.023 C 
ENDBRANCH  18  19
ENDBRANCH  17  18
ENDBRANCH  16  17
ENDBRANCH   6  11
ENDBRANCH   4   6
ENDBRANCH   3   4
ENDBRANCH   2   3
ENDBRANCH   1   2
BRANCH   1  26
ATOM     26  O   UNL A   1      34.737  36.527  32.934  1.00  0.00    -0.374 OA
BRANCH  26  27
ATOM     27  C   UNL A   1      34.758  35.170  33.376  1.00  0.00     0.202 C 
BRANCH  27  28
ATOM     28  C   UNL A   1      36.036  34.364  33.113  1.00  0.00     0.261 C 
BRANCH  28  29
ATOM     29  O   UNL A   1      35.859  32.962  33.374  1.00  0.00    -0.460 OA
BRANCH  29  30
ATOM     30  C   UNL A   1      35.372  32.249  32.333  1.00  0.00     0.338 C 
ATOM     31  O   UNL A   1      34.246  32.320  31.852  1.00  0.00    -0.246 OA
BRANCH  30  32
ATOM     32  C   UNL A   1      36.442  31.449  31.708  1.00  0.00     0.060 A 
ATOM     33  C   UNL A   1      37.462  30.967  32.540  1.00  0.00     0.016 A 
ATOM     34  C   UNL A   1      36.487  31.220  30.333  1.00  0.00     0.016 A 
ATOM     35  C   UNL A   1      38.573  30.334  31.988  1.00  0.00     0.010 A 
ATOM     36  C   UNL A   1      37.606  30.590  29.781  1.00  0.00     0.010 A 
ATOM     37  C   UNL A   1      38.675  30.193  30.599  1.00  0.00    -0.014 A 
BRANCH  37  38
ATOM     38  C   UNL A   1      39.950  29.755  29.991  1.00  0.00     0.031 A 
ATOM     39  C   UNL A   1      41.080  30.741  29.868  1.00  0.00     0.074 A 
ATOM     40  C   UNL A   1      40.096  28.493  29.552  1.00  0.00     0.049 A 
ATOM     41  N   UNL A   1      42.280  30.570  29.376  1.00  0.00    -0.248 NA
ATOM     42  C   UNL A   1      40.818  32.104  30.356  1.00  0.00     0.031 C 
ATOM     43  C   UNL A   1      39.068  27.456  29.615  1.00  0.00     0.029 A 
ATOM     44  N   UNL A   1      41.165  27.878  28.956  1.00  0.00    -0.354 N 
ATOM     45  C   UNL A   1      42.917  31.799  29.497  1.00  0.00     0.074 A 
ATOM     46  C   UNL A   1      41.959  32.717  30.074  1.00  0.00     0.031 C 
ATOM     47  C   UNL A   1      39.556  26.330  29.069  1.00  0.00     0.029 A 
ATOM     48  C   UNL A   1      40.919  26.574  28.604  1.00  0.00     0.049 A 
ATOM     49  H   UNL A   1      42.026  28.327  28.795  1.00  0.00     0.167 HD
ATOM     50  C   UNL A   1      44.190  32.126  29.170  1.00  0.00     0.037 A 
ATOM     51  C   UNL A   1      41.707  25.685  27.971  1.00  0.00     0.037 A 
ATOM     52  C   UNL A   1      45.137  31.206  28.595  1.00  0.00     0.049 A 
ATOM     53  C   UNL A   1      43.103  26.085  27.578  1.00  0.00     0.074 A 
ATOM     54  C   UNL A   1      46.465  31.424  28.273  1.00  0.00     0.029 A 
ATOM     55  N   UNL A   1      44.850  29.895  28.243  1.00  0.00    -0.354 N 
ATOM     56  N   UNL A   1      43.721  27.228  27.763  1.00  0.00    -0.248 NA
ATOM     57  C   UNL A   1      43.917  25.068  26.898  1.00  0.00     0.031 C 
ATOM     58  C   UNL A   1      46.967  30.261  27.680  1.00  0.00     0.029 A 
ATOM     59  C   UNL A   1      45.967  29.302  27.681  1.00  0.00     0.049 A 
ATOM     60  H   UNL A   1      43.981  29.453  28.375  1.00  0.00     0.167 HD
ATOM     61  C   UNL A   1      45.001  27.057  27.252  1.00  0.00     0.074 A 
ATOM     62  C   UNL A   1      45.075  25.697  26.759  1.00  0.00     0.031 C 
ATOM     63  C   UNL A   1      46.025  27.944  27.200  1.00  0.00     0.037 A 
BRANCH  50  64
ATOM     64  C   UNL A   1      44.632  33.540  29.415  1.00  0.00     0.057 A 
ATOM     65  C   UNL A   1      44.523  34.530  28.430  1.00  0.00     0.134 A 
ATOM     66  C   UNL A   1      45.125  33.927  30.667  1.00  0.00     0.134 A 
ATOM     67  F   UNL A   1      44.068  34.225  27.205  1.00  0.00    -0.206 F 
ATOM     68  C   UNL A   1      44.910  35.849  28.674  1.00  0.00     0.040 A 
ATOM     69  C   UNL A   1      45.492  35.249  30.932  1.00  0.00     0.040 A 
ATOM     70  F   UNL A   1      45.250  33.031  31.658  1.00  0.00    -0.206 F 
ATOM     71  C   UNL A   1      45.389  36.213  29.932  1.00  0.00     0.006 A 
ENDBRANCH  50  64
BRANCH  51  72
ATOM     72  C   UNL A   1      41.199  24.321  27.682  1.00  0.00     0.057 A 
ATOM     73  C   UNL A   1      40.255  24.098  26.673  1.00  0.00     0.134 A 
ATOM     74  C   UNL A   1      41.641  23.209  28.409  1.00  0.00     0.134 A 
ATOM     75  F   UNL A   1      39.781  25.127  25.955  1.00  0.00    -0.206 F 
ATOM     76  C   UNL A   1      39.754  22.823  26.408  1.00  0.00     0.040 A 
ATOM     77  C   UNL A   1      41.167  21.925  28.139  1.00  0.00     0.040 A 
ATOM     78  F   UNL A   1      42.548  23.355  29.386  1.00  0.00    -0.206 F 
ATOM     79  C   UNL A   1      40.214  21.731  27.141  1.00  0.00     0.006 A 
ENDBRANCH  51  72
BRANCH  63  80
ATOM     80  C   UNL A   1      47.323  27.461  26.622  1.00  0.00     0.057 A 
ATOM     81  C   UNL A   1      48.317  26.879  27.418  1.00  0.00     0.134 A 
ATOM     82  C   UNL A   1      47.564  27.545  25.244  1.00  0.00     0.134 A 
ATOM     83  F   UNL A   1      48.153  26.780  28.747  1.00  0.00    -0.206 F 
ATOM     84  C   UNL A   1      49.516  26.420  26.869  1.00  0.00     0.040 A 
ATOM     85  C   UNL A   1      48.747  27.066  24.680  1.00  0.00     0.040 A 
ATOM     86  F   UNL A   1      46.649  28.081  24.423  1.00  0.00    -0.206 F 
ATOM     87  C   UNL A   1      49.730  26.507  25.494  1.00  0.00     0.006 A 
ENDBRANCH  63  80
ENDBRANCH  37  38
ENDBRANCH  30  32
ENDBRANCH  29  30
ENDBRANCH  28  29
ENDBRANCH  27  28
ENDBRANCH  26  27
ENDBRANCH   1  26
TORSDOF 19
ENDMDL
MODEL 2
REMARK VINA RESULT:     -11.1      5.810     11.753
REMARK SMILES [NH3+][C@H](C(=O)OCCOCCOC(=O)c1ccc(-c2c3nc(c(-c4c(F)cccc4F)c4ccc([nH]4)c(-c4c(F)cccc4F)c4nc(c(-c5c(F)cccc5F)c5ccc2[nH]5)C=C4)C=C3)cc1)c1ccc(OCC(=O)N2CCCC2)cc1
REMARK SMILES IDX 7 1 6 2 5 3 3 4 4 5 2 6 1 7 68 11 69 12 82 13 70 14 81 15
REMARK SMILES IDX 71 16 72 17 73 18 74 19 75 20 76 21 77 22 80 23 78 24 79 25
REMARK SMILES IDX 8 26 9 27 10 28 11 29 12 30 13 31 14 32 15 33 67 34 16 35
REMARK SMILES IDX 66 36 17 37 18 38 19 39 60 40 20 41 65 42 59 43 61 44 21 45
REMARK SMILES IDX 64 46 58 47 57 48 22 50 48 51 31 52 47 53 32 54 35 55 46 56
REMARK SMILES IDX 62 57 33 58 34 59 45 61 63 62 36 63 23 64 24 65 29 66 25 67
REMARK SMILES IDX 26 68 28 69 30 70 27 71 49 72 50 73 55 74 51 75 52 76 54 77
REMARK SMILES IDX 56 78 53 79 37 80 38 81 43 82 39 83 40 84 42 85 44 86 41 87
REMARK H PARENT 1 8 1 9 1 10 61 49 35 60
REMARK Flexibility Score: inf
ROOT
ATOM      1  C   UNL A   1      45.796  19.790  24.858  1.00  0.00     0.202 C 
ENDROOT
BRANCH   1   2
ATOM      2  C   UNL A   1      44.388  19.909  24.265  1.00  0.00     0.261 C 
BRANCH   2   3
ATOM      3  O   UNL A   1      43.395  19.231  25.053  1.00  0.00    -0.459 OA
BRANCH   3   4
ATOM      4  C   UNL A   1      42.733  20.019  25.943  1.00  0.00     0.369 C 
ATOM      5  O   UNL A   1      43.104  21.143  26.279  1.00  0.00    -0.245 OA
BRANCH   4   6
ATOM      6  C   UNL A   1      41.441  19.397  26.521  1.00  0.00     0.323 C 
BRANCH   6   7
ATOM      7  N   UNL A   1      41.573  19.368  28.005  1.00  0.00    -0.342 N 
ATOM      8  H   UNL A   1      42.561  19.345  28.257  1.00  0.00     0.345 HD
ATOM      9  H   UNL A   1      41.108  18.538  28.373  1.00  0.00     0.345 HD
ATOM     10  H   UNL A   1      41.141  20.203  28.402  1.00  0.00     0.345 HD
ENDBRANCH   6   7
BRANCH   6  11
ATOM     11  C   UNL A   1      40.106  19.994  26.083  1.00  0.00     0.021 A 
ATOM     12  C   UNL A   1      39.136  19.256  25.388  1.00  0.00     0.014 A 
ATOM     13  C   UNL A   1      39.844  21.355  26.319  1.00  0.00     0.014 A 
ATOM     14  C   UNL A   1      37.963  19.863  24.930  1.00  0.00     0.047 A 
ATOM     15  C   UNL A   1      38.673  21.966  25.848  1.00  0.00     0.047 A 
ATOM     16  C   UNL A   1      37.733  21.221  25.142  1.00  0.00     0.120 A 
BRANCH  16  17
ATOM     17  O   UNL A   1      36.562  21.677  24.612  1.00  0.00    -0.484 OA
BRANCH  17  18
ATOM     18  C   UNL A   1      35.425  21.748  25.452  1.00  0.00     0.329 C 
BRANCH  18  19
ATOM     19  C   UNL A   1      34.045  21.543  24.813  1.00  0.00     0.260 C 
ATOM     20  O   UNL A   1      33.332  22.516  24.551  1.00  0.00    -0.271 OA
ATOM     21  N   UNL A   1      33.675  20.261  24.464  1.00  0.00    -0.340 N 
ATOM     22  C   UNL A   1      34.341  19.025  24.821  1.00  0.00     0.119 C 
ATOM     23  C   UNL A   1      32.480  20.022  23.680  1.00  0.00     0.119 C 
ATOM     24  C   UNL A   1      33.805  18.005  23.832  1.00  0.00     0.023 C 
ATOM     25  C   UNL A   1      32.414  18.515  23.475  1.00  0.00     0.023 C 
ENDBRANCH  18  19
ENDBRANCH  17  18
ENDBRANCH  16  17
ENDBRANCH   6  11
ENDBRANCH   4   6
ENDBRANCH   3   4
ENDBRANCH   2   3
ENDBRANCH   1   2
BRANCH   1  26
ATOM     26  O   UNL A   1      46.378  20.975  25.396  1.00  0.00    -0.374 OA
BRANCH  26  27
ATOM     27  C   UNL A   1      46.241  22.177  24.639  1.00  0.00     0.202 C 
BRANCH  27  28
ATOM     28  C   UNL A   1      45.995  23.475  25.419  1.00  0.00     0.261 C 
BRANCH  28  29
ATOM     29  O   UNL A   1      45.186  24.407  24.683  1.00  0.00    -0.460 OA
BRANCH  29  30
ATOM     30  C   UNL A   1      43.862  24.130  24.681  1.00  0.00     0.338 C 
ATOM     31  O   UNL A   1      43.304  23.195  24.117  1.00  0.00    -0.246 OA
BRANCH  30  32
ATOM     32  C   UNL A   1      43.145  25.028  25.605  1.00  0.00     0.060 A 
ATOM     33  C   UNL A   1      43.619  26.341  25.734  1.00  0.00     0.016 A 
ATOM     34  C   UNL A   1      42.067  24.590  26.376  1.00  0.00     0.016 A 
ATOM     35  C   UNL A   1      43.077  27.189  26.697  1.00  0.00     0.010 A 
ATOM     36  C   UNL A   1      41.529  25.441  27.346  1.00  0.00     0.010 A 
ATOM     37  C   UNL A   1      42.066  26.721  27.545  1.00  0.00    -0.014 A 
BRANCH  37  38
ATOM     38  C   UNL A   1      41.662  27.519  28.723  1.00  0.00     0.031 A 
ATOM     39  C   UNL A   1      42.431  27.371  30.008  1.00  0.00     0.074 A 
ATOM     40  C   UNL A   1      40.618  28.363  28.648  1.00  0.00     0.049 A 
ATOM     41  N   UNL A   1      42.254  27.973  31.155  1.00  0.00    -0.248 NA
ATOM     42  C   UNL A   1      43.543  26.406  30.000  1.00  0.00     0.031 C 
ATOM     43  C   UNL A   1      39.798  28.583  27.458  1.00  0.00     0.029 A 
ATOM     44  N   UNL A   1      40.067  29.182  29.598  1.00  0.00    -0.354 N 
ATOM     45  C   UNL A   1      43.230  27.466  32.003  1.00  0.00     0.074 A 
ATOM     46  C   UNL A   1      43.973  26.478  31.251  1.00  0.00     0.031 C 
ATOM     47  C   UNL A   1      38.839  29.476  27.753  1.00  0.00     0.029 A 
ATOM     48  C   UNL A   1      38.968  29.872  29.153  1.00  0.00     0.049 A 
ATOM     49  H   UNL A   1      40.424  29.265  30.511  1.00  0.00     0.167 HD
ATOM     50  C   UNL A   1      43.491  27.805  33.289  1.00  0.00     0.037 A 
ATOM     51  C   UNL A   1      38.155  30.723  29.809  1.00  0.00     0.037 A 
ATOM     52  C   UNL A   1      42.746  28.788  34.030  1.00  0.00     0.049 A 
ATOM     53  C   UNL A   1      38.441  31.051  31.250  1.00  0.00     0.074 A 
ATOM     54  C   UNL A   1      42.961  29.240  35.321  1.00  0.00     0.029 A 
ATOM     55  N   UNL A   1      41.633  29.462  33.550  1.00  0.00    -0.354 N 
ATOM     56  N   UNL A   1      39.410  30.621  32.021  1.00  0.00    -0.248 NA
ATOM     57  C   UNL A   1      37.524  31.992  31.908  1.00  0.00     0.031 C 
ATOM     58  C   UNL A   1      41.947  30.150  35.640  1.00  0.00     0.029 A 
ATOM     59  C   UNL A   1      41.132  30.304  34.529  1.00  0.00     0.049 A 
ATOM     60  H   UNL A   1      41.255  29.357  32.648  1.00  0.00     0.167 HD
ATOM     61  C   UNL A   1      39.239  31.261  33.242  1.00  0.00     0.074 A 
ATOM     62  C   UNL A   1      38.079  32.116  33.105  1.00  0.00     0.031 C 
ATOM     63  C   UNL A   1      39.978  31.154  34.374  1.00  0.00     0.037 A 
BRANCH  50  64
ATOM     64  C   UNL A   1      44.623  27.100  33.980  1.00  0.00     0.057 A 
ATOM     65  C   UNL A   1      44.443  25.870  34.627  1.00  0.00     0.134 A 
ATOM     66  C   UNL A   1      45.918  27.632  33.955  1.00  0.00     0.134 A 
ATOM     67  F   UNL A   1      43.226  25.310  34.698  1.00  0.00    -0.206 F 
ATOM     68  C   UNL A   1      45.506  25.207  35.244  1.00  0.00     0.040 A 
ATOM     69  C   UNL A   1      46.994  26.966  34.546  1.00  0.00     0.040 A 
ATOM     70  F   UNL A   1      46.162  28.803  33.347  1.00  0.00    -0.206 F 
ATOM     71  C   UNL A   1      46.787  25.752  35.197  1.00  0.00     0.006 A 
ENDBRANCH  50  64
BRANCH  51  72
ATOM     72  C   UNL A   1      37.003  31.338  29.105  1.00  0.00     0.057 A 
ATOM     73  C   UNL A   1      35.823  30.619  28.883  1.00  0.00     0.134 A 
ATOM     74  C   UNL A   1      37.056  32.655  28.633  1.00  0.00     0.134 A 
ATOM     75  F   UNL A   1      35.722  29.347  29.296  1.00  0.00    -0.206 F 
ATOM     76  C   UNL A   1      34.743  31.180  28.201  1.00  0.00     0.040 A 
ATOM     77  C   UNL A   1      35.974  33.236  27.971  1.00  0.00     0.040 A 
ATOM     78  F   UNL A   1      38.156  33.398  28.818  1.00  0.00    -0.206 F 
ATOM     79  C   UNL A   1      34.815  32.495  27.747  1.00  0.00     0.006 A 
ENDBRANCH  51  72
BRANCH  63  80
ATOM     80  C   UNL A   1      39.576  32.009  35.540  1.00  0.00     0.057 A 
ATOM     81  C   UNL A   1      40.108  33.289  35.737  1.00  0.00     0.134 A 
ATOM     82  C   UNL A   1      38.616  31.558  36.456  1.00  0.00     0.134 A 
ATOM     83  F   UNL A   1      41.040  33.775  34.903  1.00  0.00    -0.206 F 
ATOM     84  C   UNL A   1      39.717  34.082  36.819  1.00  0.00     0.040 A 
ATOM     85  C   UNL A   1      38.198  32.351  37.524  1.00  0.00     0.040 A 
ATOM     86  F   UNL A   1      38.059  30.345  36.319  1.00  0.00    -0.206 F 
ATOM     87  C   UNL A   1      38.754  33.615  37.712  1.00  0.00     0.006 A 
ENDBRANCH  63  80
ENDBRANCH  37  38
ENDBRANCH  30  32
ENDBRANCH  29  30
ENDBRANCH  28  29
ENDBRANCH  27  28
ENDBRANCH  26  27
ENDBRANCH   1  26
TORSDOF 19
ENDMDL
MODEL 3
REMARK VINA RESULT:     -11.1      5.686     11.582
REMARK SMILES [NH3+][C@H](C(=O)OCCOCCOC(=O)c1ccc(-c2c3nc(c(-c4c(F)cccc4F)c4ccc([nH]4)c(-c4c(F)cccc4F)c4nc(c(-c5c(F)cccc5F)c5ccc2[nH]5)C=C4)C=C3)cc1)c1ccc(OCC(=O)N2CCCC2)cc1
REMARK SMILES IDX 7 1 6 2 5 3 3 4 4 5 2 6 1 7 68 11 69 12 82 13 70 14 81 15
REMARK SMILES IDX 71 16 72 17 73 18 74 19 75 20 76 21 77 22 80 23 78 24 79 25
REMARK SMILES IDX 8 26 9 27 10 28 11 29 12 30 13 31 14 32 15 33 67 34 16 35
REMARK SMILES IDX 66 36 17 37 18 38 19 39 60 40 20 41 65 42 59 43 61 44 21 45
REMARK SMILES IDX 64 46 58 47 57 48 22 50 48 51 31 52 47 53 32 54 35 55 46 56
REMARK SMILES IDX 62 57 33 58 34 59 45 61 63 62 36 63 23 64 24 65 29 66 25 67
REMARK SMILES IDX 26 68 28 69 30 70 27 71 49 72 50 73 55 74 51 75 52 76 54 77
REMARK SMILES IDX 56 78 53 79 37 80 38 81 43 82 39 83 40 84 42 85 44 86 41 87
REMARK H PARENT 1 8 1 9 1 10 61 49 35 60
REMARK Flexibility Score: inf
ROOT
ATOM      1  C   UNL A   1      45.755  20.770  24.931  1.00  0.00     0.202 C 
ENDROOT
BRANCH   1   2
ATOM      2  C   UNL A   1      44.827  19.558  24.791  1.00  0.00     0.261 C 
BRANCH   2   3
ATOM      3  O   UNL A   1      43.437  19.907  24.908  1.00  0.00    -0.459 OA
BRANCH   3   4
ATOM      4  C   UNL A   1      42.732  19.165  25.803  1.00  0.00     0.369 C 
ATOM      5  O   UNL A   1      42.767  17.936  25.860  1.00  0.00    -0.245 OA
BRANCH   4   6
ATOM      6  C   UNL A   1      41.860  19.986  26.780  1.00  0.00     0.323 C 
BRANCH   6   7
ATOM      7  N   UNL A   1      42.662  21.159  27.230  1.00  0.00    -0.342 N 
ATOM      8  H   UNL A   1      42.978  21.687  26.417  1.00  0.00     0.345 HD
ATOM      9  H   UNL A   1      43.472  20.835  27.761  1.00  0.00     0.345 HD
ATOM     10  H   UNL A   1      42.086  21.759  27.821  1.00  0.00     0.345 HD
ENDBRANCH   6   7
BRANCH   6  11
ATOM     11  C   UNL A   1      40.467  20.398  26.317  1.00  0.00     0.021 A 
ATOM     12  C   UNL A   1      39.612  19.533  25.616  1.00  0.00     0.014 A 
ATOM     13  C   UNL A   1      40.024  21.714  26.533  1.00  0.00     0.014 A 
ATOM     14  C   UNL A   1      38.378  19.976  25.134  1.00  0.00     0.047 A 
ATOM     15  C   UNL A   1      38.790  22.162  26.038  1.00  0.00     0.047 A 
ATOM     16  C   UNL A   1      37.968  21.294  25.327  1.00  0.00     0.120 A 
BRANCH  16  17
ATOM     17  O   UNL A   1      36.756  21.586  24.775  1.00  0.00    -0.484 OA
BRANCH  17  18
ATOM     18  C   UNL A   1      36.020  22.673  25.303  1.00  0.00     0.329 C 
BRANCH  18  19
ATOM     19  C   UNL A   1      34.781  22.358  26.153  1.00  0.00     0.260 C 
ATOM     20  O   UNL A   1      34.774  21.373  26.897  1.00  0.00    -0.271 OA
ATOM     21  N   UNL A   1      33.730  23.250  26.124  1.00  0.00    -0.340 N 
ATOM     22  C   UNL A   1      33.545  24.363  25.215  1.00  0.00     0.119 C 
ATOM     23  C   UNL A   1      32.622  23.119  27.048  1.00  0.00     0.119 C 
ATOM     24  C   UNL A   1      32.513  25.242  25.897  1.00  0.00     0.023 C 
ATOM     25  C   UNL A   1      31.685  24.278  26.737  1.00  0.00     0.023 C 
ENDBRANCH  18  19
ENDBRANCH  17  18
ENDBRANCH  16  17
ENDBRANCH   6  11
ENDBRANCH   4   6
ENDBRANCH   3   4
ENDBRANCH   2   3
ENDBRANCH   1   2
BRANCH   1  26
ATOM     26  O   UNL A   1      45.619  21.563  26.107  1.00  0.00    -0.374 OA
BRANCH  26  27
ATOM     27  C   UNL A   1      45.986  22.940  26.018  1.00  0.00     0.202 C 
BRANCH  27  28
ATOM     28  C   UNL A   1      45.757  23.643  24.674  1.00  0.00     0.261 C 
BRANCH  28  29
ATOM     29  O   UNL A   1      44.756  24.670  24.761  1.00  0.00    -0.460 OA
BRANCH  29  30
ATOM     30  C   UNL A   1      43.516  24.228  25.070  1.00  0.00     0.338 C 
ATOM     31  O   UNL A   1      43.012  23.157  24.751  1.00  0.00    -0.246 OA
BRANCH  30  32
ATOM     32  C   UNL A   1      42.857  25.153  26.012  1.00  0.00     0.060 A 
ATOM     33  C   UNL A   1      43.391  26.443  26.136  1.00  0.00     0.016 A 
ATOM     34  C   UNL A   1      41.777  24.759  26.803  1.00  0.00     0.016 A 
ATOM     35  C   UNL A   1      42.906  27.310  27.112  1.00  0.00     0.010 A 
ATOM     36  C   UNL A   1      41.297  25.628  27.786  1.00  0.00     0.010 A 
ATOM     37  C   UNL A   1      41.893  26.884  27.979  1.00  0.00    -0.014 A 
BRANCH  37  38
ATOM     38  C   UNL A   1      41.548  27.693  29.168  1.00  0.00     0.031 A 
ATOM     39  C   UNL A   1      40.361  28.615  29.109  1.00  0.00     0.074 A 
ATOM     40  C   UNL A   1      42.288  27.607  30.287  1.00  0.00     0.049 A 
ATOM     41  N   UNL A   1      39.878  29.406  30.031  1.00  0.00    -0.248 NA
ATOM     42  C   UNL A   1      39.626  28.657  27.834  1.00  0.00     0.031 C 
ATOM     43  C   UNL A   1      43.462  26.752  30.456  1.00  0.00     0.029 A 
ATOM     44  N   UNL A   1      42.165  28.257  31.487  1.00  0.00    -0.354 N 
ATOM     45  C   UNL A   1      38.783  30.037  29.453  1.00  0.00     0.074 A 
ATOM     46  C   UNL A   1      38.695  29.566  28.088  1.00  0.00     0.031 C 
ATOM     47  C   UNL A   1      43.958  26.937  31.691  1.00  0.00     0.029 A 
ATOM     48  C   UNL A   1      43.149  27.935  32.387  1.00  0.00     0.049 A 
ATOM     49  H   UNL A   1      41.441  28.894  31.683  1.00  0.00     0.167 HD
ATOM     50  C   UNL A   1      37.922  30.919  30.016  1.00  0.00     0.037 A 
ATOM     51  C   UNL A   1      43.371  28.401  33.631  1.00  0.00     0.037 A 
ATOM     52  C   UNL A   1      38.018  31.383  31.375  1.00  0.00     0.049 A 
ATOM     53  C   UNL A   1      42.425  29.413  34.219  1.00  0.00     0.074 A 
ATOM     54  C   UNL A   1      37.168  32.237  32.057  1.00  0.00     0.029 A 
ATOM     55  N   UNL A   1      39.034  31.042  32.256  1.00  0.00    -0.354 N 
ATOM     56  N   UNL A   1      41.351  29.948  33.689  1.00  0.00    -0.248 NA
ATOM     57  C   UNL A   1      42.716  29.876  35.582  1.00  0.00     0.031 C 
ATOM     58  C   UNL A   1      37.697  32.453  33.334  1.00  0.00     0.029 A 
ATOM     59  C   UNL A   1      38.848  31.692  33.465  1.00  0.00     0.049 A 
ATOM     60  H   UNL A   1      39.776  30.429  32.052  1.00  0.00     0.167 HD
ATOM     61  C   UNL A   1      40.822  30.786  34.664  1.00  0.00     0.074 A 
ATOM     62  C   UNL A   1      41.688  30.679  35.820  1.00  0.00     0.031 C 
ATOM     63  C   UNL A   1      39.717  31.570  34.608  1.00  0.00     0.037 A 
BRANCH  50  64
ATOM     64  C   UNL A   1      36.808  31.448  29.160  1.00  0.00     0.057 A 
ATOM     65  C   UNL A   1      35.680  30.674  28.854  1.00  0.00     0.134 A 
ATOM     66  C   UNL A   1      36.839  32.761  28.677  1.00  0.00     0.134 A 
ATOM     67  F   UNL A   1      35.591  29.404  29.276  1.00  0.00    -0.206 F 
ATOM     68  C   UNL A   1      34.635  31.182  28.079  1.00  0.00     0.040 A 
ATOM     69  C   UNL A   1      35.788  33.289  27.923  1.00  0.00     0.040 A 
ATOM     70  F   UNL A   1      37.886  33.559  28.937  1.00  0.00    -0.206 F 
ATOM     71  C   UNL A   1      34.685  32.496  27.619  1.00  0.00     0.006 A 
ENDBRANCH  50  64
BRANCH  51  72
ATOM     72  C   UNL A   1      44.531  27.904  34.411  1.00  0.00     0.057 A 
ATOM     73  C   UNL A   1      45.745  28.600  34.426  1.00  0.00     0.134 A 
ATOM     74  C   UNL A   1      44.456  26.721  35.156  1.00  0.00     0.134 A 
ATOM     75  F   UNL A   1      45.883  29.730  33.716  1.00  0.00    -0.206 F 
ATOM     76  C   UNL A   1      46.849  28.129  35.137  1.00  0.00     0.040 A 
ATOM     77  C   UNL A   1      45.545  26.251  35.891  1.00  0.00     0.040 A 
ATOM     78  F   UNL A   1      43.319  26.010  35.186  1.00  0.00    -0.206 F 
ATOM     79  C   UNL A   1      46.748  26.953  35.877  1.00  0.00     0.006 A 
ENDBRANCH  51  72
BRANCH  63  80
ATOM     80  C   UNL A   1      39.362  32.344  35.844  1.00  0.00     0.057 A 
ATOM     81  C   UNL A   1      39.897  33.611  36.103  1.00  0.00     0.134 A 
ATOM     82  C   UNL A   1      38.443  31.828  36.767  1.00  0.00     0.134 A 
ATOM     83  F   UNL A   1      40.792  34.157  35.264  1.00  0.00    -0.206 F 
ATOM     84  C   UNL A   1      39.550  34.330  37.249  1.00  0.00     0.040 A 
ATOM     85  C   UNL A   1      38.067  32.547  37.902  1.00  0.00     0.040 A 
ATOM     86  F   UNL A   1      37.884  30.624  36.573  1.00  0.00    -0.206 F 
ATOM     87  C   UNL A   1      38.627  33.800  38.149  1.00  0.00     0.006 A 
ENDBRANCH  63  80
ENDBRANCH  37  38
ENDBRANCH  30  32
ENDBRANCH  29  30
ENDBRANCH  28  29
ENDBRANCH  27  28
ENDBRANCH  26  27
ENDBRANCH   1  26
TORSDOF 19
ENDMDL
