MODEL 1
REMARK VINA RESULT:     -10.0      0.000      0.000
REMARK SMILES N#Cc1ccc(Sc2csc(C(=O)OCCOCCOC(=O)c3ccc(-c4c5nc(c(-c6c(F)cccc6F)c6ccc([nH]6)c(-c6c(F)cccc6F)c6nc(c(-c7c(F)cccc7F)c7ccc4[nH]7)C=C6)C=C5)cc3)c2)c(F)c1
REMARK SMILES IDX 16 1 15 2 14 3 12 4 13 5 11 6 8 7 9 8 77 9 10 10 7 11 6 12
REMARK SMILES IDX 3 13 4 14 80 15 5 16 78 17 79 18 2 19 1 20 17 21 18 22 19 23
REMARK SMILES IDX 20 24 21 25 22 26 23 27 24 28 76 29 25 30 75 31 26 32 27 33
REMARK SMILES IDX 28 34 69 35 29 36 74 37 68 38 70 39 30 40 73 41 67 42 66 43
REMARK SMILES IDX 31 45 57 46 40 47 56 48 41 49 44 50 55 51 71 52 42 53 43 54
REMARK SMILES IDX 54 56 72 57 45 58 32 59 33 60 38 61 34 62 35 63 37 64 39 65
REMARK SMILES IDX 36 66 58 67 59 68 64 69 60 70 61 71 63 72 65 73 62 74 46 75
REMARK SMILES IDX 47 76 52 77 48 78 49 79 51 80 53 81 50 82
REMARK H PARENT 70 44 44 55
REMARK Flexibility Score: inf
ROOT
ATOM      1  C   UNL A   1      33.688  35.544  29.657  1.00  0.00     0.202 C 
ENDROOT
BRANCH   1   2
ATOM      2  C   UNL A   1      33.342  34.691  28.432  1.00  0.00     0.261 C 
BRANCH   2   3
ATOM      3  O   UNL A   1      33.583  33.292  28.646  1.00  0.00    -0.459 OA
BRANCH   3   4
ATOM      4  C   UNL A   1      34.638  32.776  27.944  1.00  0.00     0.348 C 
ATOM      5  O   UNL A   1      35.645  33.406  27.647  1.00  0.00    -0.245 OA
BRANCH   4   6
ATOM      6  C   UNL A   1      34.418  31.362  27.702  1.00  0.00     0.113 A 
ATOM      7  C   UNL A   1      33.458  29.277  27.269  1.00  0.00     0.024 A 
ATOM      8  C   UNL A   1      34.793  28.951  27.295  1.00  0.00     0.081 A 
ATOM      9  C   UNL A   1      33.238  30.660  27.548  1.00  0.00     0.043 A 
ATOM     10  S   UNL A   1      35.775  30.314  27.620  1.00  0.00    -0.136 S 
BRANCH   7  11
ATOM     11  S   UNL A   1      32.134  28.234  26.799  1.00  0.00    -0.086 SA
BRANCH  11  12
ATOM     12  C   UNL A   1      32.476  27.535  25.199  1.00  0.00     0.048 A 
ATOM     13  C   UNL A   1      32.755  26.470  22.595  1.00  0.00     0.055 A 
ATOM     14  C   UNL A   1      33.432  25.893  23.675  1.00  0.00     0.021 A 
ATOM     15  C   UNL A   1      31.944  27.582  22.809  1.00  0.00     0.060 A 
ATOM     16  C   UNL A   1      33.287  26.418  24.970  1.00  0.00     0.020 A 
ATOM     17  C   UNL A   1      31.816  28.101  24.096  1.00  0.00     0.138 A 
ATOM     18  F   UNL A   1      31.014  29.165  24.257  1.00  0.00    -0.206 F 
BRANCH  13  19
ATOM     19  C   UNL A   1      32.876  25.914  21.277  1.00  0.00     0.099 C 
ATOM     20  N   UNL A   1      32.971  25.472  20.212  1.00  0.00    -0.192 NA
ENDBRANCH  13  19
ENDBRANCH  11  12
ENDBRANCH   7  11
ENDBRANCH   4   6
ENDBRANCH   3   4
ENDBRANCH   2   3
ENDBRANCH   1   2
BRANCH   1  21
ATOM     21  O   UNL A   1      33.012  35.282  30.881  1.00  0.00    -0.374 OA
BRANCH  21  22
ATOM     22  C   UNL A   1      33.762  34.766  31.977  1.00  0.00     0.202 C 
BRANCH  22  23
ATOM     23  C   UNL A   1      34.185  33.288  31.961  1.00  0.00     0.261 C 
BRANCH  23  24
ATOM     24  O   UNL A   1      35.560  33.083  31.598  1.00  0.00    -0.460 OA
BRANCH  24  25
ATOM     25  C   UNL A   1      36.285  32.379  32.504  1.00  0.00     0.338 C 
ATOM     26  O   UNL A   1      35.927  31.996  33.604  1.00  0.00    -0.246 OA
BRANCH  25  27
ATOM     27  C   UNL A   1      37.556  31.957  31.890  1.00  0.00     0.060 A 
ATOM     28  C   UNL A   1      37.648  31.956  30.491  1.00  0.00     0.016 A 
ATOM     29  C   UNL A   1      38.622  31.518  32.673  1.00  0.00     0.016 A 
ATOM     30  C   UNL A   1      38.811  31.505  29.869  1.00  0.00     0.010 A 
ATOM     31  C   UNL A   1      39.782  31.055  32.047  1.00  0.00     0.010 A 
ATOM     32  C   UNL A   1      39.879  31.032  30.644  1.00  0.00    -0.014 A 
BRANCH  32  33
ATOM     33  C   UNL A   1      41.080  30.450  29.997  1.00  0.00     0.031 A 
ATOM     34  C   UNL A   1      42.272  31.323  29.727  1.00  0.00     0.074 A 
ATOM     35  C   UNL A   1      41.093  29.156  29.632  1.00  0.00     0.049 A 
ATOM     36  N   UNL A   1      43.367  31.049  29.064  1.00  0.00    -0.248 NA
ATOM     37  C   UNL A   1      42.221  32.691  30.269  1.00  0.00     0.031 C 
ATOM     38  C   UNL A   1      40.014  28.199  29.876  1.00  0.00     0.029 A 
ATOM     39  N   UNL A   1      42.040  28.429  28.955  1.00  0.00    -0.354 N 
ATOM     40  C   UNL A   1      44.130  32.210  29.099  1.00  0.00     0.074 A 
ATOM     41  C   UNL A   1      43.359  33.200  29.822  1.00  0.00     0.031 C 
ATOM     42  C   UNL A   1      40.352  27.015  29.341  1.00  0.00     0.029 A 
ATOM     43  C   UNL A   1      41.646  27.143  28.676  1.00  0.00     0.049 A 
ATOM     44  H   UNL A   1      42.918  28.793  28.697  1.00  0.00     0.167 HD
ATOM     45  C   UNL A   1      45.362  32.425  28.580  1.00  0.00     0.037 A 
ATOM     46  C   UNL A   1      42.243  26.191  27.932  1.00  0.00     0.037 A 
ATOM     47  C   UNL A   1      46.119  31.433  27.859  1.00  0.00     0.049 A 
ATOM     48  C   UNL A   1      43.569  26.488  27.279  1.00  0.00     0.074 A 
ATOM     49  C   UNL A   1      47.388  31.547  27.316  1.00  0.00     0.029 A 
ATOM     50  N   UNL A   1      45.674  30.153  27.568  1.00  0.00    -0.354 N 
ATOM     51  N   UNL A   1      44.300  27.575  27.348  1.00  0.00    -0.248 NA
ATOM     52  C   UNL A   1      44.151  25.429  26.442  1.00  0.00     0.031 C 
ATOM     53  C   UNL A   1      47.679  30.362  26.636  1.00  0.00     0.029 A 
ATOM     54  C   UNL A   1      46.624  29.482  26.816  1.00  0.00     0.049 A 
ATOM     55  H   UNL A   1      44.810  29.776  27.854  1.00  0.00     0.167 HD
ATOM     56  C   UNL A   1      45.435  27.320  26.589  1.00  0.00     0.074 A 
ATOM     57  C   UNL A   1      45.307  25.969  26.085  1.00  0.00     0.031 C 
ATOM     58  C   UNL A   1      46.488  28.133  26.326  1.00  0.00     0.037 A 
BRANCH  45  59
ATOM     59  C   UNL A   1      45.964  33.790  28.747  1.00  0.00     0.057 A 
ATOM     60  C   UNL A   1      45.801  34.797  27.787  1.00  0.00     0.134 A 
ATOM     61  C   UNL A   1      46.670  34.119  29.912  1.00  0.00     0.134 A 
ATOM     62  F   UNL A   1      45.143  34.547  26.645  1.00  0.00    -0.206 F 
ATOM     63  C   UNL A   1      46.336  36.074  27.969  1.00  0.00     0.040 A 
ATOM     64  C   UNL A   1      47.183  35.401  30.119  1.00  0.00     0.040 A 
ATOM     65  F   UNL A   1      46.857  33.207  30.877  1.00  0.00    -0.206 F 
ATOM     66  C   UNL A   1      47.022  36.381  29.142  1.00  0.00     0.006 A 
ENDBRANCH  45  59
BRANCH  46  67
ATOM     67  C   UNL A   1      41.584  24.874  27.730  1.00  0.00     0.057 A 
ATOM     68  C   UNL A   1      40.535  24.722  26.816  1.00  0.00     0.134 A 
ATOM     69  C   UNL A   1      41.959  23.746  28.470  1.00  0.00     0.134 A 
ATOM     70  F   UNL A   1      40.113  25.770  26.092  1.00  0.00    -0.206 F 
ATOM     71  C   UNL A   1      39.864  23.507  26.664  1.00  0.00     0.040 A 
ATOM     72  C   UNL A   1      41.320  22.515  28.304  1.00  0.00     0.040 A 
ATOM     73  F   UNL A   1      42.958  23.819  29.362  1.00  0.00    -0.206 F 
ATOM     74  C   UNL A   1      40.262  22.397  27.407  1.00  0.00     0.006 A 
ENDBRANCH  46  67
BRANCH  58  75
ATOM     75  C   UNL A   1      47.602  27.581  25.482  1.00  0.00     0.057 A 
ATOM     76  C   UNL A   1      47.565  27.632  24.083  1.00  0.00     0.134 A 
ATOM     77  C   UNL A   1      48.753  27.048  26.078  1.00  0.00     0.134 A 
ATOM     78  F   UNL A   1      46.488  28.118  23.447  1.00  0.00    -0.206 F 
ATOM     79  C   UNL A   1      48.624  27.156  23.307  1.00  0.00     0.040 A 
ATOM     80  C   UNL A   1      49.832  26.600  25.314  1.00  0.00     0.040 A 
ATOM     81  F   UNL A   1      48.860  26.979  27.413  1.00  0.00    -0.206 F 
ATOM     82  C   UNL A   1      49.766  26.648  23.924  1.00  0.00     0.006 A 
ENDBRANCH  58  75
ENDBRANCH  32  33
ENDBRANCH  25  27
ENDBRANCH  24  25
ENDBRANCH  23  24
ENDBRANCH  22  23
ENDBRANCH  21  22
ENDBRANCH   1  21
TORSDOF 17
ENDMDL
MODEL 2
REMARK VINA RESULT:      -9.9      5.046      7.582
REMARK SMILES N#Cc1ccc(Sc2csc(C(=O)OCCOCCOC(=O)c3ccc(-c4c5nc(c(-c6c(F)cccc6F)c6ccc([nH]6)c(-c6c(F)cccc6F)c6nc(c(-c7c(F)cccc7F)c7ccc4[nH]7)C=C6)C=C5)cc3)c2)c(F)c1
REMARK SMILES IDX 16 1 15 2 14 3 12 4 13 5 11 6 8 7 9 8 77 9 10 10 7 11 6 12
REMARK SMILES IDX 3 13 4 14 80 15 5 16 78 17 79 18 2 19 1 20 17 21 18 22 19 23
REMARK SMILES IDX 20 24 21 25 22 26 23 27 24 28 76 29 25 30 75 31 26 32 27 33
REMARK SMILES IDX 28 34 69 35 29 36 74 37 68 38 70 39 30 40 73 41 67 42 66 43
REMARK SMILES IDX 31 45 57 46 40 47 56 48 41 49 44 50 55 51 71 52 42 53 43 54
REMARK SMILES IDX 54 56 72 57 45 58 32 59 33 60 38 61 34 62 35 63 37 64 39 65
REMARK SMILES IDX 36 66 58 67 59 68 64 69 60 70 61 71 63 72 65 73 62 74 46 75
REMARK SMILES IDX 47 76 52 77 48 78 49 79 51 80 53 81 50 82
REMARK H PARENT 70 44 44 55
REMARK Flexibility Score: inf
ROOT
ATOM      1  C   UNL A   1      34.821  32.919  28.451  1.00  0.00     0.202 C 
ENDROOT
BRANCH   1   2
ATOM      2  C   UNL A   1      34.444  31.434  28.459  1.00  0.00     0.261 C 
BRANCH   2   3
ATOM      3  O   UNL A   1      34.191  30.920  27.143  1.00  0.00    -0.459 OA
BRANCH   3   4
ATOM      4  C   UNL A   1      32.875  30.673  26.865  1.00  0.00     0.348 C 
ATOM      5  O   UNL A   1      31.984  31.510  26.936  1.00  0.00    -0.245 OA
BRANCH   4   6
ATOM      6  C   UNL A   1      32.725  29.313  26.383  1.00  0.00     0.113 A 
ATOM      7  C   UNL A   1      32.871  27.335  25.147  1.00  0.00     0.024 A 
ATOM      8  C   UNL A   1      32.107  26.923  26.213  1.00  0.00     0.081 A 
ATOM      9  C   UNL A   1      33.190  28.724  25.222  1.00  0.00     0.043 A 
ATOM     10  S   UNL A   1      31.808  28.199  27.313  1.00  0.00    -0.136 S 
BRANCH   7  11
ATOM     11  S   UNL A   1      33.554  26.323  23.894  1.00  0.00    -0.086 SA
BRANCH  11  12
ATOM     12  C   UNL A   1      33.091  24.630  24.189  1.00  0.00     0.048 A 
ATOM     13  C   UNL A   1      32.625  21.886  24.681  1.00  0.00     0.055 A 
ATOM     14  C   UNL A   1      31.837  22.587  23.762  1.00  0.00     0.021 A 
ATOM     15  C   UNL A   1      33.641  22.552  25.362  1.00  0.00     0.060 A 
ATOM     16  C   UNL A   1      32.074  23.948  23.512  1.00  0.00     0.020 A 
ATOM     17  C   UNL A   1      33.861  23.905  25.114  1.00  0.00     0.138 A 
ATOM     18  F   UNL A   1      34.859  24.503  25.783  1.00  0.00    -0.206 F 
BRANCH  13  19
ATOM     19  C   UNL A   1      32.405  20.486  24.913  1.00  0.00     0.099 C 
ATOM     20  N   UNL A   1      32.233  19.356  25.096  1.00  0.00    -0.192 NA
ENDBRANCH  13  19
ENDBRANCH  11  12
ENDBRANCH   7  11
ENDBRANCH   4   6
ENDBRANCH   3   4
ENDBRANCH   2   3
ENDBRANCH   1   2
BRANCH   1  21
ATOM     21  O   UNL A   1      34.111  33.806  29.308  1.00  0.00    -0.374 OA
BRANCH  21  22
ATOM     22  C   UNL A   1      33.751  35.092  28.809  1.00  0.00     0.202 C 
BRANCH  22  23
ATOM     23  C   UNL A   1      32.897  36.019  29.687  1.00  0.00     0.261 C 
BRANCH  23  24
ATOM     24  O   UNL A   1      32.316  35.364  30.827  1.00  0.00    -0.460 OA
BRANCH  24  25
ATOM     25  C   UNL A   1      32.710  35.861  32.027  1.00  0.00     0.338 C 
ATOM     26  O   UNL A   1      32.149  36.707  32.700  1.00  0.00    -0.246 OA
BRANCH  25  27
ATOM     27  C   UNL A   1      33.858  35.082  32.524  1.00  0.00     0.060 A 
ATOM     28  C   UNL A   1      35.137  35.647  32.422  1.00  0.00     0.016 A 
ATOM     29  C   UNL A   1      33.688  33.795  33.031  1.00  0.00     0.016 A 
ATOM     30  C   UNL A   1      36.255  34.919  32.823  1.00  0.00     0.010 A 
ATOM     31  C   UNL A   1      34.812  33.062  33.420  1.00  0.00     0.010 A 
ATOM     32  C   UNL A   1      36.102  33.613  33.306  1.00  0.00    -0.014 A 
BRANCH  32  33
ATOM     33  C   UNL A   1      37.288  32.786  33.635  1.00  0.00     0.031 A 
ATOM     34  C   UNL A   1      38.054  33.060  34.899  1.00  0.00     0.074 A 
ATOM     35  C   UNL A   1      37.692  31.815  32.797  1.00  0.00     0.049 A 
ATOM     36  N   UNL A   1      39.183  32.543  35.312  1.00  0.00    -0.248 NA
ATOM     37  C   UNL A   1      37.473  34.054  35.816  1.00  0.00     0.031 C 
ATOM     38  C   UNL A   1      37.009  31.429  31.562  1.00  0.00     0.029 A 
ATOM     39  N   UNL A   1      38.788  30.991  32.847  1.00  0.00    -0.354 N 
ATOM     40  C   UNL A   1      39.455  33.155  36.529  1.00  0.00     0.074 A 
ATOM     41  C   UNL A   1      38.388  34.104  36.773  1.00  0.00     0.031 C 
ATOM     42  C   UNL A   1      37.713  30.455  30.962  1.00  0.00     0.029 A 
ATOM     43  C   UNL A   1      38.917  30.184  31.743  1.00  0.00     0.049 A 
ATOM     44  H   UNL A   1      39.420  30.979  33.602  1.00  0.00     0.167 HD
ATOM     45  C   UNL A   1      40.496  32.939  37.367  1.00  0.00     0.037 A 
ATOM     46  C   UNL A   1      39.915  29.353  31.383  1.00  0.00     0.037 A 
ATOM     47  C   UNL A   1      41.555  31.995  37.113  1.00  0.00     0.049 A 
ATOM     48  C   UNL A   1      41.114  29.206  32.285  1.00  0.00     0.074 A 
ATOM     49  C   UNL A   1      42.642  31.686  37.914  1.00  0.00     0.029 A 
ATOM     50  N   UNL A   1      41.669  31.220  35.970  1.00  0.00    -0.354 N 
ATOM     51  N   UNL A   1      41.345  29.760  33.451  1.00  0.00    -0.248 NA
ATOM     52  C   UNL A   1      42.191  28.321  31.819  1.00  0.00     0.031 C 
ATOM     53  C   UNL A   1      43.449  30.779  37.223  1.00  0.00     0.029 A 
ATOM     54  C   UNL A   1      42.829  30.466  36.024  1.00  0.00     0.049 A 
ATOM     55  H   UNL A   1      41.020  31.207  35.229  1.00  0.00     0.167 HD
ATOM     56  C   UNL A   1      42.577  29.271  33.867  1.00  0.00     0.074 A 
ATOM     57  C   UNL A   1      43.035  28.360  32.840  1.00  0.00     0.031 C 
ATOM     58  C   UNL A   1      43.271  29.556  34.997  1.00  0.00     0.037 A 
BRANCH  45  59
ATOM     59  C   UNL A   1      40.563  33.754  38.627  1.00  0.00     0.057 A 
ATOM     60  C   UNL A   1      39.860  33.394  39.783  1.00  0.00     0.134 A 
ATOM     61  C   UNL A   1      41.389  34.884  38.701  1.00  0.00     0.134 A 
ATOM     62  F   UNL A   1      39.045  32.328  39.779  1.00  0.00    -0.206 F 
ATOM     63  C   UNL A   1      39.957  34.140  40.960  1.00  0.00     0.040 A 
ATOM     64  C   UNL A   1      41.519  35.619  39.880  1.00  0.00     0.040 A 
ATOM     65  F   UNL A   1      42.098  35.282  37.634  1.00  0.00    -0.206 F 
ATOM     66  C   UNL A   1      40.796  35.250  41.013  1.00  0.00     0.006 A 
ENDBRANCH  45  59
BRANCH  46  67
ATOM     67  C   UNL A   1      39.848  28.616  30.094  1.00  0.00     0.057 A 
ATOM     68  C   UNL A   1      39.213  27.372  30.002  1.00  0.00     0.134 A 
ATOM     69  C   UNL A   1      40.447  29.118  28.932  1.00  0.00     0.134 A 
ATOM     70  F   UNL A   1      38.639  26.826  31.085  1.00  0.00    -0.206 F 
ATOM     71  C   UNL A   1      39.199  26.641  28.813  1.00  0.00     0.040 A 
ATOM     72  C   UNL A   1      40.412  28.414  27.726  1.00  0.00     0.040 A 
ATOM     73  F   UNL A   1      41.070  30.305  28.947  1.00  0.00    -0.206 F 
ATOM     74  C   UNL A   1      39.797  27.166  27.668  1.00  0.00     0.006 A 
ENDBRANCH  46  67
BRANCH  58  75
ATOM     75  C   UNL A   1      44.585  28.855  35.203  1.00  0.00     0.057 A 
ATOM     76  C   UNL A   1      45.798  29.421  34.790  1.00  0.00     0.134 A 
ATOM     77  C   UNL A   1      44.642  27.628  35.877  1.00  0.00     0.134 A 
ATOM     78  F   UNL A   1      45.814  30.588  34.128  1.00  0.00    -0.206 F 
ATOM     79  C   UNL A   1      47.018  28.784  35.024  1.00  0.00     0.040 A 
ATOM     80  C   UNL A   1      45.858  26.998  36.146  1.00  0.00     0.040 A 
ATOM     81  F   UNL A   1      43.520  27.034  36.309  1.00  0.00    -0.206 F 
ATOM     82  C   UNL A   1      47.050  27.573  35.715  1.00  0.00     0.006 A 
ENDBRANCH  58  75
ENDBRANCH  32  33
ENDBRANCH  25  27
ENDBRANCH  24  25
ENDBRANCH  23  24
ENDBRANCH  22  23
ENDBRANCH  21  22
ENDBRANCH   1  21
TORSDOF 17
ENDMDL
MODEL 3
REMARK VINA RESULT:      -9.9      3.008      4.556
REMARK SMILES N#Cc1ccc(Sc2csc(C(=O)OCCOCCOC(=O)c3ccc(-c4c5nc(c(-c6c(F)cccc6F)c6ccc([nH]6)c(-c6c(F)cccc6F)c6nc(c(-c7c(F)cccc7F)c7ccc4[nH]7)C=C6)C=C5)cc3)c2)c(F)c1
REMARK SMILES IDX 16 1 15 2 14 3 12 4 13 5 11 6 8 7 9 8 77 9 10 10 7 11 6 12
REMARK SMILES IDX 3 13 4 14 80 15 5 16 78 17 79 18 2 19 1 20 17 21 18 22 19 23
REMARK SMILES IDX 20 24 21 25 22 26 23 27 24 28 76 29 25 30 75 31 26 32 27 33
REMARK SMILES IDX 28 34 69 35 29 36 74 37 68 38 70 39 30 40 73 41 67 42 66 43
REMARK SMILES IDX 31 45 57 46 40 47 56 48 41 49 44 50 55 51 71 52 42 53 43 54
REMARK SMILES IDX 54 56 72 57 45 58 32 59 33 60 38 61 34 62 35 63 37 64 39 65
REMARK SMILES IDX 36 66 58 67 59 68 64 69 60 70 61 71 63 72 65 73 62 74 46 75
REMARK SMILES IDX 47 76 52 77 48 78 49 79 51 80 53 81 50 82
REMARK H PARENT 70 44 44 55
REMARK Flexibility Score: inf
ROOT
ATOM      1  C   UNL A   1      31.403  30.245  25.270  1.00  0.00     0.202 C 
ENDROOT
BRANCH   1   2
ATOM      2  C   UNL A   1      30.966  29.239  24.201  1.00  0.00     0.261 C 
BRANCH   2   3
ATOM      3  O   UNL A   1      30.895  27.895  24.701  1.00  0.00    -0.459 OA
BRANCH   3   4
ATOM      4  C   UNL A   1      30.123  27.045  23.958  1.00  0.00     0.348 C 
ATOM      5  O   UNL A   1      29.286  27.406  23.141  1.00  0.00    -0.245 OA
BRANCH   4   6
ATOM      6  C   UNL A   1      30.523  25.673  24.215  1.00  0.00     0.113 A 
ATOM      7  C   UNL A   1      31.332  23.491  24.013  1.00  0.00     0.024 A 
ATOM      8  C   UNL A   1      31.026  23.535  25.353  1.00  0.00     0.081 A 
ATOM      9  C   UNL A   1      31.001  24.709  23.347  1.00  0.00     0.043 A 
ATOM     10  S   UNL A   1      30.375  25.050  25.807  1.00  0.00    -0.136 S 
BRANCH   7  11
ATOM     11  S   UNL A   1      32.177  22.210  23.173  1.00  0.00    -0.086 SA
BRANCH  11  12
ATOM     12  C   UNL A   1      33.783  21.985  23.907  1.00  0.00     0.048 A 
ATOM     13  C   UNL A   1      36.439  21.730  24.841  1.00  0.00     0.055 A 
ATOM     14  C   UNL A   1      35.481  20.756  25.146  1.00  0.00     0.021 A 
ATOM     15  C   UNL A   1      36.073  22.835  24.077  1.00  0.00     0.060 A 
ATOM     16  C   UNL A   1      34.164  20.879  24.675  1.00  0.00     0.020 A 
ATOM     17  C   UNL A   1      34.760  22.953  23.624  1.00  0.00     0.138 A 
ATOM     18  F   UNL A   1      34.456  24.028  22.881  1.00  0.00    -0.206 F 
BRANCH  13  19
ATOM     19  C   UNL A   1      37.794  21.588  25.293  1.00  0.00     0.099 C 
ATOM     20  N   UNL A   1      38.887  21.469  25.653  1.00  0.00    -0.192 NA
ENDBRANCH  13  19
ENDBRANCH  11  12
ENDBRANCH   7  11
ENDBRANCH   4   6
ENDBRANCH   3   4
ENDBRANCH   2   3
ENDBRANCH   1   2
BRANCH   1  21
ATOM     21  O   UNL A   1      32.375  29.840  26.228  1.00  0.00    -0.374 OA
BRANCH  21  22
ATOM     22  C   UNL A   1      32.765  30.769  27.236  1.00  0.00     0.202 C 
BRANCH  22  23
ATOM     23  C   UNL A   1      34.259  31.069  27.435  1.00  0.00     0.261 C 
BRANCH  23  24
ATOM     24  O   UNL A   1      34.935  30.113  28.268  1.00  0.00    -0.460 OA
BRANCH  24  25
ATOM     25  C   UNL A   1      35.797  30.655  29.167  1.00  0.00     0.338 C 
ATOM     26  O   UNL A   1      35.534  31.417  30.080  1.00  0.00    -0.246 OA
BRANCH  25  27
ATOM     27  C   UNL A   1      37.123  30.034  29.006  1.00  0.00     0.060 A 
ATOM     28  C   UNL A   1      37.817  29.645  30.160  1.00  0.00     0.016 A 
ATOM     29  C   UNL A   1      37.700  29.888  27.746  1.00  0.00     0.016 A 
ATOM     30  C   UNL A   1      39.101  29.111  30.055  1.00  0.00     0.010 A 
ATOM     31  C   UNL A   1      38.992  29.364  27.645  1.00  0.00     0.010 A 
ATOM     32  C   UNL A   1      39.705  28.986  28.798  1.00  0.00    -0.014 A 
BRANCH  32  33
ATOM     33  C   UNL A   1      41.108  28.522  28.678  1.00  0.00     0.031 A 
ATOM     34  C   UNL A   1      42.230  29.512  28.814  1.00  0.00     0.074 A 
ATOM     35  C   UNL A   1      41.374  27.228  28.423  1.00  0.00     0.049 A 
ATOM     36  N   UNL A   1      43.513  29.341  28.621  1.00  0.00    -0.248 NA
ATOM     37  C   UNL A   1      41.855  30.878  29.213  1.00  0.00     0.031 C 
ATOM     38  C   UNL A   1      40.374  26.167  28.310  1.00  0.00     0.029 A 
ATOM     39  N   UNL A   1      42.568  26.592  28.191  1.00  0.00    -0.354 N 
ATOM     40  C   UNL A   1      44.099  30.578  28.863  1.00  0.00     0.074 A 
ATOM     41  C   UNL A   1      43.027  31.496  29.188  1.00  0.00     0.031 C 
ATOM     42  C   UNL A   1      40.994  25.014  28.012  1.00  0.00     0.029 A 
ATOM     43  C   UNL A   1      42.425  25.265  27.865  1.00  0.00     0.049 A 
ATOM     44  H   UNL A   1      43.441  27.042  28.253  1.00  0.00     0.167 HD
ATOM     45  C   UNL A   1      45.410  30.911  28.824  1.00  0.00     0.037 A 
ATOM     46  C   UNL A   1      43.341  24.365  27.455  1.00  0.00     0.037 A 
ATOM     47  C   UNL A   1      46.469  29.990  28.497  1.00  0.00     0.049 A 
ATOM     48  C   UNL A   1      44.782  24.788  27.321  1.00  0.00     0.074 A 
ATOM     49  C   UNL A   1      47.833  30.227  28.454  1.00  0.00     0.029 A 
ATOM     50  N   UNL A   1      46.283  28.663  28.141  1.00  0.00    -0.354 N 
ATOM     51  N   UNL A   1      45.332  25.949  27.588  1.00  0.00    -0.248 NA
ATOM     52  C   UNL A   1      45.728  23.778  26.825  1.00  0.00     0.031 C 
ATOM     53  C   UNL A   1      48.463  29.065  28.005  1.00  0.00     0.029 A 
ATOM     54  C   UNL A   1      47.503  28.081  27.836  1.00  0.00     0.049 A 
ATOM     55  H   UNL A   1      45.413  28.203  28.110  1.00  0.00     0.167 HD
ATOM     56  C   UNL A   1      46.687  25.799  27.319  1.00  0.00     0.074 A 
ATOM     57  C   UNL A   1      46.880  24.431  26.888  1.00  0.00     0.031 C 
ATOM     58  C   UNL A   1      47.683  26.714  27.415  1.00  0.00     0.037 A 
BRANCH  45  59
ATOM     59  C   UNL A   1      45.780  32.337  29.117  1.00  0.00     0.057 A 
ATOM     60  C   UNL A   1      46.088  32.775  30.411  1.00  0.00     0.134 A 
ATOM     61  C   UNL A   1      45.884  33.273  28.078  1.00  0.00     0.134 A 
ATOM     62  F   UNL A   1      46.000  31.933  31.452  1.00  0.00    -0.206 F 
ATOM     63  C   UNL A   1      46.465  34.095  30.666  1.00  0.00     0.040 A 
ATOM     64  C   UNL A   1      46.290  34.587  28.316  1.00  0.00     0.040 A 
ATOM     65  F   UNL A   1      45.612  32.921  26.813  1.00  0.00    -0.206 F 
ATOM     66  C   UNL A   1      46.575  35.003  29.615  1.00  0.00     0.006 A 
ENDBRANCH  45  59
BRANCH  46  67
ATOM     67  C   UNL A   1      42.927  22.981  27.105  1.00  0.00     0.057 A 
ATOM     68  C   UNL A   1      42.661  22.032  28.099  1.00  0.00     0.134 A 
ATOM     69  C   UNL A   1      42.823  22.562  25.773  1.00  0.00     0.134 A 
ATOM     70  F   UNL A   1      42.764  22.364  29.395  1.00  0.00    -0.206 F 
ATOM     71  C   UNL A   1      42.334  20.712  27.783  1.00  0.00     0.040 A 
ATOM     72  C   UNL A   1      42.465  21.254  25.442  1.00  0.00     0.040 A 
ATOM     73  F   UNL A   1      43.062  23.420  24.770  1.00  0.00    -0.206 F 
ATOM     74  C   UNL A   1      42.231  20.322  26.449  1.00  0.00     0.006 A 
ENDBRANCH  46  67
BRANCH  58  75
ATOM     75  C   UNL A   1      49.076  26.265  27.077  1.00  0.00     0.057 A 
ATOM     76  C   UNL A   1      49.601  26.386  25.784  1.00  0.00     0.134 A 
ATOM     77  C   UNL A   1      49.926  25.763  28.073  1.00  0.00     0.134 A 
ATOM     78  F   UNL A   1      48.838  26.848  24.781  1.00  0.00    -0.206 F 
ATOM     79  C   UNL A   1      50.912  26.007  25.489  1.00  0.00     0.040 A 
ATOM     80  C   UNL A   1      51.248  25.412  27.797  1.00  0.00     0.040 A 
ATOM     81  F   UNL A   1      49.493  25.631  29.335  1.00  0.00    -0.206 F 
ATOM     82  C   UNL A   1      51.742  25.529  26.501  1.00  0.00     0.006 A 
ENDBRANCH  58  75
ENDBRANCH  32  33
ENDBRANCH  25  27
ENDBRANCH  24  25
ENDBRANCH  23  24
ENDBRANCH  22  23
ENDBRANCH  21  22
ENDBRANCH   1  21
TORSDOF 17
ENDMDL
