MODEL 1
REMARK VINA RESULT:     -11.2      0.000      0.000
REMARK SMILES CN(Cc1ncc(C(=O)OCCOCCOC(=O)c2ccc(-c3c4nc(c(-c5c(F)cccc5F)c5ccc([nH]5)c(-c5c(F)cccc5F)c5nc(c(-c6c(F)cccc6F)c6ccc3[nH]6)C=C5)C=C4)cc2)cn1)S(=O)(=O)c1ccc(Cl)cc1
REMARK SMILES IDX 12 1 11 2 10 3 8 4 9 5 7 6 4 7 5 8 74 9 6 10 73 11 3 12 2 13
REMARK SMILES IDX 1 14 75 15 76 16 77 17 78 18 79 19 84 20 80 21 83 22 81 23
REMARK SMILES IDX 82 24 13 25 14 26 15 27 16 28 17 29 18 30 19 31 20 32 72 33
REMARK SMILES IDX 21 34 71 35 22 36 23 37 24 38 65 39 25 40 70 41 64 42 66 43
REMARK SMILES IDX 26 44 69 45 63 46 62 47 27 49 53 50 36 51 52 52 37 53 40 54
REMARK SMILES IDX 51 55 67 56 38 57 39 58 50 60 68 61 41 62 28 63 29 64 34 65
REMARK SMILES IDX 30 66 31 67 33 68 35 69 32 70 54 71 55 72 60 73 56 74 57 75
REMARK SMILES IDX 59 76 61 77 58 78 42 79 43 80 48 81 44 82 45 83 47 84 49 85
REMARK SMILES IDX 46 86
REMARK H PARENT 66 48 40 59
REMARK Flexibility Score: inf
ROOT
ATOM      1  C   UNL A   1      33.567  35.118  30.322  1.00  0.00     0.202 C 
ENDROOT
BRANCH   1   2
ATOM      2  C   UNL A   1      34.711  34.253  29.783  1.00  0.00     0.261 C 
BRANCH   2   3
ATOM      3  O   UNL A   1      34.220  33.099  29.082  1.00  0.00    -0.460 OA
BRANCH   3   4
ATOM      4  C   UNL A   1      35.072  32.592  28.159  1.00  0.00     0.341 C 
ATOM      5  O   UNL A   1      36.165  33.037  27.847  1.00  0.00    -0.246 OA
BRANCH   4   6
ATOM      6  C   UNL A   1      34.577  31.307  27.662  1.00  0.00     0.096 A 
ATOM      7  C   UNL A   1      33.561  29.023  26.611  1.00  0.00     0.143 A 
ATOM      8  N   UNL A   1      34.847  29.005  27.032  1.00  0.00    -0.239 NA
ATOM      9  N   UNL A   1      32.746  30.093  26.691  1.00  0.00    -0.239 NA
ATOM     10  C   UNL A   1      35.327  30.157  27.558  1.00  0.00     0.130 A 
ATOM     11  C   UNL A   1      33.285  31.222  27.195  1.00  0.00     0.130 A 
BRANCH   7  12
ATOM     12  C   UNL A   1      32.969  27.741  26.064  1.00  0.00     0.179 C 
BRANCH  12  13
ATOM     13  N   UNL A   1      33.520  27.174  24.794  1.00  0.00    -0.193 NA
ATOM     14  C   UNL A   1      34.037  28.244  23.905  1.00  0.00     0.125 C 
BRANCH  13  15
ATOM     15  S   UNL A   1      32.581  26.035  23.934  1.00  0.00     0.243 S 
ATOM     16  O   UNL A   1      33.209  25.825  22.647  1.00  0.00    -0.207 OA
ATOM     17  O   UNL A   1      32.363  24.914  24.825  1.00  0.00    -0.207 OA
BRANCH  15  18
ATOM     18  C   UNL A   1      30.983  26.768  23.675  1.00  0.00     0.082 A 
ATOM     19  C   UNL A   1      29.859  26.121  24.199  1.00  0.00     0.023 A 
ATOM     20  C   UNL A   1      30.850  27.983  22.995  1.00  0.00     0.023 A 
ATOM     21  C   UNL A   1      28.592  26.687  24.031  1.00  0.00     0.022 A 
ATOM     22  C   UNL A   1      29.578  28.529  22.804  1.00  0.00     0.022 A 
ATOM     23  C   UNL A   1      28.456  27.881  23.325  1.00  0.00     0.041 A 
ATOM     24  Cl  UNL A   1      26.894  28.569  23.103  1.00  0.00    -0.084 Cl
ENDBRANCH  15  18
ENDBRANCH  13  15
ENDBRANCH  12  13
ENDBRANCH   7  12
ENDBRANCH   4   6
ENDBRANCH   3   4
ENDBRANCH   2   3
ENDBRANCH   1   2
BRANCH   1  25
ATOM     25  O   UNL A   1      33.127  34.871  31.655  1.00  0.00    -0.374 OA
BRANCH  25  26
ATOM     26  C   UNL A   1      34.115  34.683  32.670  1.00  0.00     0.202 C 
BRANCH  26  27
ATOM     27  C   UNL A   1      34.135  33.344  33.418  1.00  0.00     0.261 C 
BRANCH  27  28
ATOM     28  O   UNL A   1      34.950  32.353  32.766  1.00  0.00    -0.460 OA
BRANCH  28  29
ATOM     29  C   UNL A   1      36.192  32.220  33.294  1.00  0.00     0.338 C 
ATOM     30  O   UNL A   1      36.572  32.586  34.394  1.00  0.00    -0.246 OA
BRANCH  29  31
ATOM     31  C   UNL A   1      37.034  31.384  32.419  1.00  0.00     0.060 A 
ATOM     32  C   UNL A   1      38.081  30.679  33.026  1.00  0.00     0.016 A 
ATOM     33  C   UNL A   1      36.881  31.377  31.032  1.00  0.00     0.016 A 
ATOM     34  C   UNL A   1      39.029  30.031  32.241  1.00  0.00     0.010 A 
ATOM     35  C   UNL A   1      37.835  30.725  30.245  1.00  0.00     0.010 A 
ATOM     36  C   UNL A   1      38.943  30.097  30.845  1.00  0.00    -0.014 A 
BRANCH  36  37
ATOM     37  C   UNL A   1      40.112  29.668  30.037  1.00  0.00     0.031 A 
ATOM     38  C   UNL A   1      41.240  30.640  29.811  1.00  0.00     0.074 A 
ATOM     39  C   UNL A   1      40.204  28.408  29.576  1.00  0.00     0.049 A 
ATOM     40  N   UNL A   1      42.369  30.469  29.171  1.00  0.00    -0.248 NA
ATOM     41  C   UNL A   1      41.071  31.985  30.381  1.00  0.00     0.031 C 
ATOM     42  C   UNL A   1      39.197  27.365  29.760  1.00  0.00     0.029 A 
ATOM     43  N   UNL A   1      41.201  27.793  28.862  1.00  0.00    -0.354 N 
ATOM     44  C   UNL A   1      43.040  31.683  29.258  1.00  0.00     0.074 A 
ATOM     45  C   UNL A   1      42.174  32.595  29.974  1.00  0.00     0.031 C 
ATOM     46  C   UNL A   1      39.630  26.234  29.177  1.00  0.00     0.029 A 
ATOM     47  C   UNL A   1      40.930  26.482  28.557  1.00  0.00     0.049 A 
ATOM     48  H   UNL A   1      42.033  28.248  28.596  1.00  0.00     0.167 HD
ATOM     49  C   UNL A   1      44.273  32.006  28.799  1.00  0.00     0.037 A 
ATOM     50  C   UNL A   1      41.647  25.588  27.848  1.00  0.00     0.037 A 
ATOM     51  C   UNL A   1      45.136  31.098  28.090  1.00  0.00     0.049 A 
ATOM     52  C   UNL A   1      42.990  25.990  27.297  1.00  0.00     0.074 A 
ATOM     53  C   UNL A   1      46.409  31.324  27.598  1.00  0.00     0.029 A 
ATOM     54  N   UNL A   1      44.810  29.788  27.770  1.00  0.00    -0.354 N 
ATOM     55  N   UNL A   1      43.626  27.132  27.410  1.00  0.00    -0.248 NA
ATOM     56  C   UNL A   1      43.721  24.970  26.533  1.00  0.00     0.031 C 
ATOM     57  C   UNL A   1      46.832  30.169  26.930  1.00  0.00     0.029 A 
ATOM     58  C   UNL A   1      45.849  29.202  27.065  1.00  0.00     0.049 A 
ATOM     59  H   UNL A   1      43.966  29.340  28.008  1.00  0.00     0.167 HD
ATOM     60  C   UNL A   1      44.844  26.955  26.762  1.00  0.00     0.074 A 
ATOM     61  C   UNL A   1      44.862  25.592  26.275  1.00  0.00     0.031 C 
ATOM     62  C   UNL A   1      45.857  27.840  26.590  1.00  0.00     0.037 A 
BRANCH  49  63
ATOM     63  C   UNL A   1      44.750  33.414  29.028  1.00  0.00     0.057 A 
ATOM     64  C   UNL A   1      44.478  34.448  28.123  1.00  0.00     0.134 A 
ATOM     65  C   UNL A   1      45.471  33.741  30.183  1.00  0.00     0.134 A 
ATOM     66  F   UNL A   1      43.805  34.201  26.989  1.00  0.00    -0.206 F 
ATOM     67  C   UNL A   1      44.928  35.752  28.346  1.00  0.00     0.040 A 
ATOM     68  C   UNL A   1      45.900  35.046  30.432  1.00  0.00     0.040 A 
ATOM     69  F   UNL A   1      45.764  32.800  31.094  1.00  0.00    -0.206 F 
ATOM     70  C   UNL A   1      45.636  36.055  29.507  1.00  0.00     0.006 A 
ENDBRANCH  49  63
BRANCH  50  71
ATOM     71  C   UNL A   1      41.113  24.221  27.617  1.00  0.00     0.057 A 
ATOM     72  C   UNL A   1      41.623  23.114  28.304  1.00  0.00     0.134 A 
ATOM     73  C   UNL A   1      40.099  23.987  26.680  1.00  0.00     0.134 A 
ATOM     74  F   UNL A   1      42.611  23.271  29.198  1.00  0.00    -0.206 F 
ATOM     75  C   UNL A   1      41.163  21.821  28.051  1.00  0.00     0.040 A 
ATOM     76  C   UNL A   1      39.608  22.703  26.439  1.00  0.00     0.040 A 
ATOM     77  F   UNL A   1      39.564  25.005  25.990  1.00  0.00    -0.206 F 
ATOM     78  C   UNL A   1      40.149  21.614  27.119  1.00  0.00     0.006 A 
ENDBRANCH  50  71
BRANCH  62  79
ATOM     79  C   UNL A   1      47.091  27.344  25.888  1.00  0.00     0.057 A 
ATOM     80  C   UNL A   1      48.100  26.641  26.558  1.00  0.00     0.134 A 
ATOM     81  C   UNL A   1      47.262  27.562  24.514  1.00  0.00     0.134 A 
ATOM     82  F   UNL A   1      48.006  26.405  27.876  1.00  0.00    -0.206 F 
ATOM     83  C   UNL A   1      49.253  26.210  25.897  1.00  0.00     0.040 A 
ATOM     84  C   UNL A   1      48.393  27.106  23.836  1.00  0.00     0.040 A 
ATOM     85  F   UNL A   1      46.329  28.216  23.806  1.00  0.00    -0.206 F 
ATOM     86  C   UNL A   1      49.399  26.438  24.530  1.00  0.00     0.006 A 
ENDBRANCH  62  79
ENDBRANCH  36  37
ENDBRANCH  29  31
ENDBRANCH  28  29
ENDBRANCH  27  28
ENDBRANCH  26  27
ENDBRANCH  25  26
ENDBRANCH   1  25
TORSDOF 18
ENDMDL
MODEL 2
REMARK VINA RESULT:     -11.2      1.813      2.286
REMARK SMILES CN(Cc1ncc(C(=O)OCCOCCOC(=O)c2ccc(-c3c4nc(c(-c5c(F)cccc5F)c5ccc([nH]5)c(-c5c(F)cccc5F)c5nc(c(-c6c(F)cccc6F)c6ccc3[nH]6)C=C5)C=C4)cc2)cn1)S(=O)(=O)c1ccc(Cl)cc1
REMARK SMILES IDX 12 1 11 2 10 3 8 4 9 5 7 6 4 7 5 8 74 9 6 10 73 11 3 12 2 13
REMARK SMILES IDX 1 14 75 15 76 16 77 17 78 18 79 19 84 20 80 21 83 22 81 23
REMARK SMILES IDX 82 24 13 25 14 26 15 27 16 28 17 29 18 30 19 31 20 32 72 33
REMARK SMILES IDX 21 34 71 35 22 36 23 37 24 38 65 39 25 40 70 41 64 42 66 43
REMARK SMILES IDX 26 44 69 45 63 46 62 47 27 49 53 50 36 51 52 52 37 53 40 54
REMARK SMILES IDX 51 55 67 56 38 57 39 58 50 60 68 61 41 62 28 63 29 64 34 65
REMARK SMILES IDX 30 66 31 67 33 68 35 69 32 70 54 71 55 72 60 73 56 74 57 75
REMARK SMILES IDX 59 76 61 77 58 78 42 79 43 80 48 81 44 82 45 83 47 84 49 85
REMARK SMILES IDX 46 86
REMARK H PARENT 66 48 40 59
REMARK Flexibility Score: inf
ROOT
ATOM      1  C   UNL A   1      33.757  34.819  30.313  1.00  0.00     0.202 C 
ENDROOT
BRANCH   1   2
ATOM      2  C   UNL A   1      34.611  34.182  29.213  1.00  0.00     0.261 C 
BRANCH   2   3
ATOM      3  O   UNL A   1      33.890  33.163  28.503  1.00  0.00    -0.460 OA
BRANCH   3   4
ATOM      4  C   UNL A   1      34.669  32.273  27.843  1.00  0.00     0.341 C 
ATOM      5  O   UNL A   1      35.852  32.397  27.565  1.00  0.00    -0.246 OA
BRANCH   4   6
ATOM      6  C   UNL A   1      33.940  31.023  27.622  1.00  0.00     0.096 A 
ATOM      7  C   UNL A   1      32.490  28.797  27.076  1.00  0.00     0.143 A 
ATOM      8  N   UNL A   1      33.797  28.636  27.389  1.00  0.00    -0.239 NA
ATOM      9  N   UNL A   1      31.855  29.985  27.031  1.00  0.00    -0.239 NA
ATOM     10  C   UNL A   1      34.494  29.764  27.663  1.00  0.00     0.130 A 
ATOM     11  C   UNL A   1      32.606  31.077  27.283  1.00  0.00     0.130 A 
BRANCH   7  12
ATOM     12  C   UNL A   1      31.659  27.559  26.813  1.00  0.00     0.179 C 
BRANCH  12  13
ATOM     13  N   UNL A   1      31.891  26.785  25.554  1.00  0.00    -0.193 NA
ATOM     14  C   UNL A   1      31.215  27.425  24.396  1.00  0.00     0.125 C 
BRANCH  13  15
ATOM     15  S   UNL A   1      31.644  25.096  25.577  1.00  0.00     0.243 S 
ATOM     16  O   UNL A   1      31.397  24.703  26.948  1.00  0.00    -0.207 OA
ATOM     17  O   UNL A   1      30.667  24.800  24.550  1.00  0.00    -0.207 OA
BRANCH  15  18
ATOM     18  C   UNL A   1      33.160  24.343  25.035  1.00  0.00     0.082 A 
ATOM     19  C   UNL A   1      34.076  23.913  26.002  1.00  0.00     0.023 A 
ATOM     20  C   UNL A   1      33.422  24.149  23.675  1.00  0.00     0.023 A 
ATOM     21  C   UNL A   1      35.265  23.296  25.605  1.00  0.00     0.022 A 
ATOM     22  C   UNL A   1      34.627  23.559  23.282  1.00  0.00     0.022 A 
ATOM     23  C   UNL A   1      35.540  23.133  24.248  1.00  0.00     0.041 A 
ATOM     24  Cl  UNL A   1      37.014  22.388  23.759  1.00  0.00    -0.084 Cl
ENDBRANCH  15  18
ENDBRANCH  13  15
ENDBRANCH  12  13
ENDBRANCH   7  12
ENDBRANCH   4   6
ENDBRANCH   3   4
ENDBRANCH   2   3
ENDBRANCH   1   2
BRANCH   1  25
ATOM     25  O   UNL A   1      34.416  35.210  31.515  1.00  0.00    -0.374 OA
BRANCH  25  26
ATOM     26  C   UNL A   1      33.839  34.815  32.761  1.00  0.00     0.202 C 
BRANCH  26  27
ATOM     27  C   UNL A   1      34.077  33.379  33.245  1.00  0.00     0.261 C 
BRANCH  27  28
ATOM     28  O   UNL A   1      35.055  32.680  32.455  1.00  0.00    -0.460 OA
BRANCH  28  29
ATOM     29  C   UNL A   1      36.148  32.280  33.151  1.00  0.00     0.338 C 
ATOM     30  O   UNL A   1      36.372  32.446  34.338  1.00  0.00    -0.246 OA
BRANCH  29  31
ATOM     31  C   UNL A   1      37.002  31.419  32.313  1.00  0.00     0.060 A 
ATOM     32  C   UNL A   1      38.075  30.776  32.944  1.00  0.00     0.016 A 
ATOM     33  C   UNL A   1      36.834  31.331  30.930  1.00  0.00     0.016 A 
ATOM     34  C   UNL A   1      39.031  30.111  32.184  1.00  0.00     0.010 A 
ATOM     35  C   UNL A   1      37.797  30.662  30.168  1.00  0.00     0.010 A 
ATOM     36  C   UNL A   1      38.928  30.097  30.787  1.00  0.00    -0.014 A 
BRANCH  36  37
ATOM     37  C   UNL A   1      40.098  29.655  29.989  1.00  0.00     0.031 A 
ATOM     38  C   UNL A   1      41.241  30.613  29.775  1.00  0.00     0.074 A 
ATOM     39  C   UNL A   1      40.180  28.395  29.527  1.00  0.00     0.049 A 
ATOM     40  N   UNL A   1      42.373  30.430  29.145  1.00  0.00    -0.248 NA
ATOM     41  C   UNL A   1      41.083  31.960  30.347  1.00  0.00     0.031 C 
ATOM     42  C   UNL A   1      39.158  27.364  29.699  1.00  0.00     0.029 A 
ATOM     43  N   UNL A   1      41.176  27.769  28.821  1.00  0.00    -0.354 N 
ATOM     44  C   UNL A   1      43.058  31.636  29.241  1.00  0.00     0.074 A 
ATOM     45  C   UNL A   1      42.197  32.557  29.950  1.00  0.00     0.031 C 
ATOM     46  C   UNL A   1      39.583  26.229  29.118  1.00  0.00     0.029 A 
ATOM     47  C   UNL A   1      40.891  26.462  28.510  1.00  0.00     0.049 A 
ATOM     48  H   UNL A   1      42.016  28.214  28.563  1.00  0.00     0.167 HD
ATOM     49  C   UNL A   1      44.299  31.944  28.793  1.00  0.00     0.037 A 
ATOM     50  C   UNL A   1      41.603  25.561  27.807  1.00  0.00     0.037 A 
ATOM     51  C   UNL A   1      45.157  31.026  28.091  1.00  0.00     0.049 A 
ATOM     52  C   UNL A   1      42.957  25.947  27.269  1.00  0.00     0.074 A 
ATOM     53  C   UNL A   1      46.438  31.238  27.611  1.00  0.00     0.029 A 
ATOM     54  N   UNL A   1      44.819  29.721  27.766  1.00  0.00    -0.354 N 
ATOM     55  N   UNL A   1      43.605  27.081  27.390  1.00  0.00    -0.248 NA
ATOM     56  C   UNL A   1      43.682  24.919  26.509  1.00  0.00     0.031 C 
ATOM     57  C   UNL A   1      46.852  30.079  26.945  1.00  0.00     0.029 A 
ATOM     58  C   UNL A   1      45.857  29.124  27.069  1.00  0.00     0.049 A 
ATOM     59  H   UNL A   1      43.967  29.284  27.995  1.00  0.00     0.167 HD
ATOM     60  C   UNL A   1      44.827  26.890  26.753  1.00  0.00     0.074 A 
ATOM     61  C   UNL A   1      44.832  25.528  26.263  1.00  0.00     0.031 C 
ATOM     62  C   UNL A   1      45.853  27.763  26.591  1.00  0.00     0.037 A 
BRANCH  49  63
ATOM     63  C   UNL A   1      44.792  33.345  29.029  1.00  0.00     0.057 A 
ATOM     64  C   UNL A   1      44.461  34.404  28.174  1.00  0.00     0.134 A 
ATOM     65  C   UNL A   1      45.588  33.641  30.144  1.00  0.00     0.134 A 
ATOM     66  F   UNL A   1      43.715  34.188  27.080  1.00  0.00    -0.206 F 
ATOM     67  C   UNL A   1      44.926  35.702  28.403  1.00  0.00     0.040 A 
ATOM     68  C   UNL A   1      46.033  34.940  30.400  1.00  0.00     0.040 A 
ATOM     69  F   UNL A   1      45.939  32.676  31.007  1.00  0.00    -0.206 F 
ATOM     70  C   UNL A   1      45.709  35.973  29.523  1.00  0.00     0.006 A 
ENDBRANCH  49  63
BRANCH  50  71
ATOM     71  C   UNL A   1      41.054  24.201  27.568  1.00  0.00     0.057 A 
ATOM     72  C   UNL A   1      41.557  23.084  28.245  1.00  0.00     0.134 A 
ATOM     73  C   UNL A   1      40.034  23.984  26.634  1.00  0.00     0.134 A 
ATOM     74  F   UNL A   1      42.549  23.225  29.136  1.00  0.00    -0.206 F 
ATOM     75  C   UNL A   1      41.082  21.798  27.985  1.00  0.00     0.040 A 
ATOM     76  C   UNL A   1      39.530  22.706  26.385  1.00  0.00     0.040 A 
ATOM     77  F   UNL A   1      39.508  25.012  25.953  1.00  0.00    -0.206 F 
ATOM     78  C   UNL A   1      40.062  21.607  27.055  1.00  0.00     0.006 A 
ENDBRANCH  50  71
BRANCH  62  79
ATOM     79  C   UNL A   1      47.086  27.253  25.900  1.00  0.00     0.057 A 
ATOM     80  C   UNL A   1      48.103  26.578  26.587  1.00  0.00     0.134 A 
ATOM     81  C   UNL A   1      47.250  27.429  24.519  1.00  0.00     0.134 A 
ATOM     82  F   UNL A   1      48.017  26.383  27.912  1.00  0.00    -0.206 F 
ATOM     83  C   UNL A   1      49.256  26.134  25.935  1.00  0.00     0.040 A 
ATOM     84  C   UNL A   1      48.381  26.959  23.850  1.00  0.00     0.040 A 
ATOM     85  F   UNL A   1      46.310  28.053  23.795  1.00  0.00    -0.206 F 
ATOM     86  C   UNL A   1      49.394  26.320  24.561  1.00  0.00     0.006 A 
ENDBRANCH  62  79
ENDBRANCH  36  37
ENDBRANCH  29  31
ENDBRANCH  28  29
ENDBRANCH  27  28
ENDBRANCH  26  27
ENDBRANCH  25  26
ENDBRANCH   1  25
TORSDOF 18
ENDMDL
MODEL 3
REMARK VINA RESULT:     -11.0      5.431     10.711
REMARK SMILES CN(Cc1ncc(C(=O)OCCOCCOC(=O)c2ccc(-c3c4nc(c(-c5c(F)cccc5F)c5ccc([nH]5)c(-c5c(F)cccc5F)c5nc(c(-c6c(F)cccc6F)c6ccc3[nH]6)C=C5)C=C4)cc2)cn1)S(=O)(=O)c1ccc(Cl)cc1
REMARK SMILES IDX 12 1 11 2 10 3 8 4 9 5 7 6 4 7 5 8 74 9 6 10 73 11 3 12 2 13
REMARK SMILES IDX 1 14 75 15 76 16 77 17 78 18 79 19 84 20 80 21 83 22 81 23
REMARK SMILES IDX 82 24 13 25 14 26 15 27 16 28 17 29 18 30 19 31 20 32 72 33
REMARK SMILES IDX 21 34 71 35 22 36 23 37 24 38 65 39 25 40 70 41 64 42 66 43
REMARK SMILES IDX 26 44 69 45 63 46 62 47 27 49 53 50 36 51 52 52 37 53 40 54
REMARK SMILES IDX 51 55 67 56 38 57 39 58 50 60 68 61 41 62 28 63 29 64 34 65
REMARK SMILES IDX 30 66 31 67 33 68 35 69 32 70 54 71 55 72 60 73 56 74 57 75
REMARK SMILES IDX 59 76 61 77 58 78 42 79 43 80 48 81 44 82 45 83 47 84 49 85
REMARK SMILES IDX 46 86
REMARK H PARENT 66 48 40 59
REMARK Flexibility Score: inf
ROOT
ATOM      1  C   UNL A   1      43.547  19.714  25.732  1.00  0.00     0.202 C 
ENDROOT
BRANCH   1   2
ATOM      2  C   UNL A   1      42.051  19.384  25.727  1.00  0.00     0.261 C 
BRANCH   2   3
ATOM      3  O   UNL A   1      41.437  19.681  26.991  1.00  0.00    -0.460 OA
BRANCH   3   4
ATOM      4  C   UNL A   1      41.380  20.999  27.298  1.00  0.00     0.341 C 
ATOM      5  O   UNL A   1      42.260  21.670  27.814  1.00  0.00    -0.246 OA
BRANCH   4   6
ATOM      6  C   UNL A   1      40.145  21.590  26.781  1.00  0.00     0.096 A 
ATOM      7  C   UNL A   1      37.949  22.851  25.810  1.00  0.00     0.143 A 
ATOM      8  N   UNL A   1      38.170  21.577  25.413  1.00  0.00    -0.239 NA
ATOM      9  N   UNL A   1      38.736  23.532  26.666  1.00  0.00    -0.239 NA
ATOM     10  C   UNL A   1      39.271  20.970  25.917  1.00  0.00     0.130 A 
ATOM     11  C   UNL A   1      39.834  22.890  27.114  1.00  0.00     0.130 A 
BRANCH   7  12
ATOM     12  C   UNL A   1      36.702  23.551  25.311  1.00  0.00     0.179 C 
BRANCH  12  13
ATOM     13  N   UNL A   1      35.662  22.751  24.592  1.00  0.00    -0.193 NA
ATOM     14  C   UNL A   1      35.247  23.416  23.331  1.00  0.00     0.125 C 
BRANCH  13  15
ATOM     15  S   UNL A   1      34.320  22.174  25.476  1.00  0.00     0.243 S 
ATOM     16  O   UNL A   1      34.685  22.163  26.877  1.00  0.00    -0.207 OA
ATOM     17  O   UNL A   1      33.169  22.932  25.033  1.00  0.00    -0.207 OA
BRANCH  15  18
ATOM     18  C   UNL A   1      34.032  20.501  24.950  1.00  0.00     0.082 A 
ATOM     19  C   UNL A   1      35.123  19.627  24.875  1.00  0.00     0.023 A 
ATOM     20  C   UNL A   1      32.742  20.052  24.651  1.00  0.00     0.023 A 
ATOM     21  C   UNL A   1      34.922  18.300  24.487  1.00  0.00     0.022 A 
ATOM     22  C   UNL A   1      32.551  18.731  24.235  1.00  0.00     0.022 A 
ATOM     23  C   UNL A   1      33.640  17.861  24.158  1.00  0.00     0.041 A 
ATOM     24  Cl  UNL A   1      33.395  16.231  23.664  1.00  0.00    -0.084 Cl
ENDBRANCH  15  18
ENDBRANCH  13  15
ENDBRANCH  12  13
ENDBRANCH   7  12
ENDBRANCH   4   6
ENDBRANCH   3   4
ENDBRANCH   2   3
ENDBRANCH   1   2
BRANCH   1  25
ATOM     25  O   UNL A   1      44.162  20.001  24.478  1.00  0.00    -0.374 OA
BRANCH  25  26
ATOM     26  C   UNL A   1      44.857  21.240  24.333  1.00  0.00     0.202 C 
BRANCH  26  27
ATOM     27  C   UNL A   1      44.569  22.353  25.349  1.00  0.00     0.261 C 
BRANCH  27  28
ATOM     28  O   UNL A   1      43.960  23.510  24.749  1.00  0.00    -0.460 OA
BRANCH  28  29
ATOM     29  C   UNL A   1      44.558  24.683  25.073  1.00  0.00     0.338 C 
ATOM     30  O   UNL A   1      45.622  25.112  24.658  1.00  0.00    -0.246 OA
BRANCH  29  31
ATOM     31  C   UNL A   1      43.653  25.511  25.891  1.00  0.00     0.060 A 
ATOM     32  C   UNL A   1      44.059  26.825  26.161  1.00  0.00     0.016 A 
ATOM     33  C   UNL A   1      42.498  24.989  26.475  1.00  0.00     0.016 A 
ATOM     34  C   UNL A   1      43.355  27.594  27.081  1.00  0.00     0.010 A 
ATOM     35  C   UNL A   1      41.792  25.764  27.400  1.00  0.00     0.010 A 
ATOM     36  C   UNL A   1      42.250  27.049  27.748  1.00  0.00    -0.014 A 
BRANCH  36  37
ATOM     37  C   UNL A   1      41.707  27.763  28.930  1.00  0.00     0.031 A 
ATOM     38  C   UNL A   1      42.423  27.642  30.249  1.00  0.00     0.074 A 
ATOM     39  C   UNL A   1      40.637  28.570  28.814  1.00  0.00     0.049 A 
ATOM     40  N   UNL A   1      42.148  28.204  31.399  1.00  0.00    -0.248 NA
ATOM     41  C   UNL A   1      43.605  26.767  30.276  1.00  0.00     0.031 C 
ATOM     42  C   UNL A   1      39.880  28.799  27.585  1.00  0.00     0.029 A 
ATOM     43  N   UNL A   1      40.007  29.352  29.750  1.00  0.00    -0.354 N 
ATOM     44  C   UNL A   1      43.119  27.749  32.283  1.00  0.00     0.074 A 
ATOM     45  C   UNL A   1      43.962  26.830  31.550  1.00  0.00     0.031 C 
ATOM     46  C   UNL A   1      38.888  29.670  27.840  1.00  0.00     0.029 A 
ATOM     47  C   UNL A   1      38.924  30.035  29.255  1.00  0.00     0.049 A 
ATOM     48  H   UNL A   1      40.304  29.417  30.686  1.00  0.00     0.167 HD
ATOM     49  C   UNL A   1      43.302  28.078  33.585  1.00  0.00     0.037 A 
ATOM     50  C   UNL A   1      38.056  30.856  29.877  1.00  0.00     0.037 A 
ATOM     51  C   UNL A   1      42.466  28.996  34.313  1.00  0.00     0.049 A 
ATOM     52  C   UNL A   1      38.248  31.161  31.340  1.00  0.00     0.074 A 
ATOM     53  C   UNL A   1      42.578  29.407  35.630  1.00  0.00     0.029 A 
ATOM     54  N   UNL A   1      41.358  29.642  33.785  1.00  0.00    -0.354 N 
ATOM     55  N   UNL A   1      39.184  30.746  32.159  1.00  0.00    -0.248 NA
ATOM     56  C   UNL A   1      37.266  32.062  31.960  1.00  0.00     0.031 C 
ATOM     57  C   UNL A   1      41.505  30.258  35.915  1.00  0.00     0.029 A 
ATOM     58  C   UNL A   1      40.763  30.430  34.758  1.00  0.00     0.049 A 
ATOM     59  H   UNL A   1      41.040  29.554  32.858  1.00  0.00     0.167 HD
ATOM     60  C   UNL A   1      38.925  31.362  33.378  1.00  0.00     0.074 A 
ATOM     61  C   UNL A   1      37.754  32.190  33.185  1.00  0.00     0.031 C 
ATOM     62  C   UNL A   1      39.599  31.256  34.551  1.00  0.00     0.037 A 
BRANCH  49  63
ATOM     63  C   UNL A   1      44.441  27.418  34.312  1.00  0.00     0.057 A 
ATOM     64  C   UNL A   1      44.318  26.150  34.893  1.00  0.00     0.134 A 
ATOM     65  C   UNL A   1      45.687  28.053  34.408  1.00  0.00     0.134 A 
ATOM     66  F   UNL A   1      43.148  25.493  34.850  1.00  0.00    -0.206 F 
ATOM     67  C   UNL A   1      45.383  25.547  35.567  1.00  0.00     0.040 A 
ATOM     68  C   UNL A   1      46.767  27.448  35.053  1.00  0.00     0.040 A 
ATOM     69  F   UNL A   1      45.877  29.267  33.871  1.00  0.00    -0.206 F 
ATOM     70  C   UNL A   1      46.614  26.195  35.642  1.00  0.00     0.006 A 
ENDBRANCH  49  63
BRANCH  50  71
ATOM     71  C   UNL A   1      36.923  31.452  29.123  1.00  0.00     0.057 A 
ATOM     72  C   UNL A   1      36.935  32.797  28.734  1.00  0.00     0.134 A 
ATOM     73  C   UNL A   1      35.790  30.697  28.798  1.00  0.00     0.134 A 
ATOM     74  F   UNL A   1      37.983  33.577  29.035  1.00  0.00    -0.206 F 
ATOM     75  C   UNL A   1      35.851  33.376  28.074  1.00  0.00     0.040 A 
ATOM     76  C   UNL A   1      34.711  31.256  28.111  1.00  0.00     0.040 A 
ATOM     77  F   UNL A   1      35.717  29.402  29.139  1.00  0.00    -0.206 F 
ATOM     78  C   UNL A   1      34.736  32.603  27.756  1.00  0.00     0.006 A 
ENDBRANCH  50  71
BRANCH  62  79
ATOM     79  C   UNL A   1      39.114  32.094  35.700  1.00  0.00     0.057 A 
ATOM     80  C   UNL A   1      39.467  33.442  35.843  1.00  0.00     0.134 A 
ATOM     81  C   UNL A   1      38.267  31.544  36.673  1.00  0.00     0.134 A 
ATOM     82  F   UNL A   1      40.282  34.031  34.954  1.00  0.00    -0.206 F 
ATOM     83  C   UNL A   1      39.029  34.200  36.932  1.00  0.00     0.040 A 
ATOM     84  C   UNL A   1      37.795  32.301  37.746  1.00  0.00     0.040 A 
ATOM     85  F   UNL A   1      37.877  30.263  36.591  1.00  0.00    -0.206 F 
ATOM     86  C   UNL A   1      38.186  33.631  37.884  1.00  0.00     0.006 A 
ENDBRANCH  62  79
ENDBRANCH  36  37
ENDBRANCH  29  31
ENDBRANCH  28  29
ENDBRANCH  27  28
ENDBRANCH  26  27
ENDBRANCH  25  26
ENDBRANCH   1  25
TORSDOF 18
ENDMDL
