MODEL 1
REMARK VINA RESULT:     -10.3      0.000      0.000
REMARK SMILES CCCC[C@@H](C(=O)OCCOCCOC(=O)c1ccc(-c2c3nc(c(-c4c(F)cccc4F)c4ccc([nH]4)c(-c4c(F)cccc4F)c4nc(c(-c5c(F)cccc5F)c5ccc2[nH]5)C=C4)C=C3)cc1)[C@@H](O)c1cccc(C(F)(F)F)c1
REMARK SMILES IDX 10 1 9 2 8 3 6 4 7 5 5 6 4 7 3 8 2 9 1 10 71 11 72 12 73 14
REMARK SMILES IDX 74 15 82 16 75 17 77 18 76 19 78 20 79 21 80 22 81 23 11 24
REMARK SMILES IDX 12 25 13 26 14 27 15 28 16 29 17 30 18 31 70 32 19 33 69 34
REMARK SMILES IDX 20 35 21 36 22 37 63 38 23 39 68 40 62 41 64 42 24 43 67 44
REMARK SMILES IDX 61 45 60 46 25 48 51 49 34 50 50 51 35 52 38 53 49 54 65 55
REMARK SMILES IDX 36 56 37 57 48 59 66 60 39 61 26 62 27 63 32 64 28 65 29 66
REMARK SMILES IDX 31 67 33 68 30 69 52 70 53 71 58 72 54 73 55 74 57 75 59 76
REMARK SMILES IDX 56 77 40 78 41 79 46 80 42 81 43 82 45 83 47 84 44 85
REMARK H PARENT 72 13 64 47 38 58
REMARK Flexibility Score: inf
ROOT
ATOM      1  C   UNL A   1      39.732  21.268  26.139  1.00  0.00     0.202 C 
ENDROOT
BRANCH   1   2
ATOM      2  C   UNL A   1      38.619  22.290  25.893  1.00  0.00     0.261 C 
BRANCH   2   3
ATOM      3  O   UNL A   1      37.378  21.605  25.691  1.00  0.00    -0.463 OA
BRANCH   3   4
ATOM      4  C   UNL A   1      36.262  22.357  25.848  1.00  0.00     0.312 C 
ATOM      5  O   UNL A   1      36.267  23.571  26.005  1.00  0.00    -0.252 OA
BRANCH   4   6
ATOM      6  C   UNL A   1      34.997  21.518  25.731  1.00  0.00     0.132 C 
BRANCH   6   7
ATOM      7  C   UNL A   1      34.270  21.637  24.368  1.00  0.00     0.018 C 
BRANCH   7   8
ATOM      8  C   UNL A   1      34.596  22.861  23.504  1.00  0.00     0.001 C 
BRANCH   8   9
ATOM      9  C   UNL A   1      33.419  23.474  22.750  1.00  0.00    -0.003 C 
ATOM     10  C   UNL A   1      33.559  24.972  22.537  1.00  0.00     0.004 C 
ENDBRANCH   8   9
ENDBRANCH   7   8
ENDBRANCH   6   7
BRANCH   6  11
ATOM     11  C   UNL A   1      34.011  21.849  26.879  1.00  0.00     0.158 C 
BRANCH  11  12
ATOM     12  O   UNL A   1      34.720  22.479  27.953  1.00  0.00    -0.388 OA
ATOM     13  H   UNL A   1      35.359  23.113  27.592  1.00  0.00     0.211 HD
ENDBRANCH  11  12
BRANCH  11  14
ATOM     14  C   UNL A   1      32.876  22.773  26.492  1.00  0.00    -0.018 A 
ATOM     15  C   UNL A   1      31.668  22.246  26.008  1.00  0.00     0.006 A 
ATOM     16  C   UNL A   1      33.037  24.166  26.539  1.00  0.00     0.019 A 
ATOM     17  C   UNL A   1      30.655  23.093  25.559  1.00  0.00     0.001 A 
ATOM     18  C   UNL A   1      32.027  25.027  26.084  1.00  0.00     0.056 A 
ATOM     19  C   UNL A   1      30.836  24.475  25.588  1.00  0.00     0.013 A 
BRANCH  18  20
ATOM     20  C   UNL A   1      32.229  26.520  26.082  1.00  0.00     0.416 C 
ATOM     21  F   UNL A   1      31.245  27.180  26.756  1.00  0.00    -0.166 F 
ATOM     22  F   UNL A   1      33.397  26.892  26.675  1.00  0.00    -0.166 F 
ATOM     23  F   UNL A   1      32.257  27.070  24.835  1.00  0.00    -0.166 F 
ENDBRANCH  18  20
ENDBRANCH  11  14
ENDBRANCH   6  11
ENDBRANCH   4   6
ENDBRANCH   3   4
ENDBRANCH   2   3
ENDBRANCH   1   2
BRANCH   1  24
ATOM     24  O   UNL A   1      41.027  21.800  26.430  1.00  0.00    -0.374 OA
BRANCH  24  25
ATOM     25  C   UNL A   1      42.169  21.032  26.052  1.00  0.00     0.202 C 
BRANCH  25  26
ATOM     26  C   UNL A   1      43.349  21.775  25.412  1.00  0.00     0.261 C 
BRANCH  26  27
ATOM     27  O   UNL A   1      42.955  22.965  24.707  1.00  0.00    -0.460 OA
BRANCH  27  28
ATOM     28  C   UNL A   1      43.737  24.043  24.952  1.00  0.00     0.338 C 
ATOM     29  O   UNL A   1      44.830  24.293  24.458  1.00  0.00    -0.246 OA
BRANCH  28  30
ATOM     30  C   UNL A   1      43.035  25.017  25.802  1.00  0.00     0.060 A 
ATOM     31  C   UNL A   1      43.715  26.201  26.117  1.00  0.00     0.016 A 
ATOM     32  C   UNL A   1      41.797  24.733  26.381  1.00  0.00     0.016 A 
ATOM     33  C   UNL A   1      43.184  27.083  27.054  1.00  0.00     0.010 A 
ATOM     34  C   UNL A   1      41.269  25.617  27.331  1.00  0.00     0.010 A 
ATOM     35  C   UNL A   1      41.979  26.775  27.700  1.00  0.00    -0.014 A 
BRANCH  35  36
ATOM     36  C   UNL A   1      41.554  27.592  28.863  1.00  0.00     0.031 A 
ATOM     37  C   UNL A   1      42.312  27.473  30.157  1.00  0.00     0.074 A 
ATOM     38  C   UNL A   1      40.537  28.465  28.755  1.00  0.00     0.049 A 
ATOM     39  N   UNL A   1      42.110  28.085  31.297  1.00  0.00    -0.248 NA
ATOM     40  C   UNL A   1      43.450  26.541  30.168  1.00  0.00     0.031 C 
ATOM     41  C   UNL A   1      39.752  28.701  27.545  1.00  0.00     0.029 A 
ATOM     42  N   UNL A   1      39.991  29.315  29.684  1.00  0.00    -0.354 N 
ATOM     43  C   UNL A   1      43.087  27.607  32.160  1.00  0.00     0.074 A 
ATOM     44  C   UNL A   1      43.866  26.635  31.423  1.00  0.00     0.031 C 
ATOM     45  C   UNL A   1      38.815  29.628  27.809  1.00  0.00     0.029 A 
ATOM     46  C   UNL A   1      38.918  30.029  29.212  1.00  0.00     0.049 A 
ATOM     47  H   UNL A   1      40.335  29.404  30.601  1.00  0.00     0.167 HD
ATOM     48  C   UNL A   1      43.322  27.954  33.449  1.00  0.00     0.037 A 
ATOM     49  C   UNL A   1      38.101  30.892  29.845  1.00  0.00     0.037 A 
ATOM     50  C   UNL A   1      42.553  28.927  34.180  1.00  0.00     0.049 A 
ATOM     51  C   UNL A   1      38.345  31.216  31.295  1.00  0.00     0.074 A 
ATOM     52  C   UNL A   1      42.731  29.365  35.480  1.00  0.00     0.029 A 
ATOM     53  N   UNL A   1      41.456  29.607  33.675  1.00  0.00    -0.354 N 
ATOM     54  N   UNL A   1      39.291  30.781  32.092  1.00  0.00    -0.248 NA
ATOM     55  C   UNL A   1      37.409  32.155  31.932  1.00  0.00     0.031 C 
ATOM     56  C   UNL A   1      41.711  30.274  35.779  1.00  0.00     0.029 A 
ATOM     57  C   UNL A   1      40.929  30.440  34.647  1.00  0.00     0.049 A 
ATOM     58  H   UNL A   1      41.103  29.511  32.761  1.00  0.00     0.167 HD
ATOM     59  C   UNL A   1      39.081  31.412  33.313  1.00  0.00     0.074 A 
ATOM     60  C   UNL A   1      37.926  32.269  33.147  1.00  0.00     0.031 C 
ATOM     61  C   UNL A   1      39.783  31.293  34.466  1.00  0.00     0.037 A 
BRANCH  48  62
ATOM     62  C   UNL A   1      44.444  27.256  34.161  1.00  0.00     0.057 A 
ATOM     63  C   UNL A   1      44.284  25.991  34.738  1.00  0.00     0.134 A 
ATOM     64  C   UNL A   1      45.712  27.845  34.235  1.00  0.00     0.134 A 
ATOM     65  F   UNL A   1      43.089  25.378  34.714  1.00  0.00    -0.206 F 
ATOM     66  C   UNL A   1      45.340  25.344  35.381  1.00  0.00     0.040 A 
ATOM     67  C   UNL A   1      46.782  27.198  34.854  1.00  0.00     0.040 A 
ATOM     68  F   UNL A   1      45.935  29.055  33.698  1.00  0.00    -0.206 F 
ATOM     69  C   UNL A   1      46.597  25.945  35.435  1.00  0.00     0.006 A 
ENDBRANCH  48  62
BRANCH  49  70
ATOM     70  C   UNL A   1      36.959  31.502  29.117  1.00  0.00     0.057 A 
ATOM     71  C   UNL A   1      37.004  32.827  28.670  1.00  0.00     0.134 A 
ATOM     72  C   UNL A   1      35.785  30.778  28.874  1.00  0.00     0.134 A 
ATOM     73  F   UNL A   1      38.091  33.579  28.896  1.00  0.00    -0.206 F 
ATOM     74  C   UNL A   1      35.917  33.417  28.023  1.00  0.00     0.040 A 
ATOM     75  C   UNL A   1      34.700  31.347  28.205  1.00  0.00     0.040 A 
ATOM     76  F   UNL A   1      35.679  29.504  29.278  1.00  0.00    -0.206 F 
ATOM     77  C   UNL A   1      34.762  32.673  27.785  1.00  0.00     0.006 A 
ENDBRANCH  49  70
BRANCH  61  78
ATOM     78  C   UNL A   1      39.343  32.133  35.630  1.00  0.00     0.057 A 
ATOM     79  C   UNL A   1      39.820  33.435  35.825  1.00  0.00     0.134 A 
ATOM     80  C   UNL A   1      38.398  31.647  36.543  1.00  0.00     0.134 A 
ATOM     81  F   UNL A   1      40.735  33.957  34.994  1.00  0.00    -0.206 F 
ATOM     82  C   UNL A   1      39.390  34.216  36.901  1.00  0.00     0.040 A 
ATOM     83  C   UNL A   1      37.941  32.426  37.606  1.00  0.00     0.040 A 
ATOM     84  F   UNL A   1      37.892  30.411  36.407  1.00  0.00    -0.206 F 
ATOM     85  C   UNL A   1      38.443  33.713  37.791  1.00  0.00     0.006 A 
ENDBRANCH  61  78
ENDBRANCH  35  36
ENDBRANCH  28  30
ENDBRANCH  27  28
ENDBRANCH  26  27
ENDBRANCH  25  26
ENDBRANCH  24  25
ENDBRANCH   1  24
TORSDOF 21
ENDMDL
MODEL 2
REMARK VINA RESULT:     -10.2      3.698      6.131
REMARK SMILES CCCC[C@@H](C(=O)OCCOCCOC(=O)c1ccc(-c2c3nc(c(-c4c(F)cccc4F)c4ccc([nH]4)c(-c4c(F)cccc4F)c4nc(c(-c5c(F)cccc5F)c5ccc2[nH]5)C=C4)C=C3)cc1)[C@@H](O)c1cccc(C(F)(F)F)c1
REMARK SMILES IDX 10 1 9 2 8 3 6 4 7 5 5 6 4 7 3 8 2 9 1 10 71 11 72 12 73 14
REMARK SMILES IDX 74 15 82 16 75 17 77 18 76 19 78 20 79 21 80 22 81 23 11 24
REMARK SMILES IDX 12 25 13 26 14 27 15 28 16 29 17 30 18 31 70 32 19 33 69 34
REMARK SMILES IDX 20 35 21 36 22 37 63 38 23 39 68 40 62 41 64 42 24 43 67 44
REMARK SMILES IDX 61 45 60 46 25 48 51 49 34 50 50 51 35 52 38 53 49 54 65 55
REMARK SMILES IDX 36 56 37 57 48 59 66 60 39 61 26 62 27 63 32 64 28 65 29 66
REMARK SMILES IDX 31 67 33 68 30 69 52 70 53 71 58 72 54 73 55 74 57 75 59 76
REMARK SMILES IDX 56 77 40 78 41 79 46 80 42 81 43 82 45 83 47 84 44 85
REMARK H PARENT 72 13 64 47 38 58
REMARK Flexibility Score: inf
ROOT
ATOM      1  C   UNL A   1      33.929  20.287  24.679  1.00  0.00     0.202 C 
ENDROOT
BRANCH   1   2
ATOM      2  C   UNL A   1      33.046  20.889  25.776  1.00  0.00     0.261 C 
BRANCH   2   3
ATOM      3  O   UNL A   1      33.673  22.064  26.302  1.00  0.00    -0.463 OA
BRANCH   3   4
ATOM      4  C   UNL A   1      32.908  22.813  27.132  1.00  0.00     0.312 C 
ATOM      5  O   UNL A   1      32.618  22.493  28.277  1.00  0.00    -0.252 OA
BRANCH   4   6
ATOM      6  C   UNL A   1      32.515  24.137  26.492  1.00  0.00     0.132 C 
BRANCH   6   7
ATOM      7  C   UNL A   1      31.117  24.140  25.827  1.00  0.00     0.018 C 
BRANCH   7   8
ATOM      8  C   UNL A   1      30.245  25.385  26.031  1.00  0.00     0.001 C 
BRANCH   8   9
ATOM      9  C   UNL A   1      29.527  25.904  24.788  1.00  0.00    -0.003 C 
ATOM     10  C   UNL A   1      30.284  25.628  23.500  1.00  0.00     0.004 C 
ENDBRANCH   8   9
ENDBRANCH   7   8
ENDBRANCH   6   7
BRANCH   6  11
ATOM     11  C   UNL A   1      33.583  24.587  25.462  1.00  0.00     0.158 C 
BRANCH  11  12
ATOM     12  O   UNL A   1      33.405  23.860  24.240  1.00  0.00    -0.388 OA
ATOM     13  H   UNL A   1      32.727  23.178  24.365  1.00  0.00     0.211 HD
ENDBRANCH  11  12
BRANCH  11  14
ATOM     14  C   UNL A   1      33.547  26.059  25.116  1.00  0.00    -0.018 A 
ATOM     15  C   UNL A   1      33.658  26.476  23.780  1.00  0.00     0.006 A 
ATOM     16  C   UNL A   1      33.477  27.032  26.125  1.00  0.00     0.019 A 
ATOM     17  C   UNL A   1      33.725  27.833  23.464  1.00  0.00     0.001 A 
ATOM     18  C   UNL A   1      33.549  28.400  25.819  1.00  0.00     0.056 A 
ATOM     19  C   UNL A   1      33.678  28.789  24.478  1.00  0.00     0.013 A 
BRANCH  18  20
ATOM     20  C   UNL A   1      33.533  29.437  26.911  1.00  0.00     0.416 C 
ATOM     21  F   UNL A   1      33.653  30.706  26.427  1.00  0.00    -0.166 F 
ATOM     22  F   UNL A   1      32.376  29.424  27.631  1.00  0.00    -0.166 F 
ATOM     23  F   UNL A   1      34.536  29.292  27.823  1.00  0.00    -0.166 F 
ENDBRANCH  18  20
ENDBRANCH  11  14
ENDBRANCH   6  11
ENDBRANCH   4   6
ENDBRANCH   3   4
ENDBRANCH   2   3
ENDBRANCH   1   2
BRANCH   1  24
ATOM     24  O   UNL A   1      35.301  20.686  24.681  1.00  0.00    -0.374 OA
BRANCH  24  25
ATOM     25  C   UNL A   1      36.287  19.701  24.992  1.00  0.00     0.202 C 
BRANCH  25  26
ATOM     26  C   UNL A   1      37.755  20.048  24.716  1.00  0.00     0.261 C 
BRANCH  26  27
ATOM     27  O   UNL A   1      38.199  21.227  25.411  1.00  0.00    -0.460 OA
BRANCH  27  28
ATOM     28  C   UNL A   1      39.343  21.061  26.117  1.00  0.00     0.338 C 
ATOM     29  O   UNL A   1      40.059  20.067  26.144  1.00  0.00    -0.246 OA
BRANCH  28  30
ATOM     30  C   UNL A   1      39.747  22.319  26.764  1.00  0.00     0.060 A 
ATOM     31  C   UNL A   1      39.091  23.489  26.359  1.00  0.00     0.016 A 
ATOM     32  C   UNL A   1      40.824  22.379  27.651  1.00  0.00     0.016 A 
ATOM     33  C   UNL A   1      39.542  24.730  26.799  1.00  0.00     0.010 A 
ATOM     34  C   UNL A   1      41.282  23.629  28.085  1.00  0.00     0.010 A 
ATOM     35  C   UNL A   1      40.668  24.811  27.629  1.00  0.00    -0.014 A 
BRANCH  35  36
ATOM     36  C   UNL A   1      41.281  26.137  27.887  1.00  0.00     0.031 A 
ATOM     37  C   UNL A   1      42.674  26.409  27.388  1.00  0.00     0.074 A 
ATOM     38  C   UNL A   1      40.589  27.104  28.514  1.00  0.00     0.049 A 
ATOM     39  N   UNL A   1      43.402  27.491  27.507  1.00  0.00    -0.248 NA
ATOM     40  C   UNL A   1      43.334  25.317  26.656  1.00  0.00     0.031 C 
ATOM     41  C   UNL A   1      39.219  26.977  29.009  1.00  0.00     0.029 A 
ATOM     42  N   UNL A   1      40.950  28.387  28.843  1.00  0.00    -0.354 N 
ATOM     43  C   UNL A   1      44.605  27.207  26.874  1.00  0.00     0.074 A 
ATOM     44  C   UNL A   1      44.522  25.844  26.395  1.00  0.00     0.031 C 
ATOM     45  C   UNL A   1      38.858  28.134  29.591  1.00  0.00     0.029 A 
ATOM     46  C   UNL A   1      39.979  29.071  29.532  1.00  0.00     0.049 A 
ATOM     47  H   UNL A   1      41.821  28.778  28.609  1.00  0.00     0.167 HD
ATOM     48  C   UNL A   1      45.680  28.013  26.698  1.00  0.00     0.037 A 
ATOM     49  C   UNL A   1      40.001  30.305  30.072  1.00  0.00     0.037 A 
ATOM     50  C   UNL A   1      45.760  29.372  27.166  1.00  0.00     0.049 A 
ATOM     51  C   UNL A   1      41.231  31.160  29.915  1.00  0.00     0.074 A 
ATOM     52  C   UNL A   1      46.797  30.276  27.013  1.00  0.00     0.029 A 
ATOM     53  N   UNL A   1      44.768  30.018  27.885  1.00  0.00    -0.354 N 
ATOM     54  N   UNL A   1      42.351  30.892  29.289  1.00  0.00    -0.248 NA
ATOM     55  C   UNL A   1      41.197  32.492  30.539  1.00  0.00     0.031 C 
ATOM     56  C   UNL A   1      46.451  31.454  27.682  1.00  0.00     0.029 A 
ATOM     57  C   UNL A   1      45.179  31.301  28.208  1.00  0.00     0.049 A 
ATOM     58  H   UNL A   1      43.900  29.625  28.131  1.00  0.00     0.167 HD
ATOM     59  C   UNL A   1      43.142  32.028  29.419  1.00  0.00     0.074 A 
ATOM     60  C   UNL A   1      42.368  32.992  30.173  1.00  0.00     0.031 C 
ATOM     61  C   UNL A   1      44.395  32.252  28.954  1.00  0.00     0.037 A 
BRANCH  48  62
ATOM     62  C   UNL A   1      46.870  27.436  25.988  1.00  0.00     0.057 A 
ATOM     63  C   UNL A   1      47.876  26.740  26.670  1.00  0.00     0.134 A 
ATOM     64  C   UNL A   1      46.989  27.547  24.597  1.00  0.00     0.134 A 
ATOM     65  F   UNL A   1      47.828  26.611  28.005  1.00  0.00    -0.206 F 
ATOM     66  C   UNL A   1      48.968  26.192  25.996  1.00  0.00     0.040 A 
ATOM     67  C   UNL A   1      48.064  26.982  23.909  1.00  0.00     0.040 A 
ATOM     68  F   UNL A   1      46.058  28.197  23.882  1.00  0.00    -0.206 F 
ATOM     69  C   UNL A   1      49.061  26.306  24.610  1.00  0.00     0.006 A 
ENDBRANCH  48  62
BRANCH  49  70
ATOM     70  C   UNL A   1      38.826  30.805  30.829  1.00  0.00     0.057 A 
ATOM     71  C   UNL A   1      38.665  30.529  32.191  1.00  0.00     0.134 A 
ATOM     72  C   UNL A   1      37.823  31.553  30.199  1.00  0.00     0.134 A 
ATOM     73  F   UNL A   1      39.579  29.797  32.843  1.00  0.00    -0.206 F 
ATOM     74  C   UNL A   1      37.541  30.962  32.896  1.00  0.00     0.040 A 
ATOM     75  C   UNL A   1      36.706  32.014  30.897  1.00  0.00     0.040 A 
ATOM     76  F   UNL A   1      37.919  31.850  28.894  1.00  0.00    -0.206 F 
ATOM     77  C   UNL A   1      36.560  31.712  32.249  1.00  0.00     0.006 A 
ENDBRANCH  49  70
BRANCH  61  78
ATOM     78  C   UNL A   1      44.997  33.603  29.217  1.00  0.00     0.057 A 
ATOM     79  C   UNL A   1      44.794  34.685  28.351  1.00  0.00     0.134 A 
ATOM     80  C   UNL A   1      45.753  33.832  30.374  1.00  0.00     0.134 A 
ATOM     81  F   UNL A   1      44.090  34.528  27.220  1.00  0.00    -0.206 F 
ATOM     82  C   UNL A   1      45.342  35.942  28.615  1.00  0.00     0.040 A 
ATOM     83  C   UNL A   1      46.283  35.090  30.662  1.00  0.00     0.040 A 
ATOM     84  F   UNL A   1      45.975  32.841  31.251  1.00  0.00    -0.206 F 
ATOM     85  C   UNL A   1      46.084  36.148  29.777  1.00  0.00     0.006 A 
ENDBRANCH  61  78
ENDBRANCH  35  36
ENDBRANCH  28  30
ENDBRANCH  27  28
ENDBRANCH  26  27
ENDBRANCH  25  26
ENDBRANCH  24  25
ENDBRANCH   1  24
TORSDOF 21
ENDMDL
MODEL 3
REMARK VINA RESULT:     -10.2      3.727      7.557
REMARK SMILES CCCC[C@@H](C(=O)OCCOCCOC(=O)c1ccc(-c2c3nc(c(-c4c(F)cccc4F)c4ccc([nH]4)c(-c4c(F)cccc4F)c4nc(c(-c5c(F)cccc5F)c5ccc2[nH]5)C=C4)C=C3)cc1)[C@@H](O)c1cccc(C(F)(F)F)c1
REMARK SMILES IDX 10 1 9 2 8 3 6 4 7 5 5 6 4 7 3 8 2 9 1 10 71 11 72 12 73 14
REMARK SMILES IDX 74 15 82 16 75 17 77 18 76 19 78 20 79 21 80 22 81 23 11 24
REMARK SMILES IDX 12 25 13 26 14 27 15 28 16 29 17 30 18 31 70 32 19 33 69 34
REMARK SMILES IDX 20 35 21 36 22 37 63 38 23 39 68 40 62 41 64 42 24 43 67 44
REMARK SMILES IDX 61 45 60 46 25 48 51 49 34 50 50 51 35 52 38 53 49 54 65 55
REMARK SMILES IDX 36 56 37 57 48 59 66 60 39 61 26 62 27 63 32 64 28 65 29 66
REMARK SMILES IDX 31 67 33 68 30 69 52 70 53 71 58 72 54 73 55 74 57 75 59 76
REMARK SMILES IDX 56 77 40 78 41 79 46 80 42 81 43 82 45 83 47 84 44 85
REMARK H PARENT 72 13 64 47 38 58
REMARK Flexibility Score: inf
ROOT
ATOM      1  C   UNL A   1      33.837  20.168  24.696  1.00  0.00     0.202 C 
ENDROOT
BRANCH   1   2
ATOM      2  C   UNL A   1      32.897  20.696  25.783  1.00  0.00     0.261 C 
BRANCH   2   3
ATOM      3  O   UNL A   1      33.385  21.951  26.269  1.00  0.00    -0.463 OA
BRANCH   3   4
ATOM      4  C   UNL A   1      32.440  22.814  26.714  1.00  0.00     0.312 C 
ATOM      5  O   UNL A   1      31.915  22.751  27.818  1.00  0.00    -0.252 OA
BRANCH   4   6
ATOM      6  C   UNL A   1      32.164  23.917  25.701  1.00  0.00     0.132 C 
BRANCH   6   7
ATOM      7  C   UNL A   1      31.168  23.526  24.581  1.00  0.00     0.018 C 
BRANCH   7   8
ATOM      8  C   UNL A   1      30.443  24.668  23.859  1.00  0.00     0.001 C 
BRANCH   8   9
ATOM      9  C   UNL A   1      30.040  25.855  24.729  1.00  0.00    -0.003 C 
ATOM     10  C   UNL A   1      30.054  27.178  23.982  1.00  0.00     0.004 C 
ENDBRANCH   8   9
ENDBRANCH   7   8
ENDBRANCH   6   7
BRANCH   6  11
ATOM     11  C   UNL A   1      33.485  24.424  25.070  1.00  0.00     0.158 C 
BRANCH  11  12
ATOM     12  O   UNL A   1      33.683  23.793  23.798  1.00  0.00    -0.388 OA
ATOM     13  H   UNL A   1      33.220  24.298  23.111  1.00  0.00     0.211 HD
ENDBRANCH  11  12
BRANCH  11  14
ATOM     14  C   UNL A   1      33.544  25.919  24.840  1.00  0.00    -0.018 A 
ATOM     15  C   UNL A   1      33.708  26.431  23.544  1.00  0.00     0.006 A 
ATOM     16  C   UNL A   1      33.509  26.812  25.922  1.00  0.00     0.019 A 
ATOM     17  C   UNL A   1      33.861  27.802  23.336  1.00  0.00     0.001 A 
ATOM     18  C   UNL A   1      33.667  28.193  25.725  1.00  0.00     0.056 A 
ATOM     19  C   UNL A   1      33.848  28.677  24.422  1.00  0.00     0.013 A 
BRANCH  18  20
ATOM     20  C   UNL A   1      33.688  29.141  26.896  1.00  0.00     0.416 C 
ATOM     21  F   UNL A   1      32.574  29.035  27.673  1.00  0.00    -0.166 F 
ATOM     22  F   UNL A   1      34.743  28.921  27.730  1.00  0.00    -0.166 F 
ATOM     23  F   UNL A   1      33.768  30.454  26.540  1.00  0.00    -0.166 F 
ENDBRANCH  18  20
ENDBRANCH  11  14
ENDBRANCH   6  11
ENDBRANCH   4   6
ENDBRANCH   3   4
ENDBRANCH   2   3
ENDBRANCH   1   2
BRANCH   1  24
ATOM     24  O   UNL A   1      35.206  20.572  24.793  1.00  0.00    -0.374 OA
BRANCH  24  25
ATOM     25  C   UNL A   1      36.196  19.555  24.943  1.00  0.00     0.202 C 
BRANCH  25  26
ATOM     26  C   UNL A   1      37.655  19.930  24.653  1.00  0.00     0.261 C 
BRANCH  26  27
ATOM     27  O   UNL A   1      38.107  21.072  25.403  1.00  0.00    -0.460 OA
BRANCH  27  28
ATOM     28  C   UNL A   1      39.271  20.876  26.067  1.00  0.00     0.338 C 
ATOM     29  O   UNL A   1      39.959  19.862  26.075  1.00  0.00    -0.246 OA
BRANCH  28  30
ATOM     30  C   UNL A   1      39.735  22.125  26.691  1.00  0.00     0.060 A 
ATOM     31  C   UNL A   1      39.178  23.322  26.222  1.00  0.00     0.016 A 
ATOM     32  C   UNL A   1      40.777  22.143  27.620  1.00  0.00     0.016 A 
ATOM     33  C   UNL A   1      39.695  24.544  26.641  1.00  0.00     0.010 A 
ATOM     34  C   UNL A   1      41.302  23.374  28.034  1.00  0.00     0.010 A 
ATOM     35  C   UNL A   1      40.790  24.578  27.515  1.00  0.00    -0.014 A 
BRANCH  35  36
ATOM     36  C   UNL A   1      41.482  25.868  27.757  1.00  0.00     0.031 A 
ATOM     37  C   UNL A   1      40.763  26.955  28.508  1.00  0.00     0.074 A 
ATOM     38  C   UNL A   1      42.752  26.052  27.356  1.00  0.00     0.049 A 
ATOM     39  N   UNL A   1      41.174  28.157  28.824  1.00  0.00    -0.248 NA
ATOM     40  C   UNL A   1      39.399  26.646  28.965  1.00  0.00     0.031 C 
ATOM     41  C   UNL A   1      43.568  25.062  26.655  1.00  0.00     0.029 A 
ATOM     42  N   UNL A   1      43.576  27.142  27.481  1.00  0.00    -0.354 N 
ATOM     43  C   UNL A   1      40.120  28.748  29.508  1.00  0.00     0.074 A 
ATOM     44  C   UNL A   1      39.040  27.785  29.539  1.00  0.00     0.031 C 
ATOM     45  C   UNL A   1      44.776  25.595  26.402  1.00  0.00     0.029 A 
ATOM     46  C   UNL A   1      44.807  26.971  26.898  1.00  0.00     0.049 A 
ATOM     47  H   UNL A   1      43.310  27.968  27.944  1.00  0.00     0.167 HD
ATOM     48  C   UNL A   1      40.059  29.980  30.069  1.00  0.00     0.037 A 
ATOM     49  C   UNL A   1      45.833  27.833  26.762  1.00  0.00     0.037 A 
ATOM     50  C   UNL A   1      41.136  30.936  30.046  1.00  0.00     0.049 A 
ATOM     51  C   UNL A   1      45.719  29.217  27.342  1.00  0.00     0.074 A 
ATOM     52  C   UNL A   1      41.179  32.199  30.610  1.00  0.00     0.029 A 
ATOM     53  N   UNL A   1      42.356  30.735  29.420  1.00  0.00    -0.354 N 
ATOM     54  N   UNL A   1      44.729  29.755  28.012  1.00  0.00    -0.248 NA
ATOM     55  C   UNL A   1      46.868  30.115  27.148  1.00  0.00     0.031 C 
ATOM     56  C   UNL A   1      42.407  32.782  30.282  1.00  0.00     0.029 A 
ATOM     57  C   UNL A   1      43.148  31.863  29.558  1.00  0.00     0.049 A 
ATOM     58  H   UNL A   1      42.620  29.914  28.946  1.00  0.00     0.167 HD
ATOM     59  C   UNL A   1      45.146  31.039  28.343  1.00  0.00     0.074 A 
ATOM     60  C   UNL A   1      46.482  31.196  27.811  1.00  0.00     0.031 C 
ATOM     61  C   UNL A   1      44.480  32.001  29.028  1.00  0.00     0.037 A 
BRANCH  48  62
ATOM     62  C   UNL A   1      38.774  30.375  30.735  1.00  0.00     0.057 A 
ATOM     63  C   UNL A   1      37.744  31.018  30.039  1.00  0.00     0.134 A 
ATOM     64  C   UNL A   1      38.553  30.074  32.085  1.00  0.00     0.134 A 
ATOM     65  F   UNL A   1      37.899  31.349  28.747  1.00  0.00    -0.206 F 
ATOM     66  C   UNL A   1      36.546  31.365  30.665  1.00  0.00     0.040 A 
ATOM     67  C   UNL A   1      37.349  30.392  32.716  1.00  0.00     0.040 A 
ATOM     68  F   UNL A   1      39.497  29.454  32.810  1.00  0.00    -0.206 F 
ATOM     69  C   UNL A   1      36.343  31.045  32.007  1.00  0.00     0.006 A 
ENDBRANCH  48  62
BRANCH  49  70
ATOM     70  C   UNL A   1      47.057  27.419  26.030  1.00  0.00     0.057 A 
ATOM     71  C   UNL A   1      48.157  26.871  26.699  1.00  0.00     0.134 A 
ATOM     72  C   UNL A   1      47.163  27.586  24.644  1.00  0.00     0.134 A 
ATOM     73  F   UNL A   1      48.124  26.710  28.030  1.00  0.00    -0.206 F 
ATOM     74  C   UNL A   1      49.325  26.520  26.021  1.00  0.00     0.040 A 
ATOM     75  C   UNL A   1      48.315  27.216  23.948  1.00  0.00     0.040 A 
ATOM     76  F   UNL A   1      46.144  28.107  23.944  1.00  0.00    -0.206 F 
ATOM     77  C   UNL A   1      49.403  26.688  24.639  1.00  0.00     0.006 A 
ENDBRANCH  49  70
BRANCH  61  78
ATOM     78  C   UNL A   1      45.200  33.297  29.270  1.00  0.00     0.057 A 
ATOM     79  C   UNL A   1      46.015  33.492  30.392  1.00  0.00     0.134 A 
ATOM     80  C   UNL A   1      45.106  34.347  28.347  1.00  0.00     0.134 A 
ATOM     81  F   UNL A   1      46.138  32.531  31.320  1.00  0.00    -0.206 F 
ATOM     82  C   UNL A   1      46.695  34.694  30.598  1.00  0.00     0.040 A 
ATOM     83  C   UNL A   1      45.802  35.543  28.529  1.00  0.00     0.040 A 
ATOM     84  F   UNL A   1      44.350  34.220  27.246  1.00  0.00    -0.206 F 
ATOM     85  C   UNL A   1      46.594  35.722  29.661  1.00  0.00     0.006 A 
ENDBRANCH  61  78
ENDBRANCH  35  36
ENDBRANCH  28  30
ENDBRANCH  27  28
ENDBRANCH  26  27
ENDBRANCH  25  26
ENDBRANCH  24  25
ENDBRANCH   1  24
TORSDOF 21
ENDMDL
