MODEL 1
REMARK VINA RESULT:     -12.9      0.000      0.000
REMARK SMILES C[C@]1(C(=O)OCCOCCOC(=O)c2ccc(-c3c4nc(c(-c5c(F)cccc5F)c5ccc([nH]5)c(-c5c(F)cccc5F)c5nc(c(-c6c(F)cccc6F)c6ccc3[nH]6)C=C5)C=C4)cc2)[NH2+]C2(C(=O)c3ccccc3C2=O)[C@@H]2C(=O)N(c3ccccc3)C(=O)[C@H]21
REMARK SMILES IDX 9 1 8 2 7 3 6 4 5 5 3 6 4 7 2 8 1 9 68 10 92 11 69 12 80 15
REMARK SMILES IDX 90 16 70 17 78 18 81 19 83 20 91 21 71 22 72 23 77 24 79 25
REMARK SMILES IDX 82 26 73 27 76 28 74 29 75 30 84 31 85 32 89 33 86 34 88 35
REMARK SMILES IDX 87 36 10 37 11 38 12 39 13 40 14 41 15 42 67 43 16 44 66 45
REMARK SMILES IDX 17 46 18 47 19 48 60 49 20 50 65 51 59 52 61 53 21 54 64 55
REMARK SMILES IDX 58 56 57 57 22 59 48 60 31 61 47 62 32 63 35 64 46 65 62 66
REMARK SMILES IDX 33 67 34 68 45 70 63 71 36 72 23 73 24 74 29 75 25 76 26 77
REMARK SMILES IDX 28 78 30 79 27 80 49 81 50 82 55 83 51 84 52 85 54 86 56 87
REMARK SMILES IDX 53 88 37 89 38 90 43 91 39 92 40 93 42 94 44 95 41 96
REMARK H PARENT 68 13 68 14 61 58 35 69
REMARK Flexibility Score: inf
ROOT
ATOM      1  C   UNL A   1      34.567  33.821  29.000  1.00  0.00     0.202 C 
ENDROOT
BRANCH   1   2
ATOM      2  O   UNL A   1      33.671  33.162  28.107  1.00  0.00    -0.374 OA
BRANCH   2   3
ATOM      3  C   UNL A   1      34.026  31.867  27.630  1.00  0.00     0.202 C 
BRANCH   3   4
ATOM      4  C   UNL A   1      32.905  30.844  27.440  1.00  0.00     0.261 C 
BRANCH   4   5
ATOM      5  O   UNL A   1      33.366  29.499  27.628  1.00  0.00    -0.459 OA
BRANCH   5   6
ATOM      6  C   UNL A   1      32.565  28.523  27.122  1.00  0.00     0.368 C 
ATOM      7  O   UNL A   1      31.398  28.354  27.454  1.00  0.00    -0.245 OA
BRANCH   6   8
ATOM      8  C   UNL A   1      33.303  27.636  26.078  1.00  0.00     0.205 C 
ATOM      9  C   UNL A   1      34.751  28.126  26.005  1.00  0.00     0.093 C 
ATOM     10  N   UNL A   1      33.303  26.140  26.408  1.00  0.00    -0.313 N 
ATOM     11  C   UNL A   1      32.588  27.669  24.756  1.00  0.00     0.172 C 
ATOM     12  C   UNL A   1      32.404  25.440  25.394  1.00  0.00     0.237 C 
ATOM     13  H   UNL A   1      32.945  25.992  27.352  1.00  0.00     0.348 HD
ATOM     14  H   UNL A   1      34.251  25.765  26.363  1.00  0.00     0.348 HD
ATOM     15  C   UNL A   1      31.552  26.573  24.940  1.00  0.00     0.177 C 
ATOM     16  C   UNL A   1      31.724  28.778  24.277  1.00  0.00     0.244 C 
ATOM     17  C   UNL A   1      33.223  24.715  24.327  1.00  0.00     0.232 C 
ATOM     18  C   UNL A   1      31.629  24.303  26.055  1.00  0.00     0.232 C 
ATOM     19  C   UNL A   1      30.730  26.773  23.721  1.00  0.00     0.245 C 
ATOM     20  N   UNL A   1      30.693  28.160  23.576  1.00  0.00    -0.250 N 
ATOM     21  O   UNL A   1      31.953  29.959  24.467  1.00  0.00    -0.273 OA
ATOM     22  O   UNL A   1      34.046  25.203  23.568  1.00  0.00    -0.286 OA
ATOM     23  C   UNL A   1      32.941  23.283  24.411  1.00  0.00     0.036 A 
ATOM     24  C   UNL A   1      32.030  23.040  25.430  1.00  0.00     0.036 A 
ATOM     25  O   UNL A   1      30.791  24.378  26.939  1.00  0.00    -0.286 OA
ATOM     26  O   UNL A   1      30.145  25.888  23.123  1.00  0.00    -0.273 OA
ATOM     27  C   UNL A   1      33.480  22.257  23.654  1.00  0.00     0.013 A 
ATOM     28  C   UNL A   1      31.622  21.754  25.741  1.00  0.00     0.013 A 
ATOM     29  C   UNL A   1      33.074  20.953  23.951  1.00  0.00     0.001 A 
ATOM     30  C   UNL A   1      32.155  20.703  24.988  1.00  0.00     0.001 A 
BRANCH  20  31
ATOM     31  C   UNL A   1      29.646  28.897  22.984  1.00  0.00     0.052 A 
ATOM     32  C   UNL A   1      29.922  29.837  21.983  1.00  0.00     0.027 A 
ATOM     33  C   UNL A   1      28.347  28.814  23.499  1.00  0.00     0.027 A 
ATOM     34  C   UNL A   1      28.927  30.694  21.515  1.00  0.00     0.002 A 
ATOM     35  C   UNL A   1      27.361  29.704  23.060  1.00  0.00     0.002 A 
ATOM     36  C   UNL A   1      27.652  30.641  22.070  1.00  0.00     0.000 A 
ENDBRANCH  20  31
ENDBRANCH   6   8
ENDBRANCH   5   6
ENDBRANCH   4   5
ENDBRANCH   3   4
ENDBRANCH   2   3
ENDBRANCH   1   2
BRANCH   1  37
ATOM     37  C   UNL A   1      34.406  33.572  30.504  1.00  0.00     0.261 C 
BRANCH  37  38
ATOM     38  O   UNL A   1      34.656  32.208  30.876  1.00  0.00    -0.460 OA
BRANCH  38  39
ATOM     39  C   UNL A   1      35.659  32.035  31.770  1.00  0.00     0.338 C 
ATOM     40  O   UNL A   1      35.652  32.330  32.953  1.00  0.00    -0.246 OA
BRANCH  39  41
ATOM     41  C   UNL A   1      36.747  31.246  31.158  1.00  0.00     0.060 A 
ATOM     42  C   UNL A   1      36.858  31.100  29.777  1.00  0.00     0.016 A 
ATOM     43  C   UNL A   1      37.708  30.682  32.010  1.00  0.00     0.016 A 
ATOM     44  C   UNL A   1      37.956  30.419  29.246  1.00  0.00     0.010 A 
ATOM     45  C   UNL A   1      38.810  30.014  31.479  1.00  0.00     0.010 A 
ATOM     46  C   UNL A   1      38.960  29.906  30.090  1.00  0.00    -0.014 A 
BRANCH  46  47
ATOM     47  C   UNL A   1      40.236  29.425  29.507  1.00  0.00     0.031 A 
ATOM     48  C   UNL A   1      40.421  28.017  29.031  1.00  0.00     0.074 A 
ATOM     49  C   UNL A   1      41.261  30.297  29.438  1.00  0.00     0.049 A 
ATOM     50  N   UNL A   1      41.445  27.487  28.408  1.00  0.00    -0.248 NA
ATOM     51  C   UNL A   1      39.325  27.075  29.301  1.00  0.00     0.031 C 
ATOM     52  C   UNL A   1      41.226  31.674  29.939  1.00  0.00     0.029 A 
ATOM     53  N   UNL A   1      42.521  30.164  28.915  1.00  0.00    -0.354 N 
ATOM     54  C   UNL A   1      41.112  26.158  28.188  1.00  0.00     0.074 A 
ATOM     55  C   UNL A   1      39.814  25.947  28.801  1.00  0.00     0.031 C 
ATOM     56  C   UNL A   1      42.393  32.273  29.657  1.00  0.00     0.029 A 
ATOM     57  C   UNL A   1      43.265  31.316  28.984  1.00  0.00     0.049 A 
ATOM     58  H   UNL A   1      42.859  29.325  28.527  1.00  0.00     0.167 HD
ATOM     59  C   UNL A   1      41.816  25.209  27.522  1.00  0.00     0.037 A 
ATOM     60  C   UNL A   1      44.510  31.577  28.547  1.00  0.00     0.037 A 
ATOM     61  C   UNL A   1      43.124  25.417  26.946  1.00  0.00     0.049 A 
ATOM     62  C   UNL A   1      45.276  30.498  27.838  1.00  0.00     0.074 A 
ATOM     63  C   UNL A   1      43.899  24.531  26.216  1.00  0.00     0.029 A 
ATOM     64  N   UNL A   1      43.861  26.588  27.055  1.00  0.00    -0.354 N 
ATOM     65  N   UNL A   1      44.908  29.275  27.540  1.00  0.00    -0.248 NA
ATOM     66  C   UNL A   1      46.631  30.844  27.390  1.00  0.00     0.031 C 
ATOM     67  C   UNL A   1      45.125  25.145  25.935  1.00  0.00     0.029 A 
ATOM     68  C   UNL A   1      45.092  26.438  26.432  1.00  0.00     0.049 A 
ATOM     69  H   UNL A   1      43.555  27.407  27.509  1.00  0.00     0.167 HD
ATOM     70  C   UNL A   1      45.973  28.715  26.848  1.00  0.00     0.074 A 
ATOM     71  C   UNL A   1      46.987  29.745  26.744  1.00  0.00     0.031 C 
ATOM     72  C   UNL A   1      46.103  27.462  26.346  1.00  0.00     0.037 A 
BRANCH  59  73
ATOM     73  C   UNL A   1      41.183  23.852  27.381  1.00  0.00     0.057 A 
ATOM     74  C   UNL A   1      41.667  22.751  28.098  1.00  0.00     0.134 A 
ATOM     75  C   UNL A   1      40.114  23.627  26.500  1.00  0.00     0.134 A 
ATOM     76  F   UNL A   1      42.695  22.889  28.948  1.00  0.00    -0.206 F 
ATOM     77  C   UNL A   1      41.111  21.478  27.948  1.00  0.00     0.040 A 
ATOM     78  C   UNL A   1      39.532  22.365  26.363  1.00  0.00     0.040 A 
ATOM     79  F   UNL A   1      39.597  24.637  25.785  1.00  0.00    -0.206 F 
ATOM     80  C   UNL A   1      40.034  21.284  27.085  1.00  0.00     0.006 A 
ENDBRANCH  59  73
BRANCH  60  81
ATOM     81  C   UNL A   1      45.103  32.924  28.735  1.00  0.00     0.057 A 
ATOM     82  C   UNL A   1      45.907  33.219  29.842  1.00  0.00     0.134 A 
ATOM     83  C   UNL A   1      44.906  33.940  27.792  1.00  0.00     0.134 A 
ATOM     84  F   UNL A   1      46.124  32.294  30.788  1.00  0.00    -0.206 F 
ATOM     85  C   UNL A   1      46.498  34.473  30.001  1.00  0.00     0.040 A 
ATOM     86  C   UNL A   1      45.517  35.187  27.922  1.00  0.00     0.040 A 
ATOM     87  F   UNL A   1      44.156  33.712  26.702  1.00  0.00    -0.206 F 
ATOM     88  C   UNL A   1      46.315  35.456  29.032  1.00  0.00     0.006 A 
ENDBRANCH  60  81
BRANCH  72  89
ATOM     89  C   UNL A   1      47.381  27.160  25.612  1.00  0.00     0.057 A 
ATOM     90  C   UNL A   1      47.508  27.454  24.248  1.00  0.00     0.134 A 
ATOM     91  C   UNL A   1      48.497  26.607  26.257  1.00  0.00     0.134 A 
ATOM     92  F   UNL A   1      46.478  27.975  23.564  1.00  0.00    -0.206 F 
ATOM     93  C   UNL A   1      48.700  27.226  23.558  1.00  0.00     0.040 A 
ATOM     94  C   UNL A   1      49.706  26.408  25.586  1.00  0.00     0.040 A 
ATOM     95  F   UNL A   1      48.451  26.314  27.566  1.00  0.00    -0.206 F 
ATOM     96  C   UNL A   1      49.808  26.716  24.231  1.00  0.00     0.006 A 
ENDBRANCH  72  89
ENDBRANCH  46  47
ENDBRANCH  39  41
ENDBRANCH  38  39
ENDBRANCH  37  38
ENDBRANCH   1  37
TORSDOF 15
ENDMDL
MODEL 2
REMARK VINA RESULT:     -12.9      4.369      9.845
REMARK SMILES C[C@]1(C(=O)OCCOCCOC(=O)c2ccc(-c3c4nc(c(-c5c(F)cccc5F)c5ccc([nH]5)c(-c5c(F)cccc5F)c5nc(c(-c6c(F)cccc6F)c6ccc3[nH]6)C=C5)C=C4)cc2)[NH2+]C2(C(=O)c3ccccc3C2=O)[C@@H]2C(=O)N(c3ccccc3)C(=O)[C@H]21
REMARK SMILES IDX 9 1 8 2 7 3 6 4 5 5 3 6 4 7 2 8 1 9 68 10 92 11 69 12 80 15
REMARK SMILES IDX 90 16 70 17 78 18 81 19 83 20 91 21 71 22 72 23 77 24 79 25
REMARK SMILES IDX 82 26 73 27 76 28 74 29 75 30 84 31 85 32 89 33 86 34 88 35
REMARK SMILES IDX 87 36 10 37 11 38 12 39 13 40 14 41 15 42 67 43 16 44 66 45
REMARK SMILES IDX 17 46 18 47 19 48 60 49 20 50 65 51 59 52 61 53 21 54 64 55
REMARK SMILES IDX 58 56 57 57 22 59 48 60 31 61 47 62 32 63 35 64 46 65 62 66
REMARK SMILES IDX 33 67 34 68 45 70 63 71 36 72 23 73 24 74 29 75 25 76 26 77
REMARK SMILES IDX 28 78 30 79 27 80 49 81 50 82 55 83 51 84 52 85 54 86 56 87
REMARK SMILES IDX 53 88 37 89 38 90 43 91 39 92 40 93 42 94 44 95 41 96
REMARK H PARENT 68 13 68 14 61 58 35 69
REMARK Flexibility Score: inf
ROOT
ATOM      1  C   UNL A   1      41.778  20.551  26.789  1.00  0.00     0.202 C 
ENDROOT
BRANCH   1   2
ATOM      2  O   UNL A   1      40.373  20.488  26.556  1.00  0.00    -0.374 OA
BRANCH   2   3
ATOM      3  C   UNL A   1      39.682  21.701  26.268  1.00  0.00     0.202 C 
BRANCH   3   4
ATOM      4  C   UNL A   1      38.450  21.624  25.365  1.00  0.00     0.261 C 
BRANCH   4   5
ATOM      5  O   UNL A   1      37.937  22.923  25.042  1.00  0.00    -0.459 OA
BRANCH   5   6
ATOM      6  C   UNL A   1      36.750  22.941  24.375  1.00  0.00     0.368 C 
ATOM      7  O   UNL A   1      36.587  22.471  23.256  1.00  0.00    -0.245 OA
BRANCH   6   8
ATOM      8  C   UNL A   1      35.625  23.638  25.192  1.00  0.00     0.205 C 
ATOM      9  C   UNL A   1      36.248  24.129  26.501  1.00  0.00     0.093 C 
ATOM     10  N   UNL A   1      34.971  24.827  24.480  1.00  0.00    -0.313 N 
ATOM     11  C   UNL A   1      34.461  22.708  25.390  1.00  0.00     0.172 C 
ATOM     12  C   UNL A   1      33.549  24.421  24.110  1.00  0.00     0.237 C 
ATOM     13  H   UNL A   1      35.498  25.061  23.638  1.00  0.00     0.348 HD
ATOM     14  H   UNL A   1      34.962  25.646  25.089  1.00  0.00     0.348 HD
ATOM     15  C   UNL A   1      33.665  22.938  24.117  1.00  0.00     0.177 C 
ATOM     16  C   UNL A   1      34.542  21.225  25.394  1.00  0.00     0.244 C 
ATOM     17  C   UNL A   1      32.524  25.043  25.058  1.00  0.00     0.232 C 
ATOM     18  C   UNL A   1      33.155  25.009  22.757  1.00  0.00     0.232 C 
ATOM     19  C   UNL A   1      32.651  21.861  24.236  1.00  0.00     0.245 C 
ATOM     20  N   UNL A   1      33.368  20.795  24.780  1.00  0.00    -0.250 N 
ATOM     21  O   UNL A   1      35.457  20.587  25.882  1.00  0.00    -0.273 OA
ATOM     22  O   UNL A   1      32.465  24.912  26.271  1.00  0.00    -0.286 OA
ATOM     23  C   UNL A   1      31.649  25.927  24.291  1.00  0.00     0.036 A 
ATOM     24  C   UNL A   1      32.029  25.925  22.955  1.00  0.00     0.036 A 
ATOM     25  O   UNL A   1      33.645  24.774  21.664  1.00  0.00    -0.286 OA
ATOM     26  O   UNL A   1      31.512  21.926  23.809  1.00  0.00    -0.273 OA
ATOM     27  C   UNL A   1      30.604  26.709  24.750  1.00  0.00     0.013 A 
ATOM     28  C   UNL A   1      31.380  26.712  22.019  1.00  0.00     0.013 A 
ATOM     29  C   UNL A   1      29.933  27.505  23.818  1.00  0.00     0.001 A 
ATOM     30  C   UNL A   1      30.320  27.509  22.463  1.00  0.00     0.001 A 
BRANCH  20  31
ATOM     31  C   UNL A   1      33.091  19.428  24.576  1.00  0.00     0.052 A 
ATOM     32  C   UNL A   1      32.868  18.580  25.670  1.00  0.00     0.027 A 
ATOM     33  C   UNL A   1      33.193  18.871  23.295  1.00  0.00     0.027 A 
ATOM     34  C   UNL A   1      32.768  17.201  25.494  1.00  0.00     0.002 A 
ATOM     35  C   UNL A   1      33.136  17.484  23.127  1.00  0.00     0.002 A 
ATOM     36  C   UNL A   1      32.923  16.652  24.225  1.00  0.00     0.000 A 
ENDBRANCH  20  31
ENDBRANCH   6   8
ENDBRANCH   5   6
ENDBRANCH   4   5
ENDBRANCH   3   4
ENDBRANCH   2   3
ENDBRANCH   1   2
BRANCH   1  37
ATOM     37  C   UNL A   1      42.636  21.383  25.829  1.00  0.00     0.261 C 
BRANCH  37  38
ATOM     38  O   UNL A   1      43.295  22.482  26.475  1.00  0.00    -0.460 OA
BRANCH  38  39
ATOM     39  C   UNL A   1      43.245  23.655  25.799  1.00  0.00     0.338 C 
ATOM     40  O   UNL A   1      43.499  23.839  24.621  1.00  0.00    -0.246 OA
BRANCH  39  41
ATOM     41  C   UNL A   1      42.645  24.701  26.652  1.00  0.00     0.060 A 
ATOM     42  C   UNL A   1      41.558  24.435  27.481  1.00  0.00     0.016 A 
ATOM     43  C   UNL A   1      43.236  25.973  26.642  1.00  0.00     0.016 A 
ATOM     44  C   UNL A   1      41.085  25.436  28.334  1.00  0.00     0.010 A 
ATOM     45  C   UNL A   1      42.772  26.968  27.502  1.00  0.00     0.010 A 
ATOM     46  C   UNL A   1      41.713  26.696  28.379  1.00  0.00    -0.014 A 
BRANCH  46  47
ATOM     47  C   UNL A   1      41.374  27.649  29.464  1.00  0.00     0.031 A 
ATOM     48  C   UNL A   1      40.253  28.635  29.345  1.00  0.00     0.074 A 
ATOM     49  C   UNL A   1      42.132  27.625  30.578  1.00  0.00     0.049 A 
ATOM     50  N   UNL A   1      39.779  29.455  30.251  1.00  0.00    -0.248 NA
ATOM     51  C   UNL A   1      39.585  28.728  28.039  1.00  0.00     0.031 C 
ATOM     52  C   UNL A   1      43.298  26.761  30.781  1.00  0.00     0.029 A 
ATOM     53  N   UNL A   1      42.034  28.333  31.747  1.00  0.00    -0.354 N 
ATOM     54  C   UNL A   1      38.744  30.145  29.637  1.00  0.00     0.074 A 
ATOM     55  C   UNL A   1      38.700  29.691  28.260  1.00  0.00     0.031 C 
ATOM     56  C   UNL A   1      43.779  26.956  32.018  1.00  0.00     0.029 A 
ATOM     57  C   UNL A   1      42.975  27.977  32.682  1.00  0.00     0.049 A 
ATOM     58  H   UNL A   1      41.355  29.028  31.902  1.00  0.00     0.167 HD
ATOM     59  C   UNL A   1      37.900  31.058  30.177  1.00  0.00     0.037 A 
ATOM     60  C   UNL A   1      43.166  28.417  33.938  1.00  0.00     0.037 A 
ATOM     61  C   UNL A   1      37.973  31.533  31.539  1.00  0.00     0.049 A 
ATOM     62  C   UNL A   1      42.232  29.450  34.500  1.00  0.00     0.074 A 
ATOM     63  C   UNL A   1      37.138  32.425  32.191  1.00  0.00     0.029 A 
ATOM     64  N   UNL A   1      38.953  31.171  32.453  1.00  0.00    -0.354 N 
ATOM     65  N   UNL A   1      41.189  30.018  33.945  1.00  0.00    -0.248 NA
ATOM     66  C   UNL A   1      42.497  29.893  35.875  1.00  0.00     0.031 C 
ATOM     67  C   UNL A   1      37.646  32.646  33.478  1.00  0.00     0.029 A 
ATOM     68  C   UNL A   1      38.761  31.843  33.652  1.00  0.00     0.049 A 
ATOM     69  H   UNL A   1      39.680  30.530  32.276  1.00  0.00     0.167 HD
ATOM     70  C   UNL A   1      40.657  30.863  34.909  1.00  0.00     0.074 A 
ATOM     71  C   UNL A   1      41.477  30.708  36.093  1.00  0.00     0.031 C 
ATOM     72  C   UNL A   1      39.590  31.695  34.822  1.00  0.00     0.037 A 
BRANCH  59  73
ATOM     73  C   UNL A   1      36.818  31.609  29.289  1.00  0.00     0.057 A 
ATOM     74  C   UNL A   1      36.885  32.918  28.796  1.00  0.00     0.134 A 
ATOM     75  C   UNL A   1      35.686  30.852  28.952  1.00  0.00     0.134 A 
ATOM     76  F   UNL A   1      37.931  33.705  29.088  1.00  0.00    -0.206 F 
ATOM     77  C   UNL A   1      35.869  33.453  28.000  1.00  0.00     0.040 A 
ATOM     78  C   UNL A   1      34.677  31.367  28.134  1.00  0.00     0.040 A 
ATOM     79  F   UNL A   1      35.558  29.590  29.386  1.00  0.00    -0.206 F 
ATOM     80  C   UNL A   1      34.766  32.674  27.659  1.00  0.00     0.006 A 
ENDBRANCH  59  73
BRANCH  60  81
ATOM     81  C   UNL A   1      44.266  27.863  34.767  1.00  0.00     0.057 A 
ATOM     82  C   UNL A   1      45.511  28.497  34.844  1.00  0.00     0.134 A 
ATOM     83  C   UNL A   1      44.083  26.704  35.529  1.00  0.00     0.134 A 
ATOM     84  F   UNL A   1      45.753  29.605  34.129  1.00  0.00    -0.206 F 
ATOM     85  C   UNL A   1      46.533  28.001  35.654  1.00  0.00     0.040 A 
ATOM     86  C   UNL A   1      45.085  26.215  36.368  1.00  0.00     0.040 A 
ATOM     87  F   UNL A   1      42.906  26.060  35.507  1.00  0.00    -0.206 F 
ATOM     88  C   UNL A   1      46.316  26.864  36.429  1.00  0.00     0.006 A 
ENDBRANCH  60  81
BRANCH  72  89
ATOM     89  C   UNL A   1      39.240  32.472  36.062  1.00  0.00     0.057 A 
ATOM     90  C   UNL A   1      39.779  33.747  36.282  1.00  0.00     0.134 A 
ATOM     91  C   UNL A   1      38.346  31.978  37.023  1.00  0.00     0.134 A 
ATOM     92  F   UNL A   1      40.649  34.279  35.411  1.00  0.00    -0.206 F 
ATOM     93  C   UNL A   1      39.432  34.505  37.401  1.00  0.00     0.040 A 
ATOM     94  C   UNL A   1      37.963  32.742  38.128  1.00  0.00     0.040 A 
ATOM     95  F   UNL A   1      37.779  30.771  36.868  1.00  0.00    -0.206 F 
ATOM     96  C   UNL A   1      38.508  34.010  38.320  1.00  0.00     0.006 A 
ENDBRANCH  72  89
ENDBRANCH  46  47
ENDBRANCH  39  41
ENDBRANCH  38  39
ENDBRANCH  37  38
ENDBRANCH   1  37
TORSDOF 15
ENDMDL
MODEL 3
REMARK VINA RESULT:     -12.7      4.382      9.781
REMARK SMILES C[C@]1(C(=O)OCCOCCOC(=O)c2ccc(-c3c4nc(c(-c5c(F)cccc5F)c5ccc([nH]5)c(-c5c(F)cccc5F)c5nc(c(-c6c(F)cccc6F)c6ccc3[nH]6)C=C5)C=C4)cc2)[NH2+]C2(C(=O)c3ccccc3C2=O)[C@@H]2C(=O)N(c3ccccc3)C(=O)[C@H]21
REMARK SMILES IDX 9 1 8 2 7 3 6 4 5 5 3 6 4 7 2 8 1 9 68 10 92 11 69 12 80 15
REMARK SMILES IDX 90 16 70 17 78 18 81 19 83 20 91 21 71 22 72 23 77 24 79 25
REMARK SMILES IDX 82 26 73 27 76 28 74 29 75 30 84 31 85 32 89 33 86 34 88 35
REMARK SMILES IDX 87 36 10 37 11 38 12 39 13 40 14 41 15 42 67 43 16 44 66 45
REMARK SMILES IDX 17 46 18 47 19 48 60 49 20 50 65 51 59 52 61 53 21 54 64 55
REMARK SMILES IDX 58 56 57 57 22 59 48 60 31 61 47 62 32 63 35 64 46 65 62 66
REMARK SMILES IDX 33 67 34 68 45 70 63 71 36 72 23 73 24 74 29 75 25 76 26 77
REMARK SMILES IDX 28 78 30 79 27 80 49 81 50 82 55 83 51 84 52 85 54 86 56 87
REMARK SMILES IDX 53 88 37 89 38 90 43 91 39 92 40 93 42 94 44 95 41 96
REMARK H PARENT 68 13 68 14 61 58 35 69
REMARK Flexibility Score: inf
ROOT
ATOM      1  C   UNL A   1      42.254  21.351  26.254  1.00  0.00     0.202 C 
ENDROOT
BRANCH   1   2
ATOM      2  O   UNL A   1      41.011  21.196  25.572  1.00  0.00    -0.374 OA
BRANCH   2   3
ATOM      3  C   UNL A   1      39.816  21.562  26.257  1.00  0.00     0.202 C 
BRANCH   3   4
ATOM      4  C   UNL A   1      38.499  21.488  25.484  1.00  0.00     0.261 C 
BRANCH   4   5
ATOM      5  O   UNL A   1      38.035  22.785  25.086  1.00  0.00    -0.459 OA
BRANCH   5   6
ATOM      6  C   UNL A   1      36.851  22.809  24.415  1.00  0.00     0.368 C 
ATOM      7  O   UNL A   1      36.693  22.358  23.288  1.00  0.00    -0.245 OA
BRANCH   6   8
ATOM      8  C   UNL A   1      35.719  23.487  25.240  1.00  0.00     0.205 C 
ATOM      9  C   UNL A   1      36.337  23.966  26.555  1.00  0.00     0.093 C 
ATOM     10  N   UNL A   1      35.057  24.679  24.543  1.00  0.00    -0.313 N 
ATOM     11  C   UNL A   1      34.562  22.545  25.425  1.00  0.00     0.172 C 
ATOM     12  C   UNL A   1      33.637  24.267  24.166  1.00  0.00     0.237 C 
ATOM     13  H   UNL A   1      35.581  24.928  23.704  1.00  0.00     0.348 HD
ATOM     14  H   UNL A   1      35.040  25.490  25.161  1.00  0.00     0.348 HD
ATOM     15  C   UNL A   1      33.765  22.784  24.154  1.00  0.00     0.177 C 
ATOM     16  C   UNL A   1      34.655  21.062  25.409  1.00  0.00     0.244 C 
ATOM     17  C   UNL A   1      32.607  24.868  25.121  1.00  0.00     0.232 C 
ATOM     18  C   UNL A   1      33.241  24.869  22.820  1.00  0.00     0.232 C 
ATOM     19  C   UNL A   1      32.760  21.698  24.258  1.00  0.00     0.245 C 
ATOM     20  N   UNL A   1      33.486  20.631  24.789  1.00  0.00    -0.250 N 
ATOM     21  O   UNL A   1      35.575  20.426  25.890  1.00  0.00    -0.273 OA
ATOM     22  O   UNL A   1      32.548  24.721  26.332  1.00  0.00    -0.286 OA
ATOM     23  C   UNL A   1      31.726  25.755  24.364  1.00  0.00     0.036 A 
ATOM     24  C   UNL A   1      32.107  25.773  23.029  1.00  0.00     0.036 A 
ATOM     25  O   UNL A   1      33.733  24.652  21.725  1.00  0.00    -0.286 OA
ATOM     26  O   UNL A   1      31.621  21.760  23.831  1.00  0.00    -0.273 OA
ATOM     27  C   UNL A   1      30.674  26.522  24.833  1.00  0.00     0.013 A 
ATOM     28  C   UNL A   1      31.452  26.567  22.102  1.00  0.00     0.013 A 
ATOM     29  C   UNL A   1      29.997  27.325  23.910  1.00  0.00     0.001 A 
ATOM     30  C   UNL A   1      30.386  27.350  22.556  1.00  0.00     0.001 A 
BRANCH  20  31
ATOM     31  C   UNL A   1      33.219  19.264  24.567  1.00  0.00     0.052 A 
ATOM     32  C   UNL A   1      32.618  18.490  25.568  1.00  0.00     0.027 A 
ATOM     33  C   UNL A   1      33.695  18.632  23.412  1.00  0.00     0.027 A 
ATOM     34  C   UNL A   1      32.510  17.107  25.430  1.00  0.00     0.002 A 
ATOM     35  C   UNL A   1      33.625  17.240  23.296  1.00  0.00     0.002 A 
ATOM     36  C   UNL A   1      33.033  16.481  24.303  1.00  0.00     0.000 A 
ENDBRANCH  20  31
ENDBRANCH   6   8
ENDBRANCH   5   6
ENDBRANCH   4   5
ENDBRANCH   3   4
ENDBRANCH   2   3
ENDBRANCH   1   2
BRANCH   1  37
ATOM     37  C   UNL A   1      43.426  21.980  25.491  1.00  0.00     0.261 C 
BRANCH  37  38
ATOM     38  O   UNL A   1      43.061  23.183  24.797  1.00  0.00    -0.460 OA
BRANCH  38  39
ATOM     39  C   UNL A   1      43.870  24.243  25.028  1.00  0.00     0.338 C 
ATOM     40  O   UNL A   1      44.899  24.530  24.439  1.00  0.00    -0.246 OA
BRANCH  39  41
ATOM     41  C   UNL A   1      43.238  25.155  26.003  1.00  0.00     0.060 A 
ATOM     42  C   UNL A   1      41.990  24.882  26.558  1.00  0.00     0.016 A 
ATOM     43  C   UNL A   1      43.957  26.291  26.401  1.00  0.00     0.016 A 
ATOM     44  C   UNL A   1      41.476  25.730  27.542  1.00  0.00     0.010 A 
ATOM     45  C   UNL A   1      43.451  27.130  27.393  1.00  0.00     0.010 A 
ATOM     46  C   UNL A   1      42.220  26.837  27.995  1.00  0.00    -0.014 A 
BRANCH  46  47
ATOM     47  C   UNL A   1      41.787  27.566  29.212  1.00  0.00     0.031 A 
ATOM     48  C   UNL A   1      42.499  27.434  30.523  1.00  0.00     0.074 A 
ATOM     49  C   UNL A   1      40.694  28.349  29.117  1.00  0.00     0.049 A 
ATOM     50  N   UNL A   1      42.294  28.088  31.640  1.00  0.00    -0.248 NA
ATOM     51  C   UNL A   1      43.569  26.429  30.600  1.00  0.00     0.031 C 
ATOM     52  C   UNL A   1      39.871  28.500  27.913  1.00  0.00     0.029 A 
ATOM     53  N   UNL A   1      40.093  29.169  30.036  1.00  0.00    -0.354 N 
ATOM     54  C   UNL A   1      43.221  27.595  32.547  1.00  0.00     0.074 A 
ATOM     55  C   UNL A   1      43.949  26.542  31.866  1.00  0.00     0.031 C 
ATOM     56  C   UNL A   1      38.902  29.395  28.154  1.00  0.00     0.029 A 
ATOM     57  C   UNL A   1      39.017  29.857  29.533  1.00  0.00     0.049 A 
ATOM     58  H   UNL A   1      40.404  29.257  30.966  1.00  0.00     0.167 HD
ATOM     59  C   UNL A   1      43.453  27.996  33.821  1.00  0.00     0.037 A 
ATOM     60  C   UNL A   1      38.214  30.767  30.114  1.00  0.00     0.037 A 
ATOM     61  C   UNL A   1      42.699  29.021  34.504  1.00  0.00     0.049 A 
ATOM     62  C   UNL A   1      38.479  31.171  31.536  1.00  0.00     0.074 A 
ATOM     63  C   UNL A   1      42.885  29.528  35.780  1.00  0.00     0.029 A 
ATOM     64  N   UNL A   1      41.599  29.682  33.975  1.00  0.00    -0.354 N 
ATOM     65  N   UNL A   1      39.427  30.776  32.350  1.00  0.00    -0.248 NA
ATOM     66  C   UNL A   1      37.564  32.164  32.115  1.00  0.00     0.031 C 
ATOM     67  C   UNL A   1      41.865  30.450  36.043  1.00  0.00     0.029 A 
ATOM     68  C   UNL A   1      41.079  30.568  34.908  1.00  0.00     0.049 A 
ATOM     69  H   UNL A   1      41.239  29.541  33.069  1.00  0.00     0.167 HD
ATOM     70  C   UNL A   1      39.240  31.489  33.527  1.00  0.00     0.074 A 
ATOM     71  C   UNL A   1      38.107  32.364  33.306  1.00  0.00     0.031 C 
ATOM     72  C   UNL A   1      39.941  31.425  34.686  1.00  0.00     0.037 A 
BRANCH  59  73
ATOM     73  C   UNL A   1      44.573  27.321  34.565  1.00  0.00     0.057 A 
ATOM     74  C   UNL A   1      45.886  27.801  34.484  1.00  0.00     0.134 A 
ATOM     75  C   UNL A   1      44.355  26.168  35.332  1.00  0.00     0.134 A 
ATOM     76  F   UNL A   1      46.171  28.892  33.757  1.00  0.00    -0.206 F 
ATOM     77  C   UNL A   1      46.940  27.162  35.141  1.00  0.00     0.040 A 
ATOM     78  C   UNL A   1      45.397  25.536  36.016  1.00  0.00     0.040 A 
ATOM     79  F   UNL A   1      43.122  25.655  35.457  1.00  0.00    -0.206 F 
ATOM     80  C   UNL A   1      46.696  26.031  35.917  1.00  0.00     0.006 A 
ENDBRANCH  59  73
BRANCH  60  81
ATOM     81  C   UNL A   1      37.104  31.385  29.348  1.00  0.00     0.057 A 
ATOM     82  C   UNL A   1      37.223  32.665  28.795  1.00  0.00     0.134 A 
ATOM     83  C   UNL A   1      35.908  30.692  29.122  1.00  0.00     0.134 A 
ATOM     84  F   UNL A   1      38.337  33.385  28.986  1.00  0.00    -0.206 F 
ATOM     85  C   UNL A   1      36.195  33.232  28.040  1.00  0.00     0.040 A 
ATOM     86  C   UNL A   1      34.886  31.234  28.342  1.00  0.00     0.040 A 
ATOM     87  F   UNL A   1      35.741  29.455  29.614  1.00  0.00    -0.206 F 
ATOM     88  C   UNL A   1      35.029  32.510  27.800  1.00  0.00     0.006 A 
ENDBRANCH  60  81
BRANCH  72  89
ATOM     89  C   UNL A   1      39.509  32.356  35.786  1.00  0.00     0.057 A 
ATOM     90  C   UNL A   1      40.062  33.639  35.894  1.00  0.00     0.134 A 
ATOM     91  C   UNL A   1      38.525  31.999  36.720  1.00  0.00     0.134 A 
ATOM     92  F   UNL A   1      41.015  34.044  35.042  1.00  0.00    -0.206 F 
ATOM     93  C   UNL A   1      39.643  34.536  36.877  1.00  0.00     0.040 A 
ATOM     94  C   UNL A   1      38.072  32.901  37.686  1.00  0.00     0.040 A 
ATOM     95  F   UNL A   1      37.941  30.792  36.666  1.00  0.00    -0.206 F 
ATOM     96  C   UNL A   1      38.633  34.174  37.767  1.00  0.00     0.006 A 
ENDBRANCH  72  89
ENDBRANCH  46  47
ENDBRANCH  39  41
ENDBRANCH  38  39
ENDBRANCH  37  38
ENDBRANCH   1  37
TORSDOF 15
ENDMDL
