MODEL 1
REMARK VINA RESULT:     -11.3      0.000      0.000
REMARK SMILES Cc1ccc(C[C@@H](Cc2cc(F)cc(Br)c2)C(=O)OCCOCCOC(=O)c2ccc(-c3c4nc(c(-c5c(F)cccc5F)c5ccc([nH]5)c(-c5c(F)cccc5F)c5nc(c(-c6c(F)cccc6F)c6ccc3[nH]6)C=C5)C=C4)cc2)cc1
REMARK SMILES IDX 22 1 21 2 20 3 19 4 17 5 18 6 7 7 6 8 5 9 1 10 2 11 3 12
REMARK SMILES IDX 83 13 4 14 82 15 8 16 9 17 10 18 16 19 11 20 14 21 12 22
REMARK SMILES IDX 13 23 15 24 23 25 24 26 25 27 26 28 27 29 28 30 29 31 81 32
REMARK SMILES IDX 30 33 80 34 31 35 32 36 33 37 74 38 34 39 79 40 73 41 75 42
REMARK SMILES IDX 35 43 78 44 72 45 71 46 36 48 62 49 45 50 61 51 46 52 49 53
REMARK SMILES IDX 60 54 76 55 47 56 48 57 59 59 77 60 50 61 37 62 38 63 43 64
REMARK SMILES IDX 39 65 40 66 42 67 44 68 41 69 63 70 64 71 69 72 65 73 66 74
REMARK SMILES IDX 68 75 70 76 67 77 51 78 52 79 57 80 53 81 54 82 56 83 58 84
REMARK SMILES IDX 55 85
REMARK H PARENT 75 47 49 58
REMARK Flexibility Score: inf
ROOT
ATOM      1  O   UNL A   1      37.343  21.436  25.507  1.00  0.00    -0.374 OA
ENDROOT
BRANCH   1   2
ATOM      2  C   UNL A   1      36.336  21.769  24.571  1.00  0.00     0.202 C 
BRANCH   2   3
ATOM      3  C   UNL A   1      35.124  21.044  25.069  1.00  0.00     0.261 C 
BRANCH   3   4
ATOM      4  O   UNL A   1      34.026  21.957  25.232  1.00  0.00    -0.463 OA
BRANCH   4   5
ATOM      5  C   UNL A   1      32.670  21.780  25.183  1.00  0.00     0.309 C 
ATOM      6  O   UNL A   1      32.049  20.733  25.352  1.00  0.00    -0.252 OA
BRANCH   5   7
ATOM      7  C   UNL A   1      32.031  23.150  24.908  1.00  0.00     0.108 C 
BRANCH   7   8
ATOM      8  C   UNL A   1      33.152  24.099  25.463  1.00  0.00     0.051 C 
BRANCH   8   9
ATOM      9  C   UNL A   1      32.852  25.497  25.836  1.00  0.00    -0.047 A 
ATOM     10  C   UNL A   1      32.026  29.510  26.949  1.00  0.00     0.044 C 
ATOM     11  C   UNL A   1      32.336  28.084  26.643  1.00  0.00    -0.051 A 
ATOM     12  C   UNL A   1      33.591  27.764  26.121  1.00  0.00     0.004 A 
ATOM     13  C   UNL A   1      31.366  27.089  26.820  1.00  0.00     0.004 A 
ATOM     14  C   UNL A   1      33.855  26.466  25.735  1.00  0.00     0.004 A 
ATOM     15  C   UNL A   1      31.620  25.794  26.409  1.00  0.00     0.004 A 
ENDBRANCH   8   9
ENDBRANCH   7   8
BRANCH   7  16
ATOM     16  C   UNL A   1      31.567  23.654  23.496  1.00  0.00     0.051 C 
BRANCH  16  17
ATOM     17  C   UNL A   1      31.309  24.999  22.841  1.00  0.00    -0.043 A 
ATOM     18  C   UNL A   1      30.131  25.667  23.268  1.00  0.00     0.043 A 
ATOM     19  C   UNL A   1      32.241  25.744  22.157  1.00  0.00     0.019 A 
ATOM     20  C   UNL A   1      30.062  27.053  23.334  1.00  0.00     0.124 A 
ATOM     21  C   UNL A   1      32.211  27.123  22.396  1.00  0.00     0.021 A 
ATOM     22  F   UNL A   1      29.014  27.661  23.900  1.00  0.00    -0.207 F 
ATOM     23  C   UNL A   1      31.156  27.787  22.999  1.00  0.00     0.055 A 
ATOM     24  Br  UNL A   1      33.800  28.080  22.377  1.00  0.00    -0.051 Br
ENDBRANCH  16  17
ENDBRANCH   7  16
ENDBRANCH   5   7
ENDBRANCH   4   5
ENDBRANCH   3   4
ENDBRANCH   2   3
ENDBRANCH   1   2
BRANCH   1  25
ATOM     25  C   UNL A   1      38.404  22.355  25.623  1.00  0.00     0.202 C 
BRANCH  25  26
ATOM     26  C   UNL A   1      39.546  21.774  26.458  1.00  0.00     0.261 C 
BRANCH  26  27
ATOM     27  O   UNL A   1      40.063  22.790  27.347  1.00  0.00    -0.460 OA
BRANCH  27  28
ATOM     28  C   UNL A   1      40.875  23.727  26.778  1.00  0.00     0.338 C 
ATOM     29  O   UNL A   1      42.047  23.561  26.483  1.00  0.00    -0.246 OA
BRANCH  28  30
ATOM     30  C   UNL A   1      40.228  25.074  26.848  1.00  0.00     0.060 A 
ATOM     31  C   UNL A   1      40.775  26.139  26.111  1.00  0.00     0.016 A 
ATOM     32  C   UNL A   1      39.381  25.340  27.920  1.00  0.00     0.016 A 
ATOM     33  C   UNL A   1      40.654  27.450  26.586  1.00  0.00     0.010 A 
ATOM     34  C   UNL A   1      39.395  26.606  28.465  1.00  0.00     0.010 A 
ATOM     35  C   UNL A   1      40.083  27.665  27.847  1.00  0.00    -0.014 A 
BRANCH  35  36
ATOM     36  C   UNL A   1      40.375  28.822  28.744  1.00  0.00     0.031 A 
ATOM     37  C   UNL A   1      39.151  29.749  29.078  1.00  0.00     0.074 A 
ATOM     38  C   UNL A   1      41.624  28.746  29.301  1.00  0.00     0.049 A 
ATOM     39  N   UNL A   1      38.952  30.641  30.009  1.00  0.00    -0.248 NA
ATOM     40  C   UNL A   1      38.052  29.805  28.105  1.00  0.00     0.031 C 
ATOM     41  C   UNL A   1      42.114  28.928  30.657  1.00  0.00     0.029 A 
ATOM     42  N   UNL A   1      42.845  28.782  28.609  1.00  0.00    -0.354 N 
ATOM     43  C   UNL A   1      37.959  31.534  29.631  1.00  0.00     0.074 A 
ATOM     44  C   UNL A   1      37.326  30.846  28.521  1.00  0.00     0.031 C 
ATOM     45  C   UNL A   1      43.376  29.356  30.723  1.00  0.00     0.029 A 
ATOM     46  C   UNL A   1      43.758  29.540  29.356  1.00  0.00     0.049 A 
ATOM     47  H   UNL A   1      43.030  28.349  27.744  1.00  0.00     0.167 HD
ATOM     48  C   UNL A   1      37.857  32.880  29.964  1.00  0.00     0.037 A 
ATOM     49  C   UNL A   1      44.977  30.043  29.111  1.00  0.00     0.037 A 
ATOM     50  C   UNL A   1      39.103  33.632  30.376  1.00  0.00     0.049 A 
ATOM     51  C   UNL A   1      44.856  31.591  29.206  1.00  0.00     0.074 A 
ATOM     52  C   UNL A   1      39.609  34.071  31.597  1.00  0.00     0.029 A 
ATOM     53  N   UNL A   1      40.134  34.014  29.447  1.00  0.00    -0.354 N 
ATOM     54  N   UNL A   1      43.805  32.238  29.686  1.00  0.00    -0.248 NA
ATOM     55  C   UNL A   1      45.853  32.561  28.776  1.00  0.00     0.031 C 
ATOM     56  C   UNL A   1      40.945  34.578  31.426  1.00  0.00     0.029 A 
ATOM     57  C   UNL A   1      41.370  34.348  30.113  1.00  0.00     0.049 A 
ATOM     58  H   UNL A   1      40.011  34.043  28.470  1.00  0.00     0.167 HD
ATOM     59  C   UNL A   1      43.805  33.601  29.398  1.00  0.00     0.074 A 
ATOM     60  C   UNL A   1      45.207  33.736  28.959  1.00  0.00     0.031 C 
ATOM     61  C   UNL A   1      42.727  34.528  29.420  1.00  0.00     0.037 A 
BRANCH  48  62
ATOM     62  C   UNL A   1      36.427  33.427  30.284  1.00  0.00     0.057 A 
ATOM     63  C   UNL A   1      35.566  33.877  29.254  1.00  0.00     0.134 A 
ATOM     64  C   UNL A   1      35.873  33.634  31.566  1.00  0.00     0.134 A 
ATOM     65  F   UNL A   1      35.862  33.731  27.960  1.00  0.00    -0.206 F 
ATOM     66  C   UNL A   1      34.334  34.522  29.476  1.00  0.00     0.040 A 
ATOM     67  C   UNL A   1      34.660  34.310  31.806  1.00  0.00     0.040 A 
ATOM     68  F   UNL A   1      36.425  33.142  32.675  1.00  0.00    -0.206 F 
ATOM     69  C   UNL A   1      33.884  34.766  30.759  1.00  0.00     0.006 A 
ENDBRANCH  48  62
BRANCH  49  70
ATOM     70  C   UNL A   1      45.818  28.924  28.554  1.00  0.00     0.057 A 
ATOM     71  C   UNL A   1      46.180  29.099  27.184  1.00  0.00     0.134 A 
ATOM     72  C   UNL A   1      46.840  28.383  29.358  1.00  0.00     0.134 A 
ATOM     73  F   UNL A   1      45.291  29.616  26.319  1.00  0.00    -0.206 F 
ATOM     74  C   UNL A   1      47.507  28.981  26.718  1.00  0.00     0.040 A 
ATOM     75  C   UNL A   1      48.177  28.278  28.902  1.00  0.00     0.040 A 
ATOM     76  F   UNL A   1      46.634  28.224  30.673  1.00  0.00    -0.206 F 
ATOM     77  C   UNL A   1      48.522  28.625  27.597  1.00  0.00     0.006 A 
ENDBRANCH  49  70
BRANCH  61  78
ATOM     78  C   UNL A   1      42.860  35.895  28.760  1.00  0.00     0.057 A 
ATOM     79  C   UNL A   1      42.320  36.213  27.508  1.00  0.00     0.134 A 
ATOM     80  C   UNL A   1      43.411  36.995  29.461  1.00  0.00     0.134 A 
ATOM     81  F   UNL A   1      41.584  35.337  26.812  1.00  0.00    -0.206 F 
ATOM     82  C   UNL A   1      42.449  37.481  26.935  1.00  0.00     0.040 A 
ATOM     83  C   UNL A   1      43.461  38.286  28.937  1.00  0.00     0.040 A 
ATOM     84  F   UNL A   1      43.898  36.894  30.705  1.00  0.00    -0.206 F 
ATOM     85  C   UNL A   1      43.015  38.525  27.652  1.00  0.00     0.006 A 
ENDBRANCH  61  78
ENDBRANCH  35  36
ENDBRANCH  28  30
ENDBRANCH  27  28
ENDBRANCH  26  27
ENDBRANCH  25  26
ENDBRANCH   1  25
TORSDOF 18
ENDMDL
MODEL 2
REMARK VINA RESULT:     -11.2      4.264      9.237
REMARK SMILES Cc1ccc(C[C@@H](Cc2cc(F)cc(Br)c2)C(=O)OCCOCCOC(=O)c2ccc(-c3c4nc(c(-c5c(F)cccc5F)c5ccc([nH]5)c(-c5c(F)cccc5F)c5nc(c(-c6c(F)cccc6F)c6ccc3[nH]6)C=C5)C=C4)cc2)cc1
REMARK SMILES IDX 22 1 21 2 20 3 19 4 17 5 18 6 7 7 6 8 5 9 1 10 2 11 3 12
REMARK SMILES IDX 83 13 4 14 82 15 8 16 9 17 10 18 16 19 11 20 14 21 12 22
REMARK SMILES IDX 13 23 15 24 23 25 24 26 25 27 26 28 27 29 28 30 29 31 81 32
REMARK SMILES IDX 30 33 80 34 31 35 32 36 33 37 74 38 34 39 79 40 73 41 75 42
REMARK SMILES IDX 35 43 78 44 72 45 71 46 36 48 62 49 45 50 61 51 46 52 49 53
REMARK SMILES IDX 60 54 76 55 47 56 48 57 59 59 77 60 50 61 37 62 38 63 43 64
REMARK SMILES IDX 39 65 40 66 42 67 44 68 41 69 63 70 64 71 69 72 65 73 66 74
REMARK SMILES IDX 68 75 70 76 67 77 51 78 52 79 57 80 53 81 54 82 56 83 58 84
REMARK SMILES IDX 55 85
REMARK H PARENT 75 47 49 58
REMARK Flexibility Score: inf
ROOT
ATOM      1  O   UNL A   1      32.955  29.772  25.692  1.00  0.00    -0.374 OA
ENDROOT
BRANCH   1   2
ATOM      2  C   UNL A   1      31.582  30.041  25.482  1.00  0.00     0.202 C 
BRANCH   2   3
ATOM      3  C   UNL A   1      31.221  29.185  24.307  1.00  0.00     0.261 C 
BRANCH   3   4
ATOM      4  O   UNL A   1      31.637  27.828  24.530  1.00  0.00    -0.463 OA
BRANCH   4   5
ATOM      5  C   UNL A   1      31.056  26.788  25.204  1.00  0.00     0.309 C 
ATOM      6  O   UNL A   1      29.945  26.302  25.009  1.00  0.00    -0.252 OA
BRANCH   5   7
ATOM      7  C   UNL A   1      32.064  26.292  26.253  1.00  0.00     0.108 C 
BRANCH   7   8
ATOM      8  C   UNL A   1      31.357  24.968  26.717  1.00  0.00     0.051 C 
BRANCH   8   9
ATOM      9  C   UNL A   1      31.891  23.644  26.335  1.00  0.00    -0.047 A 
ATOM     10  C   UNL A   1      33.375  19.819  25.244  1.00  0.00     0.044 C 
ATOM     11  C   UNL A   1      32.793  21.121  25.678  1.00  0.00    -0.051 A 
ATOM     12  C   UNL A   1      31.881  21.766  24.839  1.00  0.00     0.004 A 
ATOM     13  C   UNL A   1      33.198  21.719  26.878  1.00  0.00     0.004 A 
ATOM     14  C   UNL A   1      31.417  23.019  25.177  1.00  0.00     0.004 A 
ATOM     15  C   UNL A   1      32.752  22.986  27.205  1.00  0.00     0.004 A 
ENDBRANCH   8   9
ENDBRANCH   7   8
BRANCH   7  16
ATOM     16  C   UNL A   1      33.581  26.006  25.972  1.00  0.00     0.051 C 
BRANCH  16  17
ATOM     17  C   UNL A   1      34.384  25.306  24.890  1.00  0.00    -0.043 A 
ATOM     18  C   UNL A   1      35.402  24.433  25.357  1.00  0.00     0.043 A 
ATOM     19  C   UNL A   1      34.011  25.189  23.572  1.00  0.00     0.019 A 
ATOM     20  C   UNL A   1      35.753  23.284  24.660  1.00  0.00     0.124 A 
ATOM     21  C   UNL A   1      34.255  23.943  22.980  1.00  0.00     0.021 A 
ATOM     22  F   UNL A   1      36.585  22.385  25.196  1.00  0.00    -0.207 F 
ATOM     23  C   UNL A   1      35.091  22.978  23.513  1.00  0.00     0.055 A 
ATOM     24  Br  UNL A   1      33.077  23.306  21.697  1.00  0.00    -0.051 Br
ENDBRANCH  16  17
ENDBRANCH   7  16
ENDBRANCH   5   7
ENDBRANCH   4   5
ENDBRANCH   3   4
ENDBRANCH   2   3
ENDBRANCH   1   2
BRANCH   1  25
ATOM     25  C   UNL A   1      33.403  29.862  27.025  1.00  0.00     0.202 C 
BRANCH  25  26
ATOM     26  C   UNL A   1      33.884  31.277  27.349  1.00  0.00     0.261 C 
BRANCH  26  27
ATOM     27  O   UNL A   1      34.445  31.305  28.681  1.00  0.00    -0.460 OA
BRANCH  27  28
ATOM     28  C   UNL A   1      35.797  31.456  28.760  1.00  0.00     0.338 C 
ATOM     29  O   UNL A   1      36.404  32.499  28.579  1.00  0.00    -0.246 OA
BRANCH  28  30
ATOM     30  C   UNL A   1      36.460  30.115  28.791  1.00  0.00     0.060 A 
ATOM     31  C   UNL A   1      36.684  29.486  30.027  1.00  0.00     0.016 A 
ATOM     32  C   UNL A   1      37.189  29.718  27.673  1.00  0.00     0.016 A 
ATOM     33  C   UNL A   1      37.781  28.632  30.187  1.00  0.00     0.010 A 
ATOM     34  C   UNL A   1      38.352  29.004  27.872  1.00  0.00     0.010 A 
ATOM     35  C   UNL A   1      38.701  28.506  29.139  1.00  0.00    -0.014 A 
BRANCH  35  36
ATOM     36  C   UNL A   1      40.144  28.154  29.290  1.00  0.00     0.031 A 
ATOM     37  C   UNL A   1      40.608  26.850  28.547  1.00  0.00     0.074 A 
ATOM     38  C   UNL A   1      40.866  29.161  29.877  1.00  0.00     0.049 A 
ATOM     39  N   UNL A   1      41.786  26.398  28.217  1.00  0.00    -0.248 NA
ATOM     40  C   UNL A   1      39.599  25.813  28.296  1.00  0.00     0.031 C 
ATOM     41  C   UNL A   1      42.139  29.782  29.553  1.00  0.00     0.029 A 
ATOM     42  N   UNL A   1      40.694  29.654  31.180  1.00  0.00    -0.354 N 
ATOM     43  C   UNL A   1      41.752  25.024  28.028  1.00  0.00     0.074 A 
ATOM     44  C   UNL A   1      40.329  24.759  27.918  1.00  0.00     0.031 C 
ATOM     45  C   UNL A   1      42.786  30.271  30.611  1.00  0.00     0.029 A 
ATOM     46  C   UNL A   1      41.959  29.920  31.725  1.00  0.00     0.049 A 
ATOM     47  H   UNL A   1      39.832  29.791  31.635  1.00  0.00     0.167 HD
ATOM     48  C   UNL A   1      42.768  24.109  28.273  1.00  0.00     0.037 A 
ATOM     49  C   UNL A   1      42.402  30.226  32.953  1.00  0.00     0.037 A 
ATOM     50  C   UNL A   1      43.866  24.471  29.249  1.00  0.00     0.049 A 
ATOM     51  C   UNL A   1      43.351  29.076  33.393  1.00  0.00     0.074 A 
ATOM     52  C   UNL A   1      45.192  24.873  29.109  1.00  0.00     0.029 A 
ATOM     53  N   UNL A   1      43.665  24.522  30.673  1.00  0.00    -0.354 N 
ATOM     54  N   UNL A   1      43.809  28.125  32.591  1.00  0.00    -0.248 NA
ATOM     55  C   UNL A   1      43.867  28.850  34.736  1.00  0.00     0.031 C 
ATOM     56  C   UNL A   1      45.725  25.274  30.384  1.00  0.00     0.029 A 
ATOM     57  C   UNL A   1      44.708  25.263  31.344  1.00  0.00     0.049 A 
ATOM     58  H   UNL A   1      42.905  24.101  31.137  1.00  0.00     0.167 HD
ATOM     59  C   UNL A   1      44.391  27.054  33.263  1.00  0.00     0.074 A 
ATOM     60  C   UNL A   1      44.521  27.672  34.597  1.00  0.00     0.031 C 
ATOM     61  C   UNL A   1      44.657  25.736  32.802  1.00  0.00     0.037 A 
BRANCH  48  62
ATOM     62  C   UNL A   1      42.942  22.945  27.242  1.00  0.00     0.057 A 
ATOM     63  C   UNL A   1      42.223  21.733  27.376  1.00  0.00     0.134 A 
ATOM     64  C   UNL A   1      43.857  22.904  26.167  1.00  0.00     0.134 A 
ATOM     65  F   UNL A   1      41.266  21.567  28.291  1.00  0.00    -0.206 F 
ATOM     66  C   UNL A   1      42.440  20.591  26.580  1.00  0.00     0.040 A 
ATOM     67  C   UNL A   1      44.112  21.757  25.387  1.00  0.00     0.040 A 
ATOM     68  F   UNL A   1      44.521  23.980  25.747  1.00  0.00    -0.206 F 
ATOM     69  C   UNL A   1      43.408  20.588  25.594  1.00  0.00     0.006 A 
ENDBRANCH  48  62
BRANCH  49  70
ATOM     70  C   UNL A   1      41.550  31.359  33.465  1.00  0.00     0.057 A 
ATOM     71  C   UNL A   1      40.697  30.996  34.551  1.00  0.00     0.134 A 
ATOM     72  C   UNL A   1      42.129  32.638  33.585  1.00  0.00     0.134 A 
ATOM     73  F   UNL A   1      40.094  29.795  34.555  1.00  0.00    -0.206 F 
ATOM     74  C   UNL A   1      40.629  31.733  35.753  1.00  0.00     0.040 A 
ATOM     75  C   UNL A   1      42.078  33.373  34.795  1.00  0.00     0.040 A 
ATOM     76  F   UNL A   1      42.990  33.065  32.651  1.00  0.00    -0.206 F 
ATOM     77  C   UNL A   1      41.371  32.898  35.898  1.00  0.00     0.006 A 
ENDBRANCH  49  70
BRANCH  61  78
ATOM     78  C   UNL A   1      44.995  24.620  33.782  1.00  0.00     0.057 A 
ATOM     79  C   UNL A   1      46.301  24.200  34.066  1.00  0.00     0.134 A 
ATOM     80  C   UNL A   1      43.997  24.037  34.601  1.00  0.00     0.134 A 
ATOM     81  F   UNL A   1      47.370  24.801  33.529  1.00  0.00    -0.206 F 
ATOM     82  C   UNL A   1      46.578  23.180  34.980  1.00  0.00     0.040 A 
ATOM     83  C   UNL A   1      44.274  23.085  35.580  1.00  0.00     0.040 A 
ATOM     84  F   UNL A   1      42.704  24.380  34.525  1.00  0.00    -0.206 F 
ATOM     85  C   UNL A   1      45.565  22.623  35.746  1.00  0.00     0.006 A 
ENDBRANCH  61  78
ENDBRANCH  35  36
ENDBRANCH  28  30
ENDBRANCH  27  28
ENDBRANCH  26  27
ENDBRANCH  25  26
ENDBRANCH   1  25
TORSDOF 18
ENDMDL
MODEL 3
REMARK VINA RESULT:     -10.9      4.409      9.351
REMARK SMILES Cc1ccc(C[C@@H](Cc2cc(F)cc(Br)c2)C(=O)OCCOCCOC(=O)c2ccc(-c3c4nc(c(-c5c(F)cccc5F)c5ccc([nH]5)c(-c5c(F)cccc5F)c5nc(c(-c6c(F)cccc6F)c6ccc3[nH]6)C=C5)C=C4)cc2)cc1
REMARK SMILES IDX 22 1 21 2 20 3 19 4 17 5 18 6 7 7 6 8 5 9 1 10 2 11 3 12
REMARK SMILES IDX 83 13 4 14 82 15 8 16 9 17 10 18 16 19 11 20 14 21 12 22
REMARK SMILES IDX 13 23 15 24 23 25 24 26 25 27 26 28 27 29 28 30 29 31 81 32
REMARK SMILES IDX 30 33 80 34 31 35 32 36 33 37 74 38 34 39 79 40 73 41 75 42
REMARK SMILES IDX 35 43 78 44 72 45 71 46 36 48 62 49 45 50 61 51 46 52 49 53
REMARK SMILES IDX 60 54 76 55 47 56 48 57 59 59 77 60 50 61 37 62 38 63 43 64
REMARK SMILES IDX 39 65 40 66 42 67 44 68 41 69 63 70 64 71 69 72 65 73 66 74
REMARK SMILES IDX 68 75 70 76 67 77 51 78 52 79 57 80 53 81 54 82 56 83 58 84
REMARK SMILES IDX 55 85
REMARK H PARENT 75 47 49 58
REMARK Flexibility Score: inf
ROOT
ATOM      1  O   UNL A   1      34.515  30.685  27.095  1.00  0.00    -0.374 OA
ENDROOT
BRANCH   1   2
ATOM      2  C   UNL A   1      34.008  29.372  26.955  1.00  0.00     0.202 C 
BRANCH   2   3
ATOM      3  C   UNL A   1      32.808  29.538  26.074  1.00  0.00     0.261 C 
BRANCH   3   4
ATOM      4  O   UNL A   1      32.347  28.259  25.611  1.00  0.00    -0.463 OA
BRANCH   4   5
ATOM      5  C   UNL A   1      31.760  27.205  26.258  1.00  0.00     0.309 C 
ATOM      6  O   UNL A   1      31.033  27.250  27.247  1.00  0.00    -0.252 OA
BRANCH   5   7
ATOM      7  C   UNL A   1      32.141  25.923  25.502  1.00  0.00     0.108 C 
BRANCH   7   8
ATOM      8  C   UNL A   1      33.563  25.651  26.111  1.00  0.00     0.051 C 
BRANCH   8   9
ATOM      9  C   UNL A   1      34.388  24.516  25.646  1.00  0.00    -0.047 A 
ATOM     10  C   UNL A   1      36.798  21.273  24.343  1.00  0.00     0.044 C 
ATOM     11  C   UNL A   1      36.026  22.458  24.817  1.00  0.00    -0.051 A 
ATOM     12  C   UNL A   1      35.549  22.471  26.130  1.00  0.00     0.004 A 
ATOM     13  C   UNL A   1      35.734  23.514  23.945  1.00  0.00     0.004 A 
ATOM     14  C   UNL A   1      34.744  23.510  26.549  1.00  0.00     0.004 A 
ATOM     15  C   UNL A   1      34.907  24.542  24.357  1.00  0.00     0.004 A 
ENDBRANCH   8   9
ENDBRANCH   7   8
BRANCH   7  16
ATOM     16  C   UNL A   1      31.304  24.596  25.511  1.00  0.00     0.051 C 
BRANCH  16  17
ATOM     17  C   UNL A   1      31.336  23.273  24.766  1.00  0.00    -0.043 A 
ATOM     18  C   UNL A   1      31.678  23.358  23.390  1.00  0.00     0.043 A 
ATOM     19  C   UNL A   1      31.391  22.030  25.351  1.00  0.00     0.019 A 
ATOM     20  C   UNL A   1      32.380  22.345  22.750  1.00  0.00     0.124 A 
ATOM     21  C   UNL A   1      32.246  21.106  24.737  1.00  0.00     0.021 A 
ATOM     22  F   UNL A   1      32.846  22.513  21.508  1.00  0.00    -0.207 F 
ATOM     23  C   UNL A   1      32.766  21.254  23.463  1.00  0.00     0.055 A 
ATOM     24  Br  UNL A   1      33.140  19.865  25.785  1.00  0.00    -0.051 Br
ENDBRANCH  16  17
ENDBRANCH   7  16
ENDBRANCH   5   7
ENDBRANCH   4   5
ENDBRANCH   3   4
ENDBRANCH   2   3
ENDBRANCH   1   2
BRANCH   1  25
ATOM     25  C   UNL A   1      33.652  31.617  27.706  1.00  0.00     0.202 C 
BRANCH  25  26
ATOM     26  C   UNL A   1      34.416  32.518  28.677  1.00  0.00     0.261 C 
BRANCH  26  27
ATOM     27  O   UNL A   1      34.798  31.757  29.846  1.00  0.00    -0.460 OA
BRANCH  27  28
ATOM     28  C   UNL A   1      36.122  31.782  30.171  1.00  0.00     0.338 C 
ATOM     29  O   UNL A   1      36.745  32.770  30.523  1.00  0.00    -0.246 OA
BRANCH  28  30
ATOM     30  C   UNL A   1      36.778  30.507  29.743  1.00  0.00     0.060 A 
ATOM     31  C   UNL A   1      36.921  29.461  30.671  1.00  0.00     0.016 A 
ATOM     32  C   UNL A   1      37.574  30.531  28.602  1.00  0.00     0.016 A 
ATOM     33  C   UNL A   1      38.003  28.580  30.567  1.00  0.00     0.010 A 
ATOM     34  C   UNL A   1      38.720  29.763  28.589  1.00  0.00     0.010 A 
ATOM     35  C   UNL A   1      38.987  28.825  29.601  1.00  0.00    -0.014 A 
BRANCH  35  36
ATOM     36  C   UNL A   1      40.416  28.405  29.695  1.00  0.00     0.031 A 
ATOM     37  C   UNL A   1      40.827  27.184  28.795  1.00  0.00     0.074 A 
ATOM     38  C   UNL A   1      41.179  29.305  30.391  1.00  0.00     0.049 A 
ATOM     39  N   UNL A   1      41.986  26.733  28.401  1.00  0.00    -0.248 NA
ATOM     40  C   UNL A   1      39.779  26.223  28.429  1.00  0.00     0.031 C 
ATOM     41  C   UNL A   1      42.473  29.913  30.132  1.00  0.00     0.029 A 
ATOM     42  N   UNL A   1      41.033  29.643  31.746  1.00  0.00    -0.354 N 
ATOM     43  C   UNL A   1      41.898  25.393  28.046  1.00  0.00     0.074 A 
ATOM     44  C   UNL A   1      40.466  25.197  27.919  1.00  0.00     0.031 C 
ATOM     45  C   UNL A   1      43.143  30.247  31.236  1.00  0.00     0.029 A 
ATOM     46  C   UNL A   1      42.309  29.794  32.307  1.00  0.00     0.049 A 
ATOM     47  H   UNL A   1      40.179  29.755  32.223  1.00  0.00     0.167 HD
ATOM     48  C   UNL A   1      42.881  24.418  28.169  1.00  0.00     0.037 A 
ATOM     49  C   UNL A   1      42.770  29.932  33.558  1.00  0.00     0.037 A 
ATOM     50  C   UNL A   1      43.997  24.619  29.171  1.00  0.00     0.049 A 
ATOM     51  C   UNL A   1      43.677  28.703  33.847  1.00  0.00     0.074 A 
ATOM     52  C   UNL A   1      45.336  24.986  29.068  1.00  0.00     0.029 A 
ATOM     53  N   UNL A   1      43.806  24.504  30.593  1.00  0.00    -0.354 N 
ATOM     54  N   UNL A   1      44.095  27.841  32.931  1.00  0.00    -0.248 NA
ATOM     55  C   UNL A   1      44.192  28.297  35.147  1.00  0.00     0.031 C 
ATOM     56  C   UNL A   1      45.891  25.209  30.377  1.00  0.00     0.029 A 
ATOM     57  C   UNL A   1      44.879  25.119  31.338  1.00  0.00     0.049 A 
ATOM     58  H   UNL A   1      43.033  24.058  31.010  1.00  0.00     0.167 HD
ATOM     59  C   UNL A   1      44.640  26.675  33.463  1.00  0.00     0.074 A 
ATOM     60  C   UNL A   1      44.800  27.122  34.861  1.00  0.00     0.031 C 
ATOM     61  C   UNL A   1      44.853  25.414  32.843  1.00  0.00     0.037 A 
BRANCH  48  62
ATOM     62  C   UNL A   1      43.006  23.383  27.003  1.00  0.00     0.057 A 
ATOM     63  C   UNL A   1      42.707  22.014  27.203  1.00  0.00     0.134 A 
ATOM     64  C   UNL A   1      43.501  23.634  25.705  1.00  0.00     0.134 A 
ATOM     65  F   UNL A   1      42.174  21.556  28.339  1.00  0.00    -0.206 F 
ATOM     66  C   UNL A   1      42.941  21.004  26.249  1.00  0.00     0.040 A 
ATOM     67  C   UNL A   1      43.776  22.630  24.754  1.00  0.00     0.040 A 
ATOM     68  F   UNL A   1      43.692  24.866  25.235  1.00  0.00    -0.206 F 
ATOM     69  C   UNL A   1      43.504  21.304  25.024  1.00  0.00     0.006 A 
ENDBRANCH  48  62
BRANCH  49  70
ATOM     70  C   UNL A   1      41.964  31.025  34.213  1.00  0.00     0.057 A 
ATOM     71  C   UNL A   1      41.267  30.607  35.387  1.00  0.00     0.134 A 
ATOM     72  C   UNL A   1      42.523  32.316  34.299  1.00  0.00     0.134 A 
ATOM     73  F   UNL A   1      40.699  29.390  35.428  1.00  0.00    -0.206 F 
ATOM     74  C   UNL A   1      41.336  31.305  36.611  1.00  0.00     0.040 A 
ATOM     75  C   UNL A   1      42.610  33.013  35.529  1.00  0.00     0.040 A 
ATOM     76  F   UNL A   1      43.246  32.794  33.278  1.00  0.00    -0.206 F 
ATOM     77  C   UNL A   1      42.063  32.486  36.697  1.00  0.00     0.006 A 
ENDBRANCH  49  70
BRANCH  61  78
ATOM     78  C   UNL A   1      45.154  24.175  33.677  1.00  0.00     0.057 A 
ATOM     79  C   UNL A   1      44.204  23.194  33.988  1.00  0.00     0.134 A 
ATOM     80  C   UNL A   1      46.480  23.854  34.060  1.00  0.00     0.134 A 
ATOM     81  F   UNL A   1      42.952  23.247  33.517  1.00  0.00    -0.206 F 
ATOM     82  C   UNL A   1      44.515  22.062  34.746  1.00  0.00     0.040 A 
ATOM     83  C   UNL A   1      46.816  22.683  34.736  1.00  0.00     0.040 A 
ATOM     84  F   UNL A   1      47.529  24.636  33.772  1.00  0.00    -0.206 F 
ATOM     85  C   UNL A   1      45.826  21.799  35.118  1.00  0.00     0.006 A 
ENDBRANCH  61  78
ENDBRANCH  35  36
ENDBRANCH  28  30
ENDBRANCH  27  28
ENDBRANCH  26  27
ENDBRANCH  25  26
ENDBRANCH   1  25
TORSDOF 18
ENDMDL
