MODEL 1
REMARK VINA RESULT:     -11.1      0.000      0.000
REMARK SMILES CCn1ccc(NC(=O)[C@H]2[C@@H](C(=O)OCCOCCOC(=O)c3ccc(-c4c5nc(c(-c6c(F)cccc6F)c6ccc([nH]6)c(-c6c(F)cccc6F)c6nc(c(-c7c(F)cccc7F)c7ccc4[nH]7)C=C6)C=C5)cc3)[C@H]3C=C[C@@H]2C3)n1
REMARK SMILES IDX 16 1 15 2 14 3 12 4 13 5 11 6 10 7 80 8 77 9 79 10 81 11
REMARK SMILES IDX 78 12 8 13 7 14 9 16 6 17 3 18 4 19 82 20 5 21 2 22 1 23
REMARK SMILES IDX 17 24 18 25 19 26 20 27 21 28 22 29 23 30 24 31 76 32 25 33
REMARK SMILES IDX 75 34 26 35 27 36 28 37 69 38 29 39 74 40 68 41 70 42 30 43
REMARK SMILES IDX 73 44 67 45 66 46 31 48 57 49 40 50 56 51 41 52 44 53 55 54
REMARK SMILES IDX 71 55 42 56 43 57 54 59 72 60 45 61 32 62 33 63 38 64 34 65
REMARK SMILES IDX 35 66 37 67 39 68 36 69 58 70 59 71 64 72 60 73 61 74 63 75
REMARK SMILES IDX 65 76 62 77 46 78 47 79 52 80 48 81 49 82 51 83 53 84 50 85
REMARK H PARENT 7 15 70 47 44 58
REMARK Flexibility Score: inf
ROOT
ATOM      1  C   UNL A   1      35.253  23.438  23.329  1.00  0.00     0.202 C 
ENDROOT
BRANCH   1   2
ATOM      2  C   UNL A   1      33.820  23.511  23.877  1.00  0.00     0.261 C 
BRANCH   2   3
ATOM      3  O   UNL A   1      33.578  24.350  25.020  1.00  0.00    -0.463 OA
BRANCH   3   4
ATOM      4  C   UNL A   1      33.506  25.652  24.669  1.00  0.00     0.310 C 
ATOM      5  O   UNL A   1      33.457  26.035  23.501  1.00  0.00    -0.252 OA
BRANCH   4   6
ATOM      6  C   UNL A   1      33.443  26.659  25.783  1.00  0.00     0.119 C 
ATOM      7  C   UNL A   1      32.052  26.624  26.466  1.00  0.00     0.100 C 
ATOM      8  C   UNL A   1      31.851  28.071  26.959  1.00  0.00     0.025 C 
ATOM      9  C   UNL A   1      33.808  28.171  25.832  1.00  0.00     0.027 C 
ATOM     10  C   UNL A   1      31.655  29.019  25.816  1.00  0.00    -0.027 C 
ATOM     11  C   UNL A   1      33.312  28.465  27.273  1.00  0.00     0.017 C 
ATOM     12  C   UNL A   1      32.829  29.108  25.169  1.00  0.00    -0.027 C 
BRANCH   7  13
ATOM     13  C   UNL A   1      30.856  25.885  25.850  1.00  0.00     0.230 C 
ATOM     14  N   UNL A   1      30.094  26.205  24.783  1.00  0.00    -0.309 N 
ATOM     15  H   UNL A   1      29.344  25.573  24.700  1.00  0.00     0.171 HD
ATOM     16  O   UNL A   1      30.474  24.868  26.458  1.00  0.00    -0.274 OA
BRANCH  14  17
ATOM     17  C   UNL A   1      30.039  27.135  23.779  1.00  0.00     0.154 A 
ATOM     18  N   UNL A   1      29.168  28.751  22.698  1.00  0.00    -0.271 N 
ATOM     19  C   UNL A   1      30.372  28.565  22.102  1.00  0.00     0.111 A 
ATOM     20  N   UNL A   1      28.926  27.880  23.694  1.00  0.00    -0.155 NA
ATOM     21  C   UNL A   1      30.911  27.475  22.735  1.00  0.00     0.068 A 
BRANCH  18  22
ATOM     22  C   UNL A   1      28.178  29.736  22.307  1.00  0.00     0.141 C 
ATOM     23  C   UNL A   1      27.712  30.567  23.488  1.00  0.00     0.029 C 
ENDBRANCH  18  22
ENDBRANCH  14  17
ENDBRANCH   7  13
ENDBRANCH   4   6
ENDBRANCH   3   4
ENDBRANCH   2   3
ENDBRANCH   1   2
BRANCH   1  24
ATOM     24  O   UNL A   1      36.123  22.353  23.611  1.00  0.00    -0.374 OA
BRANCH  24  25
ATOM     25  C   UNL A   1      37.116  22.427  24.623  1.00  0.00     0.202 C 
BRANCH  25  26
ATOM     26  C   UNL A   1      37.719  21.147  25.187  1.00  0.00     0.261 C 
BRANCH  26  27
ATOM     27  O   UNL A   1      38.869  21.400  25.977  1.00  0.00    -0.460 OA
BRANCH  27  28
ATOM     28  C   UNL A   1      39.811  20.441  25.885  1.00  0.00     0.338 C 
ATOM     29  O   UNL A   1      39.657  19.287  25.487  1.00  0.00    -0.246 OA
BRANCH  28  30
ATOM     30  C   UNL A   1      41.069  20.931  26.452  1.00  0.00     0.060 A 
ATOM     31  C   UNL A   1      41.169  20.827  27.842  1.00  0.00     0.016 A 
ATOM     32  C   UNL A   1      41.814  21.859  25.712  1.00  0.00     0.016 A 
ATOM     33  C   UNL A   1      41.724  21.883  28.520  1.00  0.00     0.010 A 
ATOM     34  C   UNL A   1      42.340  22.928  26.390  1.00  0.00     0.010 A 
ATOM     35  C   UNL A   1      42.175  22.973  27.775  1.00  0.00    -0.014 A 
BRANCH  35  36
ATOM     36  C   UNL A   1      42.353  24.225  28.475  1.00  0.00     0.031 A 
ATOM     37  C   UNL A   1      41.319  25.241  28.211  1.00  0.00     0.074 A 
ATOM     38  C   UNL A   1      43.323  24.362  29.399  1.00  0.00     0.049 A 
ATOM     39  N   UNL A   1      41.463  26.435  27.744  1.00  0.00    -0.248 NA
ATOM     40  C   UNL A   1      39.922  24.825  28.405  1.00  0.00     0.031 C 
ATOM     41  C   UNL A   1      44.172  23.312  29.976  1.00  0.00     0.029 A 
ATOM     42  N   UNL A   1      43.664  25.464  30.117  1.00  0.00    -0.354 N 
ATOM     43  C   UNL A   1      40.186  26.986  27.751  1.00  0.00     0.074 A 
ATOM     44  C   UNL A   1      39.268  25.909  28.002  1.00  0.00     0.031 C 
ATOM     45  C   UNL A   1      44.756  23.787  31.098  1.00  0.00     0.029 A 
ATOM     46  C   UNL A   1      44.408  25.190  31.251  1.00  0.00     0.049 A 
ATOM     47  H   UNL A   1      43.403  26.377  29.854  1.00  0.00     0.167 HD
ATOM     48  C   UNL A   1      39.984  28.328  27.791  1.00  0.00     0.037 A 
ATOM     49  C   UNL A   1      44.624  26.038  32.286  1.00  0.00     0.037 A 
ATOM     50  C   UNL A   1      41.141  29.060  27.353  1.00  0.00     0.049 A 
ATOM     51  C   UNL A   1      44.285  27.410  31.830  1.00  0.00     0.074 A 
ATOM     52  C   UNL A   1      41.873  29.111  26.182  1.00  0.00     0.029 A 
ATOM     53  N   UNL A   1      41.913  29.682  28.301  1.00  0.00    -0.354 N 
ATOM     54  N   UNL A   1      44.977  28.098  30.964  1.00  0.00    -0.248 NA
ATOM     55  C   UNL A   1      42.923  27.879  32.048  1.00  0.00     0.031 C 
ATOM     56  C   UNL A   1      43.217  29.352  26.588  1.00  0.00     0.029 A 
ATOM     57  C   UNL A   1      43.223  29.439  27.981  1.00  0.00     0.049 A 
ATOM     58  H   UNL A   1      41.587  30.206  29.069  1.00  0.00     0.167 HD
ATOM     59  C   UNL A   1      44.036  28.824  30.247  1.00  0.00     0.074 A 
ATOM     60  C   UNL A   1      42.807  28.731  31.027  1.00  0.00     0.031 C 
ATOM     61  C   UNL A   1      44.263  29.195  28.953  1.00  0.00     0.037 A 
BRANCH  48  62
ATOM     62  C   UNL A   1      38.848  28.965  28.547  1.00  0.00     0.057 A 
ATOM     63  C   UNL A   1      38.698  28.697  29.918  1.00  0.00     0.134 A 
ATOM     64  C   UNL A   1      37.749  29.609  27.937  1.00  0.00     0.134 A 
ATOM     65  F   UNL A   1      39.660  28.060  30.603  1.00  0.00    -0.206 F 
ATOM     66  C   UNL A   1      37.524  29.001  30.616  1.00  0.00     0.040 A 
ATOM     67  C   UNL A   1      36.598  29.973  28.639  1.00  0.00     0.040 A 
ATOM     68  F   UNL A   1      37.684  29.832  26.619  1.00  0.00    -0.206 F 
ATOM     69  C   UNL A   1      36.470  29.642  29.977  1.00  0.00     0.006 A 
ENDBRANCH  48  62
BRANCH  49  70
ATOM     70  C   UNL A   1      44.802  25.697  33.715  1.00  0.00     0.057 A 
ATOM     71  C   UNL A   1      43.716  25.309  34.509  1.00  0.00     0.134 A 
ATOM     72  C   UNL A   1      46.077  25.512  34.282  1.00  0.00     0.134 A 
ATOM     73  F   UNL A   1      42.463  25.397  34.038  1.00  0.00    -0.206 F 
ATOM     74  C   UNL A   1      43.886  24.766  35.789  1.00  0.00     0.040 A 
ATOM     75  C   UNL A   1      46.261  24.986  35.563  1.00  0.00     0.040 A 
ATOM     76  F   UNL A   1      47.193  25.756  33.579  1.00  0.00    -0.206 F 
ATOM     77  C   UNL A   1      45.163  24.600  36.319  1.00  0.00     0.006 A 
ENDBRANCH  49  70
BRANCH  61  78
ATOM     78  C   UNL A   1      45.658  29.045  28.419  1.00  0.00     0.057 A 
ATOM     79  C   UNL A   1      46.172  27.831  27.942  1.00  0.00     0.134 A 
ATOM     80  C   UNL A   1      46.442  30.187  28.228  1.00  0.00     0.134 A 
ATOM     81  F   UNL A   1      45.445  26.707  27.987  1.00  0.00    -0.206 F 
ATOM     82  C   UNL A   1      47.431  27.751  27.340  1.00  0.00     0.040 A 
ATOM     83  C   UNL A   1      47.687  30.127  27.600  1.00  0.00     0.040 A 
ATOM     84  F   UNL A   1      45.983  31.393  28.602  1.00  0.00    -0.206 F 
ATOM     85  C   UNL A   1      48.190  28.904  27.162  1.00  0.00     0.006 A 
ENDBRANCH  61  78
ENDBRANCH  35  36
ENDBRANCH  28  30
ENDBRANCH  27  28
ENDBRANCH  26  27
ENDBRANCH  25  26
ENDBRANCH  24  25
ENDBRANCH   1  24
TORSDOF 17
ENDMDL
MODEL 2
REMARK VINA RESULT:     -11.0      1.229      2.038
REMARK SMILES CCn1ccc(NC(=O)[C@H]2[C@@H](C(=O)OCCOCCOC(=O)c3ccc(-c4c5nc(c(-c6c(F)cccc6F)c6ccc([nH]6)c(-c6c(F)cccc6F)c6nc(c(-c7c(F)cccc7F)c7ccc4[nH]7)C=C6)C=C5)cc3)[C@H]3C=C[C@@H]2C3)n1
REMARK SMILES IDX 16 1 15 2 14 3 12 4 13 5 11 6 10 7 80 8 77 9 79 10 81 11
REMARK SMILES IDX 78 12 8 13 7 14 9 16 6 17 3 18 4 19 82 20 5 21 2 22 1 23
REMARK SMILES IDX 17 24 18 25 19 26 20 27 21 28 22 29 23 30 24 31 76 32 25 33
REMARK SMILES IDX 75 34 26 35 27 36 28 37 69 38 29 39 74 40 68 41 70 42 30 43
REMARK SMILES IDX 73 44 67 45 66 46 31 48 57 49 40 50 56 51 41 52 44 53 55 54
REMARK SMILES IDX 71 55 42 56 43 57 54 59 72 60 45 61 32 62 33 63 38 64 34 65
REMARK SMILES IDX 35 66 37 67 39 68 36 69 58 70 59 71 64 72 60 73 61 74 63 75
REMARK SMILES IDX 65 76 62 77 46 78 47 79 52 80 48 81 49 82 51 83 53 84 50 85
REMARK H PARENT 7 15 70 47 44 58
REMARK Flexibility Score: inf
ROOT
ATOM      1  C   UNL A   1      36.812  24.105  25.798  1.00  0.00     0.202 C 
ENDROOT
BRANCH   1   2
ATOM      2  C   UNL A   1      35.424  24.053  25.142  1.00  0.00     0.261 C 
BRANCH   2   3
ATOM      3  O   UNL A   1      34.997  25.194  24.377  1.00  0.00    -0.463 OA
BRANCH   3   4
ATOM      4  C   UNL A   1      33.798  25.649  24.799  1.00  0.00     0.310 C 
ATOM      5  O   UNL A   1      33.630  26.770  25.276  1.00  0.00    -0.252 OA
BRANCH   4   6
ATOM      6  C   UNL A   1      32.619  24.732  24.625  1.00  0.00     0.119 C 
ATOM      7  C   UNL A   1      32.133  24.749  23.153  1.00  0.00     0.100 C 
ATOM      8  C   UNL A   1      30.621  24.468  23.265  1.00  0.00     0.025 C 
ATOM      9  C   UNL A   1      31.289  24.596  25.421  1.00  0.00     0.027 C 
ATOM     10  C   UNL A   1      29.893  25.621  23.887  1.00  0.00    -0.027 C 
ATOM     11  C   UNL A   1      30.598  23.550  24.508  1.00  0.00     0.017 C 
ATOM     12  C   UNL A   1      30.261  25.673  25.177  1.00  0.00    -0.027 C 
BRANCH   7  13
ATOM     13  C   UNL A   1      32.612  25.802  22.144  1.00  0.00     0.230 C 
ATOM     14  N   UNL A   1      32.220  27.082  21.974  1.00  0.00    -0.309 N 
ATOM     15  H   UNL A   1      32.654  27.466  21.178  1.00  0.00     0.171 HD
ATOM     16  O   UNL A   1      33.441  25.408  21.303  1.00  0.00    -0.274 OA
BRANCH  14  17
ATOM     17  C   UNL A   1      31.406  28.013  22.562  1.00  0.00     0.154 A 
ATOM     18  N   UNL A   1      29.603  29.124  22.790  1.00  0.00    -0.271 N 
ATOM     19  C   UNL A   1      30.359  29.499  23.851  1.00  0.00     0.111 A 
ATOM     20  N   UNL A   1      30.224  28.251  21.976  1.00  0.00    -0.155 NA
ATOM     21  C   UNL A   1      31.556  28.853  23.675  1.00  0.00     0.068 A 
BRANCH  18  22
ATOM     22  C   UNL A   1      28.277  29.623  22.482  1.00  0.00     0.141 C 
ATOM     23  C   UNL A   1      27.194  28.788  23.138  1.00  0.00     0.029 C 
ENDBRANCH  18  22
ENDBRANCH  14  17
ENDBRANCH   7  13
ENDBRANCH   4   6
ENDBRANCH   3   4
ENDBRANCH   2   3
ENDBRANCH   1   2
BRANCH   1  24
ATOM     24  O   UNL A   1      37.790  23.097  25.593  1.00  0.00    -0.374 OA
BRANCH  24  25
ATOM     25  C   UNL A   1      37.457  21.818  25.076  1.00  0.00     0.202 C 
BRANCH  25  26
ATOM     26  C   UNL A   1      38.422  20.654  25.257  1.00  0.00     0.261 C 
BRANCH  26  27
ATOM     27  O   UNL A   1      39.475  20.965  26.154  1.00  0.00    -0.460 OA
BRANCH  27  28
ATOM     28  C   UNL A   1      40.559  20.180  26.011  1.00  0.00     0.338 C 
ATOM     29  O   UNL A   1      40.579  19.000  25.658  1.00  0.00    -0.246 OA
BRANCH  28  30
ATOM     30  C   UNL A   1      41.753  20.902  26.456  1.00  0.00     0.060 A 
ATOM     31  C   UNL A   1      42.047  20.772  27.816  1.00  0.00     0.016 A 
ATOM     32  C   UNL A   1      42.195  21.990  25.692  1.00  0.00     0.016 A 
ATOM     33  C   UNL A   1      42.456  21.896  28.488  1.00  0.00     0.010 A 
ATOM     34  C   UNL A   1      42.575  23.121  26.368  1.00  0.00     0.010 A 
ATOM     35  C   UNL A   1      42.579  23.082  27.762  1.00  0.00    -0.014 A 
BRANCH  35  36
ATOM     36  C   UNL A   1      42.586  24.318  28.511  1.00  0.00     0.031 A 
ATOM     37  C   UNL A   1      41.445  25.214  28.248  1.00  0.00     0.074 A 
ATOM     38  C   UNL A   1      43.506  24.534  29.470  1.00  0.00     0.049 A 
ATOM     39  N   UNL A   1      41.459  26.434  27.828  1.00  0.00    -0.248 NA
ATOM     40  C   UNL A   1      40.104  24.628  28.382  1.00  0.00     0.031 C 
ATOM     41  C   UNL A   1      44.458  23.571  30.038  1.00  0.00     0.029 A 
ATOM     42  N   UNL A   1      43.691  25.640  30.237  1.00  0.00    -0.354 N 
ATOM     43  C   UNL A   1      40.125  26.829  27.813  1.00  0.00     0.074 A 
ATOM     44  C   UNL A   1      39.336  25.641  27.996  1.00  0.00     0.031 C 
ATOM     45  C   UNL A   1      44.949  24.068  31.195  1.00  0.00     0.029 A 
ATOM     46  C   UNL A   1      44.431  25.413  31.385  1.00  0.00     0.049 A 
ATOM     47  H   UNL A   1      43.331  26.525  29.997  1.00  0.00     0.167 HD
ATOM     48  C   UNL A   1      39.763  28.135  27.893  1.00  0.00     0.037 A 
ATOM     49  C   UNL A   1      44.514  26.240  32.455  1.00  0.00     0.037 A 
ATOM     50  C   UNL A   1      40.836  29.015  27.518  1.00  0.00     0.049 A 
ATOM     51  C   UNL A   1      44.026  27.579  32.036  1.00  0.00     0.074 A 
ATOM     52  C   UNL A   1      41.589  29.197  26.375  1.00  0.00     0.029 A 
ATOM     53  N   UNL A   1      41.500  29.687  28.512  1.00  0.00    -0.354 N 
ATOM     54  N   UNL A   1      44.655  28.377  31.218  1.00  0.00    -0.248 NA
ATOM     55  C   UNL A   1      42.612  27.874  32.225  1.00  0.00     0.031 C 
ATOM     56  C   UNL A   1      42.883  29.580  26.832  1.00  0.00     0.029 A 
ATOM     57  C   UNL A   1      42.838  29.614  28.227  1.00  0.00     0.049 A 
ATOM     58  H   UNL A   1      41.092  30.138  29.286  1.00  0.00     0.167 HD
ATOM     59  C   UNL A   1      43.655  29.013  30.496  1.00  0.00     0.074 A 
ATOM     60  C   UNL A   1      42.424  28.745  31.231  1.00  0.00     0.031 C 
ATOM     61  C   UNL A   1      43.872  29.458  29.223  1.00  0.00     0.037 A 
BRANCH  48  62
ATOM     62  C   UNL A   1      38.538  28.602  28.633  1.00  0.00     0.057 A 
ATOM     63  C   UNL A   1      37.670  29.519  28.017  1.00  0.00     0.134 A 
ATOM     64  C   UNL A   1      38.317  28.399  30.013  1.00  0.00     0.134 A 
ATOM     65  F   UNL A   1      37.799  29.821  26.717  1.00  0.00    -0.206 F 
ATOM     66  C   UNL A   1      36.691  30.218  28.732  1.00  0.00     0.040 A 
ATOM     67  C   UNL A   1      37.302  29.045  30.722  1.00  0.00     0.040 A 
ATOM     68  F   UNL A   1      39.125  27.647  30.770  1.00  0.00    -0.206 F 
ATOM     69  C   UNL A   1      36.504  29.982  30.088  1.00  0.00     0.006 A 
ENDBRANCH  48  62
BRANCH  49  70
ATOM     70  C   UNL A   1      44.691  25.869  33.876  1.00  0.00     0.057 A 
ATOM     71  C   UNL A   1      43.621  25.381  34.637  1.00  0.00     0.134 A 
ATOM     72  C   UNL A   1      45.966  25.756  34.462  1.00  0.00     0.134 A 
ATOM     73  F   UNL A   1      42.374  25.395  34.145  1.00  0.00    -0.206 F 
ATOM     74  C   UNL A   1      43.807  24.811  35.903  1.00  0.00     0.040 A 
ATOM     75  C   UNL A   1      46.164  25.204  35.731  1.00  0.00     0.040 A 
ATOM     76  F   UNL A   1      47.074  26.099  33.789  1.00  0.00    -0.206 F 
ATOM     77  C   UNL A   1      45.083  24.719  36.453  1.00  0.00     0.006 A 
ENDBRANCH  49  70
BRANCH  61  78
ATOM     78  C   UNL A   1      45.289  29.495  28.731  1.00  0.00     0.057 A 
ATOM     79  C   UNL A   1      45.931  28.391  28.152  1.00  0.00     0.134 A 
ATOM     80  C   UNL A   1      45.965  30.719  28.688  1.00  0.00     0.134 A 
ATOM     81  F   UNL A   1      45.315  27.206  28.053  1.00  0.00    -0.206 F 
ATOM     82  C   UNL A   1      47.208  28.493  27.593  1.00  0.00     0.040 A 
ATOM     83  C   UNL A   1      47.228  30.841  28.105  1.00  0.00     0.040 A 
ATOM     84  F   UNL A   1      45.382  31.830  29.166  1.00  0.00    -0.206 F 
ATOM     85  C   UNL A   1      47.858  29.723  27.564  1.00  0.00     0.006 A 
ENDBRANCH  61  78
ENDBRANCH  35  36
ENDBRANCH  28  30
ENDBRANCH  27  28
ENDBRANCH  26  27
ENDBRANCH  25  26
ENDBRANCH  24  25
ENDBRANCH   1  24
TORSDOF 17
ENDMDL
MODEL 3
REMARK VINA RESULT:     -11.0      3.864      8.763
REMARK SMILES CCn1ccc(NC(=O)[C@H]2[C@@H](C(=O)OCCOCCOC(=O)c3ccc(-c4c5nc(c(-c6c(F)cccc6F)c6ccc([nH]6)c(-c6c(F)cccc6F)c6nc(c(-c7c(F)cccc7F)c7ccc4[nH]7)C=C6)C=C5)cc3)[C@H]3C=C[C@@H]2C3)n1
REMARK SMILES IDX 16 1 15 2 14 3 12 4 13 5 11 6 10 7 80 8 77 9 79 10 81 11
REMARK SMILES IDX 78 12 8 13 7 14 9 16 6 17 3 18 4 19 82 20 5 21 2 22 1 23
REMARK SMILES IDX 17 24 18 25 19 26 20 27 21 28 22 29 23 30 24 31 76 32 25 33
REMARK SMILES IDX 75 34 26 35 27 36 28 37 69 38 29 39 74 40 68 41 70 42 30 43
REMARK SMILES IDX 73 44 67 45 66 46 31 48 57 49 40 50 56 51 41 52 44 53 55 54
REMARK SMILES IDX 71 55 42 56 43 57 54 59 72 60 45 61 32 62 33 63 38 64 34 65
REMARK SMILES IDX 35 66 37 67 39 68 36 69 58 70 59 71 64 72 60 73 61 74 63 75
REMARK SMILES IDX 65 76 62 77 46 78 47 79 52 80 48 81 49 82 51 83 53 84 50 85
REMARK H PARENT 7 15 70 47 44 58
REMARK Flexibility Score: inf
ROOT
ATOM      1  C   UNL A   1      32.407  28.072  25.477  1.00  0.00     0.202 C 
ENDROOT
BRANCH   1   2
ATOM      2  C   UNL A   1      32.100  26.608  25.130  1.00  0.00     0.261 C 
BRANCH   2   3
ATOM      3  O   UNL A   1      33.104  25.857  24.425  1.00  0.00    -0.463 OA
BRANCH   3   4
ATOM      4  C   UNL A   1      33.582  24.844  25.179  1.00  0.00     0.310 C 
ATOM      5  O   UNL A   1      32.921  24.282  26.051  1.00  0.00    -0.252 OA
BRANCH   4   6
ATOM      6  C   UNL A   1      34.979  24.374  24.887  1.00  0.00     0.119 C 
ATOM      7  C   UNL A   1      35.044  23.703  23.492  1.00  0.00     0.100 C 
ATOM      8  C   UNL A   1      36.169  22.658  23.641  1.00  0.00     0.025 C 
ATOM      9  C   UNL A   1      35.977  23.520  25.722  1.00  0.00     0.027 C 
ATOM     10  C   UNL A   1      35.762  21.538  24.548  1.00  0.00    -0.027 C 
ATOM     11  C   UNL A   1      37.090  23.381  24.650  1.00  0.00     0.017 C 
ATOM     12  C   UNL A   1      35.685  22.042  25.791  1.00  0.00    -0.027 C 
BRANCH   7  13
ATOM     13  C   UNL A   1      33.782  23.316  22.710  1.00  0.00     0.230 C 
ATOM     14  N   UNL A   1      32.934  22.281  22.887  1.00  0.00    -0.309 N 
ATOM     15  H   UNL A   1      32.271  22.258  22.160  1.00  0.00     0.171 HD
ATOM     16  O   UNL A   1      33.526  24.016  21.712  1.00  0.00    -0.274 OA
BRANCH  14  17
ATOM     17  C   UNL A   1      32.708  21.253  23.763  1.00  0.00     0.154 A 
ATOM     18  N   UNL A   1      32.601  19.206  24.342  1.00  0.00    -0.271 N 
ATOM     19  C   UNL A   1      32.376  19.887  25.492  1.00  0.00     0.111 A 
ATOM     20  N   UNL A   1      32.772  20.006  23.274  1.00  0.00    -0.155 NA
ATOM     21  C   UNL A   1      32.361  21.207  25.121  1.00  0.00     0.068 A 
BRANCH  18  22
ATOM     22  C   UNL A   1      32.609  17.762  24.206  1.00  0.00     0.141 C 
ATOM     23  C   UNL A   1      33.720  17.289  23.287  1.00  0.00     0.029 C 
ENDBRANCH  18  22
ENDBRANCH  14  17
ENDBRANCH   7  13
ENDBRANCH   4   6
ENDBRANCH   3   4
ENDBRANCH   2   3
ENDBRANCH   1   2
BRANCH   1  24
ATOM     24  O   UNL A   1      31.552  28.857  26.293  1.00  0.00    -0.374 OA
BRANCH  24  25
ATOM     25  C   UNL A   1      32.058  29.808  27.218  1.00  0.00     0.202 C 
BRANCH  25  26
ATOM     26  C   UNL A   1      32.166  31.273  26.816  1.00  0.00     0.261 C 
BRANCH  26  27
ATOM     27  O   UNL A   1      33.276  31.915  27.422  1.00  0.00    -0.460 OA
BRANCH  27  28
ATOM     28  C   UNL A   1      32.997  33.144  27.898  1.00  0.00     0.338 C 
ATOM     29  O   UNL A   1      32.049  33.864  27.582  1.00  0.00    -0.246 OA
BRANCH  28  30
ATOM     30  C   UNL A   1      34.073  33.582  28.790  1.00  0.00     0.060 A 
ATOM     31  C   UNL A   1      35.098  34.299  28.167  1.00  0.00     0.016 A 
ATOM     32  C   UNL A   1      34.262  32.889  29.992  1.00  0.00     0.016 A 
ATOM     33  C   UNL A   1      36.388  34.019  28.543  1.00  0.00     0.010 A 
ATOM     34  C   UNL A   1      35.552  32.586  30.347  1.00  0.00     0.010 A 
ATOM     35  C   UNL A   1      36.585  33.061  29.538  1.00  0.00    -0.014 A 
BRANCH  35  36
ATOM     36  C   UNL A   1      37.897  32.464  29.632  1.00  0.00     0.031 A 
ATOM     37  C   UNL A   1      37.985  31.070  29.162  1.00  0.00     0.074 A 
ATOM     38  C   UNL A   1      38.963  33.204  29.995  1.00  0.00     0.049 A 
ATOM     39  N   UNL A   1      38.372  30.024  29.810  1.00  0.00    -0.248 NA
ATOM     40  C   UNL A   1      37.475  30.799  27.810  1.00  0.00     0.031 C 
ATOM     41  C   UNL A   1      39.037  34.663  30.145  1.00  0.00     0.029 A 
ATOM     42  N   UNL A   1      40.250  32.809  30.176  1.00  0.00    -0.354 N 
ATOM     43  C   UNL A   1      38.322  28.985  28.887  1.00  0.00     0.074 A 
ATOM     44  C   UNL A   1      37.610  29.479  27.739  1.00  0.00     0.031 C 
ATOM     45  C   UNL A   1      40.336  35.037  30.169  1.00  0.00     0.029 A 
ATOM     46  C   UNL A   1      41.168  33.844  30.145  1.00  0.00     0.049 A 
ATOM     47  H   UNL A   1      40.507  31.869  30.318  1.00  0.00     0.167 HD
ATOM     48  C   UNL A   1      39.076  27.864  29.026  1.00  0.00     0.037 A 
ATOM     49  C   UNL A   1      42.509  33.715  30.000  1.00  0.00     0.037 A 
ATOM     50  C   UNL A   1      39.514  27.676  30.382  1.00  0.00     0.049 A 
ATOM     51  C   UNL A   1      42.865  32.302  30.288  1.00  0.00     0.074 A 
ATOM     52  C   UNL A   1      38.875  27.509  31.596  1.00  0.00     0.029 A 
ATOM     53  N   UNL A   1      40.822  27.954  30.686  1.00  0.00    -0.354 N 
ATOM     54  N   UNL A   1      42.817  31.749  31.468  1.00  0.00    -0.248 NA
ATOM     55  C   UNL A   1      42.901  31.372  29.167  1.00  0.00     0.031 C 
ATOM     56  C   UNL A   1      39.720  28.137  32.556  1.00  0.00     0.029 A 
ATOM     57  C   UNL A   1      40.826  28.642  31.871  1.00  0.00     0.049 A 
ATOM     58  H   UNL A   1      41.612  27.706  30.153  1.00  0.00     0.167 HD
ATOM     59  C   UNL A   1      42.421  30.439  31.234  1.00  0.00     0.074 A 
ATOM     60  C   UNL A   1      42.592  30.238  29.800  1.00  0.00     0.031 C 
ATOM     61  C   UNL A   1      41.726  29.731  32.172  1.00  0.00     0.037 A 
BRANCH  48  62
ATOM     62  C   UNL A   1      39.683  27.134  27.858  1.00  0.00     0.057 A 
ATOM     63  C   UNL A   1      39.575  25.735  27.790  1.00  0.00     0.134 A 
ATOM     64  C   UNL A   1      40.591  27.711  26.944  1.00  0.00     0.134 A 
ATOM     65  F   UNL A   1      38.770  25.066  28.628  1.00  0.00    -0.206 F 
ATOM     66  C   UNL A   1      40.350  24.967  26.914  1.00  0.00     0.040 A 
ATOM     67  C   UNL A   1      41.323  26.959  26.022  1.00  0.00     0.040 A 
ATOM     68  F   UNL A   1      40.895  29.015  26.955  1.00  0.00    -0.206 F 
ATOM     69  C   UNL A   1      41.226  25.578  26.026  1.00  0.00     0.006 A 
ENDBRANCH  48  62
BRANCH  49  70
ATOM     70  C   UNL A   1      43.443  34.651  29.335  1.00  0.00     0.057 A 
ATOM     71  C   UNL A   1      44.692  34.949  29.895  1.00  0.00     0.134 A 
ATOM     72  C   UNL A   1      43.238  35.094  28.015  1.00  0.00     0.134 A 
ATOM     73  F   UNL A   1      45.004  34.523  31.128  1.00  0.00    -0.206 F 
ATOM     74  C   UNL A   1      45.680  35.642  29.184  1.00  0.00     0.040 A 
ATOM     75  C   UNL A   1      44.208  35.801  27.300  1.00  0.00     0.040 A 
ATOM     76  F   UNL A   1      42.120  34.784  27.343  1.00  0.00    -0.206 F 
ATOM     77  C   UNL A   1      45.440  36.068  27.880  1.00  0.00     0.006 A 
ENDBRANCH  49  70
BRANCH  61  78
ATOM     78  C   UNL A   1      41.647  30.301  33.559  1.00  0.00     0.057 A 
ATOM     79  C   UNL A   1      40.667  31.221  33.958  1.00  0.00     0.134 A 
ATOM     80  C   UNL A   1      42.478  29.782  34.558  1.00  0.00     0.134 A 
ATOM     81  F   UNL A   1      39.762  31.687  33.088  1.00  0.00    -0.206 F 
ATOM     82  C   UNL A   1      40.548  31.639  35.286  1.00  0.00     0.040 A 
ATOM     83  C   UNL A   1      42.349  30.168  35.894  1.00  0.00     0.040 A 
ATOM     84  F   UNL A   1      43.396  28.850  34.257  1.00  0.00    -0.206 F 
ATOM     85  C   UNL A   1      41.388  31.107  36.260  1.00  0.00     0.006 A 
ENDBRANCH  61  78
ENDBRANCH  35  36
ENDBRANCH  28  30
ENDBRANCH  27  28
ENDBRANCH  26  27
ENDBRANCH  25  26
ENDBRANCH  24  25
ENDBRANCH   1  24
TORSDOF 17
ENDMDL
