MODEL 1
REMARK VINA RESULT:     -10.6      0.000      0.000
REMARK SMILES O=C(OCCOCCOC(=O)[C@H]1CC2=c3ccccc3=N[C@H]2[C@@H](c2ccccc2)[NH2+]1)c1ccc(-c2c3nc(c(-c4c(F)cccc4F)c4ccc([nH]4)c(-c4c(F)cccc4F)c4nc(c(-c5c(F)cccc5F)c5ccc2[nH]5)C=C4)C=C3)cc1
REMARK SMILES IDX 5 1 4 2 3 3 2 4 1 5 31 6 32 7 84 8 33 9 83 10 34 11 35 12
REMARK SMILES IDX 36 13 77 14 37 15 82 16 76 17 78 18 38 19 81 20 75 21 74 22
REMARK SMILES IDX 39 24 65 25 48 26 64 27 49 28 52 29 63 30 79 31 50 32 51 33
REMARK SMILES IDX 62 35 80 36 53 37 40 38 41 39 46 40 42 41 43 42 45 43 47 44
REMARK SMILES IDX 44 45 66 46 67 47 72 48 68 49 69 50 71 51 73 52 70 53 54 54
REMARK SMILES IDX 55 55 60 56 56 57 57 58 59 59 61 60 58 61 6 62 7 63 8 64
REMARK SMILES IDX 9 65 10 66 11 67 12 68 13 69 30 70 14 71 23 72 15 75 22 76
REMARK SMILES IDX 16 77 20 78 21 79 17 80 19 81 18 82 24 83 25 84 29 85 26 86
REMARK SMILES IDX 28 87 27 88
REMARK H PARENT 78 23 52 34 30 73 30 74
REMARK Flexibility Score: inf
ROOT
ATOM      1  C   UNL A   1      33.242  37.492  30.942  1.00  0.00     0.202 C 
ENDROOT
BRANCH   1   2
ATOM      2  C   UNL A   1      32.579  36.146  30.655  1.00  0.00     0.261 C 
BRANCH   2   3
ATOM      3  O   UNL A   1      32.750  35.741  29.287  1.00  0.00    -0.460 OA
BRANCH   3   4
ATOM      4  C   UNL A   1      33.192  34.571  28.769  1.00  0.00     0.338 C 
ATOM      5  O   UNL A   1      32.457  34.001  27.961  1.00  0.00    -0.246 OA
BRANCH   4   6
ATOM      6  C   UNL A   1      34.469  33.871  29.148  1.00  0.00     0.060 A 
ATOM      7  C   UNL A   1      35.524  33.964  28.215  1.00  0.00     0.016 A 
ATOM      8  C   UNL A   1      34.711  33.135  30.310  1.00  0.00     0.016 A 
ATOM      9  C   UNL A   1      36.757  33.341  28.436  1.00  0.00     0.010 A 
ATOM     10  C   UNL A   1      35.930  32.495  30.533  1.00  0.00     0.010 A 
ATOM     11  C   UNL A   1      36.961  32.605  29.604  1.00  0.00    -0.014 A 
BRANCH  11  12
ATOM     12  C   UNL A   1      38.287  32.065  29.948  1.00  0.00     0.031 A 
ATOM     13  C   UNL A   1      39.280  32.877  30.713  1.00  0.00     0.074 A 
ATOM     14  C   UNL A   1      38.599  30.850  29.464  1.00  0.00     0.049 A 
ATOM     15  N   UNL A   1      40.456  32.525  31.162  1.00  0.00    -0.248 NA
ATOM     16  C   UNL A   1      38.915  34.273  30.997  1.00  0.00     0.031 C 
ATOM     17  C   UNL A   1      37.723  30.035  28.618  1.00  0.00     0.029 A 
ATOM     18  N   UNL A   1      39.737  30.104  29.590  1.00  0.00    -0.354 N 
ATOM     19  C   UNL A   1      40.957  33.638  31.822  1.00  0.00     0.074 A 
ATOM     20  C   UNL A   1      39.985  34.700  31.655  1.00  0.00     0.031 C 
ATOM     21  C   UNL A   1      38.362  28.901  28.293  1.00  0.00     0.029 A 
ATOM     22  C   UNL A   1      39.677  28.908  28.920  1.00  0.00     0.049 A 
ATOM     23  H   UNL A   1      40.521  30.396  30.108  1.00  0.00     0.167 HD
ATOM     24  C   UNL A   1      42.113  33.745  32.520  1.00  0.00     0.037 A 
ATOM     25  C   UNL A   1      40.583  27.919  28.846  1.00  0.00     0.037 A 
ATOM     26  C   UNL A   1      43.090  32.687  32.613  1.00  0.00     0.049 A 
ATOM     27  C   UNL A   1      41.844  28.049  29.645  1.00  0.00     0.074 A 
ATOM     28  C   UNL A   1      44.289  32.666  33.305  1.00  0.00     0.029 A 
ATOM     29  N   UNL A   1      42.981  31.461  31.970  1.00  0.00    -0.354 N 
ATOM     30  N   UNL A   1      42.260  29.061  30.371  1.00  0.00    -0.248 NA
ATOM     31  C   UNL A   1      42.741  26.889  29.650  1.00  0.00     0.031 C 
ATOM     32  C   UNL A   1      44.918  31.438  33.052  1.00  0.00     0.029 A 
ATOM     33  C   UNL A   1      44.092  30.679  32.238  1.00  0.00     0.049 A 
ATOM     34  H   UNL A   1      42.223  31.187  31.404  1.00  0.00     0.167 HD
ATOM     35  C   UNL A   1      43.457  28.653  30.937  1.00  0.00     0.074 A 
ATOM     36  C   UNL A   1      43.684  27.292  30.489  1.00  0.00     0.031 C 
ATOM     37  C   UNL A   1      44.297  29.337  31.754  1.00  0.00     0.037 A 
BRANCH  24  38
ATOM     38  C   UNL A   1      42.364  35.038  33.244  1.00  0.00     0.057 A 
ATOM     39  C   UNL A   1      41.915  35.243  34.554  1.00  0.00     0.134 A 
ATOM     40  C   UNL A   1      43.034  36.101  32.620  1.00  0.00     0.134 A 
ATOM     41  F   UNL A   1      41.261  34.274  35.210  1.00  0.00    -0.206 F 
ATOM     42  C   UNL A   1      42.126  36.455  35.217  1.00  0.00     0.040 A 
ATOM     43  C   UNL A   1      43.271  37.308  33.282  1.00  0.00     0.040 A 
ATOM     44  F   UNL A   1      43.499  35.971  31.368  1.00  0.00    -0.206 F 
ATOM     45  C   UNL A   1      42.812  37.489  34.583  1.00  0.00     0.006 A 
ENDBRANCH  24  38
BRANCH  25  46
ATOM     46  C   UNL A   1      40.278  26.702  28.058  1.00  0.00     0.057 A 
ATOM     47  C   UNL A   1      40.804  26.514  26.775  1.00  0.00     0.134 A 
ATOM     48  C   UNL A   1      39.420  25.717  28.557  1.00  0.00     0.134 A 
ATOM     49  F   UNL A   1      41.614  27.435  26.234  1.00  0.00    -0.206 F 
ATOM     50  C   UNL A   1      40.487  25.387  26.016  1.00  0.00     0.040 A 
ATOM     51  C   UNL A   1      39.112  24.574  27.818  1.00  0.00     0.040 A 
ATOM     52  F   UNL A   1      38.888  25.843  29.782  1.00  0.00    -0.206 F 
ATOM     53  C   UNL A   1      39.643  24.410  26.540  1.00  0.00     0.006 A 
ENDBRANCH  25  46
BRANCH  37  54
ATOM     54  C   UNL A   1      45.524  28.598  32.202  1.00  0.00     0.057 A 
ATOM     55  C   UNL A   1      45.500  27.812  33.359  1.00  0.00     0.134 A 
ATOM     56  C   UNL A   1      46.715  28.638  31.465  1.00  0.00     0.134 A 
ATOM     57  F   UNL A   1      44.391  27.738  34.110  1.00  0.00    -0.206 F 
ATOM     58  C   UNL A   1      46.614  27.075  33.759  1.00  0.00     0.040 A 
ATOM     59  C   UNL A   1      47.826  27.884  31.841  1.00  0.00     0.040 A 
ATOM     60  F   UNL A   1      46.792  29.359  30.336  1.00  0.00    -0.206 F 
ATOM     61  C   UNL A   1      47.777  27.099  32.991  1.00  0.00     0.006 A 
ENDBRANCH  37  54
ENDBRANCH  11  12
ENDBRANCH   4   6
ENDBRANCH   3   4
ENDBRANCH   2   3
ENDBRANCH   1   2
BRANCH   1  62
ATOM     62  O   UNL A   1      33.994  37.489  32.153  1.00  0.00    -0.374 OA
BRANCH  62  63
ATOM     63  C   UNL A   1      34.472  36.201  32.548  1.00  0.00     0.202 C 
BRANCH  63  64
ATOM     64  C   UNL A   1      34.154  35.919  34.009  1.00  0.00     0.261 C 
BRANCH  64  65
ATOM     65  O   UNL A   1      35.155  35.084  34.605  1.00  0.00    -0.459 OA
BRANCH  65  66
ATOM     66  C   UNL A   1      35.274  33.810  34.136  1.00  0.00     0.365 C 
ATOM     67  O   UNL A   1      34.335  33.072  33.830  1.00  0.00    -0.245 OA
BRANCH  66  68
ATOM     68  C   UNL A   1      36.744  33.389  34.051  1.00  0.00     0.298 C 
ATOM     69  C   UNL A   1      37.639  34.058  35.147  1.00  0.00     0.111 C 
ATOM     70  N   UNL A   1      36.810  31.912  33.954  1.00  0.00    -0.326 N 
ATOM     71  C   UNL A   1      38.722  33.202  35.874  1.00  0.00    -0.024 C 
ATOM     72  C   UNL A   1      38.210  31.533  34.105  1.00  0.00     0.243 C 
ATOM     73  H   UNL A   1      36.462  31.605  33.046  1.00  0.00     0.347 HD
ATOM     74  H   UNL A   1      36.238  31.476  34.676  1.00  0.00     0.347 HD
ATOM     75  C   UNL A   1      38.773  33.311  37.207  1.00  0.00     0.002 A 
ATOM     76  C   UNL A   1      38.602  31.711  35.586  1.00  0.00     0.196 C 
ATOM     77  C   UNL A   1      39.921  33.381  38.083  1.00  0.00     0.010 A 
ATOM     78  C   UNL A   1      37.870  32.171  37.566  1.00  0.00     0.066 A 
ATOM     79  N   UNL A   1      37.600  31.292  36.638  1.00  0.00    -0.270 NA
ATOM     80  C   UNL A   1      39.711  33.097  39.382  1.00  0.00     0.001 A 
ATOM     81  C   UNL A   1      37.447  32.234  38.987  1.00  0.00     0.028 A 
ATOM     82  C   UNL A   1      38.371  32.729  39.838  1.00  0.00     0.002 A 
BRANCH  72  83
ATOM     83  C   UNL A   1      38.612  30.350  33.242  1.00  0.00     0.012 A 
ATOM     84  C   UNL A   1      37.665  29.516  32.640  1.00  0.00     0.010 A 
ATOM     85  C   UNL A   1      39.934  29.867  33.379  1.00  0.00     0.010 A 
ATOM     86  C   UNL A   1      38.004  28.204  32.291  1.00  0.00     0.001 A 
ATOM     87  C   UNL A   1      40.268  28.561  33.033  1.00  0.00     0.001 A 
ATOM     88  C   UNL A   1      39.293  27.719  32.516  1.00  0.00     0.000 A 
ENDBRANCH  72  83
ENDBRANCH  66  68
ENDBRANCH  65  66
ENDBRANCH  64  65
ENDBRANCH  63  64
ENDBRANCH  62  63
ENDBRANCH   1  62
TORSDOF 15
ENDMDL
MODEL 2
REMARK VINA RESULT:     -10.4      0.487      6.103
REMARK SMILES O=C(OCCOCCOC(=O)[C@H]1CC2=c3ccccc3=N[C@H]2[C@@H](c2ccccc2)[NH2+]1)c1ccc(-c2c3nc(c(-c4c(F)cccc4F)c4ccc([nH]4)c(-c4c(F)cccc4F)c4nc(c(-c5c(F)cccc5F)c5ccc2[nH]5)C=C4)C=C3)cc1
REMARK SMILES IDX 5 1 4 2 3 3 2 4 1 5 31 6 32 7 84 8 33 9 83 10 34 11 35 12
REMARK SMILES IDX 36 13 77 14 37 15 82 16 76 17 78 18 38 19 81 20 75 21 74 22
REMARK SMILES IDX 39 24 65 25 48 26 64 27 49 28 52 29 63 30 79 31 50 32 51 33
REMARK SMILES IDX 62 35 80 36 53 37 40 38 41 39 46 40 42 41 43 42 45 43 47 44
REMARK SMILES IDX 44 45 66 46 67 47 72 48 68 49 69 50 71 51 73 52 70 53 54 54
REMARK SMILES IDX 55 55 60 56 56 57 57 58 59 59 61 60 58 61 6 62 7 63 8 64
REMARK SMILES IDX 9 65 10 66 11 67 12 68 13 69 30 70 14 71 23 72 15 75 22 76
REMARK SMILES IDX 16 77 20 78 21 79 17 80 19 81 18 82 24 83 25 84 29 85 26 86
REMARK SMILES IDX 28 87 27 88
REMARK H PARENT 78 23 52 34 30 73 30 74
REMARK Flexibility Score: inf
ROOT
ATOM      1  C   UNL A   1      33.249  37.530  30.996  1.00  0.00     0.202 C 
ENDROOT
BRANCH   1   2
ATOM      2  C   UNL A   1      32.624  36.162  30.721  1.00  0.00     0.261 C 
BRANCH   2   3
ATOM      3  O   UNL A   1      32.772  35.767  29.348  1.00  0.00    -0.460 OA
BRANCH   3   4
ATOM      4  C   UNL A   1      33.198  34.599  28.815  1.00  0.00     0.338 C 
ATOM      5  O   UNL A   1      32.447  34.039  28.015  1.00  0.00    -0.246 OA
BRANCH   4   6
ATOM      6  C   UNL A   1      34.477  33.889  29.167  1.00  0.00     0.060 A 
ATOM      7  C   UNL A   1      35.540  34.038  28.250  1.00  0.00     0.016 A 
ATOM      8  C   UNL A   1      34.715  33.093  30.291  1.00  0.00     0.016 A 
ATOM      9  C   UNL A   1      36.775  33.413  28.449  1.00  0.00     0.010 A 
ATOM     10  C   UNL A   1      35.937  32.451  30.489  1.00  0.00     0.010 A 
ATOM     11  C   UNL A   1      36.975  32.617  29.577  1.00  0.00    -0.014 A 
BRANCH  11  12
ATOM     12  C   UNL A   1      38.302  32.069  29.904  1.00  0.00     0.031 A 
ATOM     13  C   UNL A   1      38.705  30.700  29.464  1.00  0.00     0.074 A 
ATOM     14  C   UNL A   1      39.096  32.814  30.693  1.00  0.00     0.049 A 
ATOM     15  N   UNL A   1      39.858  30.100  29.601  1.00  0.00    -0.248 NA
ATOM     16  C   UNL A   1      37.675  29.889  28.798  1.00  0.00     0.031 C 
ATOM     17  C   UNL A   1      38.734  34.119  31.253  1.00  0.00     0.029 A 
ATOM     18  N   UNL A   1      40.350  32.574  31.178  1.00  0.00    -0.354 N 
ATOM     19  C   UNL A   1      39.712  28.858  29.000  1.00  0.00     0.074 A 
ATOM     20  C   UNL A   1      38.335  28.763  28.558  1.00  0.00     0.031 C 
ATOM     21  C   UNL A   1      39.745  34.562  32.016  1.00  0.00     0.029 A 
ATOM     22  C   UNL A   1      40.822  33.581  31.981  1.00  0.00     0.049 A 
ATOM     23  H   UNL A   1      40.863  31.759  30.974  1.00  0.00     0.167 HD
ATOM     24  C   UNL A   1      40.654  27.901  28.819  1.00  0.00     0.037 A 
ATOM     25  C   UNL A   1      42.009  33.703  32.599  1.00  0.00     0.037 A 
ATOM     26  C   UNL A   1      42.000  28.000  29.329  1.00  0.00     0.049 A 
ATOM     27  C   UNL A   1      43.044  32.644  32.364  1.00  0.00     0.074 A 
ATOM     28  C   UNL A   1      43.051  27.109  29.195  1.00  0.00     0.029 A 
ATOM     29  N   UNL A   1      42.472  29.059  30.093  1.00  0.00    -0.354 N 
ATOM     30  N   UNL A   1      42.938  31.523  31.691  1.00  0.00    -0.248 NA
ATOM     31  C   UNL A   1      44.371  32.884  32.941  1.00  0.00     0.031 C 
ATOM     32  C   UNL A   1      44.147  27.616  29.906  1.00  0.00     0.029 A 
ATOM     33  C   UNL A   1      43.793  28.842  30.448  1.00  0.00     0.049 A 
ATOM     34  H   UNL A   1      41.944  29.851  30.347  1.00  0.00     0.167 HD
ATOM     35  C   UNL A   1      44.191  30.932  31.741  1.00  0.00     0.074 A 
ATOM     36  C   UNL A   1      45.044  31.835  32.492  1.00  0.00     0.031 C 
ATOM     37  C   UNL A   1      44.605  29.751  31.218  1.00  0.00     0.037 A 
BRANCH  24  38
ATOM     38  C   UNL A   1      40.259  26.687  28.027  1.00  0.00     0.057 A 
ATOM     39  C   UNL A   1      39.437  25.693  28.571  1.00  0.00     0.134 A 
ATOM     40  C   UNL A   1      40.725  26.490  26.718  1.00  0.00     0.134 A 
ATOM     41  F   UNL A   1      38.960  25.810  29.818  1.00  0.00    -0.206 F 
ATOM     42  C   UNL A   1      39.091  24.552  27.843  1.00  0.00     0.040 A 
ATOM     43  C   UNL A   1      40.367  25.365  25.973  1.00  0.00     0.040 A 
ATOM     44  F   UNL A   1      41.510  27.406  26.131  1.00  0.00    -0.206 F 
ATOM     45  C   UNL A   1      39.551  24.389  26.537  1.00  0.00     0.006 A 
ENDBRANCH  24  38
BRANCH  25  46
ATOM     46  C   UNL A   1      42.293  34.908  33.412  1.00  0.00     0.057 A 
ATOM     47  C   UNL A   1      42.022  34.941  34.785  1.00  0.00     0.134 A 
ATOM     48  C   UNL A   1      42.804  36.070  32.825  1.00  0.00     0.134 A 
ATOM     49  F   UNL A   1      41.510  33.865  35.400  1.00  0.00    -0.206 F 
ATOM     50  C   UNL A   1      42.254  36.087  35.546  1.00  0.00     0.040 A 
ATOM     51  C   UNL A   1      43.060  37.217  33.578  1.00  0.00     0.040 A 
ATOM     52  F   UNL A   1      43.084  36.096  31.513  1.00  0.00    -0.206 F 
ATOM     53  C   UNL A   1      42.780  37.228  34.943  1.00  0.00     0.006 A 
ENDBRANCH  25  46
BRANCH  37  54
ATOM     54  C   UNL A   1      46.044  29.399  31.449  1.00  0.00     0.057 A 
ATOM     55  C   UNL A   1      46.424  28.653  32.571  1.00  0.00     0.134 A 
ATOM     56  C   UNL A   1      47.046  29.767  30.541  1.00  0.00     0.134 A 
ATOM     57  F   UNL A   1      45.513  28.275  33.479  1.00  0.00    -0.206 F 
ATOM     58  C   UNL A   1      47.750  28.269  32.772  1.00  0.00     0.040 A 
ATOM     59  C   UNL A   1      48.370  29.366  30.718  1.00  0.00     0.040 A 
ATOM     60  F   UNL A   1      46.740  30.465  29.437  1.00  0.00    -0.206 F 
ATOM     61  C   UNL A   1      48.725  28.614  31.837  1.00  0.00     0.006 A 
ENDBRANCH  37  54
ENDBRANCH  11  12
ENDBRANCH   4   6
ENDBRANCH   3   4
ENDBRANCH   2   3
ENDBRANCH   1   2
BRANCH   1  62
ATOM     62  O   UNL A   1      33.986  37.564  32.216  1.00  0.00    -0.374 OA
BRANCH  62  63
ATOM     63  C   UNL A   1      34.542  36.306  32.605  1.00  0.00     0.202 C 
BRANCH  63  64
ATOM     64  C   UNL A   1      34.148  35.946  34.030  1.00  0.00     0.261 C 
BRANCH  64  65
ATOM     65  O   UNL A   1      35.124  35.088  34.636  1.00  0.00    -0.459 OA
BRANCH  65  66
ATOM     66  C   UNL A   1      35.243  33.823  34.144  1.00  0.00     0.365 C 
ATOM     67  O   UNL A   1      34.304  33.093  33.820  1.00  0.00    -0.245 OA
BRANCH  66  68
ATOM     68  C   UNL A   1      36.712  33.401  34.058  1.00  0.00     0.298 C 
ATOM     69  C   UNL A   1      37.607  34.065  35.157  1.00  0.00     0.111 C 
ATOM     70  N   UNL A   1      36.777  31.925  33.955  1.00  0.00    -0.326 N 
ATOM     71  C   UNL A   1      38.689  33.204  35.882  1.00  0.00    -0.024 C 
ATOM     72  C   UNL A   1      38.177  31.543  34.106  1.00  0.00     0.243 C 
ATOM     73  H   UNL A   1      36.428  31.621  33.045  1.00  0.00     0.347 HD
ATOM     74  H   UNL A   1      36.203  31.486  34.675  1.00  0.00     0.347 HD
ATOM     75  C   UNL A   1      38.739  33.308  37.216  1.00  0.00     0.002 A 
ATOM     76  C   UNL A   1      38.567  31.714  35.588  1.00  0.00     0.196 C 
ATOM     77  C   UNL A   1      39.887  33.373  38.093  1.00  0.00     0.010 A 
ATOM     78  C   UNL A   1      37.834  32.168  37.569  1.00  0.00     0.066 A 
ATOM     79  N   UNL A   1      37.563  31.293  36.637  1.00  0.00    -0.270 NA
ATOM     80  C   UNL A   1      39.675  33.084  39.390  1.00  0.00     0.001 A 
ATOM     81  C   UNL A   1      37.410  32.225  38.990  1.00  0.00     0.028 A 
ATOM     82  C   UNL A   1      38.334  32.715  39.844  1.00  0.00     0.002 A 
BRANCH  72  83
ATOM     83  C   UNL A   1      38.577  30.363  33.239  1.00  0.00     0.012 A 
ATOM     84  C   UNL A   1      37.635  29.463  32.729  1.00  0.00     0.010 A 
ATOM     85  C   UNL A   1      39.931  29.957  33.281  1.00  0.00     0.010 A 
ATOM     86  C   UNL A   1      38.021  28.164  32.381  1.00  0.00     0.001 A 
ATOM     87  C   UNL A   1      40.312  28.664  32.937  1.00  0.00     0.001 A 
ATOM     88  C   UNL A   1      39.349  27.757  32.515  1.00  0.00     0.000 A 
ENDBRANCH  72  83
ENDBRANCH  66  68
ENDBRANCH  65  66
ENDBRANCH  64  65
ENDBRANCH  63  64
ENDBRANCH  62  63
ENDBRANCH   1  62
TORSDOF 15
ENDMDL
MODEL 3
REMARK VINA RESULT:      -9.6      5.645     11.702
REMARK SMILES O=C(OCCOCCOC(=O)[C@H]1CC2=c3ccccc3=N[C@H]2[C@@H](c2ccccc2)[NH2+]1)c1ccc(-c2c3nc(c(-c4c(F)cccc4F)c4ccc([nH]4)c(-c4c(F)cccc4F)c4nc(c(-c5c(F)cccc5F)c5ccc2[nH]5)C=C4)C=C3)cc1
REMARK SMILES IDX 5 1 4 2 3 3 2 4 1 5 31 6 32 7 84 8 33 9 83 10 34 11 35 12
REMARK SMILES IDX 36 13 77 14 37 15 82 16 76 17 78 18 38 19 81 20 75 21 74 22
REMARK SMILES IDX 39 24 65 25 48 26 64 27 49 28 52 29 63 30 79 31 50 32 51 33
REMARK SMILES IDX 62 35 80 36 53 37 40 38 41 39 46 40 42 41 43 42 45 43 47 44
REMARK SMILES IDX 44 45 66 46 67 47 72 48 68 49 69 50 71 51 73 52 70 53 54 54
REMARK SMILES IDX 55 55 60 56 56 57 57 58 59 59 61 60 58 61 6 62 7 63 8 64
REMARK SMILES IDX 9 65 10 66 11 67 12 68 13 69 30 70 14 71 23 72 15 75 22 76
REMARK SMILES IDX 16 77 20 78 21 79 17 80 19 81 18 82 24 83 25 84 29 85 26 86
REMARK SMILES IDX 28 87 27 88
REMARK H PARENT 78 23 52 34 30 73 30 74
REMARK Flexibility Score: inf
ROOT
ATOM      1  C   UNL A   1      42.641  20.915  26.278  1.00  0.00     0.202 C 
ENDROOT
BRANCH   1   2
ATOM      2  C   UNL A   1      43.612  21.773  25.467  1.00  0.00     0.261 C 
BRANCH   2   3
ATOM      3  O   UNL A   1      43.055  23.057  25.142  1.00  0.00    -0.460 OA
BRANCH   3   4
ATOM      4  C   UNL A   1      43.562  24.300  25.316  1.00  0.00     0.338 C 
ATOM      5  O   UNL A   1      44.521  24.619  24.611  1.00  0.00    -0.246 OA
BRANCH   4   6
ATOM      6  C   UNL A   1      43.101  25.299  26.342  1.00  0.00     0.060 A 
ATOM      7  C   UNL A   1      42.061  24.873  27.197  1.00  0.00     0.016 A 
ATOM      8  C   UNL A   1      43.583  26.597  26.526  1.00  0.00     0.016 A 
ATOM      9  C   UNL A   1      41.528  25.713  28.180  1.00  0.00     0.010 A 
ATOM     10  C   UNL A   1      43.046  27.449  27.491  1.00  0.00     0.010 A 
ATOM     11  C   UNL A   1      42.026  27.007  28.329  1.00  0.00    -0.014 A 
BRANCH  11  12
ATOM     12  C   UNL A   1      41.603  27.867  29.447  1.00  0.00     0.031 A 
ATOM     13  C   UNL A   1      40.442  28.798  29.312  1.00  0.00     0.074 A 
ATOM     14  C   UNL A   1      42.361  27.848  30.557  1.00  0.00     0.049 A 
ATOM     15  N   UNL A   1      39.895  29.563  30.220  1.00  0.00    -0.248 NA
ATOM     16  C   UNL A   1      39.826  28.899  27.981  1.00  0.00     0.031 C 
ATOM     17  C   UNL A   1      43.574  27.043  30.730  1.00  0.00     0.029 A 
ATOM     18  N   UNL A   1      42.242  28.535  31.732  1.00  0.00    -0.354 N 
ATOM     19  C   UNL A   1      38.840  30.205  29.586  1.00  0.00     0.074 A 
ATOM     20  C   UNL A   1      38.867  29.791  28.197  1.00  0.00     0.031 C 
ATOM     21  C   UNL A   1      44.093  27.291  31.941  1.00  0.00     0.029 A 
ATOM     22  C   UNL A   1      43.242  28.254  32.628  1.00  0.00     0.049 A 
ATOM     23  H   UNL A   1      41.512  29.169  31.916  1.00  0.00     0.167 HD
ATOM     24  C   UNL A   1      37.924  31.042  30.130  1.00  0.00     0.037 A 
ATOM     25  C   UNL A   1      43.430  28.711  33.877  1.00  0.00     0.037 A 
ATOM     26  C   UNL A   1      37.963  31.485  31.502  1.00  0.00     0.049 A 
ATOM     27  C   UNL A   1      42.391  29.618  34.465  1.00  0.00     0.074 A 
ATOM     28  C   UNL A   1      37.084  32.316  32.176  1.00  0.00     0.029 A 
ATOM     29  N   UNL A   1      38.958  31.141  32.408  1.00  0.00    -0.354 N 
ATOM     30  N   UNL A   1      41.324  30.128  33.897  1.00  0.00    -0.248 NA
ATOM     31  C   UNL A   1      42.559  29.981  35.876  1.00  0.00     0.031 C 
ATOM     32  C   UNL A   1      37.566  32.498  33.480  1.00  0.00     0.029 A 
ATOM     33  C   UNL A   1      38.723  31.748  33.631  1.00  0.00     0.049 A 
ATOM     34  H   UNL A   1      39.721  30.551  32.211  1.00  0.00     0.167 HD
ATOM     35  C   UNL A   1      40.679  30.855  34.885  1.00  0.00     0.074 A 
ATOM     36  C   UNL A   1      41.466  30.696  36.094  1.00  0.00     0.031 C 
ATOM     37  C   UNL A   1      39.541  31.588  34.807  1.00  0.00     0.037 A 
BRANCH  24  38
ATOM     38  C   UNL A   1      36.806  31.510  29.242  1.00  0.00     0.057 A 
ATOM     39  C   UNL A   1      36.761  32.819  28.748  1.00  0.00     0.134 A 
ATOM     40  C   UNL A   1      35.746  30.657  28.897  1.00  0.00     0.134 A 
ATOM     41  F   UNL A   1      37.735  33.692  29.042  1.00  0.00    -0.206 F 
ATOM     42  C   UNL A   1      35.708  33.261  27.943  1.00  0.00     0.040 A 
ATOM     43  C   UNL A   1      34.701  31.081  28.074  1.00  0.00     0.040 A 
ATOM     44  F   UNL A   1      35.729  29.387  29.328  1.00  0.00    -0.206 F 
ATOM     45  C   UNL A   1      34.677  32.389  27.599  1.00  0.00     0.006 A 
ENDBRANCH  24  38
BRANCH  25  46
ATOM     46  C   UNL A   1      44.595  28.243  34.662  1.00  0.00     0.057 A 
ATOM     47  C   UNL A   1      45.787  28.977  34.705  1.00  0.00     0.134 A 
ATOM     48  C   UNL A   1      44.556  27.030  35.356  1.00  0.00     0.134 A 
ATOM     49  F   UNL A   1      45.892  30.137  34.041  1.00  0.00    -0.206 F 
ATOM     50  C   UNL A   1      46.898  28.519  35.413  1.00  0.00     0.040 A 
ATOM     51  C   UNL A   1      45.654  26.570  36.085  1.00  0.00     0.040 A 
ATOM     52  F   UNL A   1      43.440  26.285  35.352  1.00  0.00    -0.206 F 
ATOM     53  C   UNL A   1      46.831  27.315  36.111  1.00  0.00     0.006 A 
ENDBRANCH  25  46
BRANCH  37  54
ATOM     54  C   UNL A   1      39.102  32.256  36.076  1.00  0.00     0.057 A 
ATOM     55  C   UNL A   1      39.519  33.557  36.378  1.00  0.00     0.134 A 
ATOM     56  C   UNL A   1      38.236  31.623  36.978  1.00  0.00     0.134 A 
ATOM     57  F   UNL A   1      40.352  34.214  35.557  1.00  0.00    -0.206 F 
ATOM     58  C   UNL A   1      39.076  34.214  37.526  1.00  0.00     0.040 A 
ATOM     59  C   UNL A   1      37.765  32.280  38.115  1.00  0.00     0.040 A 
ATOM     60  F   UNL A   1      37.786  30.383  36.733  1.00  0.00    -0.206 F 
ATOM     61  C   UNL A   1      38.185  33.580  38.391  1.00  0.00     0.006 A 
ENDBRANCH  37  54
ENDBRANCH  11  12
ENDBRANCH   4   6
ENDBRANCH   3   4
ENDBRANCH   2   3
ENDBRANCH   1   2
BRANCH   1  62
ATOM     62  O   UNL A   1      41.288  21.062  25.852  1.00  0.00    -0.374 OA
BRANCH  62  63
ATOM     63  C   UNL A   1      40.376  21.411  26.896  1.00  0.00     0.202 C 
BRANCH  63  64
ATOM     64  C   UNL A   1      39.390  22.474  26.434  1.00  0.00     0.261 C 
BRANCH  64  65
ATOM     65  O   UNL A   1      38.298  21.889  25.712  1.00  0.00    -0.459 OA
BRANCH  65  66
ATOM     66  C   UNL A   1      37.216  22.677  25.458  1.00  0.00     0.365 C 
ATOM     67  O   UNL A   1      37.255  23.799  24.947  1.00  0.00    -0.245 OA
BRANCH  66  68
ATOM     68  C   UNL A   1      35.921  21.998  25.910  1.00  0.00     0.298 C 
ATOM     69  C   UNL A   1      34.942  22.972  26.647  1.00  0.00     0.111 C 
ATOM     70  N   UNL A   1      35.361  21.235  24.770  1.00  0.00    -0.326 N 
ATOM     71  C   UNL A   1      33.414  22.896  26.337  1.00  0.00    -0.024 C 
ATOM     72  C   UNL A   1      34.026  20.795  25.159  1.00  0.00     0.243 C 
ATOM     73  H   UNL A   1      35.950  20.427  24.566  1.00  0.00     0.347 HD
ATOM     74  H   UNL A   1      35.320  21.814  23.932  1.00  0.00     0.347 HD
ATOM     75  C   UNL A   1      32.791  24.060  26.115  1.00  0.00     0.002 A 
ATOM     76  C   UNL A   1      33.088  22.018  25.135  1.00  0.00     0.196 C 
ATOM     77  C   UNL A   1      31.488  24.507  26.554  1.00  0.00     0.010 A 
ATOM     78  C   UNL A   1      32.922  24.110  24.624  1.00  0.00     0.066 A 
ATOM     79  N   UNL A   1      33.244  23.007  24.003  1.00  0.00    -0.270 NA
ATOM     80  C   UNL A   1      30.945  25.540  25.884  1.00  0.00     0.001 A 
ATOM     81  C   UNL A   1      32.621  25.463  24.093  1.00  0.00     0.028 A 
ATOM     82  C   UNL A   1      31.668  26.144  24.766  1.00  0.00     0.002 A 
BRANCH  72  83
ATOM     83  C   UNL A   1      33.666  19.419  24.628  1.00  0.00     0.012 A 
ATOM     84  C   UNL A   1      34.584  18.364  24.618  1.00  0.00     0.010 A 
ATOM     85  C   UNL A   1      32.535  19.325  23.785  1.00  0.00     0.010 A 
ATOM     86  C   UNL A   1      34.431  17.308  23.714  1.00  0.00     0.001 A 
ATOM     87  C   UNL A   1      32.386  18.275  22.884  1.00  0.00     0.001 A 
ATOM     88  C   UNL A   1      33.353  17.280  22.828  1.00  0.00     0.000 A 
ENDBRANCH  72  83
ENDBRANCH  66  68
ENDBRANCH  65  66
ENDBRANCH  64  65
ENDBRANCH  63  64
ENDBRANCH  62  63
ENDBRANCH   1  62
TORSDOF 15
ENDMDL
