MODEL 1
REMARK VINA RESULT:     -10.9      0.000      0.000
REMARK SMILES Cc1nonc1-c1noc(CCC(=O)OCCOCCOC(=O)c2ccc(-c3c4nc(c(-c5c(F)cccc5F)c5ccc([nH]5)c(-c5c(F)cccc5F)c5nc(c(-c6c(F)cccc6F)c6ccc3[nH]6)C=C5)C=C4)cc2)n1
REMARK SMILES IDX 17 1 16 2 15 3 13 4 14 5 12 6 11 7 10 8 7 9 8 10 78 11 9 12
REMARK SMILES IDX 6 13 1 14 2 15 3 16 4 17 5 18 18 19 19 20 20 21 21 22 22 23
REMARK SMILES IDX 23 24 24 25 25 26 77 27 26 28 76 29 27 30 28 31 29 32 70 33
REMARK SMILES IDX 30 34 75 35 69 36 71 37 31 38 74 39 68 40 67 41 32 43 58 44
REMARK SMILES IDX 41 45 57 46 42 47 45 48 56 49 72 50 43 51 44 52 55 54 73 55
REMARK SMILES IDX 46 56 33 57 34 58 39 59 35 60 36 61 38 62 40 63 37 64 59 65
REMARK SMILES IDX 60 66 65 67 61 68 62 69 64 70 66 71 63 72 47 73 48 74 53 75
REMARK SMILES IDX 49 76 50 77 52 78 54 79 51 80
REMARK H PARENT 71 42 45 53
REMARK Flexibility Score: inf
ROOT
ATOM      1  C   UNL A   1      33.534  29.318  24.193  1.00  0.00     0.202 C 
ENDROOT
BRANCH   1   2
ATOM      2  C   UNL A   1      33.662  28.482  22.916  1.00  0.00     0.261 C 
BRANCH   2   3
ATOM      3  O   UNL A   1      33.286  27.112  23.174  1.00  0.00    -0.463 OA
BRANCH   3   4
ATOM      4  C   UNL A   1      32.907  26.354  22.117  1.00  0.00     0.306 C 
ATOM      5  O   UNL A   1      33.650  25.643  21.456  1.00  0.00    -0.252 OA
BRANCH   4   6
ATOM      6  C   UNL A   1      31.431  26.505  21.818  1.00  0.00     0.132 C 
BRANCH   6   7
ATOM      7  C   UNL A   1      30.550  26.816  23.025  1.00  0.00     0.112 C 
BRANCH   7   8
ATOM      8  C   UNL A   1      29.577  27.910  22.777  1.00  0.00     0.227 A 
ATOM      9  C   UNL A   1      28.503  29.616  22.231  1.00  0.00     0.226 A 
ATOM     10  N   UNL A   1      27.642  28.953  23.012  1.00  0.00    -0.055 NA
ATOM     11  N   UNL A   1      29.709  28.984  22.032  1.00  0.00    -0.190 NA
ATOM     12  O   UNL A   1      28.347  27.799  23.354  1.00  0.00    -0.339 OA
BRANCH   9  13
ATOM     13  C   UNL A   1      28.206  30.879  21.577  1.00  0.00     0.178 A 
ATOM     14  C   UNL A   1      28.820  32.544  23.501  1.00  0.00     0.073 C 
ATOM     15  C   UNL A   1      28.340  32.148  22.161  1.00  0.00     0.113 A 
ATOM     16  N   UNL A   1      27.981  33.078  21.269  1.00  0.00    -0.054 NA
ATOM     17  O   UNL A   1      27.633  32.365  20.124  1.00  0.00    -0.244 OA
ATOM     18  N   UNL A   1      27.784  30.994  20.317  1.00  0.00    -0.046 NA
ENDBRANCH   9  13
ENDBRANCH   7   8
ENDBRANCH   6   7
ENDBRANCH   4   6
ENDBRANCH   3   4
ENDBRANCH   2   3
ENDBRANCH   1   2
BRANCH   1  19
ATOM     19  O   UNL A   1      32.617  28.800  25.159  1.00  0.00    -0.374 OA
BRANCH  19  20
ATOM     20  C   UNL A   1      31.451  29.580  25.411  1.00  0.00     0.202 C 
BRANCH  20  21
ATOM     21  C   UNL A   1      31.702  30.925  26.103  1.00  0.00     0.261 C 
BRANCH  21  22
ATOM     22  O   UNL A   1      32.538  30.779  27.264  1.00  0.00    -0.460 OA
BRANCH  22  23
ATOM     23  C   UNL A   1      33.291  31.869  27.545  1.00  0.00     0.338 C 
ATOM     24  O   UNL A   1      32.894  33.017  27.694  1.00  0.00    -0.246 OA
BRANCH  23  25
ATOM     25  C   UNL A   1      34.695  31.495  27.798  1.00  0.00     0.060 A 
ATOM     26  C   UNL A   1      34.974  30.129  27.930  1.00  0.00     0.016 A 
ATOM     27  C   UNL A   1      35.702  32.443  28.002  1.00  0.00     0.016 A 
ATOM     28  C   UNL A   1      36.233  29.710  28.351  1.00  0.00     0.010 A 
ATOM     29  C   UNL A   1      36.972  32.019  28.415  1.00  0.00     0.010 A 
ATOM     30  C   UNL A   1      37.223  30.655  28.650  1.00  0.00    -0.014 A 
BRANCH  30  31
ATOM     31  C   UNL A   1      38.420  30.210  29.407  1.00  0.00     0.031 A 
ATOM     32  C   UNL A   1      38.582  30.669  30.833  1.00  0.00     0.074 A 
ATOM     33  C   UNL A   1      39.298  29.339  28.879  1.00  0.00     0.049 A 
ATOM     34  N   UNL A   1      39.501  30.353  31.711  1.00  0.00    -0.248 NA
ATOM     35  C   UNL A   1      37.570  31.610  31.339  1.00  0.00     0.031 C 
ATOM     36  C   UNL A   1      39.240  28.796  27.523  1.00  0.00     0.029 A 
ATOM     37  N   UNL A   1      40.406  28.749  29.434  1.00  0.00    -0.354 N 
ATOM     38  C   UNL A   1      39.180  31.056  32.865  1.00  0.00     0.074 A 
ATOM     39  C   UNL A   1      38.007  31.848  32.567  1.00  0.00     0.031 C 
ATOM     40  C   UNL A   1      40.266  27.942  27.353  1.00  0.00     0.029 A 
ATOM     41  C   UNL A   1      41.058  27.892  28.582  1.00  0.00     0.049 A 
ATOM     42  H   UNL A   1      40.705  28.922  30.355  1.00  0.00     0.167 HD
ATOM     43  C   UNL A   1      39.790  31.034  34.074  1.00  0.00     0.037 A 
ATOM     44  C   UNL A   1      42.169  27.154  28.773  1.00  0.00     0.037 A 
ATOM     45  C   UNL A   1      40.950  30.242  34.382  1.00  0.00     0.049 A 
ATOM     46  C   UNL A   1      42.852  27.173  30.115  1.00  0.00     0.074 A 
ATOM     47  C   UNL A   1      41.638  30.147  35.579  1.00  0.00     0.029 A 
ATOM     48  N   UNL A   1      41.592  29.403  33.484  1.00  0.00    -0.354 N 
ATOM     49  N   UNL A   1      42.524  27.823  31.206  1.00  0.00    -0.248 NA
ATOM     50  C   UNL A   1      44.057  26.342  30.255  1.00  0.00     0.031 C 
ATOM     51  C   UNL A   1      42.720  29.279  35.395  1.00  0.00     0.029 A 
ATOM     52  C   UNL A   1      42.677  28.796  34.097  1.00  0.00     0.049 A 
ATOM     53  H   UNL A   1      41.319  29.261  32.549  1.00  0.00     0.167 HD
ATOM     54  C   UNL A   1      43.456  27.451  32.167  1.00  0.00     0.074 A 
ATOM     55  C   UNL A   1      44.357  26.512  31.534  1.00  0.00     0.031 C 
ATOM     56  C   UNL A   1      43.555  27.849  33.460  1.00  0.00     0.037 A 
BRANCH  43  57
ATOM     57  C   UNL A   1      39.217  31.910  35.148  1.00  0.00     0.057 A 
ATOM     58  C   UNL A   1      39.538  33.271  35.244  1.00  0.00     0.134 A 
ATOM     59  C   UNL A   1      38.323  31.390  36.092  1.00  0.00     0.134 A 
ATOM     60  F   UNL A   1      40.404  33.826  34.381  1.00  0.00    -0.206 F 
ATOM     61  C   UNL A   1      39.010  34.076  36.253  1.00  0.00     0.040 A 
ATOM     62  C   UNL A   1      37.768  32.192  37.091  1.00  0.00     0.040 A 
ATOM     63  F   UNL A   1      37.971  30.096  36.057  1.00  0.00    -0.206 F 
ATOM     64  C   UNL A   1      38.117  33.537  37.178  1.00  0.00     0.006 A 
ENDBRANCH  43  57
BRANCH  44  65
ATOM     65  C   UNL A   1      42.706  26.317  27.671  1.00  0.00     0.057 A 
ATOM     66  C   UNL A   1      43.582  26.846  26.715  1.00  0.00     0.134 A 
ATOM     67  C   UNL A   1      42.328  24.977  27.528  1.00  0.00     0.134 A 
ATOM     68  F   UNL A   1      43.960  28.130  26.784  1.00  0.00    -0.206 F 
ATOM     69  C   UNL A   1      44.046  26.078  25.645  1.00  0.00     0.040 A 
ATOM     70  C   UNL A   1      42.804  24.192  26.477  1.00  0.00     0.040 A 
ATOM     71  F   UNL A   1      41.490  24.413  28.409  1.00  0.00    -0.206 F 
ATOM     72  C   UNL A   1      43.660  24.745  25.527  1.00  0.00     0.006 A 
ENDBRANCH  44  65
BRANCH  56  73
ATOM     73  C   UNL A   1      44.641  27.229  34.290  1.00  0.00     0.057 A 
ATOM     74  C   UNL A   1      45.908  27.813  34.415  1.00  0.00     0.134 A 
ATOM     75  C   UNL A   1      44.406  26.040  34.993  1.00  0.00     0.134 A 
ATOM     76  F   UNL A   1      46.202  28.947  33.760  1.00  0.00    -0.206 F 
ATOM     77  C   UNL A   1      46.912  27.220  35.184  1.00  0.00     0.040 A 
ATOM     78  C   UNL A   1      45.392  25.452  35.786  1.00  0.00     0.040 A 
ATOM     79  F   UNL A   1      43.210  25.434  34.927  1.00  0.00    -0.206 F 
ATOM     80  C   UNL A   1      46.653  26.039  35.876  1.00  0.00     0.006 A 
ENDBRANCH  56  73
ENDBRANCH  30  31
ENDBRANCH  23  25
ENDBRANCH  22  23
ENDBRANCH  21  22
ENDBRANCH  20  21
ENDBRANCH  19  20
ENDBRANCH   1  19
TORSDOF 17
ENDMDL
MODEL 2
REMARK VINA RESULT:     -10.3      5.525      7.857
REMARK SMILES Cc1nonc1-c1noc(CCC(=O)OCCOCCOC(=O)c2ccc(-c3c4nc(c(-c5c(F)cccc5F)c5ccc([nH]5)c(-c5c(F)cccc5F)c5nc(c(-c6c(F)cccc6F)c6ccc3[nH]6)C=C5)C=C4)cc2)n1
REMARK SMILES IDX 17 1 16 2 15 3 13 4 14 5 12 6 11 7 10 8 7 9 8 10 78 11 9 12
REMARK SMILES IDX 6 13 1 14 2 15 3 16 4 17 5 18 18 19 19 20 20 21 21 22 22 23
REMARK SMILES IDX 23 24 24 25 25 26 77 27 26 28 76 29 27 30 28 31 29 32 70 33
REMARK SMILES IDX 30 34 75 35 69 36 71 37 31 38 74 39 68 40 67 41 32 43 58 44
REMARK SMILES IDX 41 45 57 46 42 47 45 48 56 49 72 50 43 51 44 52 55 54 73 55
REMARK SMILES IDX 46 56 33 57 34 58 39 59 35 60 36 61 38 62 40 63 37 64 59 65
REMARK SMILES IDX 60 66 65 67 61 68 62 69 64 70 66 71 63 72 47 73 48 74 53 75
REMARK SMILES IDX 49 76 50 77 52 78 54 79 51 80
REMARK H PARENT 71 42 45 53
REMARK Flexibility Score: inf
ROOT
ATOM      1  C   UNL A   1      38.829  33.923  31.272  1.00  0.00     0.202 C 
ENDROOT
BRANCH   1   2
ATOM      2  C   UNL A   1      39.488  33.188  32.444  1.00  0.00     0.261 C 
BRANCH   2   3
ATOM      3  O   UNL A   1      39.127  31.790  32.425  1.00  0.00    -0.463 OA
BRANCH   3   4
ATOM      4  C   UNL A   1      38.498  31.289  33.515  1.00  0.00     0.306 C 
ATOM      5  O   UNL A   1      39.024  30.599  34.378  1.00  0.00    -0.252 OA
BRANCH   4   6
ATOM      6  C   UNL A   1      37.032  31.660  33.538  1.00  0.00     0.132 C 
BRANCH   6   7
ATOM      7  C   UNL A   1      36.681  32.882  34.381  1.00  0.00     0.112 C 
BRANCH   7   8
ATOM      8  C   UNL A   1      35.596  33.710  33.797  1.00  0.00     0.227 A 
ATOM      9  C   UNL A   1      34.313  35.173  33.039  1.00  0.00     0.226 A 
ATOM     10  N   UNL A   1      33.576  34.058  32.969  1.00  0.00    -0.055 NA
ATOM     11  N   UNL A   1      35.589  34.993  33.519  1.00  0.00    -0.190 NA
ATOM     12  O   UNL A   1      34.441  33.074  33.447  1.00  0.00    -0.339 OA
BRANCH   9  13
ATOM     13  C   UNL A   1      33.858  36.481  32.600  1.00  0.00     0.178 A 
ATOM     14  C   UNL A   1      32.932  35.869  30.229  1.00  0.00     0.073 C 
ATOM     15  C   UNL A   1      33.270  36.762  31.357  1.00  0.00     0.113 A 
ATOM     16  N   UNL A   1      32.976  38.065  31.298  1.00  0.00    -0.054 NA
ATOM     17  O   UNL A   1      33.384  38.583  32.525  1.00  0.00    -0.244 OA
ATOM     18  N   UNL A   1      33.925  37.589  33.339  1.00  0.00    -0.046 NA
ENDBRANCH   9  13
ENDBRANCH   7   8
ENDBRANCH   6   7
ENDBRANCH   4   6
ENDBRANCH   3   4
ENDBRANCH   2   3
ENDBRANCH   1   2
BRANCH   1  19
ATOM     19  O   UNL A   1      37.867  33.155  30.547  1.00  0.00    -0.374 OA
BRANCH  19  20
ATOM     20  C   UNL A   1      36.938  33.886  29.752  1.00  0.00     0.202 C 
BRANCH  20  21
ATOM     21  C   UNL A   1      35.476  33.444  29.882  1.00  0.00     0.261 C 
BRANCH  21  22
ATOM     22  O   UNL A   1      35.370  32.053  30.235  1.00  0.00    -0.460 OA
BRANCH  22  23
ATOM     23  C   UNL A   1      35.201  31.225  29.177  1.00  0.00     0.338 C 
ATOM     24  O   UNL A   1      34.248  31.198  28.410  1.00  0.00    -0.246 OA
BRANCH  23  25
ATOM     25  C   UNL A   1      36.404  30.403  28.947  1.00  0.00     0.060 A 
ATOM     26  C   UNL A   1      36.936  29.733  30.056  1.00  0.00     0.016 A 
ATOM     27  C   UNL A   1      37.062  30.357  27.714  1.00  0.00     0.016 A 
ATOM     28  C   UNL A   1      38.167  29.091  29.962  1.00  0.00     0.010 A 
ATOM     29  C   UNL A   1      38.296  29.701  27.618  1.00  0.00     0.010 A 
ATOM     30  C   UNL A   1      38.881  29.119  28.756  1.00  0.00    -0.014 A 
BRANCH  30  31
ATOM     31  C   UNL A   1      40.314  28.731  28.774  1.00  0.00     0.031 A 
ATOM     32  C   UNL A   1      41.321  29.712  29.315  1.00  0.00     0.074 A 
ATOM     33  C   UNL A   1      40.710  27.498  28.409  1.00  0.00     0.049 A 
ATOM     34  N   UNL A   1      42.610  29.570  29.498  1.00  0.00    -0.248 NA
ATOM     35  C   UNL A   1      40.804  31.034  29.706  1.00  0.00     0.031 C 
ATOM     36  C   UNL A   1      39.835  26.446  27.895  1.00  0.00     0.029 A 
ATOM     37  N   UNL A   1      41.956  26.923  28.430  1.00  0.00    -0.354 N 
ATOM     38  C   UNL A   1      43.054  30.778  30.019  1.00  0.00     0.074 A 
ATOM     39  C   UNL A   1      41.908  31.658  30.085  1.00  0.00     0.031 C 
ATOM     40  C   UNL A   1      40.571  25.346  27.658  1.00  0.00     0.029 A 
ATOM     41  C   UNL A   1      41.969  25.622  27.987  1.00  0.00     0.049 A 
ATOM     42  H   UNL A   1      42.763  27.396  28.734  1.00  0.00     0.167 HD
ATOM     43  C   UNL A   1      44.298  31.124  30.427  1.00  0.00     0.037 A 
ATOM     44  C   UNL A   1      42.994  24.758  27.861  1.00  0.00     0.037 A 
ATOM     45  C   UNL A   1      45.440  30.252  30.374  1.00  0.00     0.049 A 
ATOM     46  C   UNL A   1      44.377  25.177  28.287  1.00  0.00     0.074 A 
ATOM     47  C   UNL A   1      46.742  30.508  30.768  1.00  0.00     0.029 A 
ATOM     48  N   UNL A   1      45.416  28.950  29.899  1.00  0.00    -0.354 N 
ATOM     49  N   UNL A   1      44.779  26.314  28.802  1.00  0.00    -0.248 NA
ATOM     50  C   UNL A   1      45.448  24.182  28.126  1.00  0.00     0.031 C 
ATOM     51  C   UNL A   1      47.514  29.373  30.497  1.00  0.00     0.029 A 
ATOM     52  C   UNL A   1      46.682  28.393  29.978  1.00  0.00     0.049 A 
ATOM     53  H   UNL A   1      44.616  28.489  29.555  1.00  0.00     0.167 HD
ATOM     54  C   UNL A   1      46.136  26.158  29.059  1.00  0.00     0.074 A 
ATOM     55  C   UNL A   1      46.487  24.814  28.652  1.00  0.00     0.031 C 
ATOM     56  C   UNL A   1      47.013  27.047  29.587  1.00  0.00     0.037 A 
BRANCH  43  57
ATOM     57  C   UNL A   1      44.486  32.517  30.950  1.00  0.00     0.057 A 
ATOM     58  C   UNL A   1      44.242  32.843  32.291  1.00  0.00     0.134 A 
ATOM     59  C   UNL A   1      44.929  33.543  30.106  1.00  0.00     0.134 A 
ATOM     60  F   UNL A   1      43.798  31.910  33.147  1.00  0.00    -0.206 F 
ATOM     61  C   UNL A   1      44.408  34.144  32.767  1.00  0.00     0.040 A 
ATOM     62  C   UNL A   1      45.123  34.843  30.577  1.00  0.00     0.040 A 
ATOM     63  F   UNL A   1      45.183  33.299  28.812  1.00  0.00    -0.206 F 
ATOM     64  C   UNL A   1      44.855  35.148  31.910  1.00  0.00     0.006 A 
ENDBRANCH  43  57
BRANCH  44  65
ATOM     65  C   UNL A   1      42.758  23.396  27.320  1.00  0.00     0.057 A 
ATOM     66  C   UNL A   1      42.889  23.123  25.953  1.00  0.00     0.134 A 
ATOM     67  C   UNL A   1      42.362  22.343  28.153  1.00  0.00     0.134 A 
ATOM     68  F   UNL A   1      43.241  24.097  25.101  1.00  0.00    -0.206 F 
ATOM     69  C   UNL A   1      42.613  21.857  25.431  1.00  0.00     0.040 A 
ATOM     70  C   UNL A   1      42.108  21.068  27.648  1.00  0.00     0.040 A 
ATOM     71  F   UNL A   1      42.216  22.541  29.471  1.00  0.00    -0.206 F 
ATOM     72  C   UNL A   1      42.226  20.824  26.281  1.00  0.00     0.006 A 
ENDBRANCH  44  65
BRANCH  56  73
ATOM     73  C   UNL A   1      48.422  26.578  29.807  1.00  0.00     0.057 A 
ATOM     74  C   UNL A   1      48.819  25.940  30.988  1.00  0.00     0.134 A 
ATOM     75  C   UNL A   1      49.390  26.749  28.808  1.00  0.00     0.134 A 
ATOM     76  F   UNL A   1      47.943  25.754  31.988  1.00  0.00    -0.206 F 
ATOM     77  C   UNL A   1      50.136  25.516  31.182  1.00  0.00     0.040 A 
ATOM     78  C   UNL A   1      50.702  26.307  28.979  1.00  0.00     0.040 A 
ATOM     79  F   UNL A   1      49.074  27.343  27.647  1.00  0.00    -0.206 F 
ATOM     80  C   UNL A   1      51.080  25.696  30.173  1.00  0.00     0.006 A 
ENDBRANCH  56  73
ENDBRANCH  30  31
ENDBRANCH  23  25
ENDBRANCH  22  23
ENDBRANCH  21  22
ENDBRANCH  20  21
ENDBRANCH  19  20
ENDBRANCH   1  19
TORSDOF 17
ENDMDL
MODEL 3
REMARK VINA RESULT:     -10.3      6.189     11.231
REMARK SMILES Cc1nonc1-c1noc(CCC(=O)OCCOCCOC(=O)c2ccc(-c3c4nc(c(-c5c(F)cccc5F)c5ccc([nH]5)c(-c5c(F)cccc5F)c5nc(c(-c6c(F)cccc6F)c6ccc3[nH]6)C=C5)C=C4)cc2)n1
REMARK SMILES IDX 17 1 16 2 15 3 13 4 14 5 12 6 11 7 10 8 7 9 8 10 78 11 9 12
REMARK SMILES IDX 6 13 1 14 2 15 3 16 4 17 5 18 18 19 19 20 20 21 21 22 22 23
REMARK SMILES IDX 23 24 24 25 25 26 77 27 26 28 76 29 27 30 28 31 29 32 70 33
REMARK SMILES IDX 30 34 75 35 69 36 71 37 31 38 74 39 68 40 67 41 32 43 58 44
REMARK SMILES IDX 41 45 57 46 42 47 45 48 56 49 72 50 43 51 44 52 55 54 73 55
REMARK SMILES IDX 46 56 33 57 34 58 39 59 35 60 36 61 38 62 40 63 37 64 59 65
REMARK SMILES IDX 60 66 65 67 61 68 62 69 64 70 66 71 63 72 47 73 48 74 53 75
REMARK SMILES IDX 49 76 50 77 52 78 54 79 51 80
REMARK H PARENT 71 42 45 53
REMARK Flexibility Score: inf
ROOT
ATOM      1  C   UNL A   1      41.235  20.192  26.587  1.00  0.00     0.202 C 
ENDROOT
BRANCH   1   2
ATOM      2  C   UNL A   1      41.844  18.891  26.054  1.00  0.00     0.261 C 
BRANCH   2   3
ATOM      3  O   UNL A   1      42.824  19.178  25.033  1.00  0.00    -0.463 OA
BRANCH   3   4
ATOM      4  C   UNL A   1      44.077  18.697  25.212  1.00  0.00     0.306 C 
ATOM      5  O   UNL A   1      44.427  17.961  26.124  1.00  0.00    -0.252 OA
BRANCH   4   6
ATOM      6  C   UNL A   1      45.030  19.201  24.150  1.00  0.00     0.132 C 
BRANCH   6   7
ATOM      7  C   UNL A   1      46.181  20.063  24.662  1.00  0.00     0.112 C 
BRANCH   7   8
ATOM      8  C   UNL A   1      45.890  21.518  24.620  1.00  0.00     0.227 A 
ATOM      9  C   UNL A   1      45.720  23.585  24.871  1.00  0.00     0.226 A 
ATOM     10  N   UNL A   1      44.867  23.329  23.873  1.00  0.00    -0.055 NA
ATOM     11  N   UNL A   1      46.402  22.488  25.343  1.00  0.00    -0.190 NA
ATOM     12  O   UNL A   1      45.000  21.954  23.684  1.00  0.00    -0.339 OA
BRANCH   9  13
ATOM     13  C   UNL A   1      45.979  24.911  25.405  1.00  0.00     0.178 A 
ATOM     14  C   UNL A   1      44.840  24.688  27.752  1.00  0.00     0.073 C 
ATOM     15  C   UNL A   1      45.570  25.374  26.665  1.00  0.00     0.113 A 
ATOM     16  N   UNL A   1      45.983  26.637  26.821  1.00  0.00    -0.054 NA
ATOM     17  O   UNL A   1      46.661  26.942  25.642  1.00  0.00    -0.244 OA
ATOM     18  N   UNL A   1      46.665  25.860  24.766  1.00  0.00    -0.046 NA
ENDBRANCH   9  13
ENDBRANCH   7   8
ENDBRANCH   6   7
ENDBRANCH   4   6
ENDBRANCH   3   4
ENDBRANCH   2   3
ENDBRANCH   1   2
BRANCH   1  19
ATOM     19  O   UNL A   1      41.983  20.821  27.629  1.00  0.00    -0.374 OA
BRANCH  19  20
ATOM     20  C   UNL A   1      42.334  22.187  27.424  1.00  0.00     0.202 C 
BRANCH  20  21
ATOM     21  C   UNL A   1      42.075  22.723  26.011  1.00  0.00     0.261 C 
BRANCH  21  22
ATOM     22  O   UNL A   1      41.102  23.782  26.014  1.00  0.00    -0.460 OA
BRANCH  22  23
ATOM     23  C   UNL A   1      41.631  25.020  25.861  1.00  0.00     0.338 C 
ATOM     24  O   UNL A   1      42.462  25.366  25.032  1.00  0.00    -0.246 OA
BRANCH  23  25
ATOM     25  C   UNL A   1      40.973  25.993  26.753  1.00  0.00     0.060 A 
ATOM     26  C   UNL A   1      41.420  27.318  26.685  1.00  0.00     0.016 A 
ATOM     27  C   UNL A   1      40.018  25.619  27.704  1.00  0.00     0.016 A 
ATOM     28  C   UNL A   1      40.982  28.253  27.619  1.00  0.00     0.010 A 
ATOM     29  C   UNL A   1      39.571  26.563  28.636  1.00  0.00     0.010 A 
ATOM     30  C   UNL A   1      40.097  27.867  28.635  1.00  0.00    -0.014 A 
BRANCH  30  31
ATOM     31  C   UNL A   1      39.915  28.774  29.796  1.00  0.00     0.031 A 
ATOM     32  C   UNL A   1      40.861  28.652  30.962  1.00  0.00     0.074 A 
ATOM     33  C   UNL A   1      38.992  29.753  29.782  1.00  0.00     0.049 A 
ATOM     34  N   UNL A   1      40.944  29.379  32.048  1.00  0.00    -0.248 NA
ATOM     35  C   UNL A   1      41.851  27.565  30.893  1.00  0.00     0.031 C 
ATOM     36  C   UNL A   1      38.035  29.997  28.704  1.00  0.00     0.029 A 
ATOM     37  N   UNL A   1      38.723  30.733  30.704  1.00  0.00    -0.354 N 
ATOM     38  C   UNL A   1      41.986  28.835  32.788  1.00  0.00     0.074 A 
ATOM     39  C   UNL A   1      42.480  27.694  32.051  1.00  0.00     0.031 C 
ATOM     40  C   UNL A   1      37.286  31.069  29.023  1.00  0.00     0.029 A 
ATOM     41  C   UNL A   1      37.701  31.573  30.332  1.00  0.00     0.049 A 
ATOM     42  H   UNL A   1      39.215  30.826  31.550  1.00  0.00     0.167 HD
ATOM     43  C   UNL A   1      42.504  29.256  33.967  1.00  0.00     0.037 A 
ATOM     44  C   UNL A   1      37.163  32.626  30.977  1.00  0.00     0.037 A 
ATOM     45  C   UNL A   1      42.025  30.396  34.702  1.00  0.00     0.049 A 
ATOM     46  C   UNL A   1      37.732  33.054  32.305  1.00  0.00     0.074 A 
ATOM     47  C   UNL A   1      42.487  30.906  35.903  1.00  0.00     0.029 A 
ATOM     48  N   UNL A   1      40.975  31.207  34.301  1.00  0.00    -0.354 N 
ATOM     49  N   UNL A   1      38.734  32.547  32.982  1.00  0.00    -0.248 NA
ATOM     50  C   UNL A   1      37.100  34.213  32.952  1.00  0.00     0.031 C 
ATOM     51  C   UNL A   1      41.691  32.004  36.247  1.00  0.00     0.029 A 
ATOM     52  C   UNL A   1      40.766  32.207  35.237  1.00  0.00     0.049 A 
ATOM     53  H   UNL A   1      40.454  31.090  33.474  1.00  0.00     0.167 HD
ATOM     54  C   UNL A   1      38.875  33.345  34.111  1.00  0.00     0.074 A 
ATOM     55  C   UNL A   1      37.861  34.376  34.023  1.00  0.00     0.031 C 
ATOM     56  C   UNL A   1      39.765  33.237  35.128  1.00  0.00     0.037 A 
BRANCH  43  57
ATOM     57  C   UNL A   1      43.640  28.462  34.540  1.00  0.00     0.057 A 
ATOM     58  C   UNL A   1      43.424  27.349  35.364  1.00  0.00     0.134 A 
ATOM     59  C   UNL A   1      44.967  28.808  34.255  1.00  0.00     0.134 A 
ATOM     60  F   UNL A   1      42.177  26.978  35.690  1.00  0.00    -0.206 F 
ATOM     61  C   UNL A   1      44.487  26.623  35.902  1.00  0.00     0.040 A 
ATOM     62  C   UNL A   1      46.038  28.073  34.768  1.00  0.00     0.040 A 
ATOM     63  F   UNL A   1      45.244  29.861  33.472  1.00  0.00    -0.206 F 
ATOM     64  C   UNL A   1      45.800  26.982  35.599  1.00  0.00     0.006 A 
ENDBRANCH  43  57
BRANCH  44  65
ATOM     65  C   UNL A   1      36.028  33.368  30.375  1.00  0.00     0.057 A 
ATOM     66  C   UNL A   1      34.724  33.227  30.867  1.00  0.00     0.134 A 
ATOM     67  C   UNL A   1      36.214  34.209  29.272  1.00  0.00     0.134 A 
ATOM     68  F   UNL A   1      34.478  32.416  31.905  1.00  0.00    -0.206 F 
ATOM     69  C   UNL A   1      33.643  33.879  30.268  1.00  0.00     0.040 A 
ATOM     70  C   UNL A   1      35.146  34.885  28.680  1.00  0.00     0.040 A 
ATOM     71  F   UNL A   1      37.438  34.383  28.753  1.00  0.00    -0.206 F 
ATOM     72  C   UNL A   1      33.854  34.715  29.174  1.00  0.00     0.006 A 
ENDBRANCH  44  65
BRANCH  56  73
ATOM     73  C   UNL A   1      39.720  34.289  36.198  1.00  0.00     0.057 A 
ATOM     74  C   UNL A   1      38.944  34.142  37.354  1.00  0.00     0.134 A 
ATOM     75  C   UNL A   1      40.483  35.458  36.076  1.00  0.00     0.134 A 
ATOM     76  F   UNL A   1      38.183  33.051  37.528  1.00  0.00    -0.206 F 
ATOM     77  C   UNL A   1      38.905  35.133  38.338  1.00  0.00     0.040 A 
ATOM     78  C   UNL A   1      40.473  36.443  37.064  1.00  0.00     0.040 A 
ATOM     79  F   UNL A   1      41.257  35.657  34.998  1.00  0.00    -0.206 F 
ATOM     80  C   UNL A   1      39.675  36.286  38.195  1.00  0.00     0.006 A 
ENDBRANCH  56  73
ENDBRANCH  30  31
ENDBRANCH  23  25
ENDBRANCH  22  23
ENDBRANCH  21  22
ENDBRANCH  20  21
ENDBRANCH  19  20
ENDBRANCH   1  19
TORSDOF 17
ENDMDL
