MODEL 1
REMARK VINA RESULT:     -11.3      0.000      0.000
REMARK SMILES C[C@@H]1Cc2ccccc2N1C(=O)CSc1ncc(C(=O)OCCOCCOC(=O)c2ccc(-c3c4nc(c(-c5c(F)cccc5F)c5ccc([nH]5)c(-c5c(F)cccc5F)c5nc(c(-c6c(F)cccc6F)c6ccc3[nH]6)C=C5)C=C4)cc2)n1-c1ccc(F)cc1
REMARK SMILES IDX 23 1 22 2 21 3 19 4 20 5 18 6 15 7 16 8 84 9 17 10 14 11
REMARK SMILES IDX 13 12 11 13 12 14 10 15 1 16 2 17 3 18 4 19 9 20 5 21 8 22
REMARK SMILES IDX 6 23 7 24 85 25 86 26 91 27 87 28 90 29 88 30 89 31 24 32
REMARK SMILES IDX 25 33 26 34 27 35 28 36 29 37 30 38 31 39 83 40 32 41 82 42
REMARK SMILES IDX 33 43 34 44 35 45 76 46 36 47 81 48 75 49 77 50 37 51 80 52
REMARK SMILES IDX 74 53 73 54 38 56 64 57 47 58 63 59 48 60 51 61 62 62 78 63
REMARK SMILES IDX 49 64 50 65 61 67 79 68 52 69 39 70 40 71 45 72 41 73 42 74
REMARK SMILES IDX 44 75 46 76 43 77 65 78 66 79 71 80 67 81 68 82 70 83 72 84
REMARK SMILES IDX 69 85 53 86 54 87 59 88 55 89 56 90 58 91 60 92 57 93
REMARK H PARENT 77 55 51 66
REMARK Flexibility Score: inf
ROOT
ATOM      1  C   UNL A   1      38.898  22.747  26.496  1.00  0.00     0.202 C 
ENDROOT
BRANCH   1   2
ATOM      2  C   UNL A   1      37.701  23.336  25.747  1.00  0.00     0.261 C 
BRANCH   2   3
ATOM      3  O   UNL A   1      36.595  22.430  25.722  1.00  0.00    -0.459 OA
BRANCH   3   4
ATOM      4  C   UNL A   1      36.091  22.235  24.481  1.00  0.00     0.357 C 
ATOM      5  O   UNL A   1      36.718  22.393  23.434  1.00  0.00    -0.244 OA
BRANCH   4   6
ATOM      6  C   UNL A   1      34.752  21.752  24.554  1.00  0.00     0.152 A 
ATOM      7  C   UNL A   1      32.564  21.836  24.803  1.00  0.00     0.173 A 
ATOM      8  N   UNL A   1      32.871  20.587  25.065  1.00  0.00    -0.230 NA
ATOM      9  N   UNL A   1      33.642  22.535  24.309  1.00  0.00    -0.282 N 
ATOM     10  C   UNL A   1      34.231  20.515  24.887  1.00  0.00     0.148 A 
BRANCH   7  11
ATOM     11  S   UNL A   1      31.054  22.605  25.063  1.00  0.00    -0.078 SA
BRANCH  11  12
ATOM     12  C   UNL A   1      31.388  23.957  26.194  1.00  0.00     0.178 C 
BRANCH  12  13
ATOM     13  C   UNL A   1      30.417  25.118  26.206  1.00  0.00     0.237 C 
ATOM     14  O   UNL A   1      29.374  24.969  26.864  1.00  0.00    -0.274 OA
BRANCH  13  15
ATOM     15  N   UNL A   1      30.688  26.348  25.628  1.00  0.00    -0.308 N 
ATOM     16  C   UNL A   1      30.015  25.767  23.242  1.00  0.00     0.032 C 
ATOM     17  C   UNL A   1      29.943  26.765  24.402  1.00  0.00     0.092 C 
ATOM     18  C   UNL A   1      30.507  28.129  23.966  1.00  0.00     0.063 C 
ATOM     19  C   UNL A   1      31.525  28.405  25.021  1.00  0.00    -0.022 A 
ATOM     20  C   UNL A   1      31.545  27.410  25.999  1.00  0.00     0.047 A 
ATOM     21  C   UNL A   1      32.356  29.519  25.073  1.00  0.00     0.006 A 
ATOM     22  C   UNL A   1      32.335  27.606  27.119  1.00  0.00     0.026 A 
ATOM     23  C   UNL A   1      33.226  29.648  26.149  1.00  0.00     0.000 A 
ATOM     24  C   UNL A   1      33.203  28.704  27.177  1.00  0.00     0.002 A 
ENDBRANCH  13  15
ENDBRANCH  12  13
ENDBRANCH  11  12
ENDBRANCH   7  11
BRANCH   9  25
ATOM     25  C   UNL A   1      33.634  23.756  23.593  1.00  0.00     0.049 A 
ATOM     26  C   UNL A   1      33.205  23.785  22.265  1.00  0.00     0.030 A 
ATOM     27  C   UNL A   1      33.998  24.937  24.257  1.00  0.00     0.030 A 
ATOM     28  C   UNL A   1      33.115  25.013  21.610  1.00  0.00     0.041 A 
ATOM     29  C   UNL A   1      33.886  26.162  23.601  1.00  0.00     0.041 A 
ATOM     30  C   UNL A   1      33.444  26.188  22.284  1.00  0.00     0.123 A 
ATOM     31  F   UNL A   1      33.337  27.364  21.650  1.00  0.00    -0.207 F 
ENDBRANCH   9  25
ENDBRANCH   4   6
ENDBRANCH   3   4
ENDBRANCH   2   3
ENDBRANCH   1   2
BRANCH   1  32
ATOM     32  O   UNL A   1      39.557  21.583  26.024  1.00  0.00    -0.374 OA
BRANCH  32  33
ATOM     33  C   UNL A   1      40.757  21.186  26.680  1.00  0.00     0.202 C 
BRANCH  33  34
ATOM     34  C   UNL A   1      41.343  22.004  27.847  1.00  0.00     0.261 C 
BRANCH  34  35
ATOM     35  O   UNL A   1      42.613  22.583  27.532  1.00  0.00    -0.460 OA
BRANCH  35  36
ATOM     36  C   UNL A   1      42.576  23.639  26.669  1.00  0.00     0.338 C 
ATOM     37  O   UNL A   1      42.745  23.615  25.464  1.00  0.00    -0.246 OA
BRANCH  36  38
ATOM     38  C   UNL A   1      41.871  24.718  27.396  1.00  0.00     0.060 A 
ATOM     39  C   UNL A   1      40.906  25.499  26.748  1.00  0.00     0.016 A 
ATOM     40  C   UNL A   1      42.511  25.176  28.560  1.00  0.00     0.016 A 
ATOM     41  C   UNL A   1      40.692  26.800  27.192  1.00  0.00     0.010 A 
ATOM     42  C   UNL A   1      42.309  26.485  28.986  1.00  0.00     0.010 A 
ATOM     43  C   UNL A   1      41.447  27.315  28.266  1.00  0.00    -0.014 A 
BRANCH  43  44
ATOM     44  C   UNL A   1      41.144  28.668  28.741  1.00  0.00     0.031 A 
ATOM     45  C   UNL A   1      42.228  29.623  28.368  1.00  0.00     0.074 A 
ATOM     46  C   UNL A   1      39.990  29.087  29.310  1.00  0.00     0.049 A 
ATOM     47  N   UNL A   1      42.998  30.307  29.149  1.00  0.00    -0.248 NA
ATOM     48  C   UNL A   1      42.612  29.683  26.946  1.00  0.00     0.031 C 
ATOM     49  C   UNL A   1      38.736  28.360  29.504  1.00  0.00     0.029 A 
ATOM     50  N   UNL A   1      39.676  30.329  29.790  1.00  0.00    -0.354 N 
ATOM     51  C   UNL A   1      43.853  31.018  28.309  1.00  0.00     0.074 A 
ATOM     52  C   UNL A   1      43.680  30.475  26.990  1.00  0.00     0.031 C 
ATOM     53  C   UNL A   1      37.750  29.218  29.856  1.00  0.00     0.029 A 
ATOM     54  C   UNL A   1      38.318  30.540  30.026  1.00  0.00     0.049 A 
ATOM     55  H   UNL A   1      40.356  31.021  29.957  1.00  0.00     0.167 HD
ATOM     56  C   UNL A   1      44.488  32.148  28.722  1.00  0.00     0.037 A 
ATOM     57  C   UNL A   1      37.702  31.723  30.290  1.00  0.00     0.037 A 
ATOM     58  C   UNL A   1      44.526  32.229  30.157  1.00  0.00     0.049 A 
ATOM     59  C   UNL A   1      38.744  32.678  30.734  1.00  0.00     0.074 A 
ATOM     60  C   UNL A   1      45.121  31.491  31.161  1.00  0.00     0.029 A 
ATOM     61  N   UNL A   1      43.578  33.003  30.778  1.00  0.00    -0.354 N 
ATOM     62  N   UNL A   1      39.379  32.571  31.866  1.00  0.00    -0.248 NA
ATOM     63  C   UNL A   1      39.421  33.448  29.701  1.00  0.00     0.031 C 
ATOM     64  C   UNL A   1      44.175  31.491  32.228  1.00  0.00     0.029 A 
ATOM     65  C   UNL A   1      43.093  32.279  31.836  1.00  0.00     0.049 A 
ATOM     66  H   UNL A   1      43.298  33.908  30.512  1.00  0.00     0.167 HD
ATOM     67  C   UNL A   1      40.696  32.869  31.557  1.00  0.00     0.074 A 
ATOM     68  C   UNL A   1      40.653  33.453  30.216  1.00  0.00     0.031 C 
ATOM     69  C   UNL A   1      41.727  32.355  32.289  1.00  0.00     0.037 A 
BRANCH  56  70
ATOM     70  C   UNL A   1      44.725  33.350  27.841  1.00  0.00     0.057 A 
ATOM     71  C   UNL A   1      43.792  34.390  27.649  1.00  0.00     0.134 A 
ATOM     72  C   UNL A   1      46.037  33.643  27.426  1.00  0.00     0.134 A 
ATOM     73  F   UNL A   1      42.515  34.296  28.039  1.00  0.00    -0.206 F 
ATOM     74  C   UNL A   1      44.144  35.639  27.134  1.00  0.00     0.040 A 
ATOM     75  C   UNL A   1      46.410  34.907  26.955  1.00  0.00     0.040 A 
ATOM     76  F   UNL A   1      47.017  32.735  27.549  1.00  0.00    -0.206 F 
ATOM     77  C   UNL A   1      45.464  35.915  26.823  1.00  0.00     0.006 A 
ENDBRANCH  56  70
BRANCH  57  78
ATOM     78  C   UNL A   1      36.354  32.183  29.869  1.00  0.00     0.057 A 
ATOM     79  C   UNL A   1      35.937  32.058  28.532  1.00  0.00     0.134 A 
ATOM     80  C   UNL A   1      35.559  33.005  30.683  1.00  0.00     0.134 A 
ATOM     81  F   UNL A   1      36.670  31.373  27.644  1.00  0.00    -0.206 F 
ATOM     82  C   UNL A   1      34.803  32.708  28.032  1.00  0.00     0.040 A 
ATOM     83  C   UNL A   1      34.419  33.665  30.194  1.00  0.00     0.040 A 
ATOM     84  F   UNL A   1      35.902  33.237  31.958  1.00  0.00    -0.206 F 
ATOM     85  C   UNL A   1      34.043  33.524  28.862  1.00  0.00     0.006 A 
ENDBRANCH  57  78
BRANCH  69  86
ATOM     86  C   UNL A   1      41.382  31.620  33.555  1.00  0.00     0.057 A 
ATOM     87  C   UNL A   1      41.474  32.299  34.774  1.00  0.00     0.134 A 
ATOM     88  C   UNL A   1      41.099  30.246  33.614  1.00  0.00     0.134 A 
ATOM     89  F   UNL A   1      41.802  33.600  34.798  1.00  0.00    -0.206 F 
ATOM     90  C   UNL A   1      41.279  31.650  35.995  1.00  0.00     0.040 A 
ATOM     91  C   UNL A   1      40.867  29.591  34.829  1.00  0.00     0.040 A 
ATOM     92  F   UNL A   1      41.093  29.490  32.508  1.00  0.00    -0.206 F 
ATOM     93  C   UNL A   1      40.961  30.295  36.026  1.00  0.00     0.006 A 
ENDBRANCH  69  86
ENDBRANCH  43  44
ENDBRANCH  36  38
ENDBRANCH  35  36
ENDBRANCH  34  35
ENDBRANCH  33  34
ENDBRANCH  32  33
ENDBRANCH   1  32
TORSDOF 19
ENDMDL
MODEL 2
REMARK VINA RESULT:     -11.3      1.492      2.093
REMARK SMILES C[C@@H]1Cc2ccccc2N1C(=O)CSc1ncc(C(=O)OCCOCCOC(=O)c2ccc(-c3c4nc(c(-c5c(F)cccc5F)c5ccc([nH]5)c(-c5c(F)cccc5F)c5nc(c(-c6c(F)cccc6F)c6ccc3[nH]6)C=C5)C=C4)cc2)n1-c1ccc(F)cc1
REMARK SMILES IDX 23 1 22 2 21 3 19 4 20 5 18 6 15 7 16 8 84 9 17 10 14 11
REMARK SMILES IDX 13 12 11 13 12 14 10 15 1 16 2 17 3 18 4 19 9 20 5 21 8 22
REMARK SMILES IDX 6 23 7 24 85 25 86 26 91 27 87 28 90 29 88 30 89 31 24 32
REMARK SMILES IDX 25 33 26 34 27 35 28 36 29 37 30 38 31 39 83 40 32 41 82 42
REMARK SMILES IDX 33 43 34 44 35 45 76 46 36 47 81 48 75 49 77 50 37 51 80 52
REMARK SMILES IDX 74 53 73 54 38 56 64 57 47 58 63 59 48 60 51 61 62 62 78 63
REMARK SMILES IDX 49 64 50 65 61 67 79 68 52 69 39 70 40 71 45 72 41 73 42 74
REMARK SMILES IDX 44 75 46 76 43 77 65 78 66 79 71 80 67 81 68 82 70 83 72 84
REMARK SMILES IDX 69 85 53 86 54 87 59 88 55 89 56 90 58 91 60 92 57 93
REMARK H PARENT 77 55 51 66
REMARK Flexibility Score: inf
ROOT
ATOM      1  C   UNL A   1      39.034  21.219  25.842  1.00  0.00     0.202 C 
ENDROOT
BRANCH   1   2
ATOM      2  C   UNL A   1      37.776  21.151  24.973  1.00  0.00     0.261 C 
BRANCH   2   3
ATOM      3  O   UNL A   1      36.588  21.327  25.748  1.00  0.00    -0.459 OA
BRANCH   3   4
ATOM      4  C   UNL A   1      35.623  22.020  25.099  1.00  0.00     0.357 C 
ATOM      5  O   UNL A   1      35.677  22.363  23.918  1.00  0.00    -0.244 OA
BRANCH   4   6
ATOM      6  C   UNL A   1      34.502  22.237  25.952  1.00  0.00     0.152 A 
ATOM      7  C   UNL A   1      32.389  22.514  26.512  1.00  0.00     0.173 A 
ATOM      8  N   UNL A   1      33.059  23.055  27.503  1.00  0.00    -0.230 NA
ATOM      9  N   UNL A   1      33.216  21.843  25.641  1.00  0.00    -0.282 N 
ATOM     10  C   UNL A   1      34.380  22.865  27.178  1.00  0.00     0.148 A 
BRANCH   7  11
ATOM     11  S   UNL A   1      30.702  22.623  26.224  1.00  0.00    -0.078 SA
BRANCH  11  12
ATOM     12  C   UNL A   1      30.354  24.373  26.049  1.00  0.00     0.178 C 
BRANCH  12  13
ATOM     13  C   UNL A   1      30.844  25.064  24.793  1.00  0.00     0.237 C 
ATOM     14  O   UNL A   1      30.270  24.769  23.732  1.00  0.00    -0.274 OA
BRANCH  13  15
ATOM     15  N   UNL A   1      31.797  26.069  24.796  1.00  0.00    -0.308 N 
ATOM     16  C   UNL A   1      33.523  24.917  23.322  1.00  0.00     0.032 C 
ATOM     17  C   UNL A   1      32.739  26.193  23.644  1.00  0.00     0.092 C 
ATOM     18  C   UNL A   1      33.708  27.345  23.967  1.00  0.00     0.063 C 
ATOM     19  C   UNL A   1      33.208  27.821  25.289  1.00  0.00    -0.022 A 
ATOM     20  C   UNL A   1      32.067  27.128  25.695  1.00  0.00     0.047 A 
ATOM     21  C   UNL A   1      33.767  28.846  26.046  1.00  0.00     0.006 A 
ATOM     22  C   UNL A   1      31.404  27.561  26.831  1.00  0.00     0.026 A 
ATOM     23  C   UNL A   1      33.154  29.197  27.243  1.00  0.00     0.000 A 
ATOM     24  C   UNL A   1      31.968  28.569  27.625  1.00  0.00     0.002 A 
ENDBRANCH  13  15
ENDBRANCH  12  13
ENDBRANCH  11  12
ENDBRANCH   7  11
BRANCH   9  25
ATOM     25  C   UNL A   1      32.863  20.859  24.685  1.00  0.00     0.049 A 
ATOM     26  C   UNL A   1      32.404  21.243  23.425  1.00  0.00     0.030 A 
ATOM     27  C   UNL A   1      33.045  19.506  25.003  1.00  0.00     0.030 A 
ATOM     28  C   UNL A   1      32.153  20.259  22.468  1.00  0.00     0.041 A 
ATOM     29  C   UNL A   1      32.812  18.530  24.034  1.00  0.00     0.041 A 
ATOM     30  C   UNL A   1      32.369  18.917  22.776  1.00  0.00     0.123 A 
ATOM     31  F   UNL A   1      32.142  17.982  21.843  1.00  0.00    -0.207 F 
ENDBRANCH   9  25
ENDBRANCH   4   6
ENDBRANCH   3   4
ENDBRANCH   2   3
ENDBRANCH   1   2
BRANCH   1  32
ATOM     32  O   UNL A   1      39.861  20.081  26.024  1.00  0.00    -0.374 OA
BRANCH  32  33
ATOM     33  C   UNL A   1      40.779  20.092  27.111  1.00  0.00     0.202 C 
BRANCH  33  34
ATOM     34  C   UNL A   1      42.073  20.928  27.060  1.00  0.00     0.261 C 
BRANCH  34  35
ATOM     35  O   UNL A   1      41.931  22.205  27.692  1.00  0.00    -0.460 OA
BRANCH  35  36
ATOM     36  C   UNL A   1      42.002  23.281  26.856  1.00  0.00     0.338 C 
ATOM     37  O   UNL A   1      42.166  23.271  25.650  1.00  0.00    -0.246 OA
BRANCH  36  38
ATOM     38  C   UNL A   1      41.417  24.409  27.614  1.00  0.00     0.060 A 
ATOM     39  C   UNL A   1      40.323  25.118  27.101  1.00  0.00     0.016 A 
ATOM     40  C   UNL A   1      42.253  24.974  28.592  1.00  0.00     0.016 A 
ATOM     41  C   UNL A   1      40.159  26.449  27.469  1.00  0.00     0.010 A 
ATOM     42  C   UNL A   1      42.096  26.313  28.939  1.00  0.00     0.010 A 
ATOM     43  C   UNL A   1      41.089  27.065  28.332  1.00  0.00    -0.014 A 
BRANCH  43  44
ATOM     44  C   UNL A   1      40.842  28.450  28.743  1.00  0.00     0.031 A 
ATOM     45  C   UNL A   1      41.942  29.350  28.289  1.00  0.00     0.074 A 
ATOM     46  C   UNL A   1      39.719  28.935  29.323  1.00  0.00     0.049 A 
ATOM     47  N   UNL A   1      42.755  30.049  29.010  1.00  0.00    -0.248 NA
ATOM     48  C   UNL A   1      42.283  29.323  26.856  1.00  0.00     0.031 C 
ATOM     49  C   UNL A   1      38.449  28.259  29.592  1.00  0.00     0.029 A 
ATOM     50  N   UNL A   1      39.457  30.209  29.746  1.00  0.00    -0.354 N 
ATOM     51  C   UNL A   1      43.605  30.688  28.109  1.00  0.00     0.074 A 
ATOM     52  C   UNL A   1      43.376  30.083  26.826  1.00  0.00     0.031 C 
ATOM     53  C   UNL A   1      37.501  29.164  29.926  1.00  0.00     0.029 A 
ATOM     54  C   UNL A   1      38.113  30.475  30.010  1.00  0.00     0.049 A 
ATOM     55  H   UNL A   1      40.162  30.887  29.855  1.00  0.00     0.167 HD
ATOM     56  C   UNL A   1      44.286  31.817  28.443  1.00  0.00     0.037 A 
ATOM     57  C   UNL A   1      37.541  31.689  30.229  1.00  0.00     0.037 A 
ATOM     58  C   UNL A   1      44.370  31.972  29.871  1.00  0.00     0.049 A 
ATOM     59  C   UNL A   1      38.625  32.632  30.590  1.00  0.00     0.074 A 
ATOM     60  C   UNL A   1      44.974  31.268  30.894  1.00  0.00     0.029 A 
ATOM     61  N   UNL A   1      43.466  32.806  30.477  1.00  0.00    -0.354 N 
ATOM     62  N   UNL A   1      39.291  32.564  31.708  1.00  0.00    -0.248 NA
ATOM     63  C   UNL A   1      39.292  33.326  29.499  1.00  0.00     0.031 C 
ATOM     64  C   UNL A   1      44.062  31.353  31.987  1.00  0.00     0.029 A 
ATOM     65  C   UNL A   1      42.992  32.154  31.585  1.00  0.00     0.049 A 
ATOM     66  H   UNL A   1      43.205  33.705  30.172  1.00  0.00     0.167 HD
ATOM     67  C   UNL A   1      40.607  32.804  31.346  1.00  0.00     0.074 A 
ATOM     68  C   UNL A   1      40.540  33.318  29.977  1.00  0.00     0.031 C 
ATOM     69  C   UNL A   1      41.644  32.297  32.074  1.00  0.00     0.037 A 
BRANCH  56  70
ATOM     70  C   UNL A   1      44.532  32.963  27.494  1.00  0.00     0.057 A 
ATOM     71  C   UNL A   1      43.795  34.166  27.493  1.00  0.00     0.134 A 
ATOM     72  C   UNL A   1      45.739  33.005  26.773  1.00  0.00     0.134 A 
ATOM     73  F   UNL A   1      42.653  34.314  28.175  1.00  0.00    -0.206 F 
ATOM     74  C   UNL A   1      44.246  35.331  26.870  1.00  0.00     0.040 A 
ATOM     75  C   UNL A   1      46.223  34.180  26.187  1.00  0.00     0.040 A 
ATOM     76  F   UNL A   1      46.529  31.923  26.690  1.00  0.00    -0.206 F 
ATOM     77  C   UNL A   1      45.483  35.353  26.249  1.00  0.00     0.006 A 
ENDBRANCH  56  70
BRANCH  57  78
ATOM     78  C   UNL A   1      36.196  32.169  29.823  1.00  0.00     0.057 A 
ATOM     79  C   UNL A   1      35.740  32.000  28.504  1.00  0.00     0.134 A 
ATOM     80  C   UNL A   1      35.446  33.045  30.621  1.00  0.00     0.134 A 
ATOM     81  F   UNL A   1      36.430  31.258  27.626  1.00  0.00    -0.206 F 
ATOM     82  C   UNL A   1      34.611  32.661  28.006  1.00  0.00     0.040 A 
ATOM     83  C   UNL A   1      34.311  33.717  30.135  1.00  0.00     0.040 A 
ATOM     84  F   UNL A   1      35.829  33.321  31.877  1.00  0.00    -0.206 F 
ATOM     85  C   UNL A   1      33.896  33.531  28.820  1.00  0.00     0.006 A 
ENDBRANCH  57  78
BRANCH  69  86
ATOM     86  C   UNL A   1      41.315  31.639  33.386  1.00  0.00     0.057 A 
ATOM     87  C   UNL A   1      41.468  32.376  34.564  1.00  0.00     0.134 A 
ATOM     88  C   UNL A   1      40.990  30.281  33.526  1.00  0.00     0.134 A 
ATOM     89  F   UNL A   1      41.838  33.665  34.510  1.00  0.00    -0.206 F 
ATOM     90  C   UNL A   1      41.291  31.799  35.823  1.00  0.00     0.040 A 
ATOM     91  C   UNL A   1      40.777  29.698  34.779  1.00  0.00     0.040 A 
ATOM     92  F   UNL A   1      40.925  29.470  32.461  1.00  0.00    -0.206 F 
ATOM     93  C   UNL A   1      40.931  30.458  35.934  1.00  0.00     0.006 A 
ENDBRANCH  69  86
ENDBRANCH  43  44
ENDBRANCH  36  38
ENDBRANCH  35  36
ENDBRANCH  34  35
ENDBRANCH  33  34
ENDBRANCH  32  33
ENDBRANCH   1  32
TORSDOF 19
ENDMDL
MODEL 3
REMARK VINA RESULT:     -11.2      3.643      8.552
REMARK SMILES C[C@@H]1Cc2ccccc2N1C(=O)CSc1ncc(C(=O)OCCOCCOC(=O)c2ccc(-c3c4nc(c(-c5c(F)cccc5F)c5ccc([nH]5)c(-c5c(F)cccc5F)c5nc(c(-c6c(F)cccc6F)c6ccc3[nH]6)C=C5)C=C4)cc2)n1-c1ccc(F)cc1
REMARK SMILES IDX 23 1 22 2 21 3 19 4 20 5 18 6 15 7 16 8 84 9 17 10 14 11
REMARK SMILES IDX 13 12 11 13 12 14 10 15 1 16 2 17 3 18 4 19 9 20 5 21 8 22
REMARK SMILES IDX 6 23 7 24 85 25 86 26 91 27 87 28 90 29 88 30 89 31 24 32
REMARK SMILES IDX 25 33 26 34 27 35 28 36 29 37 30 38 31 39 83 40 32 41 82 42
REMARK SMILES IDX 33 43 34 44 35 45 76 46 36 47 81 48 75 49 77 50 37 51 80 52
REMARK SMILES IDX 74 53 73 54 38 56 64 57 47 58 63 59 48 60 51 61 62 62 78 63
REMARK SMILES IDX 49 64 50 65 61 67 79 68 52 69 39 70 40 71 45 72 41 73 42 74
REMARK SMILES IDX 44 75 46 76 43 77 65 78 66 79 71 80 67 81 68 82 70 83 72 84
REMARK SMILES IDX 69 85 53 86 54 87 59 88 55 89 56 90 58 91 60 92 57 93
REMARK H PARENT 77 55 51 66
REMARK Flexibility Score: inf
ROOT
ATOM      1  C   UNL A   1      34.672  30.363  27.564  1.00  0.00     0.202 C 
ENDROOT
BRANCH   1   2
ATOM      2  C   UNL A   1      33.729  29.725  26.541  1.00  0.00     0.261 C 
BRANCH   2   3
ATOM      3  O   UNL A   1      32.377  29.707  27.008  1.00  0.00    -0.459 OA
BRANCH   3   4
ATOM      4  C   UNL A   1      31.739  28.541  26.752  1.00  0.00     0.357 C 
ATOM      5  O   UNL A   1      31.210  27.827  27.603  1.00  0.00    -0.244 OA
BRANCH   4   6
ATOM      6  C   UNL A   1      31.702  28.288  25.350  1.00  0.00     0.152 A 
ATOM      7  C   UNL A   1      32.293  27.403  23.420  1.00  0.00     0.173 A 
ATOM      8  N   UNL A   1      31.647  28.497  23.089  1.00  0.00    -0.230 NA
ATOM      9  N   UNL A   1      32.193  27.137  24.767  1.00  0.00    -0.282 N 
ATOM     10  C   UNL A   1      31.249  29.045  24.285  1.00  0.00     0.148 A 
BRANCH   7  11
ATOM     11  S   UNL A   1      33.221  26.398  22.386  1.00  0.00    -0.078 SA
BRANCH  11  12
ATOM     12  C   UNL A   1      32.367  24.822  22.352  1.00  0.00     0.178 C 
BRANCH  12  13
ATOM     13  C   UNL A   1      33.181  23.590  22.013  1.00  0.00     0.237 C 
ATOM     14  O   UNL A   1      33.518  23.451  20.826  1.00  0.00    -0.274 OA
BRANCH  13  15
ATOM     15  N   UNL A   1      33.653  22.700  22.964  1.00  0.00    -0.308 N 
ATOM     16  C   UNL A   1      31.400  21.910  23.849  1.00  0.00     0.032 C 
ATOM     17  C   UNL A   1      32.806  21.538  23.368  1.00  0.00     0.092 C 
ATOM     18  C   UNL A   1      33.564  20.783  24.474  1.00  0.00     0.063 C 
ATOM     19  C   UNL A   1      34.826  21.569  24.590  1.00  0.00    -0.022 A 
ATOM     20  C   UNL A   1      34.882  22.606  23.658  1.00  0.00     0.047 A 
ATOM     21  C   UNL A   1      35.859  21.316  25.488  1.00  0.00     0.006 A 
ATOM     22  C   UNL A   1      36.058  23.328  23.548  1.00  0.00     0.026 A 
ATOM     23  C   UNL A   1      36.991  22.122  25.441  1.00  0.00     0.000 A 
ATOM     24  C   UNL A   1      37.097  23.112  24.464  1.00  0.00     0.002 A 
ENDBRANCH  13  15
ENDBRANCH  12  13
ENDBRANCH  11  12
ENDBRANCH   7  11
BRANCH   9  25
ATOM     25  C   UNL A   1      32.430  25.910  25.433  1.00  0.00     0.049 A 
ATOM     26  C   UNL A   1      33.733  25.532  25.758  1.00  0.00     0.030 A 
ATOM     27  C   UNL A   1      31.336  25.123  25.818  1.00  0.00     0.030 A 
ATOM     28  C   UNL A   1      33.936  24.367  26.498  1.00  0.00     0.041 A 
ATOM     29  C   UNL A   1      31.545  23.971  26.575  1.00  0.00     0.041 A 
ATOM     30  C   UNL A   1      32.844  23.605  26.909  1.00  0.00     0.123 A 
ATOM     31  F   UNL A   1      33.048  22.497  27.635  1.00  0.00    -0.207 F 
ENDBRANCH   9  25
ENDBRANCH   4   6
ENDBRANCH   3   4
ENDBRANCH   2   3
ENDBRANCH   1   2
BRANCH   1  32
ATOM     32  O   UNL A   1      34.863  31.768  27.608  1.00  0.00    -0.374 OA
BRANCH  32  33
ATOM     33  C   UNL A   1      34.198  32.498  28.634  1.00  0.00     0.202 C 
BRANCH  33  34
ATOM     34  C   UNL A   1      34.916  33.610  29.422  1.00  0.00     0.261 C 
BRANCH  34  35
ATOM     35  O   UNL A   1      36.232  33.230  29.838  1.00  0.00    -0.460 OA
BRANCH  35  36
ATOM     36  C   UNL A   1      36.286  32.232  30.765  1.00  0.00     0.338 C 
ATOM     37  O   UNL A   1      35.519  32.040  31.691  1.00  0.00    -0.246 OA
BRANCH  36  38
ATOM     38  C   UNL A   1      37.172  31.199  30.183  1.00  0.00     0.060 A 
ATOM     39  C   UNL A   1      36.891  29.839  30.361  1.00  0.00     0.016 A 
ATOM     40  C   UNL A   1      38.467  31.635  29.855  1.00  0.00     0.016 A 
ATOM     41  C   UNL A   1      37.947  28.933  30.349  1.00  0.00     0.010 A 
ATOM     42  C   UNL A   1      39.521  30.727  29.867  1.00  0.00     0.010 A 
ATOM     43  C   UNL A   1      39.270  29.388  30.175  1.00  0.00    -0.014 A 
BRANCH  43  44
ATOM     44  C   UNL A   1      40.343  28.392  30.106  1.00  0.00     0.031 A 
ATOM     45  C   UNL A   1      40.954  28.168  31.449  1.00  0.00     0.074 A 
ATOM     46  C   UNL A   1      40.678  27.635  29.036  1.00  0.00     0.049 A 
ATOM     47  N   UNL A   1      42.171  28.386  31.823  1.00  0.00    -0.248 NA
ATOM     48  C   UNL A   1      40.041  27.822  32.553  1.00  0.00     0.031 C 
ATOM     49  C   UNL A   1      40.019  27.529  27.734  1.00  0.00     0.029 A 
ATOM     50  N   UNL A   1      41.685  26.717  28.920  1.00  0.00    -0.354 N 
ATOM     51  C   UNL A   1      42.220  28.042  33.172  1.00  0.00     0.074 A 
ATOM     52  C   UNL A   1      40.861  27.861  33.601  1.00  0.00     0.031 C 
ATOM     53  C   UNL A   1      40.504  26.464  27.052  1.00  0.00     0.029 A 
ATOM     54  C   UNL A   1      41.587  25.875  27.812  1.00  0.00     0.049 A 
ATOM     55  H   UNL A   1      42.422  26.654  29.569  1.00  0.00     0.167 HD
ATOM     56  C   UNL A   1      43.390  27.721  33.788  1.00  0.00     0.037 A 
ATOM     57  C   UNL A   1      42.310  24.749  27.567  1.00  0.00     0.037 A 
ATOM     58  C   UNL A   1      44.521  28.206  33.044  1.00  0.00     0.049 A 
ATOM     59  C   UNL A   1      43.517  24.800  28.423  1.00  0.00     0.074 A 
ATOM     60  C   UNL A   1      45.004  29.456  32.709  1.00  0.00     0.029 A 
ATOM     61  N   UNL A   1      45.167  27.324  32.216  1.00  0.00    -0.354 N 
ATOM     62  N   UNL A   1      44.485  25.654  28.247  1.00  0.00    -0.248 NA
ATOM     63  C   UNL A   1      43.405  24.240  29.761  1.00  0.00     0.031 C 
ATOM     64  C   UNL A   1      45.522  29.308  31.389  1.00  0.00     0.029 A 
ATOM     65  C   UNL A   1      45.382  27.969  31.025  1.00  0.00     0.049 A 
ATOM     66  H   UNL A   1      45.426  26.401  32.435  1.00  0.00     0.167 HD
ATOM     67  C   UNL A   1      44.821  26.070  29.526  1.00  0.00     0.074 A 
ATOM     68  C   UNL A   1      44.155  25.125  30.423  1.00  0.00     0.031 C 
ATOM     69  C   UNL A   1      45.364  27.302  29.748  1.00  0.00     0.037 A 
BRANCH  56  70
ATOM     70  C   UNL A   1      43.520  26.647  34.840  1.00  0.00     0.057 A 
ATOM     71  C   UNL A   1      43.642  25.270  34.559  1.00  0.00     0.134 A 
ATOM     72  C   UNL A   1      43.855  27.019  36.155  1.00  0.00     0.134 A 
ATOM     73  F   UNL A   1      43.415  24.757  33.344  1.00  0.00    -0.206 F 
ATOM     74  C   UNL A   1      44.109  24.345  35.494  1.00  0.00     0.040 A 
ATOM     75  C   UNL A   1      44.371  26.107  37.083  1.00  0.00     0.040 A 
ATOM     76  F   UNL A   1      43.774  28.298  36.551  1.00  0.00    -0.206 F 
ATOM     77  C   UNL A   1      44.514  24.767  36.749  1.00  0.00     0.006 A 
ENDBRANCH  56  70
BRANCH  57  78
ATOM     78  C   UNL A   1      41.873  23.491  26.911  1.00  0.00     0.057 A 
ATOM     79  C   UNL A   1      40.635  22.905  27.230  1.00  0.00     0.134 A 
ATOM     80  C   UNL A   1      42.760  22.684  26.182  1.00  0.00     0.134 A 
ATOM     81  F   UNL A   1      39.748  23.550  28.001  1.00  0.00    -0.206 F 
ATOM     82  C   UNL A   1      40.297  21.602  26.851  1.00  0.00     0.040 A 
ATOM     83  C   UNL A   1      42.435  21.373  25.795  1.00  0.00     0.040 A 
ATOM     84  F   UNL A   1      43.989  23.126  25.877  1.00  0.00    -0.206 F 
ATOM     85  C   UNL A   1      41.203  20.825  26.138  1.00  0.00     0.006 A 
ENDBRANCH  57  78
BRANCH  69  86
ATOM     86  C   UNL A   1      45.768  28.110  28.545  1.00  0.00     0.057 A 
ATOM     87  C   UNL A   1      44.829  28.968  27.966  1.00  0.00     0.134 A 
ATOM     88  C   UNL A   1      46.992  27.963  27.874  1.00  0.00     0.134 A 
ATOM     89  F   UNL A   1      43.614  29.111  28.519  1.00  0.00    -0.206 F 
ATOM     90  C   UNL A   1      45.096  29.663  26.784  1.00  0.00     0.040 A 
ATOM     91  C   UNL A   1      47.286  28.679  26.708  1.00  0.00     0.040 A 
ATOM     92  F   UNL A   1      47.913  27.086  28.294  1.00  0.00    -0.206 F 
ATOM     93  C   UNL A   1      46.332  29.530  26.158  1.00  0.00     0.006 A 
ENDBRANCH  69  86
ENDBRANCH  43  44
ENDBRANCH  36  38
ENDBRANCH  35  36
ENDBRANCH  34  35
ENDBRANCH  33  34
ENDBRANCH  32  33
ENDBRANCH   1  32
TORSDOF 19
ENDMDL
