MODEL 1
REMARK VINA RESULT:     -11.6      0.000      0.000
REMARK SMILES CS(=O)(=O)c1ccc(-n2nc(C(F)(F)F)cc2-c2ccc(CC(=O)OCCOCCOC(=O)c3ccc(-c4c5nc(c(-c6c(F)cccc6F)c6ccc([nH]6)c(-c6c(F)cccc6F)c6nc(c(-c7c(F)cccc7F)c7ccc4[nH]7)C=C6)C=C5)cc3)cc2)cc1
REMARK SMILES IDX 27 1 26 2 25 3 23 4 24 5 22 6 21 7 18 8 19 9 89 10 20 11
REMARK SMILES IDX 88 12 17 13 9 14 10 15 11 16 16 17 8 18 5 19 6 20 91 21 7 22
REMARK SMILES IDX 90 23 2 24 1 25 3 26 4 27 12 28 13 29 14 30 15 31 28 32
REMARK SMILES IDX 29 33 30 34 31 35 32 36 33 37 34 38 35 39 87 40 36 41 86 42
REMARK SMILES IDX 37 43 38 44 39 45 80 46 40 47 85 48 79 49 81 50 41 51 84 52
REMARK SMILES IDX 78 53 77 54 42 56 68 57 51 58 67 59 52 60 55 61 66 62 82 63
REMARK SMILES IDX 53 64 54 65 65 67 83 68 56 69 43 70 44 71 49 72 45 73 46 74
REMARK SMILES IDX 48 75 50 76 47 77 69 78 70 79 75 80 71 81 72 82 74 83 76 84
REMARK SMILES IDX 73 85 57 86 58 87 63 88 59 89 60 90 62 91 64 92 61 93
REMARK H PARENT 81 55 55 66
REMARK Flexibility Score: inf
ROOT
ATOM      1  C   UNL A   1      33.497  28.575  24.254  1.00  0.00     0.202 C 
ENDROOT
BRANCH   1   2
ATOM      2  C   UNL A   1      32.794  28.546  22.890  1.00  0.00     0.261 C 
BRANCH   2   3
ATOM      3  O   UNL A   1      31.476  27.966  22.868  1.00  0.00    -0.463 OA
BRANCH   3   4
ATOM      4  C   UNL A   1      31.442  26.665  22.474  1.00  0.00     0.310 C 
ATOM      5  O   UNL A   1      31.398  26.301  21.301  1.00  0.00    -0.252 OA
BRANCH   4   6
ATOM      6  C   UNL A   1      31.406  25.648  23.589  1.00  0.00     0.158 C 
BRANCH   6   7
ATOM      7  C   UNL A   1      32.656  24.909  24.013  1.00  0.00    -0.037 A 
ATOM      8  C   UNL A   1      35.148  23.830  24.825  1.00  0.00     0.000 A 
ATOM      9  C   UNL A   1      34.197  24.235  25.770  1.00  0.00     0.010 A 
ATOM     10  C   UNL A   1      34.844  23.981  23.467  1.00  0.00     0.010 A 
ATOM     11  C   UNL A   1      32.962  24.753  25.372  1.00  0.00     0.005 A 
ATOM     12  C   UNL A   1      33.608  24.508  23.065  1.00  0.00     0.005 A 
BRANCH   8  13
ATOM     13  C   UNL A   1      36.444  23.286  25.254  1.00  0.00     0.075 A 
ATOM     14  N   UNL A   1      36.758  21.937  25.462  1.00  0.00    -0.233 N 
ATOM     15  N   UNL A   1      37.964  21.796  26.074  1.00  0.00    -0.163 NA
ATOM     16  C   UNL A   1      38.491  23.033  26.124  1.00  0.00     0.167 A 
ATOM     17  C   UNL A   1      37.561  23.991  25.661  1.00  0.00     0.064 A 
BRANCH  14  18
ATOM     18  C   UNL A   1      36.002  20.779  25.101  1.00  0.00     0.065 A 
ATOM     19  C   UNL A   1      34.546  18.436  24.469  1.00  0.00     0.067 A 
ATOM     20  C   UNL A   1      35.926  18.427  24.569  1.00  0.00     0.022 A 
ATOM     21  C   UNL A   1      33.873  19.647  24.627  1.00  0.00     0.022 A 
ATOM     22  C   UNL A   1      36.655  19.574  24.880  1.00  0.00     0.030 A 
ATOM     23  C   UNL A   1      34.601  20.811  24.984  1.00  0.00     0.030 A 
BRANCH  19  24
ATOM     24  S   UNL A   1      33.720  16.870  24.225  1.00  0.00     0.175 S 
ATOM     25  C   UNL A   1      32.448  16.750  25.459  1.00  0.00     0.163 C 
ATOM     26  O   UNL A   1      34.680  15.831  24.510  1.00  0.00    -0.224 OA
ATOM     27  O   UNL A   1      33.084  16.945  22.917  1.00  0.00    -0.224 OA
ENDBRANCH  19  24
ENDBRANCH  14  18
BRANCH  16  28
ATOM     28  C   UNL A   1      39.867  23.333  26.654  1.00  0.00     0.435 C 
ATOM     29  F   UNL A   1      40.000  23.088  27.984  1.00  0.00    -0.164 F 
ATOM     30  F   UNL A   1      40.835  22.616  26.020  1.00  0.00    -0.164 F 
ATOM     31  F   UNL A   1      40.198  24.644  26.477  1.00  0.00    -0.164 F 
ENDBRANCH  16  28
ENDBRANCH   8  13
ENDBRANCH   6   7
ENDBRANCH   4   6
ENDBRANCH   3   4
ENDBRANCH   2   3
ENDBRANCH   1   2
BRANCH   1  32
ATOM     32  O   UNL A   1      32.713  28.662  25.432  1.00  0.00    -0.374 OA
BRANCH  32  33
ATOM     33  C   UNL A   1      32.164  29.924  25.774  1.00  0.00     0.202 C 
BRANCH  33  34
ATOM     34  C   UNL A   1      32.792  30.723  26.909  1.00  0.00     0.261 C 
BRANCH  34  35
ATOM     35  O   UNL A   1      34.232  30.791  26.915  1.00  0.00    -0.460 OA
BRANCH  35  36
ATOM     36  C   UNL A   1      34.762  31.719  27.769  1.00  0.00     0.338 C 
ATOM     37  O   UNL A   1      34.657  32.929  27.678  1.00  0.00    -0.246 OA
BRANCH  36  38
ATOM     38  C   UNL A   1      35.782  31.059  28.622  1.00  0.00     0.060 A 
ATOM     39  C   UNL A   1      36.859  31.871  28.997  1.00  0.00     0.016 A 
ATOM     40  C   UNL A   1      35.906  29.669  28.646  1.00  0.00     0.016 A 
ATOM     41  C   UNL A   1      38.126  31.311  29.105  1.00  0.00     0.010 A 
ATOM     42  C   UNL A   1      37.182  29.120  28.736  1.00  0.00     0.010 A 
ATOM     43  C   UNL A   1      38.312  29.949  28.839  1.00  0.00    -0.014 A 
BRANCH  43  44
ATOM     44  C   UNL A   1      39.636  29.342  29.048  1.00  0.00     0.031 A 
ATOM     45  C   UNL A   1      39.914  29.377  30.484  1.00  0.00     0.074 A 
ATOM     46  C   UNL A   1      40.557  28.814  28.210  1.00  0.00     0.049 A 
ATOM     47  N   UNL A   1      40.580  30.324  31.053  1.00  0.00    -0.248 NA
ATOM     48  C   UNL A   1      39.153  28.517  31.393  1.00  0.00     0.031 C 
ATOM     49  C   UNL A   1      40.508  28.697  26.775  1.00  0.00     0.029 A 
ATOM     50  N   UNL A   1      41.768  28.224  28.475  1.00  0.00    -0.354 N 
ATOM     51  C   UNL A   1      40.552  29.990  32.388  1.00  0.00     0.074 A 
ATOM     52  C   UNL A   1      39.429  29.107  32.557  1.00  0.00     0.031 C 
ATOM     53  C   UNL A   1      41.442  27.843  26.304  1.00  0.00     0.029 A 
ATOM     54  C   UNL A   1      42.301  27.481  27.407  1.00  0.00     0.049 A 
ATOM     55  H   UNL A   1      42.226  28.313  29.342  1.00  0.00     0.167 HD
ATOM     56  C   UNL A   1      41.693  30.111  33.113  1.00  0.00     0.037 A 
ATOM     57  C   UNL A   1      43.425  26.715  27.368  1.00  0.00     0.037 A 
ATOM     58  C   UNL A   1      42.637  31.004  32.468  1.00  0.00     0.049 A 
ATOM     59  C   UNL A   1      44.326  27.238  28.415  1.00  0.00     0.074 A 
ATOM     60  C   UNL A   1      42.571  32.287  31.951  1.00  0.00     0.029 A 
ATOM     61  N   UNL A   1      43.778  30.455  31.935  1.00  0.00    -0.354 N 
ATOM     62  N   UNL A   1      44.953  28.375  28.302  1.00  0.00    -0.248 NA
ATOM     63  C   UNL A   1      44.115  26.760  29.771  1.00  0.00     0.031 C 
ATOM     64  C   UNL A   1      43.407  32.279  30.795  1.00  0.00     0.029 A 
ATOM     65  C   UNL A   1      43.999  31.023  30.706  1.00  0.00     0.049 A 
ATOM     66  H   UNL A   1      44.341  29.771  32.362  1.00  0.00     0.167 HD
ATOM     67  C   UNL A   1      44.759  28.982  29.530  1.00  0.00     0.074 A 
ATOM     68  C   UNL A   1      44.310  27.910  30.421  1.00  0.00     0.031 C 
ATOM     69  C   UNL A   1      44.675  30.340  29.630  1.00  0.00     0.037 A 
BRANCH  56  70
ATOM     70  C   UNL A   1      42.106  29.063  34.112  1.00  0.00     0.057 A 
ATOM     71  C   UNL A   1      42.249  27.744  33.665  1.00  0.00     0.134 A 
ATOM     72  C   UNL A   1      42.097  29.223  35.518  1.00  0.00     0.134 A 
ATOM     73  F   UNL A   1      42.242  27.461  32.354  1.00  0.00    -0.206 F 
ATOM     74  C   UNL A   1      42.303  26.662  34.548  1.00  0.00     0.040 A 
ATOM     75  C   UNL A   1      42.214  28.157  36.407  1.00  0.00     0.040 A 
ATOM     76  F   UNL A   1      41.869  30.391  36.126  1.00  0.00    -0.206 F 
ATOM     77  C   UNL A   1      42.281  26.865  35.923  1.00  0.00     0.006 A 
ENDBRANCH  56  70
BRANCH  57  78
ATOM     78  C   UNL A   1      43.705  25.436  26.659  1.00  0.00     0.057 A 
ATOM     79  C   UNL A   1      44.498  25.410  25.495  1.00  0.00     0.134 A 
ATOM     80  C   UNL A   1      43.476  24.187  27.256  1.00  0.00     0.134 A 
ATOM     81  F   UNL A   1      44.793  26.544  24.843  1.00  0.00    -0.206 F 
ATOM     82  C   UNL A   1      45.085  24.233  25.004  1.00  0.00     0.040 A 
ATOM     83  C   UNL A   1      44.050  23.003  26.769  1.00  0.00     0.040 A 
ATOM     84  F   UNL A   1      42.759  24.083  28.381  1.00  0.00    -0.206 F 
ATOM     85  C   UNL A   1      44.880  23.026  25.657  1.00  0.00     0.006 A 
ENDBRANCH  57  78
BRANCH  69  86
ATOM     86  C   UNL A   1      45.139  31.171  28.464  1.00  0.00     0.057 A 
ATOM     87  C   UNL A   1      44.401  31.406  27.293  1.00  0.00     0.134 A 
ATOM     88  C   UNL A   1      46.352  31.858  28.595  1.00  0.00     0.134 A 
ATOM     89  F   UNL A   1      43.183  30.875  27.117  1.00  0.00    -0.206 F 
ATOM     90  C   UNL A   1      44.880  32.248  26.281  1.00  0.00     0.040 A 
ATOM     91  C   UNL A   1      46.822  32.728  27.610  1.00  0.00     0.040 A 
ATOM     92  F   UNL A   1      47.088  31.721  29.710  1.00  0.00    -0.206 F 
ATOM     93  C   UNL A   1      46.092  32.915  26.441  1.00  0.00     0.006 A 
ENDBRANCH  69  86
ENDBRANCH  43  44
ENDBRANCH  36  38
ENDBRANCH  35  36
ENDBRANCH  34  35
ENDBRANCH  33  34
ENDBRANCH  32  33
ENDBRANCH   1  32
TORSDOF 19
ENDMDL
MODEL 2
REMARK VINA RESULT:     -10.9      4.244      7.886
REMARK SMILES CS(=O)(=O)c1ccc(-n2nc(C(F)(F)F)cc2-c2ccc(CC(=O)OCCOCCOC(=O)c3ccc(-c4c5nc(c(-c6c(F)cccc6F)c6ccc([nH]6)c(-c6c(F)cccc6F)c6nc(c(-c7c(F)cccc7F)c7ccc4[nH]7)C=C6)C=C5)cc3)cc2)cc1
REMARK SMILES IDX 27 1 26 2 25 3 23 4 24 5 22 6 21 7 18 8 19 9 89 10 20 11
REMARK SMILES IDX 88 12 17 13 9 14 10 15 11 16 16 17 8 18 5 19 6 20 91 21 7 22
REMARK SMILES IDX 90 23 2 24 1 25 3 26 4 27 12 28 13 29 14 30 15 31 28 32
REMARK SMILES IDX 29 33 30 34 31 35 32 36 33 37 34 38 35 39 87 40 36 41 86 42
REMARK SMILES IDX 37 43 38 44 39 45 80 46 40 47 85 48 79 49 81 50 41 51 84 52
REMARK SMILES IDX 78 53 77 54 42 56 68 57 51 58 67 59 52 60 55 61 66 62 82 63
REMARK SMILES IDX 53 64 54 65 65 67 83 68 56 69 43 70 44 71 49 72 45 73 46 74
REMARK SMILES IDX 48 75 50 76 47 77 69 78 70 79 75 80 71 81 72 82 74 83 76 84
REMARK SMILES IDX 73 85 57 86 58 87 63 88 59 89 60 90 62 91 64 92 61 93
REMARK H PARENT 81 55 55 66
REMARK Flexibility Score: inf
ROOT
ATOM      1  C   UNL A   1      34.543  35.094  29.110  1.00  0.00     0.202 C 
ENDROOT
BRANCH   1   2
ATOM      2  C   UNL A   1      34.284  34.264  27.846  1.00  0.00     0.261 C 
BRANCH   2   3
ATOM      3  O   UNL A   1      33.574  33.025  28.035  1.00  0.00    -0.463 OA
BRANCH   3   4
ATOM      4  C   UNL A   1      34.313  32.037  28.606  1.00  0.00     0.310 C 
ATOM      5  O   UNL A   1      34.505  31.931  29.815  1.00  0.00    -0.252 OA
BRANCH   4   6
ATOM      6  C   UNL A   1      34.957  31.068  27.645  1.00  0.00     0.158 C 
BRANCH   6   7
ATOM      7  C   UNL A   1      34.187  29.892  27.086  1.00  0.00    -0.037 A 
ATOM      8  C   UNL A   1      32.855  27.513  26.311  1.00  0.00     0.000 A 
ATOM      9  C   UNL A   1      32.234  28.443  27.154  1.00  0.00     0.010 A 
ATOM     10  C   UNL A   1      34.155  27.780  25.867  1.00  0.00     0.010 A 
ATOM     11  C   UNL A   1      32.884  29.623  27.525  1.00  0.00     0.005 A 
ATOM     12  C   UNL A   1      34.812  28.960  26.245  1.00  0.00     0.005 A 
BRANCH   8  13
ATOM     13  C   UNL A   1      32.164  26.275  25.926  1.00  0.00     0.075 A 
ATOM     14  N   UNL A   1      31.011  26.170  25.136  1.00  0.00    -0.233 N 
ATOM     15  N   UNL A   1      30.503  24.909  25.164  1.00  0.00    -0.163 NA
ATOM     16  C   UNL A   1      31.401  24.172  25.843  1.00  0.00     0.167 A 
ATOM     17  C   UNL A   1      32.427  24.991  26.366  1.00  0.00     0.064 A 
BRANCH  14  18
ATOM     18  C   UNL A   1      30.378  27.177  24.345  1.00  0.00     0.065 A 
ATOM     19  C   UNL A   1      29.056  29.189  22.858  1.00  0.00     0.067 A 
ATOM     20  C   UNL A   1      28.378  28.086  23.347  1.00  0.00     0.022 A 
ATOM     21  C   UNL A   1      30.434  29.269  23.058  1.00  0.00     0.022 A 
ATOM     22  C   UNL A   1      29.018  27.088  24.081  1.00  0.00     0.030 A 
ATOM     23  C   UNL A   1      31.086  28.281  23.838  1.00  0.00     0.030 A 
BRANCH  19  24
ATOM     24  S   UNL A   1      28.094  30.475  22.073  1.00  0.00     0.175 S 
ATOM     25  C   UNL A   1      29.025  31.982  22.207  1.00  0.00     0.163 C 
ATOM     26  O   UNL A   1      26.896  30.652  22.857  1.00  0.00    -0.224 OA
ATOM     27  O   UNL A   1      28.005  30.114  20.665  1.00  0.00    -0.224 OA
ENDBRANCH  19  24
ENDBRANCH  14  18
BRANCH  16  28
ATOM     28  C   UNL A   1      31.278  22.685  26.044  1.00  0.00     0.435 C 
ATOM     29  F   UNL A   1      30.005  22.276  26.285  1.00  0.00    -0.164 F 
ATOM     30  F   UNL A   1      31.727  21.977  24.972  1.00  0.00    -0.164 F 
ATOM     31  F   UNL A   1      32.018  22.261  27.109  1.00  0.00    -0.164 F 
ENDBRANCH  16  28
ENDBRANCH   8  13
ENDBRANCH   6   7
ENDBRANCH   4   6
ENDBRANCH   3   4
ENDBRANCH   2   3
ENDBRANCH   1   2
BRANCH   1  32
ATOM     32  O   UNL A   1      33.551  36.005  29.553  1.00  0.00    -0.374 OA
BRANCH  32  33
ATOM     33  C   UNL A   1      32.609  35.549  30.510  1.00  0.00     0.202 C 
BRANCH  33  34
ATOM     34  C   UNL A   1      32.767  35.970  31.966  1.00  0.00     0.261 C 
BRANCH  34  35
ATOM     35  O   UNL A   1      33.994  35.576  32.610  1.00  0.00    -0.460 OA
BRANCH  35  36
ATOM     36  C   UNL A   1      34.150  34.228  32.780  1.00  0.00     0.338 C 
ATOM     37  O   UNL A   1      33.280  33.432  33.086  1.00  0.00    -0.246 OA
BRANCH  36  38
ATOM     38  C   UNL A   1      35.599  33.921  32.887  1.00  0.00     0.060 A 
ATOM     39  C   UNL A   1      36.450  34.849  32.276  1.00  0.00     0.016 A 
ATOM     40  C   UNL A   1      36.038  32.621  33.141  1.00  0.00     0.016 A 
ATOM     41  C   UNL A   1      37.611  34.400  31.660  1.00  0.00     0.010 A 
ATOM     42  C   UNL A   1      37.194  32.178  32.504  1.00  0.00     0.010 A 
ATOM     43  C   UNL A   1      37.918  33.034  31.657  1.00  0.00    -0.014 A 
BRANCH  43  44
ATOM     44  C   UNL A   1      39.196  32.577  31.088  1.00  0.00     0.031 A 
ATOM     45  C   UNL A   1      38.953  31.288  30.440  1.00  0.00     0.074 A 
ATOM     46  C   UNL A   1      40.443  33.098  31.075  1.00  0.00     0.049 A 
ATOM     47  N   UNL A   1      39.141  30.154  31.026  1.00  0.00    -0.248 NA
ATOM     48  C   UNL A   1      38.155  31.231  29.213  1.00  0.00     0.031 C 
ATOM     49  C   UNL A   1      40.915  34.326  31.662  1.00  0.00     0.029 A 
ATOM     50  N   UNL A   1      41.596  32.635  30.489  1.00  0.00    -0.354 N 
ATOM     51  C   UNL A   1      38.742  29.228  30.089  1.00  0.00     0.074 A 
ATOM     52  C   UNL A   1      37.871  29.928  29.181  1.00  0.00     0.031 C 
ATOM     53  C   UNL A   1      42.127  34.683  31.187  1.00  0.00     0.029 A 
ATOM     54  C   UNL A   1      42.620  33.592  30.379  1.00  0.00     0.049 A 
ATOM     55  H   UNL A   1      41.697  31.709  30.170  1.00  0.00     0.167 HD
ATOM     56  C   UNL A   1      39.505  28.123  29.899  1.00  0.00     0.037 A 
ATOM     57  C   UNL A   1      43.838  33.486  29.782  1.00  0.00     0.037 A 
ATOM     58  C   UNL A   1      40.371  27.878  31.036  1.00  0.00     0.049 A 
ATOM     59  C   UNL A   1      44.178  32.048  29.777  1.00  0.00     0.074 A 
ATOM     60  C   UNL A   1      40.183  27.780  32.405  1.00  0.00     0.029 A 
ATOM     61  N   UNL A   1      41.721  28.071  30.868  1.00  0.00    -0.354 N 
ATOM     62  N   UNL A   1      44.518  31.401  30.856  1.00  0.00    -0.248 NA
ATOM     63  C   UNL A   1      43.639  31.242  28.695  1.00  0.00     0.031 C 
ATOM     64  C   UNL A   1      41.339  28.374  32.995  1.00  0.00     0.029 A 
ATOM     65  C   UNL A   1      42.205  28.732  31.967  1.00  0.00     0.049 A 
ATOM     66  H   UNL A   1      42.251  27.784  30.090  1.00  0.00     0.167 HD
ATOM     67  C   UNL A   1      43.780  30.232  30.786  1.00  0.00     0.074 A 
ATOM     68  C   UNL A   1      43.323  30.151  29.397  1.00  0.00     0.031 C 
ATOM     69  C   UNL A   1      43.348  29.612  31.921  1.00  0.00     0.037 A 
BRANCH  56  70
ATOM     70  C   UNL A   1      39.790  27.589  28.520  1.00  0.00     0.057 A 
ATOM     71  C   UNL A   1      39.615  26.219  28.294  1.00  0.00     0.134 A 
ATOM     72  C   UNL A   1      40.482  28.284  27.499  1.00  0.00     0.134 A 
ATOM     73  F   UNL A   1      39.000  25.448  29.203  1.00  0.00    -0.206 F 
ATOM     74  C   UNL A   1      40.152  25.576  27.175  1.00  0.00     0.040 A 
ATOM     75  C   UNL A   1      40.966  27.664  26.351  1.00  0.00     0.040 A 
ATOM     76  F   UNL A   1      40.829  29.571  27.588  1.00  0.00    -0.206 F 
ATOM     77  C   UNL A   1      40.834  26.297  26.201  1.00  0.00     0.006 A 
ENDBRANCH  56  70
BRANCH  57  78
ATOM     78  C   UNL A   1      44.636  34.484  29.018  1.00  0.00     0.057 A 
ATOM     79  C   UNL A   1      45.868  34.958  29.512  1.00  0.00     0.134 A 
ATOM     80  C   UNL A   1      44.385  34.762  27.667  1.00  0.00     0.134 A 
ATOM     81  F   UNL A   1      46.222  34.742  30.787  1.00  0.00    -0.206 F 
ATOM     82  C   UNL A   1      46.814  35.599  28.696  1.00  0.00     0.040 A 
ATOM     83  C   UNL A   1      45.320  35.410  26.845  1.00  0.00     0.040 A 
ATOM     84  F   UNL A   1      43.261  34.342  27.074  1.00  0.00    -0.206 F 
ATOM     85  C   UNL A   1      46.550  35.806  27.350  1.00  0.00     0.006 A 
ENDBRANCH  57  78
BRANCH  69  86
ATOM     86  C   UNL A   1      43.969  30.011  33.232  1.00  0.00     0.057 A 
ATOM     87  C   UNL A   1      45.132  29.448  33.783  1.00  0.00     0.134 A 
ATOM     88  C   UNL A   1      43.415  31.104  33.911  1.00  0.00     0.134 A 
ATOM     89  F   UNL A   1      45.795  28.465  33.157  1.00  0.00    -0.206 F 
ATOM     90  C   UNL A   1      45.682  29.924  34.980  1.00  0.00     0.040 A 
ATOM     91  C   UNL A   1      43.975  31.610  35.085  1.00  0.00     0.040 A 
ATOM     92  F   UNL A   1      42.331  31.724  33.417  1.00  0.00    -0.206 F 
ATOM     93  C   UNL A   1      45.105  31.011  35.631  1.00  0.00     0.006 A 
ENDBRANCH  69  86
ENDBRANCH  43  44
ENDBRANCH  36  38
ENDBRANCH  35  36
ENDBRANCH  34  35
ENDBRANCH  33  34
ENDBRANCH  32  33
ENDBRANCH   1  32
TORSDOF 19
ENDMDL
MODEL 3
REMARK VINA RESULT:     -10.8      4.269      9.000
REMARK SMILES CS(=O)(=O)c1ccc(-n2nc(C(F)(F)F)cc2-c2ccc(CC(=O)OCCOCCOC(=O)c3ccc(-c4c5nc(c(-c6c(F)cccc6F)c6ccc([nH]6)c(-c6c(F)cccc6F)c6nc(c(-c7c(F)cccc7F)c7ccc4[nH]7)C=C6)C=C5)cc3)cc2)cc1
REMARK SMILES IDX 27 1 26 2 25 3 23 4 24 5 22 6 21 7 18 8 19 9 89 10 20 11
REMARK SMILES IDX 88 12 17 13 9 14 10 15 11 16 16 17 8 18 5 19 6 20 91 21 7 22
REMARK SMILES IDX 90 23 2 24 1 25 3 26 4 27 12 28 13 29 14 30 15 31 28 32
REMARK SMILES IDX 29 33 30 34 31 35 32 36 33 37 34 38 35 39 87 40 36 41 86 42
REMARK SMILES IDX 37 43 38 44 39 45 80 46 40 47 85 48 79 49 81 50 41 51 84 52
REMARK SMILES IDX 78 53 77 54 42 56 68 57 51 58 67 59 52 60 55 61 66 62 82 63
REMARK SMILES IDX 53 64 54 65 65 67 83 68 56 69 43 70 44 71 49 72 45 73 46 74
REMARK SMILES IDX 48 75 50 76 47 77 69 78 70 79 75 80 71 81 72 82 74 83 76 84
REMARK SMILES IDX 73 85 57 86 58 87 63 88 59 89 60 90 62 91 64 92 61 93
REMARK H PARENT 81 55 55 66
REMARK Flexibility Score: inf
ROOT
ATOM      1  C   UNL A   1      36.038  23.712  25.335  1.00  0.00     0.202 C 
ENDROOT
BRANCH   1   2
ATOM      2  C   UNL A   1      34.556  23.999  25.056  1.00  0.00     0.261 C 
BRANCH   2   3
ATOM      3  O   UNL A   1      33.711  22.847  24.869  1.00  0.00    -0.463 OA
BRANCH   3   4
ATOM      4  C   UNL A   1      32.851  22.609  25.895  1.00  0.00     0.310 C 
ATOM      5  O   UNL A   1      33.191  22.171  26.991  1.00  0.00    -0.252 OA
BRANCH   4   6
ATOM      6  C   UNL A   1      31.395  22.870  25.596  1.00  0.00     0.158 C 
BRANCH   6   7
ATOM      7  C   UNL A   1      30.922  24.233  25.141  1.00  0.00    -0.037 A 
ATOM      8  C   UNL A   1      30.363  26.883  24.302  1.00  0.00     0.000 A 
ATOM      9  C   UNL A   1      30.683  25.886  23.372  1.00  0.00     0.010 A 
ATOM     10  C   UNL A   1      30.336  26.543  25.660  1.00  0.00     0.010 A 
ATOM     11  C   UNL A   1      30.944  24.575  23.783  1.00  0.00     0.005 A 
ATOM     12  C   UNL A   1      30.606  25.230  26.075  1.00  0.00     0.005 A 
BRANCH   8  13
ATOM     13  C   UNL A   1      30.090  28.257  23.861  1.00  0.00     0.075 A 
ATOM     14  N   UNL A   1      30.675  29.429  24.360  1.00  0.00    -0.233 N 
ATOM     15  N   UNL A   1      30.037  30.537  23.900  1.00  0.00    -0.163 NA
ATOM     16  C   UNL A   1      29.144  30.092  22.996  1.00  0.00     0.167 A 
ATOM     17  C   UNL A   1      29.119  28.680  22.973  1.00  0.00     0.064 A 
BRANCH  14  18
ATOM     18  C   UNL A   1      31.807  29.563  25.222  1.00  0.00     0.065 A 
ATOM     19  C   UNL A   1      34.105  29.866  26.845  1.00  0.00     0.067 A 
ATOM     20  C   UNL A   1      34.122  29.084  25.703  1.00  0.00     0.022 A 
ATOM     21  C   UNL A   1      32.905  30.464  27.227  1.00  0.00     0.022 A 
ATOM     22  C   UNL A   1      32.997  28.927  24.894  1.00  0.00     0.030 A 
ATOM     23  C   UNL A   1      31.766  30.344  26.390  1.00  0.00     0.030 A 
BRANCH  19  24
ATOM     24  S   UNL A   1      35.652  30.116  27.705  1.00  0.00     0.175 S 
ATOM     25  C   UNL A   1      35.377  29.701  29.410  1.00  0.00     0.163 C 
ATOM     26  O   UNL A   1      35.944  31.528  27.658  1.00  0.00    -0.224 OA
ATOM     27  O   UNL A   1      36.589  29.153  27.143  1.00  0.00    -0.224 OA
ENDBRANCH  19  24
ENDBRANCH  14  18
BRANCH  16  28
ATOM     28  C   UNL A   1      28.268  30.998  22.173  1.00  0.00     0.435 C 
ATOM     29  F   UNL A   1      28.940  32.039  21.615  1.00  0.00    -0.164 F 
ATOM     30  F   UNL A   1      27.646  30.337  21.159  1.00  0.00    -0.164 F 
ATOM     31  F   UNL A   1      27.273  31.551  22.924  1.00  0.00    -0.164 F 
ENDBRANCH  16  28
ENDBRANCH   8  13
ENDBRANCH   6   7
ENDBRANCH   4   6
ENDBRANCH   3   4
ENDBRANCH   2   3
ENDBRANCH   1   2
BRANCH   1  32
ATOM     32  O   UNL A   1      36.389  22.550  26.067  1.00  0.00    -0.374 OA
BRANCH  32  33
ATOM     33  C   UNL A   1      36.838  21.417  25.342  1.00  0.00     0.202 C 
BRANCH  33  34
ATOM     34  C   UNL A   1      38.299  20.998  25.451  1.00  0.00     0.261 C 
BRANCH  34  35
ATOM     35  O   UNL A   1      39.265  22.067  25.472  1.00  0.00    -0.460 OA
BRANCH  35  36
ATOM     36  C   UNL A   1      40.332  21.864  26.304  1.00  0.00     0.338 C 
ATOM     37  O   UNL A   1      41.043  20.876  26.341  1.00  0.00    -0.246 OA
BRANCH  36  38
ATOM     38  C   UNL A   1      40.283  22.864  27.400  1.00  0.00     0.060 A 
ATOM     39  C   UNL A   1      39.234  23.787  27.317  1.00  0.00     0.016 A 
ATOM     40  C   UNL A   1      41.420  23.156  28.154  1.00  0.00     0.016 A 
ATOM     41  C   UNL A   1      39.447  25.095  27.732  1.00  0.00     0.010 A 
ATOM     42  C   UNL A   1      41.631  24.474  28.550  1.00  0.00     0.010 A 
ATOM     43  C   UNL A   1      40.700  25.476  28.227  1.00  0.00    -0.014 A 
BRANCH  43  44
ATOM     44  C   UNL A   1      40.891  26.836  28.755  1.00  0.00     0.031 A 
ATOM     45  C   UNL A   1      42.102  27.381  28.141  1.00  0.00     0.074 A 
ATOM     46  C   UNL A   1      40.201  27.592  29.639  1.00  0.00     0.049 A 
ATOM     47  N   UNL A   1      43.266  27.316  28.693  1.00  0.00    -0.248 NA
ATOM     48  C   UNL A   1      42.105  27.716  26.715  1.00  0.00     0.031 C 
ATOM     49  C   UNL A   1      39.008  27.258  30.375  1.00  0.00     0.029 A 
ATOM     50  N   UNL A   1      40.412  28.881  30.064  1.00  0.00    -0.354 N 
ATOM     51  C   UNL A   1      44.104  27.888  27.763  1.00  0.00     0.074 A 
ATOM     52  C   UNL A   1      43.419  27.801  26.500  1.00  0.00     0.031 C 
ATOM     53  C   UNL A   1      38.422  28.349  30.914  1.00  0.00     0.029 A 
ATOM     54  C   UNL A   1      39.314  29.467  30.717  1.00  0.00     0.049 A 
ATOM     55  H   UNL A   1      41.263  29.355  29.924  1.00  0.00     0.167 HD
ATOM     56  C   UNL A   1      45.054  28.757  28.189  1.00  0.00     0.037 A 
ATOM     57  C   UNL A   1      39.165  30.739  31.179  1.00  0.00     0.037 A 
ATOM     58  C   UNL A   1      45.325  28.591  29.605  1.00  0.00     0.049 A 
ATOM     59  C   UNL A   1      40.526  31.254  31.432  1.00  0.00     0.074 A 
ATOM     60  C   UNL A   1      45.632  27.515  30.421  1.00  0.00     0.029 A 
ATOM     61  N   UNL A   1      44.921  29.590  30.457  1.00  0.00    -0.354 N 
ATOM     62  N   UNL A   1      41.258  30.850  32.432  1.00  0.00    -0.248 NA
ATOM     63  C   UNL A   1      41.247  31.810  30.300  1.00  0.00     0.031 C 
ATOM     64  C   UNL A   1      44.965  27.768  31.657  1.00  0.00     0.029 A 
ATOM     65  C   UNL A   1      44.352  29.014  31.563  1.00  0.00     0.049 A 
ATOM     66  H   UNL A   1      45.023  30.557  30.300  1.00  0.00     0.167 HD
ATOM     67  C   UNL A   1      42.499  30.627  31.862  1.00  0.00     0.074 A 
ATOM     68  C   UNL A   1      42.456  31.312  30.569  1.00  0.00     0.031 C 
ATOM     69  C   UNL A   1      43.321  29.652  32.346  1.00  0.00     0.037 A 
BRANCH  56  70
ATOM     70  C   UNL A   1      45.351  30.030  27.441  1.00  0.00     0.057 A 
ATOM     71  C   UNL A   1      46.691  30.357  27.202  1.00  0.00     0.134 A 
ATOM     72  C   UNL A   1      44.425  31.070  27.193  1.00  0.00     0.134 A 
ATOM     73  F   UNL A   1      47.665  29.464  27.428  1.00  0.00    -0.206 F 
ATOM     74  C   UNL A   1      47.085  31.643  26.819  1.00  0.00     0.040 A 
ATOM     75  C   UNL A   1      44.802  32.336  26.751  1.00  0.00     0.040 A 
ATOM     76  F   UNL A   1      43.119  30.974  27.461  1.00  0.00    -0.206 F 
ATOM     77  C   UNL A   1      46.140  32.638  26.596  1.00  0.00     0.006 A 
ENDBRANCH  56  70
BRANCH  57  78
ATOM     78  C   UNL A   1      37.970  31.627  31.214  1.00  0.00     0.057 A 
ATOM     79  C   UNL A   1      37.159  31.706  32.363  1.00  0.00     0.134 A 
ATOM     80  C   UNL A   1      37.766  32.639  30.265  1.00  0.00     0.134 A 
ATOM     81  F   UNL A   1      37.273  30.799  33.344  1.00  0.00    -0.206 F 
ATOM     82  C   UNL A   1      36.262  32.763  32.586  1.00  0.00     0.040 A 
ATOM     83  C   UNL A   1      36.865  33.695  30.473  1.00  0.00     0.040 A 
ATOM     84  F   UNL A   1      38.492  32.689  29.143  1.00  0.00    -0.206 F 
ATOM     85  C   UNL A   1      36.130  33.776  31.647  1.00  0.00     0.006 A 
ENDBRANCH  57  78
BRANCH  69  86
ATOM     86  C   UNL A   1      43.019  29.070  33.700  1.00  0.00     0.057 A 
ATOM     87  C   UNL A   1      42.048  28.089  33.961  1.00  0.00     0.134 A 
ATOM     88  C   UNL A   1      43.839  29.448  34.771  1.00  0.00     0.134 A 
ATOM     89  F   UNL A   1      41.281  27.588  32.983  1.00  0.00    -0.206 F 
ATOM     90  C   UNL A   1      41.874  27.552  35.243  1.00  0.00     0.040 A 
ATOM     91  C   UNL A   1      43.699  28.893  36.043  1.00  0.00     0.040 A 
ATOM     92  F   UNL A   1      44.820  30.344  34.583  1.00  0.00    -0.206 F 
ATOM     93  C   UNL A   1      42.706  27.951  36.288  1.00  0.00     0.006 A 
ENDBRANCH  69  86
ENDBRANCH  43  44
ENDBRANCH  36  38
ENDBRANCH  35  36
ENDBRANCH  34  35
ENDBRANCH  33  34
ENDBRANCH  32  33
ENDBRANCH   1  32
TORSDOF 19
ENDMDL
