MODEL 1
REMARK VINA RESULT:     -12.6      0.000      0.000
REMARK SMILES C[C@@H](C(=O)OCCOCCOC(=O)c1ccc(-c2c3nc(c(-c4c(F)cccc4F)c4ccc([nH]4)c(-c4c(F)cccc4F)c4nc(c(-c5c(F)cccc5F)c5ccc2[nH]5)C=C4)C=C3)cc1)c1ccc2c3cc(Cl)ccc3n(C(=O)c3cocn3)c2c1
REMARK SMILES IDX 7 1 6 2 5 3 3 4 4 5 2 6 1 7 68 8 69 9 88 10 70 11 87 12
REMARK SMILES IDX 71 13 79 14 72 15 78 16 73 17 77 18 74 19 76 20 75 21 80 22
REMARK SMILES IDX 81 23 82 24 83 25 86 26 84 27 85 28 8 29 9 30 10 31 11 32
REMARK SMILES IDX 12 33 13 34 14 35 15 36 67 37 16 38 66 39 17 40 18 41 19 42
REMARK SMILES IDX 60 43 20 44 65 45 59 46 61 47 21 48 64 49 58 50 57 51 22 53
REMARK SMILES IDX 48 54 31 55 47 56 32 57 35 58 46 59 62 60 33 61 34 62 45 64
REMARK SMILES IDX 63 65 36 66 23 67 24 68 29 69 25 70 26 71 28 72 30 73 27 74
REMARK SMILES IDX 49 75 50 76 55 77 51 78 52 79 54 80 56 81 53 82 37 83 38 84
REMARK SMILES IDX 43 85 39 86 40 87 42 88 44 89 41 90
REMARK H PARENT 61 52 35 63
REMARK Flexibility Score: inf
ROOT
ATOM      1  C   UNL A   1      42.354  19.756  26.487  1.00  0.00     0.202 C 
ENDROOT
BRANCH   1   2
ATOM      2  C   UNL A   1      41.194  20.652  26.929  1.00  0.00     0.261 C 
BRANCH   2   3
ATOM      3  O   UNL A   1      40.472  21.161  25.792  1.00  0.00    -0.463 OA
BRANCH   3   4
ATOM      4  C   UNL A   1      39.273  21.743  26.073  1.00  0.00     0.313 C 
ATOM      5  O   UNL A   1      39.154  22.867  26.546  1.00  0.00    -0.252 OA
BRANCH   4   6
ATOM      6  C   UNL A   1      38.078  20.850  25.712  1.00  0.00     0.126 C 
ATOM      7  C   UNL A   1      38.421  19.555  24.973  1.00  0.00     0.025 C 
BRANCH   6   8
ATOM      8  C   UNL A   1      36.993  21.671  25.014  1.00  0.00    -0.032 A 
ATOM      9  C   UNL A   1      37.187  22.977  24.556  1.00  0.00     0.005 A 
ATOM     10  C   UNL A   1      35.712  21.108  24.919  1.00  0.00     0.032 A 
ATOM     11  C   UNL A   1      36.132  23.723  24.013  1.00  0.00     0.011 A 
ATOM     12  C   UNL A   1      34.643  21.867  24.403  1.00  0.00     0.058 A 
ATOM     13  C   UNL A   1      34.842  23.158  23.929  1.00  0.00     0.008 A 
ATOM     14  N   UNL A   1      33.292  21.540  24.247  1.00  0.00    -0.274 N 
ATOM     15  C   UNL A   1      33.587  23.642  23.467  1.00  0.00     0.009 A 
ATOM     16  C   UNL A   1      32.627  22.647  23.702  1.00  0.00     0.057 A 
ATOM     17  C   UNL A   1      33.190  24.878  22.908  1.00  0.00     0.031 A 
ATOM     18  C   UNL A   1      31.260  22.904  23.472  1.00  0.00     0.029 A 
ATOM     19  C   UNL A   1      31.843  25.110  22.645  1.00  0.00     0.041 A 
ATOM     20  C   UNL A   1      30.888  24.145  22.936  1.00  0.00     0.023 A 
ATOM     21  Cl  UNL A   1      31.359  26.625  21.985  1.00  0.00    -0.084 Cl
BRANCH  14  22
ATOM     22  C   UNL A   1      32.741  20.293  24.648  1.00  0.00     0.284 C 
ATOM     23  O   UNL A   1      32.133  20.299  25.717  1.00  0.00    -0.266 OA
BRANCH  22  24
ATOM     24  C   UNL A   1      32.910  19.033  23.932  1.00  0.00     0.167 A 
ATOM     25  C   UNL A   1      32.252  18.559  22.819  1.00  0.00     0.231 A 
ATOM     26  N   UNL A   1      33.946  18.156  24.233  1.00  0.00    -0.211 NA
ATOM     27  O   UNL A   1      32.853  17.399  22.421  1.00  0.00    -0.451 OA
ATOM     28  C   UNL A   1      33.870  17.232  23.307  1.00  0.00     0.308 A 
ENDBRANCH  22  24
ENDBRANCH  14  22
ENDBRANCH   6   8
ENDBRANCH   4   6
ENDBRANCH   3   4
ENDBRANCH   2   3
ENDBRANCH   1   2
BRANCH   1  29
ATOM     29  O   UNL A   1      43.030  20.104  25.278  1.00  0.00    -0.374 OA
BRANCH  29  30
ATOM     30  C   UNL A   1      44.214  20.889  25.380  1.00  0.00     0.202 C 
BRANCH  30  31
ATOM     31  C   UNL A   1      44.333  22.113  24.462  1.00  0.00     0.261 C 
BRANCH  31  32
ATOM     32  O   UNL A   1      43.485  23.203  24.862  1.00  0.00    -0.460 OA
BRANCH  32  33
ATOM     33  C   UNL A   1      44.142  24.359  25.107  1.00  0.00     0.338 C 
ATOM     34  O   UNL A   1      45.175  24.756  24.577  1.00  0.00    -0.246 OA
BRANCH  33  35
ATOM     35  C   UNL A   1      43.350  25.217  26.000  1.00  0.00     0.060 A 
ATOM     36  C   UNL A   1      43.780  26.541  26.167  1.00  0.00     0.016 A 
ATOM     37  C   UNL A   1      42.265  24.722  26.725  1.00  0.00     0.016 A 
ATOM     38  C   UNL A   1      43.153  27.364  27.095  1.00  0.00     0.010 A 
ATOM     39  C   UNL A   1      41.645  25.548  27.669  1.00  0.00     0.010 A 
ATOM     40  C   UNL A   1      42.112  26.858  27.883  1.00  0.00    -0.014 A 
BRANCH  40  41
ATOM     41  C   UNL A   1      41.631  27.655  29.035  1.00  0.00     0.031 A 
ATOM     42  C   UNL A   1      42.362  27.550  30.345  1.00  0.00     0.074 A 
ATOM     43  C   UNL A   1      40.594  28.498  28.901  1.00  0.00     0.049 A 
ATOM     44  N   UNL A   1      42.114  28.143  31.485  1.00  0.00    -0.248 NA
ATOM     45  C   UNL A   1      43.532  26.655  30.374  1.00  0.00     0.031 C 
ATOM     46  C   UNL A   1      39.842  28.722  27.667  1.00  0.00     0.029 A 
ATOM     47  N   UNL A   1      39.995  29.326  29.817  1.00  0.00    -0.354 N 
ATOM     48  C   UNL A   1      43.087  27.689  32.366  1.00  0.00     0.074 A 
ATOM     49  C   UNL A   1      43.914  26.749  31.639  1.00  0.00     0.031 C 
ATOM     50  C   UNL A   1      38.876  29.626  27.905  1.00  0.00     0.029 A 
ATOM     51  C   UNL A   1      38.922  30.018  29.313  1.00  0.00     0.049 A 
ATOM     52  H   UNL A   1      40.306  29.415  30.747  1.00  0.00     0.167 HD
ATOM     53  C   UNL A   1      43.279  28.031  33.661  1.00  0.00     0.037 A 
ATOM     54  C   UNL A   1      38.064  30.855  29.926  1.00  0.00     0.037 A 
ATOM     55  C   UNL A   1      42.457  28.970  34.378  1.00  0.00     0.049 A 
ATOM     56  C   UNL A   1      38.254  31.161  31.388  1.00  0.00     0.074 A 
ATOM     57  C   UNL A   1      42.582  29.401  35.687  1.00  0.00     0.029 A 
ATOM     58  N   UNL A   1      41.353  29.618  33.845  1.00  0.00    -0.354 N 
ATOM     59  N   UNL A   1      39.190  30.745  32.207  1.00  0.00    -0.248 NA
ATOM     60  C   UNL A   1      37.268  32.055  32.011  1.00  0.00     0.031 C 
ATOM     61  C   UNL A   1      41.519  30.268  35.963  1.00  0.00     0.029 A 
ATOM     62  C   UNL A   1      40.768  30.421  34.809  1.00  0.00     0.049 A 
ATOM     63  H   UNL A   1      41.033  29.519  32.919  1.00  0.00     0.167 HD
ATOM     64  C   UNL A   1      38.926  31.350  33.430  1.00  0.00     0.074 A 
ATOM     65  C   UNL A   1      37.747  32.170  33.242  1.00  0.00     0.031 C 
ATOM     66  C   UNL A   1      39.598  31.238  34.602  1.00  0.00     0.037 A 
BRANCH  53  67
ATOM     67  C   UNL A   1      44.403  27.360  34.397  1.00  0.00     0.057 A 
ATOM     68  C   UNL A   1      45.658  27.963  34.550  1.00  0.00     0.134 A 
ATOM     69  C   UNL A   1      44.214  26.104  34.989  1.00  0.00     0.134 A 
ATOM     70  F   UNL A   1      45.911  29.157  33.996  1.00  0.00    -0.206 F 
ATOM     71  C   UNL A   1      46.690  27.332  35.247  1.00  0.00     0.040 A 
ATOM     72  C   UNL A   1      45.230  25.476  35.711  1.00  0.00     0.040 A 
ATOM     73  F   UNL A   1      43.036  25.471  34.884  1.00  0.00    -0.206 F 
ATOM     74  C   UNL A   1      46.475  26.088  35.836  1.00  0.00     0.006 A 
ENDBRANCH  53  67
BRANCH  54  75
ATOM     75  C   UNL A   1      36.938  31.457  29.167  1.00  0.00     0.057 A 
ATOM     76  C   UNL A   1      36.981  32.787  28.734  1.00  0.00     0.134 A 
ATOM     77  C   UNL A   1      35.782  30.722  28.877  1.00  0.00     0.134 A 
ATOM     78  F   UNL A   1      38.052  33.549  29.002  1.00  0.00    -0.206 F 
ATOM     79  C   UNL A   1      35.909  33.371  28.058  1.00  0.00     0.040 A 
ATOM     80  C   UNL A   1      34.713  31.286  28.178  1.00  0.00     0.040 A 
ATOM     81  F   UNL A   1      35.677  29.442  29.263  1.00  0.00    -0.206 F 
ATOM     82  C   UNL A   1      34.772  32.618  27.774  1.00  0.00     0.006 A 
ENDBRANCH  54  75
BRANCH  66  83
ATOM     83  C   UNL A   1      39.101  32.053  35.761  1.00  0.00     0.057 A 
ATOM     84  C   UNL A   1      39.459  33.397  35.930  1.00  0.00     0.134 A 
ATOM     85  C   UNL A   1      38.218  31.497  36.696  1.00  0.00     0.134 A 
ATOM     86  F   UNL A   1      40.309  33.987  35.076  1.00  0.00    -0.206 F 
ATOM     87  C   UNL A   1      38.977  34.150  37.003  1.00  0.00     0.040 A 
ATOM     88  C   UNL A   1      37.708  32.247  37.755  1.00  0.00     0.040 A 
ATOM     89  F   UNL A   1      37.827  30.218  36.586  1.00  0.00    -0.206 F 
ATOM     90  C   UNL A   1      38.092  33.577  37.914  1.00  0.00     0.006 A 
ENDBRANCH  66  83
ENDBRANCH  40  41
ENDBRANCH  33  35
ENDBRANCH  32  33
ENDBRANCH  31  32
ENDBRANCH  30  31
ENDBRANCH  29  30
ENDBRANCH   1  29
TORSDOF 17
ENDMDL
MODEL 2
REMARK VINA RESULT:     -12.2      3.247      8.197
REMARK SMILES C[C@@H](C(=O)OCCOCCOC(=O)c1ccc(-c2c3nc(c(-c4c(F)cccc4F)c4ccc([nH]4)c(-c4c(F)cccc4F)c4nc(c(-c5c(F)cccc5F)c5ccc2[nH]5)C=C4)C=C3)cc1)c1ccc2c3cc(Cl)ccc3n(C(=O)c3cocn3)c2c1
REMARK SMILES IDX 7 1 6 2 5 3 3 4 4 5 2 6 1 7 68 8 69 9 88 10 70 11 87 12
REMARK SMILES IDX 71 13 79 14 72 15 78 16 73 17 77 18 74 19 76 20 75 21 80 22
REMARK SMILES IDX 81 23 82 24 83 25 86 26 84 27 85 28 8 29 9 30 10 31 11 32
REMARK SMILES IDX 12 33 13 34 14 35 15 36 67 37 16 38 66 39 17 40 18 41 19 42
REMARK SMILES IDX 60 43 20 44 65 45 59 46 61 47 21 48 64 49 58 50 57 51 22 53
REMARK SMILES IDX 48 54 31 55 47 56 32 57 35 58 46 59 62 60 33 61 34 62 45 64
REMARK SMILES IDX 63 65 36 66 23 67 24 68 29 69 25 70 26 71 28 72 30 73 27 74
REMARK SMILES IDX 49 75 50 76 55 77 51 78 52 79 54 80 56 81 53 82 37 83 38 84
REMARK SMILES IDX 43 85 39 86 40 87 42 88 44 89 41 90
REMARK H PARENT 61 52 35 63
REMARK Flexibility Score: inf
ROOT
ATOM      1  C   UNL A   1      32.324  29.421  25.464  1.00  0.00     0.202 C 
ENDROOT
BRANCH   1   2
ATOM      2  C   UNL A   1      31.371  29.423  24.267  1.00  0.00     0.261 C 
BRANCH   2   3
ATOM      3  O   UNL A   1      30.603  28.204  24.217  1.00  0.00    -0.463 OA
BRANCH   3   4
ATOM      4  C   UNL A   1      31.286  27.100  23.806  1.00  0.00     0.313 C 
ATOM      5  O   UNL A   1      32.027  27.079  22.831  1.00  0.00    -0.252 OA
BRANCH   4   6
ATOM      6  C   UNL A   1      31.051  25.883  24.711  1.00  0.00     0.126 C 
ATOM      7  C   UNL A   1      30.185  26.136  25.946  1.00  0.00     0.025 C 
BRANCH   6   8
ATOM      8  C   UNL A   1      32.380  25.200  25.039  1.00  0.00    -0.032 A 
ATOM      9  C   UNL A   1      33.497  25.879  25.531  1.00  0.00     0.005 A 
ATOM     10  C   UNL A   1      32.501  23.836  24.736  1.00  0.00     0.032 A 
ATOM     11  C   UNL A   1      34.722  25.225  25.720  1.00  0.00     0.011 A 
ATOM     12  C   UNL A   1      33.740  23.184  24.894  1.00  0.00     0.058 A 
ATOM     13  C   UNL A   1      34.844  23.856  25.403  1.00  0.00     0.008 A 
ATOM     14  N   UNL A   1      34.109  21.861  24.627  1.00  0.00    -0.274 N 
ATOM     15  C   UNL A   1      35.922  22.929  25.454  1.00  0.00     0.009 A 
ATOM     16  C   UNL A   1      35.467  21.708  24.937  1.00  0.00     0.057 A 
ATOM     17  C   UNL A   1      37.269  23.058  25.861  1.00  0.00     0.031 A 
ATOM     18  C   UNL A   1      36.364  20.639  24.734  1.00  0.00     0.029 A 
ATOM     19  C   UNL A   1      38.141  21.985  25.695  1.00  0.00     0.041 A 
ATOM     20  C   UNL A   1      37.700  20.797  25.127  1.00  0.00     0.023 A 
ATOM     21  Cl  UNL A   1      39.787  22.150  26.170  1.00  0.00    -0.084 Cl
BRANCH  14  22
ATOM     22  C   UNL A   1      33.218  20.900  24.078  1.00  0.00     0.284 C 
ATOM     23  O   UNL A   1      32.568  21.272  23.103  1.00  0.00    -0.266 OA
BRANCH  22  24
ATOM     24  C   UNL A   1      32.980  19.569  24.628  1.00  0.00     0.167 A 
ATOM     25  C   UNL A   1      32.737  19.184  25.927  1.00  0.00     0.231 A 
ATOM     26  N   UNL A   1      32.814  18.460  23.806  1.00  0.00    -0.211 NA
ATOM     27  O   UNL A   1      32.425  17.855  25.935  1.00  0.00    -0.451 OA
ATOM     28  C   UNL A   1      32.476  17.495  24.625  1.00  0.00     0.308 A 
ENDBRANCH  22  24
ENDBRANCH  14  22
ENDBRANCH   6   8
ENDBRANCH   4   6
ENDBRANCH   3   4
ENDBRANCH   2   3
ENDBRANCH   1   2
BRANCH   1  29
ATOM     29  O   UNL A   1      32.115  30.410  26.473  1.00  0.00    -0.374 OA
BRANCH  29  30
ATOM     30  C   UNL A   1      31.258  31.504  26.164  1.00  0.00     0.202 C 
BRANCH  30  31
ATOM     31  C   UNL A   1      31.735  32.909  26.559  1.00  0.00     0.261 C 
BRANCH  31  32
ATOM     32  O   UNL A   1      32.280  32.968  27.888  1.00  0.00    -0.460 OA
BRANCH  32  33
ATOM     33  C   UNL A   1      33.308  33.834  28.030  1.00  0.00     0.338 C 
ATOM     34  O   UNL A   1      33.252  35.059  28.066  1.00  0.00    -0.246 OA
BRANCH  33  35
ATOM     35  C   UNL A   1      34.551  33.107  28.328  1.00  0.00     0.060 A 
ATOM     36  C   UNL A   1      34.432  31.764  28.711  1.00  0.00     0.016 A 
ATOM     37  C   UNL A   1      35.795  33.740  28.319  1.00  0.00     0.016 A 
ATOM     38  C   UNL A   1      35.554  31.059  29.131  1.00  0.00     0.010 A 
ATOM     39  C   UNL A   1      36.920  33.032  28.756  1.00  0.00     0.010 A 
ATOM     40  C   UNL A   1      36.796  31.702  29.199  1.00  0.00    -0.014 A 
BRANCH  40  41
ATOM     41  C   UNL A   1      37.919  31.025  29.886  1.00  0.00     0.031 A 
ATOM     42  C   UNL A   1      38.165  31.321  31.339  1.00  0.00     0.074 A 
ATOM     43  C   UNL A   1      38.674  30.120  29.239  1.00  0.00     0.049 A 
ATOM     44  N   UNL A   1      39.092  30.855  32.137  1.00  0.00    -0.248 NA
ATOM     45  C   UNL A   1      37.240  32.270  31.981  1.00  0.00     0.031 C 
ATOM     46  C   UNL A   1      38.496  29.714  27.846  1.00  0.00     0.029 A 
ATOM     47  N   UNL A   1      39.742  29.377  29.674  1.00  0.00    -0.354 N 
ATOM     48  C   UNL A   1      38.869  31.459  33.368  1.00  0.00     0.074 A 
ATOM     49  C   UNL A   1      37.737  32.346  33.206  1.00  0.00     0.031 C 
ATOM     50  C   UNL A   1      39.429  28.797  27.538  1.00  0.00     0.029 A 
ATOM     51  C   UNL A   1      40.288  28.578  28.701  1.00  0.00     0.049 A 
ATOM     52  H   UNL A   1      40.085  29.415  30.596  1.00  0.00     0.167 HD
ATOM     53  C   UNL A   1      39.542  31.283  34.529  1.00  0.00     0.037 A 
ATOM     54  C   UNL A   1      41.370  27.776  28.742  1.00  0.00     0.037 A 
ATOM     55  C   UNL A   1      40.663  30.395  34.685  1.00  0.00     0.049 A 
ATOM     56  C   UNL A   1      42.147  27.656  30.026  1.00  0.00     0.074 A 
ATOM     57  C   UNL A   1      41.400  30.128  35.825  1.00  0.00     0.029 A 
ATOM     58  N   UNL A   1      41.214  29.634  33.664  1.00  0.00    -0.354 N 
ATOM     59  N   UNL A   1      41.915  28.213  31.190  1.00  0.00    -0.248 NA
ATOM     60  C   UNL A   1      43.337  26.794  30.001  1.00  0.00     0.031 C 
ATOM     61  C   UNL A   1      42.432  29.248  35.482  1.00  0.00     0.029 A 
ATOM     62  C   UNL A   1      42.301  28.921  34.142  1.00  0.00     0.049 A 
ATOM     63  H   UNL A   1      40.881  29.605  32.738  1.00  0.00     0.167 HD
ATOM     64  C   UNL A   1      42.906  27.745  32.043  1.00  0.00     0.074 A 
ATOM     65  C   UNL A   1      43.737  26.850  31.264  1.00  0.00     0.031 C 
ATOM     66  C   UNL A   1      43.112  28.028  33.353  1.00  0.00     0.037 A 
BRANCH  53  67
ATOM     67  C   UNL A   1      39.102  32.092  35.715  1.00  0.00     0.057 A 
ATOM     68  C   UNL A   1      38.252  31.571  36.698  1.00  0.00     0.134 A 
ATOM     69  C   UNL A   1      39.565  33.403  35.891  1.00  0.00     0.134 A 
ATOM     70  F   UNL A   1      37.761  30.328  36.584  1.00  0.00    -0.206 F 
ATOM     71  C   UNL A   1      37.861  32.331  37.802  1.00  0.00     0.040 A 
ATOM     72  C   UNL A   1      39.202  34.163  37.003  1.00  0.00     0.040 A 
ATOM     73  F   UNL A   1      40.384  33.963  34.988  1.00  0.00    -0.206 F 
ATOM     74  C   UNL A   1      38.342  33.629  37.961  1.00  0.00     0.006 A 
ENDBRANCH  53  67
BRANCH  54  75
ATOM     75  C   UNL A   1      41.794  27.033  27.528  1.00  0.00     0.057 A 
ATOM     76  C   UNL A   1      42.599  27.632  26.553  1.00  0.00     0.134 A 
ATOM     77  C   UNL A   1      41.384  25.713  27.303  1.00  0.00     0.134 A 
ATOM     78  F   UNL A   1      43.004  28.902  26.700  1.00  0.00    -0.206 F 
ATOM     79  C   UNL A   1      42.966  26.954  25.389  1.00  0.00     0.040 A 
ATOM     80  C   UNL A   1      41.766  25.014  26.157  1.00  0.00     0.040 A 
ATOM     81  F   UNL A   1      40.612  25.081  28.199  1.00  0.00    -0.206 F 
ATOM     82  C   UNL A   1      42.552  25.638  25.192  1.00  0.00     0.006 A 
ENDBRANCH  54  75
BRANCH  66  83
ATOM     83  C   UNL A   1      44.253  27.332  34.037  1.00  0.00     0.057 A 
ATOM     84  C   UNL A   1      45.526  27.908  34.127  1.00  0.00     0.134 A 
ATOM     85  C   UNL A   1      44.061  26.087  34.651  1.00  0.00     0.134 A 
ATOM     86  F   UNL A   1      45.779  29.093  33.551  1.00  0.00    -0.206 F 
ATOM     87  C   UNL A   1      46.576  27.258  34.781  1.00  0.00     0.040 A 
ATOM     88  C   UNL A   1      45.094  25.442  35.332  1.00  0.00     0.040 A 
ATOM     89  F   UNL A   1      42.863  25.485  34.612  1.00  0.00    -0.206 F 
ATOM     90  C   UNL A   1      46.358  26.025  35.392  1.00  0.00     0.006 A 
ENDBRANCH  66  83
ENDBRANCH  40  41
ENDBRANCH  33  35
ENDBRANCH  32  33
ENDBRANCH  31  32
ENDBRANCH  30  31
ENDBRANCH  29  30
ENDBRANCH   1  29
TORSDOF 17
ENDMDL
MODEL 3
REMARK VINA RESULT:     -12.1      1.760      3.024
REMARK SMILES C[C@@H](C(=O)OCCOCCOC(=O)c1ccc(-c2c3nc(c(-c4c(F)cccc4F)c4ccc([nH]4)c(-c4c(F)cccc4F)c4nc(c(-c5c(F)cccc5F)c5ccc2[nH]5)C=C4)C=C3)cc1)c1ccc2c3cc(Cl)ccc3n(C(=O)c3cocn3)c2c1
REMARK SMILES IDX 7 1 6 2 5 3 3 4 4 5 2 6 1 7 68 8 69 9 88 10 70 11 87 12
REMARK SMILES IDX 71 13 79 14 72 15 78 16 73 17 77 18 74 19 76 20 75 21 80 22
REMARK SMILES IDX 81 23 82 24 83 25 86 26 84 27 85 28 8 29 9 30 10 31 11 32
REMARK SMILES IDX 12 33 13 34 14 35 15 36 67 37 16 38 66 39 17 40 18 41 19 42
REMARK SMILES IDX 60 43 20 44 65 45 59 46 61 47 21 48 64 49 58 50 57 51 22 53
REMARK SMILES IDX 48 54 31 55 47 56 32 57 35 58 46 59 62 60 33 61 34 62 45 64
REMARK SMILES IDX 63 65 36 66 23 67 24 68 29 69 25 70 26 71 28 72 30 73 27 74
REMARK SMILES IDX 49 75 50 76 55 77 51 78 52 79 54 80 56 81 53 82 37 83 38 84
REMARK SMILES IDX 43 85 39 86 40 87 42 88 44 89 41 90
REMARK H PARENT 61 52 35 63
REMARK Flexibility Score: inf
ROOT
ATOM      1  C   UNL A   1      43.424  20.555  25.747  1.00  0.00     0.202 C 
ENDROOT
BRANCH   1   2
ATOM      2  C   UNL A   1      42.085  20.828  26.438  1.00  0.00     0.261 C 
BRANCH   2   3
ATOM      3  O   UNL A   1      41.575  22.127  26.079  1.00  0.00    -0.463 OA
BRANCH   3   4
ATOM      4  C   UNL A   1      40.640  22.641  26.925  1.00  0.00     0.313 C 
ATOM      5  O   UNL A   1      40.732  22.607  28.146  1.00  0.00    -0.252 OA
BRANCH   4   6
ATOM      6  C   UNL A   1      39.464  23.295  26.187  1.00  0.00     0.126 C 
ATOM      7  C   UNL A   1      38.914  24.572  26.824  1.00  0.00     0.025 C 
BRANCH   6   8
ATOM      8  C   UNL A   1      38.380  22.258  25.889  1.00  0.00    -0.032 A 
ATOM      9  C   UNL A   1      38.655  20.931  25.544  1.00  0.00     0.005 A 
ATOM     10  C   UNL A   1      37.049  22.697  25.870  1.00  0.00     0.032 A 
ATOM     11  C   UNL A   1      37.629  20.046  25.182  1.00  0.00     0.011 A 
ATOM     12  C   UNL A   1      36.021  21.818  25.475  1.00  0.00     0.058 A 
ATOM     13  C   UNL A   1      36.292  20.494  25.153  1.00  0.00     0.008 A 
ATOM     14  N   UNL A   1      34.645  22.034  25.344  1.00  0.00    -0.274 N 
ATOM     15  C   UNL A   1      35.057  19.874  24.816  1.00  0.00     0.009 A 
ATOM     16  C   UNL A   1      34.049  20.844  24.902  1.00  0.00     0.057 A 
ATOM     17  C   UNL A   1      34.733  18.563  24.398  1.00  0.00     0.031 A 
ATOM     18  C   UNL A   1      32.735  20.549  24.484  1.00  0.00     0.029 A 
ATOM     19  C   UNL A   1      33.424  18.267  24.026  1.00  0.00     0.041 A 
ATOM     20  C   UNL A   1      32.441  19.247  24.054  1.00  0.00     0.023 A 
ATOM     21  Cl  UNL A   1      33.036  16.676  23.495  1.00  0.00    -0.084 Cl
BRANCH  14  22
ATOM     22  C   UNL A   1      34.027  23.291  25.581  1.00  0.00     0.284 C 
ATOM     23  O   UNL A   1      33.847  23.581  26.762  1.00  0.00    -0.266 OA
BRANCH  22  24
ATOM     24  C   UNL A   1      33.542  24.196  24.543  1.00  0.00     0.167 A 
ATOM     25  C   UNL A   1      32.369  24.915  24.482  1.00  0.00     0.231 A 
ATOM     26  N   UNL A   1      34.346  24.579  23.476  1.00  0.00    -0.211 NA
ATOM     27  O   UNL A   1      32.422  25.738  23.393  1.00  0.00    -0.451 OA
ATOM     28  C   UNL A   1      33.644  25.492  22.850  1.00  0.00     0.308 A 
ENDBRANCH  22  24
ENDBRANCH  14  22
ENDBRANCH   6   8
ENDBRANCH   4   6
ENDBRANCH   3   4
ENDBRANCH   2   3
ENDBRANCH   1   2
BRANCH   1  29
ATOM     29  O   UNL A   1      43.724  21.308  24.572  1.00  0.00    -0.374 OA
BRANCH  29  30
ATOM     30  C   UNL A   1      45.094  21.563  24.278  1.00  0.00     0.202 C 
BRANCH  30  31
ATOM     31  C   UNL A   1      45.619  22.983  24.536  1.00  0.00     0.261 C 
BRANCH  31  32
ATOM     32  O   UNL A   1      44.616  23.870  25.059  1.00  0.00    -0.460 OA
BRANCH  32  33
ATOM     33  C   UNL A   1      45.033  25.146  25.223  1.00  0.00     0.338 C 
ATOM     34  O   UNL A   1      45.936  25.719  24.622  1.00  0.00    -0.246 OA
BRANCH  33  35
ATOM     35  C   UNL A   1      44.124  25.866  26.127  1.00  0.00     0.060 A 
ATOM     36  C   UNL A   1      44.287  27.255  26.228  1.00  0.00     0.016 A 
ATOM     37  C   UNL A   1      43.194  25.196  26.923  1.00  0.00     0.016 A 
ATOM     38  C   UNL A   1      43.550  27.976  27.160  1.00  0.00     0.010 A 
ATOM     39  C   UNL A   1      42.464  25.922  27.871  1.00  0.00     0.010 A 
ATOM     40  C   UNL A   1      42.667  27.307  28.017  1.00  0.00    -0.014 A 
BRANCH  40  41
ATOM     41  C   UNL A   1      42.088  28.040  29.166  1.00  0.00     0.031 A 
ATOM     42  C   UNL A   1      42.803  28.000  30.487  1.00  0.00     0.074 A 
ATOM     43  C   UNL A   1      40.971  28.774  29.019  1.00  0.00     0.049 A 
ATOM     44  N   UNL A   1      42.476  28.555  31.626  1.00  0.00    -0.248 NA
ATOM     45  C   UNL A   1      44.057  27.230  30.531  1.00  0.00     0.031 C 
ATOM     46  C   UNL A   1      40.222  28.931  27.773  1.00  0.00     0.029 A 
ATOM     47  N   UNL A   1      40.276  29.529  29.929  1.00  0.00    -0.354 N 
ATOM     48  C   UNL A   1      43.476  28.196  32.521  1.00  0.00     0.074 A 
ATOM     49  C   UNL A   1      44.406  27.352  31.803  1.00  0.00     0.031 C 
ATOM     50  C   UNL A   1      39.164  29.728  28.000  1.00  0.00     0.029 A 
ATOM     51  C   UNL A   1      39.146  30.111  29.411  1.00  0.00     0.049 A 
ATOM     52  H   UNL A   1      40.560  29.641  30.865  1.00  0.00     0.167 HD
ATOM     53  C   UNL A   1      43.609  28.545  33.823  1.00  0.00     0.037 A 
ATOM     54  C   UNL A   1      38.197  30.851  30.014  1.00  0.00     0.037 A 
ATOM     55  C   UNL A   1      42.684  29.389  34.530  1.00  0.00     0.049 A 
ATOM     56  C   UNL A   1      38.329  31.163  31.482  1.00  0.00     0.074 A 
ATOM     57  C   UNL A   1      42.741  29.820  35.844  1.00  0.00     0.029 A 
ATOM     58  N   UNL A   1      41.527  29.925  33.982  1.00  0.00    -0.354 N 
ATOM     59  N   UNL A   1      39.289  30.838  32.314  1.00  0.00    -0.248 NA
ATOM     60  C   UNL A   1      37.246  31.945  32.092  1.00  0.00     0.031 C 
ATOM     61  C   UNL A   1      41.590  30.571  36.107  1.00  0.00     0.029 A 
ATOM     62  C   UNL A   1      40.847  30.656  34.941  1.00  0.00     0.049 A 
ATOM     63  H   UNL A   1      41.235  29.802  33.051  1.00  0.00     0.167 HD
ATOM     64  C   UNL A   1      38.944  31.402  33.536  1.00  0.00     0.074 A 
ATOM     65  C   UNL A   1      37.690  32.098  33.332  1.00  0.00     0.031 C 
ATOM     66  C   UNL A   1      39.603  31.350  34.719  1.00  0.00     0.037 A 
BRANCH  53  67
ATOM     67  C   UNL A   1      44.783  27.986  34.574  1.00  0.00     0.057 A 
ATOM     68  C   UNL A   1      46.011  28.657  34.643  1.00  0.00     0.134 A 
ATOM     69  C   UNL A   1      44.671  26.773  35.265  1.00  0.00     0.134 A 
ATOM     70  F   UNL A   1      46.190  29.816  33.992  1.00  0.00    -0.206 F 
ATOM     71  C   UNL A   1      47.091  28.132  35.355  1.00  0.00     0.040 A 
ATOM     72  C   UNL A   1      45.735  26.251  36.002  1.00  0.00     0.040 A 
ATOM     73  F   UNL A   1      43.524  26.079  35.243  1.00  0.00    -0.206 F 
ATOM     74  C   UNL A   1      46.952  26.928  36.044  1.00  0.00     0.006 A 
ENDBRANCH  53  67
BRANCH  54  75
ATOM     75  C   UNL A   1      37.028  31.341  29.239  1.00  0.00     0.057 A 
ATOM     76  C   UNL A   1      35.919  30.522  29.001  1.00  0.00     0.134 A 
ATOM     77  C   UNL A   1      37.003  32.633  28.698  1.00  0.00     0.134 A 
ATOM     78  F   UNL A   1      35.893  29.266  29.473  1.00  0.00    -0.206 F 
ATOM     79  C   UNL A   1      34.835  30.961  28.237  1.00  0.00     0.040 A 
ATOM     80  C   UNL A   1      35.915  33.094  27.956  1.00  0.00     0.040 A 
ATOM     81  F   UNL A   1      38.034  33.468  28.891  1.00  0.00    -0.206 F 
ATOM     82  C   UNL A   1      34.830  32.253  27.716  1.00  0.00     0.006 A 
ENDBRANCH  54  75
BRANCH  66  83
ATOM     83  C   UNL A   1      39.005  32.101  35.874  1.00  0.00     0.057 A 
ATOM     84  C   UNL A   1      38.193  31.472  36.825  1.00  0.00     0.134 A 
ATOM     85  C   UNL A   1      39.283  33.461  36.058  1.00  0.00     0.134 A 
ATOM     86  F   UNL A   1      37.879  30.174  36.701  1.00  0.00    -0.206 F 
ATOM     87  C   UNL A   1      37.656  32.177  37.905  1.00  0.00     0.040 A 
ATOM     88  C   UNL A   1      38.776  34.169  37.149  1.00  0.00     0.040 A 
ATOM     89  F   UNL A   1      40.064  34.122  35.189  1.00  0.00    -0.206 F 
ATOM     90  C   UNL A   1      37.955  33.527  38.073  1.00  0.00     0.006 A 
ENDBRANCH  66  83
ENDBRANCH  40  41
ENDBRANCH  33  35
ENDBRANCH  32  33
ENDBRANCH  31  32
ENDBRANCH  30  31
ENDBRANCH  29  30
ENDBRANCH   1  29
TORSDOF 17
ENDMDL
