MODEL 1
REMARK VINA RESULT:     -10.0      0.000      0.000
REMARK SMILES Cc1csc(=O)n1CC(=O)N[C@@H](C(=O)OCCOCCOC(=O)c1ccc(-c2c3nc(c(-c4c(F)cccc4F)c4ccc([nH]4)c(-c4c(F)cccc4F)c4nc(c(-c5c(F)cccc5F)c5ccc2[nH]5)C=C4)C=C3)cc1)[C@@H](C)O
REMARK SMILES IDX 17 1 16 2 15 3 13 4 14 5 12 6 11 7 9 8 10 9 8 11 7 12 1 13
REMARK SMILES IDX 2 14 3 15 4 16 5 17 6 18 78 19 79 20 80 21 18 23 19 24 20 25
REMARK SMILES IDX 21 26 22 27 23 28 24 29 25 30 77 31 26 32 76 33 27 34 28 35
REMARK SMILES IDX 29 36 70 37 30 38 75 39 69 40 71 41 31 42 74 43 68 44 67 45
REMARK SMILES IDX 32 47 58 48 41 49 57 50 42 51 45 52 56 53 72 54 43 55 44 56
REMARK SMILES IDX 55 58 73 59 46 60 33 61 34 62 39 63 35 64 36 65 38 66 40 67
REMARK SMILES IDX 37 68 59 69 60 70 65 71 61 72 62 73 64 74 66 75 63 76 47 77
REMARK SMILES IDX 48 78 53 79 49 80 50 81 52 82 54 83 51 84
REMARK H PARENT 11 10 80 22 71 46 45 57
REMARK Flexibility Score: inf
ROOT
ATOM      1  C   UNL A   1      39.490  21.720  26.318  1.00  0.00     0.202 C 
ENDROOT
BRANCH   1   2
ATOM      2  C   UNL A   1      38.221  21.274  25.590  1.00  0.00     0.261 C 
BRANCH   2   3
ATOM      3  O   UNL A   1      37.174  22.263  25.630  1.00  0.00    -0.462 OA
BRANCH   3   4
ATOM      4  C   UNL A   1      36.402  22.326  24.515  1.00  0.00     0.331 C 
ATOM      5  O   UNL A   1      36.833  22.291  23.364  1.00  0.00    -0.250 OA
BRANCH   4   6
ATOM      6  C   UNL A   1      34.893  22.351  24.794  1.00  0.00     0.221 C 
BRANCH   6   7
ATOM      7  N   UNL A   1      34.438  23.396  25.706  1.00  0.00    -0.339 N 
ATOM      8  C   UNL A   1      33.842  24.579  25.367  1.00  0.00     0.240 C 
ATOM      9  O   UNL A   1      33.237  25.190  26.249  1.00  0.00    -0.273 OA
ATOM     10  H   UNL A   1      34.573  23.232  26.667  1.00  0.00     0.164 HD
BRANCH   8  11
ATOM     11  C   UNL A   1      33.838  25.051  23.899  1.00  0.00     0.226 C 
BRANCH  11  12
ATOM     12  N   UNL A   1      32.723  25.950  23.634  1.00  0.00    -0.294 N 
ATOM     13  C   UNL A   1      30.887  24.200  23.323  1.00  0.00     0.065 C 
ATOM     14  C   UNL A   1      31.399  25.604  23.377  1.00  0.00     0.029 A 
ATOM     15  C   UNL A   1      30.604  26.672  23.209  1.00  0.00     0.091 A 
ATOM     16  S   UNL A   1      31.452  28.169  23.399  1.00  0.00    -0.082 S 
ATOM     17  C   UNL A   1      32.964  27.324  23.756  1.00  0.00     0.307 A 
ATOM     18  O   UNL A   1      33.998  27.880  24.034  1.00  0.00    -0.257 OA
ENDBRANCH  11  12
ENDBRANCH   8  11
ENDBRANCH   6   7
BRANCH   6  19
ATOM     19  C   UNL A   1      34.404  20.947  25.227  1.00  0.00     0.145 C 
ATOM     20  C   UNL A   1      33.223  20.496  24.369  1.00  0.00     0.041 C 
BRANCH  19  21
ATOM     21  O   UNL A   1      35.400  19.933  25.046  1.00  0.00    -0.391 OA
ATOM     22  H   UNL A   1      35.668  19.586  25.910  1.00  0.00     0.211 HD
ENDBRANCH  19  21
ENDBRANCH   6  19
ENDBRANCH   4   6
ENDBRANCH   3   4
ENDBRANCH   2   3
ENDBRANCH   1   2
BRANCH   1  23
ATOM     23  O   UNL A   1      40.429  20.726  26.724  1.00  0.00    -0.374 OA
BRANCH  23  24
ATOM     24  C   UNL A   1      41.792  20.811  26.329  1.00  0.00     0.202 C 
BRANCH  24  25
ATOM     25  C   UNL A   1      42.436  19.614  25.641  1.00  0.00     0.261 C 
BRANCH  25  26
ATOM     26  O   UNL A   1      43.852  19.691  25.651  1.00  0.00    -0.460 OA
BRANCH  26  27
ATOM     27  C   UNL A   1      44.370  20.101  24.468  1.00  0.00     0.338 C 
ATOM     28  O   UNL A   1      44.568  19.419  23.477  1.00  0.00    -0.246 OA
BRANCH  27  29
ATOM     29  C   UNL A   1      44.828  21.486  24.601  1.00  0.00     0.060 A 
ATOM     30  C   UNL A   1      45.681  21.709  25.682  1.00  0.00     0.016 A 
ATOM     31  C   UNL A   1      44.129  22.523  23.967  1.00  0.00     0.016 A 
ATOM     32  C   UNL A   1      45.579  22.910  26.331  1.00  0.00     0.010 A 
ATOM     33  C   UNL A   1      44.025  23.726  24.621  1.00  0.00     0.010 A 
ATOM     34  C   UNL A   1      44.662  23.853  25.851  1.00  0.00    -0.014 A 
BRANCH  34  35
ATOM     35  C   UNL A   1      44.438  25.008  26.687  1.00  0.00     0.031 A 
ATOM     36  C   UNL A   1      45.543  25.983  26.617  1.00  0.00     0.074 A 
ATOM     37  C   UNL A   1      43.317  25.165  27.411  1.00  0.00     0.049 A 
ATOM     38  N   UNL A   1      46.358  26.331  27.555  1.00  0.00    -0.248 NA
ATOM     39  C   UNL A   1      45.884  26.501  25.284  1.00  0.00     0.031 C 
ATOM     40  C   UNL A   1      42.065  24.406  27.336  1.00  0.00     0.029 A 
ATOM     41  N   UNL A   1      43.035  26.132  28.321  1.00  0.00    -0.354 N 
ATOM     42  C   UNL A   1      47.202  27.269  26.972  1.00  0.00     0.074 A 
ATOM     43  C   UNL A   1      46.986  27.197  25.552  1.00  0.00     0.031 C 
ATOM     44  C   UNL A   1      41.096  25.090  27.990  1.00  0.00     0.029 A 
ATOM     45  C   UNL A   1      41.690  26.255  28.624  1.00  0.00     0.049 A 
ATOM     46  H   UNL A   1      43.729  26.698  28.731  1.00  0.00     0.167 HD
ATOM     47  C   UNL A   1      47.816  28.219  27.722  1.00  0.00     0.037 A 
ATOM     48  C   UNL A   1      41.119  27.306  29.262  1.00  0.00     0.037 A 
ATOM     49  C   UNL A   1      47.916  27.821  29.102  1.00  0.00     0.049 A 
ATOM     50  C   UNL A   1      42.201  28.052  29.959  1.00  0.00     0.074 A 
ATOM     51  C   UNL A   1      48.508  26.762  29.764  1.00  0.00     0.029 A 
ATOM     52  N   UNL A   1      47.039  28.376  30.002  1.00  0.00    -0.354 N 
ATOM     53  N   UNL A   1      42.854  27.597  30.992  1.00  0.00    -0.248 NA
ATOM     54  C   UNL A   1      42.866  29.120  29.225  1.00  0.00     0.031 C 
ATOM     55  C   UNL A   1      47.621  26.448  30.836  1.00  0.00     0.029 A 
ATOM     56  C   UNL A   1      46.565  27.357  30.789  1.00  0.00     0.049 A 
ATOM     57  H   UNL A   1      46.797  29.327  30.069  1.00  0.00     0.167 HD
ATOM     58  C   UNL A   1      44.165  28.011  30.796  1.00  0.00     0.074 A 
ATOM     59  C   UNL A   1      44.094  29.017  29.741  1.00  0.00     0.031 C 
ATOM     60  C   UNL A   1      45.216  27.300  31.302  1.00  0.00     0.037 A 
BRANCH  47  61
ATOM     61  C   UNL A   1      47.950  29.650  27.267  1.00  0.00     0.057 A 
ATOM     62  C   UNL A   1      49.179  30.306  27.431  1.00  0.00     0.134 A 
ATOM     63  C   UNL A   1      46.858  30.492  26.951  1.00  0.00     0.134 A 
ATOM     64  F   UNL A   1      50.288  29.620  27.747  1.00  0.00    -0.206 F 
ATOM     65  C   UNL A   1      49.298  31.699  27.369  1.00  0.00     0.040 A 
ATOM     66  C   UNL A   1      46.978  31.877  26.832  1.00  0.00     0.040 A 
ATOM     67  F   UNL A   1      45.604  30.044  26.842  1.00  0.00    -0.206 F 
ATOM     68  C   UNL A   1      48.194  32.490  27.076  1.00  0.00     0.006 A 
ENDBRANCH  47  61
BRANCH  48  69
ATOM     69  C   UNL A   1      39.784  27.897  29.017  1.00  0.00     0.057 A 
ATOM     70  C   UNL A   1      38.856  28.046  30.055  1.00  0.00     0.134 A 
ATOM     71  C   UNL A   1      39.484  28.572  27.819  1.00  0.00     0.134 A 
ATOM     72  F   UNL A   1      39.076  27.481  31.251  1.00  0.00    -0.206 F 
ATOM     73  C   UNL A   1      37.705  28.834  29.917  1.00  0.00     0.040 A 
ATOM     74  C   UNL A   1      38.335  29.354  27.665  1.00  0.00     0.040 A 
ATOM     75  F   UNL A   1      40.339  28.571  26.787  1.00  0.00    -0.206 F 
ATOM     76  C   UNL A   1      37.446  29.499  28.722  1.00  0.00     0.006 A 
ENDBRANCH  48  69
BRANCH  60  77
ATOM     77  C   UNL A   1      44.908  26.195  32.275  1.00  0.00     0.057 A 
ATOM     78  C   UNL A   1      44.600  24.881  31.889  1.00  0.00     0.134 A 
ATOM     79  C   UNL A   1      45.080  26.428  33.643  1.00  0.00     0.134 A 
ATOM     80  F   UNL A   1      44.518  24.540  30.597  1.00  0.00    -0.206 F 
ATOM     81  C   UNL A   1      44.425  23.859  32.826  1.00  0.00     0.040 A 
ATOM     82  C   UNL A   1      44.941  25.408  34.588  1.00  0.00     0.040 A 
ATOM     83  F   UNL A   1      45.435  27.646  34.083  1.00  0.00    -0.206 F 
ATOM     84  C   UNL A   1      44.603  24.120  34.181  1.00  0.00     0.006 A 
ENDBRANCH  60  77
ENDBRANCH  34  35
ENDBRANCH  27  29
ENDBRANCH  26  27
ENDBRANCH  25  26
ENDBRANCH  24  25
ENDBRANCH  23  24
ENDBRANCH   1  23
TORSDOF 19
ENDMDL
MODEL 2
REMARK VINA RESULT:     -10.0      4.973     10.283
REMARK SMILES Cc1csc(=O)n1CC(=O)N[C@@H](C(=O)OCCOCCOC(=O)c1ccc(-c2c3nc(c(-c4c(F)cccc4F)c4ccc([nH]4)c(-c4c(F)cccc4F)c4nc(c(-c5c(F)cccc5F)c5ccc2[nH]5)C=C4)C=C3)cc1)[C@@H](C)O
REMARK SMILES IDX 17 1 16 2 15 3 13 4 14 5 12 6 11 7 9 8 10 9 8 11 7 12 1 13
REMARK SMILES IDX 2 14 3 15 4 16 5 17 6 18 78 19 79 20 80 21 18 23 19 24 20 25
REMARK SMILES IDX 21 26 22 27 23 28 24 29 25 30 77 31 26 32 76 33 27 34 28 35
REMARK SMILES IDX 29 36 70 37 30 38 75 39 69 40 71 41 31 42 74 43 68 44 67 45
REMARK SMILES IDX 32 47 58 48 41 49 57 50 42 51 45 52 56 53 72 54 43 55 44 56
REMARK SMILES IDX 55 58 73 59 46 60 33 61 34 62 39 63 35 64 36 65 38 66 40 67
REMARK SMILES IDX 37 68 59 69 60 70 65 71 61 72 62 73 64 74 66 75 63 76 47 77
REMARK SMILES IDX 48 78 53 79 49 80 50 81 52 82 54 83 51 84
REMARK H PARENT 11 10 80 22 71 46 45 57
REMARK Flexibility Score: inf
ROOT
ATOM      1  C   UNL A   1      34.076  31.870  28.074  1.00  0.00     0.202 C 
ENDROOT
BRANCH   1   2
ATOM      2  C   UNL A   1      33.026  31.219  27.172  1.00  0.00     0.261 C 
BRANCH   2   3
ATOM      3  O   UNL A   1      33.368  29.872  26.794  1.00  0.00    -0.462 OA
BRANCH   3   4
ATOM      4  C   UNL A   1      32.333  28.993  26.808  1.00  0.00     0.331 C 
ATOM      5  O   UNL A   1      31.416  29.008  27.626  1.00  0.00    -0.250 OA
BRANCH   4   6
ATOM      6  C   UNL A   1      32.336  27.999  25.639  1.00  0.00     0.221 C 
BRANCH   6   7
ATOM      7  N   UNL A   1      33.429  27.031  25.636  1.00  0.00    -0.339 N 
ATOM      8  C   UNL A   1      33.481  25.855  24.942  1.00  0.00     0.240 C 
ATOM      9  O   UNL A   1      34.583  25.324  24.795  1.00  0.00    -0.273 OA
ATOM     10  H   UNL A   1      34.212  27.249  26.191  1.00  0.00     0.164 HD
BRANCH   8  11
ATOM     11  C   UNL A   1      32.211  25.294  24.272  1.00  0.00     0.226 C 
BRANCH  11  12
ATOM     12  N   UNL A   1      31.663  24.175  25.028  1.00  0.00    -0.294 N 
ATOM     13  C   UNL A   1      32.914  22.277  23.861  1.00  0.00     0.065 C 
ATOM     14  C   UNL A   1      31.957  22.823  24.871  1.00  0.00     0.029 A 
ATOM     15  C   UNL A   1      31.310  22.044  25.751  1.00  0.00     0.091 A 
ATOM     16  S   UNL A   1      30.327  22.953  26.849  1.00  0.00    -0.082 S 
ATOM     17  C   UNL A   1      30.830  24.480  26.112  1.00  0.00     0.307 A 
ATOM     18  O   UNL A   1      30.476  25.566  26.501  1.00  0.00    -0.257 OA
ENDBRANCH  11  12
ENDBRANCH   8  11
ENDBRANCH   6   7
BRANCH   6  19
ATOM     19  C   UNL A   1      32.224  28.755  24.292  1.00  0.00     0.145 C 
ATOM     20  C   UNL A   1      30.939  29.580  24.239  1.00  0.00     0.041 C 
BRANCH  19  21
ATOM     21  O   UNL A   1      33.280  29.703  24.099  1.00  0.00    -0.391 OA
ATOM     22  H   UNL A   1      33.013  30.562  24.460  1.00  0.00     0.211 HD
ENDBRANCH  19  21
ENDBRANCH   6  19
ENDBRANCH   4   6
ENDBRANCH   3   4
ENDBRANCH   2   3
ENDBRANCH   1   2
BRANCH   1  23
ATOM     23  O   UNL A   1      34.540  33.179  27.748  1.00  0.00    -0.374 OA
BRANCH  23  24
ATOM     24  C   UNL A   1      34.618  34.190  28.743  1.00  0.00     0.202 C 
BRANCH  24  25
ATOM     25  C   UNL A   1      33.333  34.671  29.406  1.00  0.00     0.261 C 
BRANCH  25  26
ATOM     26  O   UNL A   1      33.585  35.599  30.448  1.00  0.00    -0.460 OA
BRANCH  26  27
ATOM     27  C   UNL A   1      33.099  35.198  31.647  1.00  0.00     0.338 C 
ATOM     28  O   UNL A   1      32.007  35.462  32.122  1.00  0.00    -0.246 OA
BRANCH  27  29
ATOM     29  C   UNL A   1      34.162  34.517  32.392  1.00  0.00     0.060 A 
ATOM     30  C   UNL A   1      35.334  35.259  32.527  1.00  0.00     0.016 A 
ATOM     31  C   UNL A   1      34.128  33.125  32.552  1.00  0.00     0.016 A 
ATOM     32  C   UNL A   1      36.522  34.577  32.497  1.00  0.00     0.010 A 
ATOM     33  C   UNL A   1      35.319  32.442  32.518  1.00  0.00     0.010 A 
ATOM     34  C   UNL A   1      36.488  33.183  32.375  1.00  0.00    -0.014 A 
BRANCH  34  35
ATOM     35  C   UNL A   1      37.753  32.532  32.134  1.00  0.00     0.031 A 
ATOM     36  C   UNL A   1      38.630  32.538  33.320  1.00  0.00     0.074 A 
ATOM     37  C   UNL A   1      38.056  31.962  30.955  1.00  0.00     0.049 A 
ATOM     38  N   UNL A   1      39.761  33.141  33.472  1.00  0.00    -0.248 NA
ATOM     39  C   UNL A   1      38.086  31.936  34.547  1.00  0.00     0.031 C 
ATOM     40  C   UNL A   1      37.167  31.664  29.829  1.00  0.00     0.029 A 
ATOM     41  N   UNL A   1      39.240  31.431  30.561  1.00  0.00    -0.354 N 
ATOM     42  C   UNL A   1      40.168  32.827  34.763  1.00  0.00     0.074 A 
ATOM     43  C   UNL A   1      39.032  32.249  35.429  1.00  0.00     0.031 C 
ATOM     44  C   UNL A   1      37.792  30.803  28.991  1.00  0.00     0.029 A 
ATOM     45  C   UNL A   1      39.153  30.596  29.460  1.00  0.00     0.049 A 
ATOM     46  H   UNL A   1      40.091  31.623  31.019  1.00  0.00     0.167 HD
ATOM     47  C   UNL A   1      41.483  32.822  35.101  1.00  0.00     0.037 A 
ATOM     48  C   UNL A   1      40.111  29.729  29.051  1.00  0.00     0.037 A 
ATOM     49  C   UNL A   1      42.262  33.638  34.206  1.00  0.00     0.049 A 
ATOM     50  C   UNL A   1      41.392  30.143  29.681  1.00  0.00     0.074 A 
ATOM     51  C   UNL A   1      42.248  34.974  33.853  1.00  0.00     0.029 A 
ATOM     52  N   UNL A   1      43.011  33.009  33.241  1.00  0.00    -0.354 N 
ATOM     53  N   UNL A   1      42.043  31.229  29.369  1.00  0.00    -0.248 NA
ATOM     54  C   UNL A   1      41.721  29.574  30.981  1.00  0.00     0.031 C 
ATOM     55  C   UNL A   1      42.574  34.998  32.465  1.00  0.00     0.029 A 
ATOM     56  C   UNL A   1      42.807  33.683  32.064  1.00  0.00     0.049 A 
ATOM     57  H   UNL A   1      43.587  32.222  33.372  1.00  0.00     0.167 HD
ATOM     58  C   UNL A   1      42.536  31.709  30.575  1.00  0.00     0.074 A 
ATOM     59  C   UNL A   1      42.381  30.604  31.517  1.00  0.00     0.031 C 
ATOM     60  C   UNL A   1      42.757  33.042  30.770  1.00  0.00     0.037 A 
BRANCH  47  61
ATOM     61  C   UNL A   1      42.088  31.762  35.985  1.00  0.00     0.057 A 
ATOM     62  C   UNL A   1      42.904  32.153  37.058  1.00  0.00     0.134 A 
ATOM     63  C   UNL A   1      42.146  30.387  35.658  1.00  0.00     0.134 A 
ATOM     64  F   UNL A   1      42.950  33.433  37.456  1.00  0.00    -0.206 F 
ATOM     65  C   UNL A   1      43.772  31.263  37.701  1.00  0.00     0.040 A 
ATOM     66  C   UNL A   1      42.966  29.481  36.330  1.00  0.00     0.040 A 
ATOM     67  F   UNL A   1      41.498  29.862  34.614  1.00  0.00    -0.206 F 
ATOM     68  C   UNL A   1      43.811  29.924  37.332  1.00  0.00     0.006 A 
ENDBRANCH  47  61
BRANCH  48  69
ATOM     69  C   UNL A   1      39.921  28.387  28.453  1.00  0.00     0.057 A 
ATOM     70  C   UNL A   1      40.468  28.067  27.204  1.00  0.00     0.134 A 
ATOM     71  C   UNL A   1      39.429  27.305  29.207  1.00  0.00     0.134 A 
ATOM     72  F   UNL A   1      41.007  29.021  26.431  1.00  0.00    -0.206 F 
ATOM     73  C   UNL A   1      40.537  26.746  26.738  1.00  0.00     0.040 A 
ATOM     74  C   UNL A   1      39.482  25.985  28.750  1.00  0.00     0.040 A 
ATOM     75  F   UNL A   1      38.960  27.481  30.450  1.00  0.00    -0.206 F 
ATOM     76  C   UNL A   1      40.051  25.699  27.516  1.00  0.00     0.006 A 
ENDBRANCH  48  69
BRANCH  60  77
ATOM     77  C   UNL A   1      42.681  33.946  29.570  1.00  0.00     0.057 A 
ATOM     78  C   UNL A   1      41.527  34.653  29.200  1.00  0.00     0.134 A 
ATOM     79  C   UNL A   1      43.852  34.229  28.860  1.00  0.00     0.134 A 
ATOM     80  F   UNL A   1      40.386  34.526  29.888  1.00  0.00    -0.206 F 
ATOM     81  C   UNL A   1      41.529  35.565  28.141  1.00  0.00     0.040 A 
ATOM     82  C   UNL A   1      43.875  35.163  27.820  1.00  0.00     0.040 A 
ATOM     83  F   UNL A   1      45.009  33.636  29.196  1.00  0.00    -0.206 F 
ATOM     84  C   UNL A   1      42.708  35.828  27.451  1.00  0.00     0.006 A 
ENDBRANCH  60  77
ENDBRANCH  34  35
ENDBRANCH  27  29
ENDBRANCH  26  27
ENDBRANCH  25  26
ENDBRANCH  24  25
ENDBRANCH  23  24
ENDBRANCH   1  23
TORSDOF 19
ENDMDL
MODEL 3
REMARK VINA RESULT:      -9.7      3.129      7.565
REMARK SMILES Cc1csc(=O)n1CC(=O)N[C@@H](C(=O)OCCOCCOC(=O)c1ccc(-c2c3nc(c(-c4c(F)cccc4F)c4ccc([nH]4)c(-c4c(F)cccc4F)c4nc(c(-c5c(F)cccc5F)c5ccc2[nH]5)C=C4)C=C3)cc1)[C@@H](C)O
REMARK SMILES IDX 17 1 16 2 15 3 13 4 14 5 12 6 11 7 9 8 10 9 8 11 7 12 1 13
REMARK SMILES IDX 2 14 3 15 4 16 5 17 6 18 78 19 79 20 80 21 18 23 19 24 20 25
REMARK SMILES IDX 21 26 22 27 23 28 24 29 25 30 77 31 26 32 76 33 27 34 28 35
REMARK SMILES IDX 29 36 70 37 30 38 75 39 69 40 71 41 31 42 74 43 68 44 67 45
REMARK SMILES IDX 32 47 58 48 41 49 57 50 42 51 45 52 56 53 72 54 43 55 44 56
REMARK SMILES IDX 55 58 73 59 46 60 33 61 34 62 39 63 35 64 36 65 38 66 40 67
REMARK SMILES IDX 37 68 59 69 60 70 65 71 61 72 62 73 64 74 66 75 63 76 47 77
REMARK SMILES IDX 48 78 53 79 49 80 50 81 52 82 54 83 51 84
REMARK H PARENT 11 10 80 22 71 46 45 57
REMARK Flexibility Score: inf
ROOT
ATOM      1  C   UNL A   1      32.663  29.877  26.855  1.00  0.00     0.202 C 
ENDROOT
BRANCH   1   2
ATOM      2  C   UNL A   1      32.785  29.650  25.347  1.00  0.00     0.261 C 
BRANCH   2   3
ATOM      3  O   UNL A   1      31.509  29.614  24.680  1.00  0.00    -0.462 OA
BRANCH   3   4
ATOM      4  C   UNL A   1      31.036  28.368  24.417  1.00  0.00     0.331 C 
ATOM      5  O   UNL A   1      30.657  27.570  25.272  1.00  0.00    -0.250 OA
BRANCH   4   6
ATOM      6  C   UNL A   1      30.915  28.044  22.922  1.00  0.00     0.221 C 
BRANCH   6   7
ATOM      7  N   UNL A   1      32.175  27.810  22.223  1.00  0.00    -0.339 N 
ATOM      8  C   UNL A   1      32.860  26.631  22.139  1.00  0.00     0.240 C 
ATOM      9  O   UNL A   1      33.717  26.527  21.260  1.00  0.00    -0.273 OA
ATOM     10  H   UNL A   1      32.572  28.584  21.761  1.00  0.00     0.164 HD
BRANCH   8  11
ATOM     11  C   UNL A   1      32.474  25.445  23.046  1.00  0.00     0.226 C 
BRANCH  11  12
ATOM     12  N   UNL A   1      33.654  24.798  23.603  1.00  0.00    -0.294 N 
ATOM     13  C   UNL A   1      33.864  26.168  25.750  1.00  0.00     0.065 C 
ATOM     14  C   UNL A   1      34.295  25.094  24.803  1.00  0.00     0.029 A 
ATOM     15  C   UNL A   1      35.339  24.288  25.050  1.00  0.00     0.091 A 
ATOM     16  S   UNL A   1      35.560  23.090  23.820  1.00  0.00    -0.082 S 
ATOM     17  C   UNL A   1      34.152  23.677  22.926  1.00  0.00     0.307 A 
ATOM     18  O   UNL A   1      33.742  23.175  21.908  1.00  0.00    -0.257 OA
ENDBRANCH  11  12
ENDBRANCH   8  11
ENDBRANCH   6   7
BRANCH   6  19
ATOM     19  C   UNL A   1      30.042  29.108  22.211  1.00  0.00     0.145 C 
ATOM     20  C   UNL A   1      29.099  29.787  23.204  1.00  0.00     0.041 C 
BRANCH  19  21
ATOM     21  O   UNL A   1      30.817  30.174  21.649  1.00  0.00    -0.391 OA
ATOM     22  H   UNL A   1      31.237  29.870  20.830  1.00  0.00     0.211 HD
ENDBRANCH  19  21
ENDBRANCH   6  19
ENDBRANCH   4   6
ENDBRANCH   3   4
ENDBRANCH   2   3
ENDBRANCH   1   2
BRANCH   1  23
ATOM     23  O   UNL A   1      32.960  31.171  27.377  1.00  0.00    -0.374 OA
BRANCH  23  24
ATOM     24  C   UNL A   1      34.302  31.559  27.633  1.00  0.00     0.202 C 
BRANCH  24  25
ATOM     25  C   UNL A   1      35.372  30.480  27.748  1.00  0.00     0.261 C 
BRANCH  25  26
ATOM     26  O   UNL A   1      36.380  30.826  28.684  1.00  0.00    -0.460 OA
BRANCH  26  27
ATOM     27  C   UNL A   1      36.762  29.785  29.463  1.00  0.00     0.338 C 
ATOM     28  O   UNL A   1      36.467  29.597  30.632  1.00  0.00    -0.246 OA
BRANCH  27  29
ATOM     29  C   UNL A   1      37.742  28.976  28.736  1.00  0.00     0.060 A 
ATOM     30  C   UNL A   1      38.219  27.875  29.447  1.00  0.00     0.016 A 
ATOM     31  C   UNL A   1      38.423  29.515  27.635  1.00  0.00     0.016 A 
ATOM     32  C   UNL A   1      39.530  27.524  29.263  1.00  0.00     0.010 A 
ATOM     33  C   UNL A   1      39.738  29.164  27.455  1.00  0.00     0.010 A 
ATOM     34  C   UNL A   1      40.296  28.257  28.349  1.00  0.00    -0.014 A 
BRANCH  34  35
ATOM     35  C   UNL A   1      41.715  27.991  28.347  1.00  0.00     0.031 A 
ATOM     36  C   UNL A   1      42.052  26.713  27.691  1.00  0.00     0.074 A 
ATOM     37  C   UNL A   1      42.609  28.850  28.864  1.00  0.00     0.049 A 
ATOM     38  N   UNL A   1      42.561  25.654  28.225  1.00  0.00    -0.248 NA
ATOM     39  C   UNL A   1      41.600  26.544  26.301  1.00  0.00     0.031 C 
ATOM     40  C   UNL A   1      42.407  30.241  29.279  1.00  0.00     0.029 A 
ATOM     41  N   UNL A   1      43.943  28.671  29.034  1.00  0.00    -0.354 N 
ATOM     42  C   UNL A   1      42.675  24.743  27.182  1.00  0.00     0.074 A 
ATOM     43  C   UNL A   1      41.911  25.269  26.083  1.00  0.00     0.031 C 
ATOM     44  C   UNL A   1      43.614  30.837  29.425  1.00  0.00     0.029 A 
ATOM     45  C   UNL A   1      44.655  29.841  29.236  1.00  0.00     0.049 A 
ATOM     46  H   UNL A   1      44.369  27.783  29.016  1.00  0.00     0.167 HD
ATOM     47  C   UNL A   1      43.609  23.757  27.212  1.00  0.00     0.037 A 
ATOM     48  C   UNL A   1      46.001  29.970  29.144  1.00  0.00     0.037 A 
ATOM     49  C   UNL A   1      44.030  23.469  28.559  1.00  0.00     0.049 A 
ATOM     50  C   UNL A   1      46.592  28.609  29.242  1.00  0.00     0.074 A 
ATOM     51  C   UNL A   1      43.386  23.042  29.705  1.00  0.00     0.029 A 
ATOM     52  N   UNL A   1      45.243  23.958  28.978  1.00  0.00    -0.354 N 
ATOM     53  N   UNL A   1      46.594  27.889  30.330  1.00  0.00    -0.248 NA
ATOM     54  C   UNL A   1      46.783  27.864  28.005  1.00  0.00     0.031 C 
ATOM     55  C   UNL A   1      44.032  23.729  30.775  1.00  0.00     0.029 A 
ATOM     56  C   UNL A   1      45.055  24.500  30.224  1.00  0.00     0.049 A 
ATOM     57  H   UNL A   1      46.089  23.927  28.476  1.00  0.00     0.167 HD
ATOM     58  C   UNL A   1      46.364  26.589  29.898  1.00  0.00     0.074 A 
ATOM     59  C   UNL A   1      46.577  26.623  28.454  1.00  0.00     0.031 C 
ATOM     60  C   UNL A   1      45.746  25.674  30.702  1.00  0.00     0.037 A 
BRANCH  47  61
ATOM     61  C   UNL A   1      44.408  23.360  25.998  1.00  0.00     0.057 A 
ATOM     62  C   UNL A   1      44.479  22.004  25.641  1.00  0.00     0.134 A 
ATOM     63  C   UNL A   1      45.339  24.201  25.345  1.00  0.00     0.134 A 
ATOM     64  F   UNL A   1      43.659  21.102  26.201  1.00  0.00    -0.206 F 
ATOM     65  C   UNL A   1      45.454  21.510  24.767  1.00  0.00     0.040 A 
ATOM     66  C   UNL A   1      46.278  23.726  24.429  1.00  0.00     0.040 A 
ATOM     67  F   UNL A   1      45.464  25.501  25.627  1.00  0.00    -0.206 F 
ATOM     68  C   UNL A   1      46.363  22.371  24.164  1.00  0.00     0.006 A 
ENDBRANCH  47  61
BRANCH  48  69
ATOM     69  C   UNL A   1      46.766  31.128  28.627  1.00  0.00     0.057 A 
ATOM     70  C   UNL A   1      47.681  31.812  29.437  1.00  0.00     0.134 A 
ATOM     71  C   UNL A   1      46.816  31.426  27.252  1.00  0.00     0.134 A 
ATOM     72  F   UNL A   1      47.744  31.562  30.753  1.00  0.00    -0.206 F 
ATOM     73  C   UNL A   1      48.604  32.726  28.910  1.00  0.00     0.040 A 
ATOM     74  C   UNL A   1      47.724  32.342  26.715  1.00  0.00     0.040 A 
ATOM     75  F   UNL A   1      46.046  30.772  26.371  1.00  0.00    -0.206 F 
ATOM     76  C   UNL A   1      48.633  32.987  27.543  1.00  0.00     0.006 A 
ENDBRANCH  48  69
BRANCH  60  77
ATOM     77  C   UNL A   1      45.539  26.041  32.146  1.00  0.00     0.057 A 
ATOM     78  C   UNL A   1      44.373  26.650  32.635  1.00  0.00     0.134 A 
ATOM     79  C   UNL A   1      46.480  25.625  33.093  1.00  0.00     0.134 A 
ATOM     80  F   UNL A   1      43.371  26.988  31.814  1.00  0.00    -0.206 F 
ATOM     81  C   UNL A   1      44.177  26.877  34.001  1.00  0.00     0.040 A 
ATOM     82  C   UNL A   1      46.280  25.815  34.463  1.00  0.00     0.040 A 
ATOM     83  F   UNL A   1      47.592  24.981  32.704  1.00  0.00    -0.206 F 
ATOM     84  C   UNL A   1      45.130  26.452  34.921  1.00  0.00     0.006 A 
ENDBRANCH  60  77
ENDBRANCH  34  35
ENDBRANCH  27  29
ENDBRANCH  26  27
ENDBRANCH  25  26
ENDBRANCH  24  25
ENDBRANCH  23  24
ENDBRANCH   1  23
TORSDOF 19
ENDMDL
