MODEL 1
REMARK VINA RESULT:     -11.8      0.000      0.000
REMARK SMILES Cc1cccc(O[C@H](C)C(=O)NNC(=O)[C@H]2[C@@H]3CC[C@@H](C3)[C@@H]2C(=O)OCCOCCOC(=O)c2ccc(-c3c4nc(c(-c5c(F)cccc5F)c5ccc([nH]5)c(-c5c(F)cccc5F)c5nc(c(-c6c(F)cccc6F)c6ccc3[nH]6)C=C5)C=C4)cc2)c1
REMARK SMILES IDX 26 1 25 2 23 3 24 4 22 5 16 6 17 7 18 8 21 9 20 10 19 11
REMARK SMILES IDX 14 12 13 13 15 15 12 16 10 17 11 18 8 20 9 21 7 22 6 23 1 24
REMARK SMILES IDX 2 25 3 26 88 27 4 28 5 29 27 30 28 31 29 32 30 33 31 34
REMARK SMILES IDX 32 35 33 36 34 37 35 38 87 39 36 40 86 41 37 42 38 43 39 44
REMARK SMILES IDX 80 45 40 46 85 47 79 48 81 49 41 50 84 51 78 52 77 53 42 55
REMARK SMILES IDX 68 56 51 57 67 58 52 59 55 60 66 61 82 62 53 63 54 64 65 66
REMARK SMILES IDX 83 67 56 68 43 69 44 70 49 71 45 72 46 73 48 74 50 75 47 76
REMARK SMILES IDX 69 77 70 78 75 79 71 80 72 81 74 82 76 83 73 84 57 85 58 86
REMARK SMILES IDX 63 87 59 88 60 89 62 90 64 91 61 92
REMARK H PARENT 13 14 12 19 81 54 55 65
REMARK Flexibility Score: inf
ROOT
ATOM      1  C   UNL A   1      33.647  27.843  26.679  1.00  0.00     0.261 C 
ENDROOT
BRANCH   1   2
ATOM      2  O   UNL A   1      34.067  27.276  25.421  1.00  0.00    -0.463 OA
BRANCH   2   3
ATOM      3  C   UNL A   1      33.620  27.797  24.229  1.00  0.00     0.310 C 
ATOM      4  O   UNL A   1      34.250  28.449  23.432  1.00  0.00    -0.252 OA
BRANCH   3   5
ATOM      5  C   UNL A   1      32.231  27.265  24.000  1.00  0.00     0.115 C 
ATOM      6  C   UNL A   1      31.969  27.083  22.505  1.00  0.00     0.098 C 
ATOM      7  C   UNL A   1      30.456  27.373  22.377  1.00  0.00     0.003 C 
ATOM      8  C   UNL A   1      30.286  28.907  22.343  1.00  0.00     0.005 C 
ATOM      9  C   UNL A   1      29.917  27.088  23.781  1.00  0.00     0.009 C 
ATOM     10  C   UNL A   1      30.962  27.981  24.474  1.00  0.00     0.004 C 
ATOM     11  C   UNL A   1      30.725  29.321  23.757  1.00  0.00     0.005 C 
BRANCH   6  12
ATOM     12  C   UNL A   1      32.494  25.834  21.836  1.00  0.00     0.242 C 
ATOM     13  N   UNL A   1      32.326  24.571  22.310  1.00  0.00    -0.267 N 
ATOM     14  H   UNL A   1      33.005  23.923  22.014  1.00  0.00     0.191 HD
ATOM     15  O   UNL A   1      33.171  25.952  20.807  1.00  0.00    -0.273 OA
BRANCH  13  16
ATOM     16  N   UNL A   1      31.349  24.057  23.142  1.00  0.00    -0.264 N 
ATOM     17  C   UNL A   1      31.546  23.911  24.490  1.00  0.00     0.279 C 
ATOM     18  O   UNL A   1      30.648  24.291  25.251  1.00  0.00    -0.269 OA
ATOM     19  H   UNL A   1      30.485  23.788  22.754  1.00  0.00     0.191 HD
BRANCH  17  20
ATOM     20  C   UNL A   1      32.731  23.059  25.027  1.00  0.00     0.260 C 
ATOM     21  C   UNL A   1      32.217  22.085  26.096  1.00  0.00     0.064 C 
BRANCH  20  22
ATOM     22  O   UNL A   1      33.835  22.610  24.268  1.00  0.00    -0.481 OA
BRANCH  22  23
ATOM     23  C   UNL A   1      35.139  22.669  24.634  1.00  0.00     0.120 A 
ATOM     24  C   UNL A   1      37.801  19.952  25.004  1.00  0.00     0.044 C 
ATOM     25  C   UNL A   1      37.111  21.282  25.039  1.00  0.00    -0.047 A 
ATOM     26  C   UNL A   1      37.778  22.398  25.550  1.00  0.00     0.003 A 
ATOM     27  C   UNL A   1      35.796  21.432  24.580  1.00  0.00     0.049 A 
ATOM     28  C   UNL A   1      37.150  23.641  25.566  1.00  0.00     0.004 A 
ATOM     29  C   UNL A   1      35.843  23.782  25.089  1.00  0.00     0.046 A 
ENDBRANCH  22  23
ENDBRANCH  20  22
ENDBRANCH  17  20
ENDBRANCH  13  16
ENDBRANCH   6  12
ENDBRANCH   3   5
ENDBRANCH   2   3
ENDBRANCH   1   2
BRANCH   1  30
ATOM     30  C   UNL A   1      33.834  29.343  26.718  1.00  0.00     0.202 C 
BRANCH  30  31
ATOM     31  O   UNL A   1      32.556  29.915  26.947  1.00  0.00    -0.374 OA
BRANCH  31  32
ATOM     32  C   UNL A   1      32.537  31.299  27.251  1.00  0.00     0.202 C 
BRANCH  32  33
ATOM     33  C   UNL A   1      33.906  31.848  27.680  1.00  0.00     0.261 C 
BRANCH  33  34
ATOM     34  O   UNL A   1      33.854  33.287  27.782  1.00  0.00    -0.460 OA
BRANCH  34  35
ATOM     35  C   UNL A   1      33.732  33.784  29.044  1.00  0.00     0.338 C 
ATOM     36  O   UNL A   1      32.820  34.492  29.439  1.00  0.00    -0.246 OA
BRANCH  35  37
ATOM     37  C   UNL A   1      35.005  33.572  29.793  1.00  0.00     0.060 A 
ATOM     38  C   UNL A   1      36.203  34.147  29.325  1.00  0.00     0.016 A 
ATOM     39  C   UNL A   1      35.050  32.558  30.742  1.00  0.00     0.016 A 
ATOM     40  C   UNL A   1      37.444  33.597  29.690  1.00  0.00     0.010 A 
ATOM     41  C   UNL A   1      36.263  31.959  31.008  1.00  0.00     0.010 A 
ATOM     42  C   UNL A   1      37.470  32.448  30.478  1.00  0.00    -0.014 A 
BRANCH  42  43
ATOM     43  C   UNL A   1      38.643  31.608  30.758  1.00  0.00     0.031 A 
ATOM     44  C   UNL A   1      38.887  30.402  29.922  1.00  0.00     0.074 A 
ATOM     45  C   UNL A   1      39.669  32.037  31.533  1.00  0.00     0.049 A 
ATOM     46  N   UNL A   1      39.789  29.516  30.179  1.00  0.00    -0.248 NA
ATOM     47  C   UNL A   1      38.110  30.066  28.736  1.00  0.00     0.031 C 
ATOM     48  C   UNL A   1      41.075  31.658  31.382  1.00  0.00     0.029 A 
ATOM     49  N   UNL A   1      39.701  32.945  32.592  1.00  0.00    -0.354 N 
ATOM     50  C   UNL A   1      39.969  28.752  29.049  1.00  0.00     0.074 A 
ATOM     51  C   UNL A   1      38.811  29.044  28.242  1.00  0.00     0.031 C 
ATOM     52  C   UNL A   1      41.799  32.152  32.394  1.00  0.00     0.029 A 
ATOM     53  C   UNL A   1      40.870  32.724  33.338  1.00  0.00     0.049 A 
ATOM     54  H   UNL A   1      39.017  33.628  32.784  1.00  0.00     0.167 HD
ATOM     55  C   UNL A   1      41.147  28.077  28.895  1.00  0.00     0.037 A 
ATOM     56  C   UNL A   1      40.830  32.470  34.673  1.00  0.00     0.037 A 
ATOM     57  C   UNL A   1      42.047  28.315  30.043  1.00  0.00     0.049 A 
ATOM     58  C   UNL A   1      41.379  31.101  34.960  1.00  0.00     0.074 A 
ATOM     59  C   UNL A   1      43.243  29.003  30.195  1.00  0.00     0.029 A 
ATOM     60  N   UNL A   1      41.624  28.008  31.337  1.00  0.00    -0.354 N 
ATOM     61  N   UNL A   1      41.523  30.202  34.026  1.00  0.00    -0.248 NA
ATOM     62  C   UNL A   1      41.864  30.636  36.249  1.00  0.00     0.031 C 
ATOM     63  C   UNL A   1      43.554  29.059  31.582  1.00  0.00     0.029 A 
ATOM     64  C   UNL A   1      42.554  28.399  32.280  1.00  0.00     0.049 A 
ATOM     65  H   UNL A   1      40.769  27.568  31.551  1.00  0.00     0.167 HD
ATOM     66  C   UNL A   1      42.132  29.089  34.522  1.00  0.00     0.074 A 
ATOM     67  C   UNL A   1      42.309  29.404  35.929  1.00  0.00     0.031 C 
ATOM     68  C   UNL A   1      42.406  28.035  33.694  1.00  0.00     0.037 A 
BRANCH  55  69
ATOM     69  C   UNL A   1      41.619  27.360  27.630  1.00  0.00     0.057 A 
ATOM     70  C   UNL A   1      41.355  25.986  27.440  1.00  0.00     0.134 A 
ATOM     71  C   UNL A   1      42.336  27.933  26.561  1.00  0.00     0.134 A 
ATOM     72  F   UNL A   1      40.605  25.284  28.300  1.00  0.00    -0.206 F 
ATOM     73  C   UNL A   1      41.825  25.248  26.340  1.00  0.00     0.040 A 
ATOM     74  C   UNL A   1      42.833  27.204  25.468  1.00  0.00     0.040 A 
ATOM     75  F   UNL A   1      42.561  29.241  26.459  1.00  0.00    -0.206 F 
ATOM     76  C   UNL A   1      42.587  25.851  25.356  1.00  0.00     0.006 A 
ENDBRANCH  55  69
BRANCH  56  77
ATOM     77  C   UNL A   1      39.738  33.218  35.347  1.00  0.00     0.057 A 
ATOM     78  C   UNL A   1      38.585  32.483  35.691  1.00  0.00     0.134 A 
ATOM     79  C   UNL A   1      40.012  34.359  36.110  1.00  0.00     0.134 A 
ATOM     80  F   UNL A   1      38.277  31.363  35.016  1.00  0.00    -0.206 F 
ATOM     81  C   UNL A   1      37.817  32.792  36.818  1.00  0.00     0.040 A 
ATOM     82  C   UNL A   1      39.260  34.665  37.254  1.00  0.00     0.040 A 
ATOM     83  F   UNL A   1      41.105  35.094  35.863  1.00  0.00    -0.206 F 
ATOM     84  C   UNL A   1      38.183  33.862  37.629  1.00  0.00     0.006 A 
ENDBRANCH  56  77
BRANCH  68  85
ATOM     85  C   UNL A   1      42.616  26.587  34.095  1.00  0.00     0.057 A 
ATOM     86  C   UNL A   1      43.771  25.836  33.838  1.00  0.00     0.134 A 
ATOM     87  C   UNL A   1      41.676  25.934  34.934  1.00  0.00     0.134 A 
ATOM     88  F   UNL A   1      44.791  26.311  33.120  1.00  0.00    -0.206 F 
ATOM     89  C   UNL A   1      43.969  24.547  34.356  1.00  0.00     0.040 A 
ATOM     90  C   UNL A   1      41.890  24.675  35.502  1.00  0.00     0.040 A 
ATOM     91  F   UNL A   1      40.508  26.490  35.281  1.00  0.00    -0.206 F 
ATOM     92  C   UNL A   1      43.041  23.971  35.209  1.00  0.00     0.006 A 
ENDBRANCH  68  85
ENDBRANCH  42  43
ENDBRANCH  35  37
ENDBRANCH  34  35
ENDBRANCH  33  34
ENDBRANCH  32  33
ENDBRANCH  31  32
ENDBRANCH  30  31
ENDBRANCH   1  30
TORSDOF 19
ENDMDL
MODEL 2
REMARK VINA RESULT:     -11.7      1.260      2.307
REMARK SMILES Cc1cccc(O[C@H](C)C(=O)NNC(=O)[C@H]2[C@@H]3CC[C@@H](C3)[C@@H]2C(=O)OCCOCCOC(=O)c2ccc(-c3c4nc(c(-c5c(F)cccc5F)c5ccc([nH]5)c(-c5c(F)cccc5F)c5nc(c(-c6c(F)cccc6F)c6ccc3[nH]6)C=C5)C=C4)cc2)c1
REMARK SMILES IDX 26 1 25 2 23 3 24 4 22 5 16 6 17 7 18 8 21 9 20 10 19 11
REMARK SMILES IDX 14 12 13 13 15 15 12 16 10 17 11 18 8 20 9 21 7 22 6 23 1 24
REMARK SMILES IDX 2 25 3 26 88 27 4 28 5 29 27 30 28 31 29 32 30 33 31 34
REMARK SMILES IDX 32 35 33 36 34 37 35 38 87 39 36 40 86 41 37 42 38 43 39 44
REMARK SMILES IDX 80 45 40 46 85 47 79 48 81 49 41 50 84 51 78 52 77 53 42 55
REMARK SMILES IDX 68 56 51 57 67 58 52 59 55 60 66 61 82 62 53 63 54 64 65 66
REMARK SMILES IDX 83 67 56 68 43 69 44 70 49 71 45 72 46 73 48 74 50 75 47 76
REMARK SMILES IDX 69 77 70 78 75 79 71 80 72 81 74 82 76 83 73 84 57 85 58 86
REMARK SMILES IDX 63 87 59 88 60 89 62 90 64 91 61 92
REMARK H PARENT 13 14 12 19 81 54 55 65
REMARK Flexibility Score: inf
ROOT
ATOM      1  C   UNL A   1      32.405  31.038  26.897  1.00  0.00     0.261 C 
ENDROOT
BRANCH   1   2
ATOM      2  O   UNL A   1      32.865  30.336  25.724  1.00  0.00    -0.463 OA
BRANCH   2   3
ATOM      3  C   UNL A   1      33.072  28.977  25.751  1.00  0.00     0.310 C 
ATOM      4  O   UNL A   1      33.831  28.365  26.462  1.00  0.00    -0.252 OA
BRANCH   3   5
ATOM      5  C   UNL A   1      32.050  28.350  24.841  1.00  0.00     0.115 C 
ATOM      6  C   UNL A   1      31.923  26.854  25.131  1.00  0.00     0.098 C 
ATOM      7  C   UNL A   1      31.590  26.256  23.746  1.00  0.00     0.003 C 
ATOM      8  C   UNL A   1      32.920  26.116  22.976  1.00  0.00     0.005 C 
ATOM      9  C   UNL A   1      30.977  27.434  22.985  1.00  0.00     0.009 C 
ATOM     10  C   UNL A   1      32.144  28.383  23.312  1.00  0.00     0.004 C 
ATOM     11  C   UNL A   1      33.337  27.581  22.766  1.00  0.00     0.005 C 
BRANCH   6  12
ATOM     12  C   UNL A   1      31.063  26.425  26.297  1.00  0.00     0.242 C 
ATOM     13  N   UNL A   1      30.259  25.330  26.307  1.00  0.00    -0.267 N 
ATOM     14  H   UNL A   1      29.503  25.374  26.935  1.00  0.00     0.191 HD
ATOM     15  O   UNL A   1      31.037  27.137  27.310  1.00  0.00    -0.273 OA
BRANCH  13  16
ATOM     16  N   UNL A   1      30.340  24.162  25.570  1.00  0.00    -0.264 N 
ATOM     17  C   UNL A   1      31.129  23.111  25.960  1.00  0.00     0.279 C 
ATOM     18  O   UNL A   1      30.640  21.975  25.919  1.00  0.00    -0.269 OA
ATOM     19  H   UNL A   1      29.816  24.084  24.740  1.00  0.00     0.191 HD
BRANCH  17  20
ATOM     20  C   UNL A   1      32.655  23.308  26.184  1.00  0.00     0.260 C 
ATOM     21  C   UNL A   1      33.057  22.699  27.532  1.00  0.00     0.064 C 
BRANCH  20  22
ATOM     22  O   UNL A   1      33.647  23.280  25.177  1.00  0.00    -0.481 OA
BRANCH  22  23
ATOM     23  C   UNL A   1      34.866  22.695  25.266  1.00  0.00     0.120 A 
ATOM     24  C   UNL A   1      38.272  24.064  26.332  1.00  0.00     0.044 C 
ATOM     25  C   UNL A   1      37.205  23.145  25.816  1.00  0.00    -0.047 A 
ATOM     26  C   UNL A   1      37.547  21.872  25.358  1.00  0.00     0.003 A 
ATOM     27  C   UNL A   1      35.862  23.543  25.770  1.00  0.00     0.049 A 
ATOM     28  C   UNL A   1      36.559  21.005  24.897  1.00  0.00     0.004 A 
ATOM     29  C   UNL A   1      35.220  21.406  24.872  1.00  0.00     0.046 A 
ENDBRANCH  22  23
ENDBRANCH  20  22
ENDBRANCH  17  20
ENDBRANCH  13  16
ENDBRANCH   6  12
ENDBRANCH   3   5
ENDBRANCH   2   3
ENDBRANCH   1   2
BRANCH   1  30
ATOM     30  C   UNL A   1      31.368  32.086  26.563  1.00  0.00     0.202 C 
BRANCH  30  31
ATOM     31  O   UNL A   1      31.737  33.270  27.251  1.00  0.00    -0.374 OA
BRANCH  31  32
ATOM     32  C   UNL A   1      33.062  33.315  27.750  1.00  0.00     0.202 C 
BRANCH  32  33
ATOM     33  C   UNL A   1      33.400  34.632  28.465  1.00  0.00     0.261 C 
BRANCH  33  34
ATOM     34  O   UNL A   1      33.114  34.519  29.875  1.00  0.00    -0.460 OA
BRANCH  34  35
ATOM     35  C   UNL A   1      34.196  34.561  30.701  1.00  0.00     0.338 C 
ATOM     36  O   UNL A   1      34.546  35.527  31.360  1.00  0.00    -0.246 OA
BRANCH  35  37
ATOM     37  C   UNL A   1      35.048  33.357  30.474  1.00  0.00     0.060 A 
ATOM     38  C   UNL A   1      34.863  32.204  31.261  1.00  0.00     0.016 A 
ATOM     39  C   UNL A   1      36.210  33.504  29.725  1.00  0.00     0.016 A 
ATOM     40  C   UNL A   1      35.910  31.277  31.419  1.00  0.00     0.010 A 
ATOM     41  C   UNL A   1      37.264  32.650  29.971  1.00  0.00     0.010 A 
ATOM     42  C   UNL A   1      37.143  31.543  30.829  1.00  0.00    -0.014 A 
BRANCH  42  43
ATOM     43  C   UNL A   1      38.402  30.824  31.077  1.00  0.00     0.031 A 
ATOM     44  C   UNL A   1      38.720  29.618  30.268  1.00  0.00     0.074 A 
ATOM     45  C   UNL A   1      39.417  31.374  31.788  1.00  0.00     0.049 A 
ATOM     46  N   UNL A   1      39.712  28.828  30.508  1.00  0.00    -0.248 NA
ATOM     47  C   UNL A   1      37.924  29.170  29.132  1.00  0.00     0.031 C 
ATOM     48  C   UNL A   1      40.845  31.121  31.581  1.00  0.00     0.029 A 
ATOM     49  N   UNL A   1      39.412  32.317  32.816  1.00  0.00    -0.354 N 
ATOM     50  C   UNL A   1      39.910  28.045  29.395  1.00  0.00     0.074 A 
ATOM     51  C   UNL A   1      38.695  28.201  28.636  1.00  0.00     0.031 C 
ATOM     52  C   UNL A   1      41.564  31.715  32.540  1.00  0.00     0.029 A 
ATOM     53  C   UNL A   1      40.629  32.232  33.511  1.00  0.00     0.049 A 
ATOM     54  H   UNL A   1      38.677  32.940  33.020  1.00  0.00     0.167 HD
ATOM     55  C   UNL A   1      41.139  27.476  29.204  1.00  0.00     0.037 A 
ATOM     56  C   UNL A   1      40.675  32.022  34.853  1.00  0.00     0.037 A 
ATOM     57  C   UNL A   1      42.064  27.837  30.299  1.00  0.00     0.049 A 
ATOM     58  C   UNL A   1      41.362  30.720  35.155  1.00  0.00     0.074 A 
ATOM     59  C   UNL A   1      43.195  28.637  30.371  1.00  0.00     0.029 A 
ATOM     60  N   UNL A   1      41.731  27.538  31.620  1.00  0.00    -0.354 N 
ATOM     61  N   UNL A   1      41.547  29.806  34.243  1.00  0.00    -0.248 NA
ATOM     62  C   UNL A   1      41.947  30.347  36.433  1.00  0.00     0.031 C 
ATOM     63  C   UNL A   1      43.563  28.770  31.739  1.00  0.00     0.029 A 
ATOM     64  C   UNL A   1      42.663  28.045  32.505  1.00  0.00     0.049 A 
ATOM     65  H   UNL A   1      40.931  27.028  31.889  1.00  0.00     0.167 HD
ATOM     66  C   UNL A   1      42.280  28.772  34.743  1.00  0.00     0.074 A 
ATOM     67  C   UNL A   1      42.491  29.151  36.129  1.00  0.00     0.031 C 
ATOM     68  C   UNL A   1      42.614  27.720  33.935  1.00  0.00     0.037 A 
BRANCH  55  69
ATOM     69  C   UNL A   1      41.617  26.762  27.940  1.00  0.00     0.057 A 
ATOM     70  C   UNL A   1      41.591  27.418  26.689  1.00  0.00     0.134 A 
ATOM     71  C   UNL A   1      42.108  25.444  27.858  1.00  0.00     0.134 A 
ATOM     72  F   UNL A   1      41.246  28.707  26.573  1.00  0.00    -0.206 F 
ATOM     73  C   UNL A   1      41.942  26.797  25.478  1.00  0.00     0.040 A 
ATOM     74  C   UNL A   1      42.438  24.803  26.652  1.00  0.00     0.040 A 
ATOM     75  F   UNL A   1      42.360  24.697  28.930  1.00  0.00    -0.206 F 
ATOM     76  C   UNL A   1      42.349  25.476  25.451  1.00  0.00     0.006 A 
ENDBRANCH  55  69
BRANCH  56  77
ATOM     77  C   UNL A   1      39.549  32.689  35.556  1.00  0.00     0.057 A 
ATOM     78  C   UNL A   1      38.522  31.855  36.042  1.00  0.00     0.134 A 
ATOM     79  C   UNL A   1      39.734  33.912  36.211  1.00  0.00     0.134 A 
ATOM     80  F   UNL A   1      38.307  30.655  35.477  1.00  0.00    -0.206 F 
ATOM     81  C   UNL A   1      37.803  32.162  37.202  1.00  0.00     0.040 A 
ATOM     82  C   UNL A   1      39.032  34.219  37.386  1.00  0.00     0.040 A 
ATOM     83  F   UNL A   1      40.709  34.748  35.826  1.00  0.00    -0.206 F 
ATOM     84  C   UNL A   1      38.091  33.329  37.903  1.00  0.00     0.006 A 
ENDBRANCH  56  77
BRANCH  68  85
ATOM     85  C   UNL A   1      42.977  26.312  34.369  1.00  0.00     0.057 A 
ATOM     86  C   UNL A   1      42.161  25.463  35.128  1.00  0.00     0.134 A 
ATOM     87  C   UNL A   1      44.151  25.690  33.869  1.00  0.00     0.134 A 
ATOM     88  F   UNL A   1      40.986  25.855  35.628  1.00  0.00    -0.206 F 
ATOM     89  C   UNL A   1      42.486  24.121  35.379  1.00  0.00     0.040 A 
ATOM     90  C   UNL A   1      44.455  24.340  34.064  1.00  0.00     0.040 A 
ATOM     91  F   UNL A   1      45.058  26.346  33.133  1.00  0.00    -0.206 F 
ATOM     92  C   UNL A   1      43.622  23.549  34.829  1.00  0.00     0.006 A 
ENDBRANCH  68  85
ENDBRANCH  42  43
ENDBRANCH  35  37
ENDBRANCH  34  35
ENDBRANCH  33  34
ENDBRANCH  32  33
ENDBRANCH  31  32
ENDBRANCH  30  31
ENDBRANCH   1  30
TORSDOF 19
ENDMDL
MODEL 3
REMARK VINA RESULT:     -11.7      3.664      9.250
REMARK SMILES Cc1cccc(O[C@H](C)C(=O)NNC(=O)[C@H]2[C@@H]3CC[C@@H](C3)[C@@H]2C(=O)OCCOCCOC(=O)c2ccc(-c3c4nc(c(-c5c(F)cccc5F)c5ccc([nH]5)c(-c5c(F)cccc5F)c5nc(c(-c6c(F)cccc6F)c6ccc3[nH]6)C=C5)C=C4)cc2)c1
REMARK SMILES IDX 26 1 25 2 23 3 24 4 22 5 16 6 17 7 18 8 21 9 20 10 19 11
REMARK SMILES IDX 14 12 13 13 15 15 12 16 10 17 11 18 8 20 9 21 7 22 6 23 1 24
REMARK SMILES IDX 2 25 3 26 88 27 4 28 5 29 27 30 28 31 29 32 30 33 31 34
REMARK SMILES IDX 32 35 33 36 34 37 35 38 87 39 36 40 86 41 37 42 38 43 39 44
REMARK SMILES IDX 80 45 40 46 85 47 79 48 81 49 41 50 84 51 78 52 77 53 42 55
REMARK SMILES IDX 68 56 51 57 67 58 52 59 55 60 66 61 82 62 53 63 54 64 65 66
REMARK SMILES IDX 83 67 56 68 43 69 44 70 49 71 45 72 46 73 48 74 50 75 47 76
REMARK SMILES IDX 69 77 70 78 75 79 71 80 72 81 74 82 76 83 73 84 57 85 58 86
REMARK SMILES IDX 63 87 59 88 60 89 62 90 64 91 61 92
REMARK H PARENT 13 14 12 19 81 54 55 65
REMARK Flexibility Score: inf
ROOT
ATOM      1  C   UNL A   1      36.995  23.670  25.271  1.00  0.00     0.261 C 
ENDROOT
BRANCH   1   2
ATOM      2  O   UNL A   1      35.594  24.005  25.346  1.00  0.00    -0.463 OA
BRANCH   2   3
ATOM      3  C   UNL A   1      34.717  23.221  26.058  1.00  0.00     0.310 C 
ATOM      4  O   UNL A   1      34.692  23.051  27.253  1.00  0.00    -0.252 OA
BRANCH   3   5
ATOM      5  C   UNL A   1      33.670  22.730  25.095  1.00  0.00     0.115 C 
ATOM      6  C   UNL A   1      32.421  22.279  25.851  1.00  0.00     0.098 C 
ATOM      7  C   UNL A   1      31.879  21.126  24.976  1.00  0.00     0.003 C 
ATOM      8  C   UNL A   1      32.694  19.864  25.326  1.00  0.00     0.005 C 
ATOM      9  C   UNL A   1      32.458  21.427  23.591  1.00  0.00     0.009 C 
ATOM     10  C   UNL A   1      33.898  21.576  24.113  1.00  0.00     0.004 C 
ATOM     11  C   UNL A   1      34.099  20.222  24.814  1.00  0.00     0.005 C 
BRANCH   6  12
ATOM     12  C   UNL A   1      31.435  23.335  26.294  1.00  0.00     0.242 C 
ATOM     13  N   UNL A   1      30.847  24.242  25.470  1.00  0.00    -0.267 N 
ATOM     14  H   UNL A   1      30.549  25.071  25.909  1.00  0.00     0.191 HD
ATOM     15  O   UNL A   1      31.168  23.430  27.499  1.00  0.00    -0.273 OA
BRANCH  13  16
ATOM     16  N   UNL A   1      30.604  24.179  24.110  1.00  0.00    -0.264 N 
ATOM     17  C   UNL A   1      30.889  25.226  23.272  1.00  0.00     0.279 C 
ATOM     18  O   UNL A   1      31.474  24.976  22.212  1.00  0.00    -0.269 OA
ATOM     19  H   UNL A   1      30.213  23.359  23.732  1.00  0.00     0.191 HD
BRANCH  17  20
ATOM     20  C   UNL A   1      30.265  26.629  23.520  1.00  0.00     0.260 C 
ATOM     21  C   UNL A   1      28.858  26.466  24.108  1.00  0.00     0.064 C 
BRANCH  20  22
ATOM     22  O   UNL A   1      30.969  27.785  23.924  1.00  0.00    -0.481 OA
BRANCH  22  23
ATOM     23  C   UNL A   1      31.915  27.853  24.894  1.00  0.00     0.120 A 
ATOM     24  C   UNL A   1      32.925  30.672  27.268  1.00  0.00     0.044 C 
ATOM     25  C   UNL A   1      32.906  29.360  26.543  1.00  0.00    -0.047 A 
ATOM     26  C   UNL A   1      33.895  28.409  26.803  1.00  0.00     0.003 A 
ATOM     27  C   UNL A   1      31.921  29.069  25.591  1.00  0.00     0.049 A 
ATOM     28  C   UNL A   1      33.873  27.180  26.148  1.00  0.00     0.004 A 
ATOM     29  C   UNL A   1      32.873  26.893  25.213  1.00  0.00     0.046 A 
ENDBRANCH  22  23
ENDBRANCH  20  22
ENDBRANCH  17  20
ENDBRANCH  13  16
ENDBRANCH   6  12
ENDBRANCH   3   5
ENDBRANCH   2   3
ENDBRANCH   1   2
BRANCH   1  30
ATOM     30  C   UNL A   1      37.231  22.379  24.517  1.00  0.00     0.202 C 
BRANCH  30  31
ATOM     31  O   UNL A   1      37.731  21.438  25.452  1.00  0.00    -0.374 OA
BRANCH  31  32
ATOM     32  C   UNL A   1      37.968  20.131  24.957  1.00  0.00     0.202 C 
BRANCH  32  33
ATOM     33  C   UNL A   1      39.201  19.458  25.578  1.00  0.00     0.261 C 
BRANCH  33  34
ATOM     34  O   UNL A   1      40.057  20.450  26.182  1.00  0.00    -0.460 OA
BRANCH  34  35
ATOM     35  C   UNL A   1      41.390  20.300  25.945  1.00  0.00     0.338 C 
ATOM     36  O   UNL A   1      41.916  19.305  25.474  1.00  0.00    -0.246 OA
BRANCH  35  37
ATOM     37  C   UNL A   1      42.144  21.409  26.598  1.00  0.00     0.060 A 
ATOM     38  C   UNL A   1      42.151  21.528  28.002  1.00  0.00     0.016 A 
ATOM     39  C   UNL A   1      42.551  22.481  25.813  1.00  0.00     0.016 A 
ATOM     40  C   UNL A   1      42.412  22.769  28.608  1.00  0.00     0.010 A 
ATOM     41  C   UNL A   1      42.699  23.716  26.409  1.00  0.00     0.010 A 
ATOM     42  C   UNL A   1      42.614  23.887  27.802  1.00  0.00    -0.014 A 
BRANCH  42  43
ATOM     43  C   UNL A   1      42.662  25.288  28.247  1.00  0.00     0.031 A 
ATOM     44  C   UNL A   1      41.444  26.131  28.121  1.00  0.00     0.074 A 
ATOM     45  C   UNL A   1      43.658  25.758  29.038  1.00  0.00     0.049 A 
ATOM     46  N   UNL A   1      41.423  27.404  28.332  1.00  0.00    -0.248 NA
ATOM     47  C   UNL A   1      40.143  25.620  27.709  1.00  0.00     0.031 C 
ATOM     48  C   UNL A   1      43.530  26.820  30.038  1.00  0.00     0.029 A 
ATOM     49  N   UNL A   1      44.990  25.363  29.170  1.00  0.00    -0.354 N 
ATOM     50  C   UNL A   1      40.110  27.790  28.465  1.00  0.00     0.074 A 
ATOM     51  C   UNL A   1      39.362  26.679  27.933  1.00  0.00     0.031 C 
ATOM     52  C   UNL A   1      44.730  27.131  30.541  1.00  0.00     0.029 A 
ATOM     53  C   UNL A   1      45.712  26.409  29.766  1.00  0.00     0.049 A 
ATOM     54  H   UNL A   1      45.361  24.495  28.891  1.00  0.00     0.167 HD
ATOM     55  C   UNL A   1      39.832  28.949  29.136  1.00  0.00     0.037 A 
ATOM     56  C   UNL A   1      46.815  26.944  29.179  1.00  0.00     0.037 A 
ATOM     57  C   UNL A   1      41.074  29.595  29.611  1.00  0.00     0.049 A 
ATOM     58  C   UNL A   1      46.584  28.393  28.857  1.00  0.00     0.074 A 
ATOM     59  C   UNL A   1      41.627  29.795  30.868  1.00  0.00     0.029 A 
ATOM     60  N   UNL A   1      42.074  29.938  28.702  1.00  0.00    -0.354 N 
ATOM     61  N   UNL A   1      45.390  28.917  28.832  1.00  0.00    -0.248 NA
ATOM     62  C   UNL A   1      47.621  29.380  28.605  1.00  0.00     0.031 C 
ATOM     63  C   UNL A   1      42.944  30.307  30.700  1.00  0.00     0.029 A 
ATOM     64  C   UNL A   1      43.195  30.429  29.342  1.00  0.00     0.049 A 
ATOM     65  H   UNL A   1      41.992  29.842  27.724  1.00  0.00     0.167 HD
ATOM     66  C   UNL A   1      45.460  30.260  28.618  1.00  0.00     0.074 A 
ATOM     67  C   UNL A   1      46.884  30.500  28.463  1.00  0.00     0.031 C 
ATOM     68  C   UNL A   1      44.314  31.006  28.588  1.00  0.00     0.037 A 
BRANCH  55  69
ATOM     69  C   UNL A   1      38.448  29.431  29.572  1.00  0.00     0.057 A 
ATOM     70  C   UNL A   1      38.017  29.268  30.907  1.00  0.00     0.134 A 
ATOM     71  C   UNL A   1      37.482  30.052  28.756  1.00  0.00     0.134 A 
ATOM     72  F   UNL A   1      38.827  28.783  31.858  1.00  0.00    -0.206 F 
ATOM     73  C   UNL A   1      36.732  29.615  31.358  1.00  0.00     0.040 A 
ATOM     74  C   UNL A   1      36.186  30.383  29.186  1.00  0.00     0.040 A 
ATOM     75  F   UNL A   1      37.731  30.440  27.507  1.00  0.00    -0.206 F 
ATOM     76  C   UNL A   1      35.800  30.158  30.492  1.00  0.00     0.006 A 
ENDBRANCH  55  69
BRANCH  56  77
ATOM     77  C   UNL A   1      47.603  25.919  28.447  1.00  0.00     0.057 A 
ATOM     78  C   UNL A   1      47.530  25.951  27.039  1.00  0.00     0.134 A 
ATOM     79  C   UNL A   1      48.759  25.364  29.008  1.00  0.00     0.134 A 
ATOM     80  F   UNL A   1      46.461  26.494  26.434  1.00  0.00    -0.206 F 
ATOM     81  C   UNL A   1      48.607  25.572  26.232  1.00  0.00     0.040 A 
ATOM     82  C   UNL A   1      49.851  25.000  28.208  1.00  0.00     0.040 A 
ATOM     83  F   UNL A   1      48.916  25.325  30.339  1.00  0.00    -0.206 F 
ATOM     84  C   UNL A   1      49.790  25.136  26.820  1.00  0.00     0.006 A 
ENDBRANCH  56  77
BRANCH  68  85
ATOM     85  C   UNL A   1      44.115  32.352  27.917  1.00  0.00     0.057 A 
ATOM     86  C   UNL A   1      43.666  33.516  28.554  1.00  0.00     0.134 A 
ATOM     87  C   UNL A   1      44.549  32.556  26.580  1.00  0.00     0.134 A 
ATOM     88  F   UNL A   1      43.278  33.530  29.832  1.00  0.00    -0.206 F 
ATOM     89  C   UNL A   1      43.638  34.768  27.920  1.00  0.00     0.040 A 
ATOM     90  C   UNL A   1      44.580  33.807  25.959  1.00  0.00     0.040 A 
ATOM     91  F   UNL A   1      45.001  31.559  25.807  1.00  0.00    -0.206 F 
ATOM     92  C   UNL A   1      44.116  34.922  26.628  1.00  0.00     0.006 A 
ENDBRANCH  68  85
ENDBRANCH  42  43
ENDBRANCH  35  37
ENDBRANCH  34  35
ENDBRANCH  33  34
ENDBRANCH  32  33
ENDBRANCH  31  32
ENDBRANCH  30  31
ENDBRANCH   1  30
TORSDOF 19
ENDMDL
