MODEL 1
REMARK VINA RESULT:     -11.9      0.000      0.000
REMARK SMILES Cc1ccc2c(CC(=O)N3CCC(C(=O)OCCOCCOC(=O)c4ccc(-c5c6nc(c(-c7c(F)cccc7F)c7ccc([nH]7)c(-c7c(F)cccc7F)c7nc(c(-c8c(F)cccc8F)c8ccc5[nH]8)C=C7)C=C6)cc4)CC3)coc2c1
REMARK SMILES IDX 19 1 18 2 17 3 16 4 14 5 15 6 13 7 8 8 9 9 10 10 11 11 80 12
REMARK SMILES IDX 12 13 79 14 7 15 6 16 1 17 2 18 3 19 84 20 4 21 83 22 5 23
REMARK SMILES IDX 82 24 81 25 20 26 21 27 22 28 23 29 24 30 25 31 26 32 78 33
REMARK SMILES IDX 27 34 77 35 28 36 29 37 30 38 71 39 31 40 76 41 70 42 72 43
REMARK SMILES IDX 32 44 75 45 69 46 68 47 33 49 59 50 42 51 58 52 43 53 46 54
REMARK SMILES IDX 57 55 73 56 44 57 45 58 56 60 74 61 47 62 34 63 35 64 40 65
REMARK SMILES IDX 36 66 37 67 39 68 41 69 38 70 60 71 61 72 66 73 62 74 63 75
REMARK SMILES IDX 65 76 67 77 64 78 48 79 49 80 54 81 50 82 51 83 53 84 55 85
REMARK SMILES IDX 52 86
REMARK H PARENT 72 48 46 59
REMARK Flexibility Score: inf
ROOT
ATOM      1  O   UNL A   1      41.602  19.774  25.870  1.00  0.00    -0.374 OA
ENDROOT
BRANCH   1   2
ATOM      2  C   UNL A   1      41.560  20.980  26.625  1.00  0.00     0.202 C 
BRANCH   2   3
ATOM      3  C   UNL A   1      40.203  21.604  26.974  1.00  0.00     0.261 C 
BRANCH   3   4
ATOM      4  O   UNL A   1      39.217  21.420  25.953  1.00  0.00    -0.463 OA
BRANCH   4   5
ATOM      5  C   UNL A   1      38.329  22.437  25.856  1.00  0.00     0.309 C 
ATOM      6  O   UNL A   1      38.445  23.534  26.393  1.00  0.00    -0.252 OA
BRANCH   5   7
ATOM      7  C   UNL A   1      37.126  22.100  25.011  1.00  0.00     0.103 C 
ATOM      8  C   UNL A   1      33.154  22.839  24.231  1.00  0.00     0.227 C 
ATOM      9  O   UNL A   1      32.453  22.390  25.148  1.00  0.00    -0.275 OA
ATOM     10  N   UNL A   1      34.437  22.345  24.021  1.00  0.00    -0.342 N 
ATOM     11  C   UNL A   1      34.836  21.104  24.682  1.00  0.00     0.120 C 
ATOM     12  C   UNL A   1      35.540  23.038  23.365  1.00  0.00     0.120 C 
ATOM     13  C   UNL A   1      35.972  21.337  25.681  1.00  0.00     0.037 C 
ATOM     14  C   UNL A   1      36.604  23.392  24.392  1.00  0.00     0.037 C 
BRANCH   8  15
ATOM     15  C   UNL A   1      32.502  23.785  23.221  1.00  0.00     0.139 C 
BRANCH  15  16
ATOM     16  C   UNL A   1      33.061  25.158  23.108  1.00  0.00     0.008 A 
ATOM     17  C   UNL A   1      33.765  29.635  26.553  1.00  0.00     0.044 C 
ATOM     18  C   UNL A   1      33.653  28.382  25.730  1.00  0.00    -0.047 A 
ATOM     19  C   UNL A   1      33.374  27.155  26.347  1.00  0.00     0.004 A 
ATOM     20  C   UNL A   1      33.823  28.454  24.336  1.00  0.00     0.051 A 
ATOM     21  C   UNL A   1      33.219  25.982  25.597  1.00  0.00     0.012 A 
ATOM     22  C   UNL A   1      33.646  27.274  23.616  1.00  0.00     0.134 A 
ATOM     23  C   UNL A   1      33.334  26.052  24.196  1.00  0.00     0.024 A 
ATOM     24  O   UNL A   1      33.695  27.151  22.261  1.00  0.00    -0.464 OA
ATOM     25  C   UNL A   1      33.348  25.870  21.961  1.00  0.00     0.200 A 
ENDBRANCH  15  16
ENDBRANCH   8  15
ENDBRANCH   5   7
ENDBRANCH   4   5
ENDBRANCH   3   4
ENDBRANCH   2   3
ENDBRANCH   1   2
BRANCH   1  26
ATOM     26  C   UNL A   1      42.653  18.841  26.130  1.00  0.00     0.202 C 
BRANCH  26  27
ATOM     27  C   UNL A   1      43.896  18.833  25.220  1.00  0.00     0.261 C 
BRANCH  27  28
ATOM     28  O   UNL A   1      44.724  19.982  25.447  1.00  0.00    -0.460 OA
BRANCH  28  29
ATOM     29  C   UNL A   1      44.843  20.816  24.380  1.00  0.00     0.338 C 
ATOM     30  O   UNL A   1      44.691  20.544  23.200  1.00  0.00    -0.246 OA
BRANCH  29  31
ATOM     31  C   UNL A   1      44.768  22.177  24.943  1.00  0.00     0.060 A 
ATOM     32  C   UNL A   1      45.413  22.485  26.142  1.00  0.00     0.016 A 
ATOM     33  C   UNL A   1      43.767  23.013  24.415  1.00  0.00     0.016 A 
ATOM     34  C   UNL A   1      44.992  23.599  26.855  1.00  0.00     0.010 A 
ATOM     35  C   UNL A   1      43.326  24.104  25.154  1.00  0.00     0.010 A 
ATOM     36  C   UNL A   1      43.917  24.379  26.388  1.00  0.00    -0.014 A 
BRANCH  36  37
ATOM     37  C   UNL A   1      43.591  25.594  27.134  1.00  0.00     0.031 A 
ATOM     38  C   UNL A   1      44.565  26.697  26.895  1.00  0.00     0.074 A 
ATOM     39  C   UNL A   1      42.474  25.828  27.852  1.00  0.00     0.049 A 
ATOM     40  N   UNL A   1      45.317  27.310  27.752  1.00  0.00    -0.248 NA
ATOM     41  C   UNL A   1      44.804  27.086  25.496  1.00  0.00     0.031 C 
ATOM     42  C   UNL A   1      41.261  25.015  27.952  1.00  0.00     0.029 A 
ATOM     43  N   UNL A   1      42.164  26.934  28.593  1.00  0.00    -0.354 N 
ATOM     44  C   UNL A   1      46.019  28.267  27.023  1.00  0.00     0.074 A 
ATOM     45  C   UNL A   1      45.760  28.003  25.633  1.00  0.00     0.031 C 
ATOM     46  C   UNL A   1      40.281  25.748  28.535  1.00  0.00     0.029 A 
ATOM     47  C   UNL A   1      40.827  27.028  28.959  1.00  0.00     0.049 A 
ATOM     48  H   UNL A   1      42.833  27.609  28.848  1.00  0.00     0.167 HD
ATOM     49  C   UNL A   1      46.621  29.332  27.616  1.00  0.00     0.037 A 
ATOM     50  C   UNL A   1      40.209  28.104  29.512  1.00  0.00     0.037 A 
ATOM     51  C   UNL A   1      46.839  29.112  29.019  1.00  0.00     0.049 A 
ATOM     52  C   UNL A   1      41.250  28.996  30.076  1.00  0.00     0.074 A 
ATOM     53  C   UNL A   1      47.558  28.197  29.763  1.00  0.00     0.029 A 
ATOM     54  N   UNL A   1      46.003  29.733  29.912  1.00  0.00    -0.354 N 
ATOM     55  N   UNL A   1      41.953  28.727  31.137  1.00  0.00    -0.248 NA
ATOM     56  C   UNL A   1      41.789  30.037  29.215  1.00  0.00     0.031 C 
ATOM     57  C   UNL A   1      46.773  27.972  30.932  1.00  0.00     0.029 A 
ATOM     58  C   UNL A   1      45.647  28.790  30.840  1.00  0.00     0.049 A 
ATOM     59  H   UNL A   1      45.714  30.674  29.890  1.00  0.00     0.167 HD
ATOM     60  C   UNL A   1      43.210  29.240  30.863  1.00  0.00     0.074 A 
ATOM     61  C   UNL A   1      43.024  30.119  29.713  1.00  0.00     0.031 C 
ATOM     62  C   UNL A   1      44.330  28.691  31.418  1.00  0.00     0.037 A 
BRANCH  49  63
ATOM     63  C   UNL A   1      46.704  30.701  26.991  1.00  0.00     0.057 A 
ATOM     64  C   UNL A   1      45.578  31.493  26.687  1.00  0.00     0.134 A 
ATOM     65  C   UNL A   1      47.936  31.377  26.970  1.00  0.00     0.134 A 
ATOM     66  F   UNL A   1      44.329  31.017  26.747  1.00  0.00    -0.206 F 
ATOM     67  C   UNL A   1      45.668  32.858  26.404  1.00  0.00     0.040 A 
ATOM     68  C   UNL A   1      48.031  32.755  26.739  1.00  0.00     0.040 A 
ATOM     69  F   UNL A   1      49.080  30.736  27.258  1.00  0.00    -0.206 F 
ATOM     70  C   UNL A   1      46.893  33.501  26.463  1.00  0.00     0.006 A 
ENDBRANCH  49  63
BRANCH  50  71
ATOM     71  C   UNL A   1      38.806  28.559  29.370  1.00  0.00     0.057 A 
ATOM     72  C   UNL A   1      38.368  29.199  28.199  1.00  0.00     0.134 A 
ATOM     73  C   UNL A   1      37.942  28.633  30.472  1.00  0.00     0.134 A 
ATOM     74  F   UNL A   1      39.151  29.261  27.113  1.00  0.00    -0.206 F 
ATOM     75  C   UNL A   1      37.149  29.884  28.131  1.00  0.00     0.040 A 
ATOM     76  C   UNL A   1      36.721  29.319  30.419  1.00  0.00     0.040 A 
ATOM     77  F   UNL A   1      38.290  28.094  31.650  1.00  0.00    -0.206 F 
ATOM     78  C   UNL A   1      36.326  29.957  29.247  1.00  0.00     0.006 A 
ENDBRANCH  50  71
BRANCH  62  79
ATOM     79  C   UNL A   1      44.148  27.703  32.532  1.00  0.00     0.057 A 
ATOM     80  C   UNL A   1      44.228  28.155  33.853  1.00  0.00     0.134 A 
ATOM     81  C   UNL A   1      44.039  26.317  32.339  1.00  0.00     0.134 A 
ATOM     82  F   UNL A   1      44.392  29.462  34.113  1.00  0.00    -0.206 F 
ATOM     83  C   UNL A   1      44.191  27.274  34.937  1.00  0.00     0.040 A 
ATOM     84  C   UNL A   1      43.965  25.428  33.416  1.00  0.00     0.040 A 
ATOM     85  F   UNL A   1      44.059  25.783  31.110  1.00  0.00    -0.206 F 
ATOM     86  C   UNL A   1      44.047  25.907  34.720  1.00  0.00     0.006 A 
ENDBRANCH  62  79
ENDBRANCH  36  37
ENDBRANCH  29  31
ENDBRANCH  28  29
ENDBRANCH  27  28
ENDBRANCH  26  27
ENDBRANCH   1  26
TORSDOF 16
ENDMDL
MODEL 2
REMARK VINA RESULT:     -11.7      1.439      3.178
REMARK SMILES Cc1ccc2c(CC(=O)N3CCC(C(=O)OCCOCCOC(=O)c4ccc(-c5c6nc(c(-c7c(F)cccc7F)c7ccc([nH]7)c(-c7c(F)cccc7F)c7nc(c(-c8c(F)cccc8F)c8ccc5[nH]8)C=C7)C=C6)cc4)CC3)coc2c1
REMARK SMILES IDX 19 1 18 2 17 3 16 4 14 5 15 6 13 7 8 8 9 9 10 10 11 11 80 12
REMARK SMILES IDX 12 13 79 14 7 15 6 16 1 17 2 18 3 19 84 20 4 21 83 22 5 23
REMARK SMILES IDX 82 24 81 25 20 26 21 27 22 28 23 29 24 30 25 31 26 32 78 33
REMARK SMILES IDX 27 34 77 35 28 36 29 37 30 38 71 39 31 40 76 41 70 42 72 43
REMARK SMILES IDX 32 44 75 45 69 46 68 47 33 49 59 50 42 51 58 52 43 53 46 54
REMARK SMILES IDX 57 55 73 56 44 57 45 58 56 60 74 61 47 62 34 63 35 64 40 65
REMARK SMILES IDX 36 66 37 67 39 68 41 69 38 70 60 71 61 72 66 73 62 74 63 75
REMARK SMILES IDX 65 76 67 77 64 78 48 79 49 80 54 81 50 82 51 83 53 84 55 85
REMARK SMILES IDX 52 86
REMARK H PARENT 72 48 46 59
REMARK Flexibility Score: inf
ROOT
ATOM      1  O   UNL A   1      41.675  19.527  26.323  1.00  0.00    -0.374 OA
ENDROOT
BRANCH   1   2
ATOM      2  C   UNL A   1      41.646  20.930  26.559  1.00  0.00     0.202 C 
BRANCH   2   3
ATOM      3  C   UNL A   1      40.407  21.559  27.208  1.00  0.00     0.261 C 
BRANCH   3   4
ATOM      4  O   UNL A   1      39.606  22.307  26.288  1.00  0.00    -0.463 OA
BRANCH   4   5
ATOM      5  C   UNL A   1      38.591  21.597  25.740  1.00  0.00     0.309 C 
ATOM      6  O   UNL A   1      38.676  20.450  25.315  1.00  0.00    -0.252 OA
BRANCH   5   7
ATOM      7  C   UNL A   1      37.293  22.363  25.678  1.00  0.00     0.103 C 
ATOM      8  C   UNL A   1      33.824  23.090  23.589  1.00  0.00     0.227 C 
ATOM      9  O   UNL A   1      34.078  23.724  22.556  1.00  0.00    -0.275 OA
ATOM     10  N   UNL A   1      34.709  23.111  24.662  1.00  0.00    -0.342 N 
ATOM     11  C   UNL A   1      35.776  24.110  24.682  1.00  0.00     0.120 C 
ATOM     12  C   UNL A   1      34.836  22.098  25.704  1.00  0.00     0.120 C 
ATOM     13  C   UNL A   1      37.159  23.459  24.609  1.00  0.00     0.037 C 
ATOM     14  C   UNL A   1      36.155  21.359  25.539  1.00  0.00     0.037 C 
BRANCH   8  15
ATOM     15  C   UNL A   1      32.433  22.469  23.730  1.00  0.00     0.139 C 
BRANCH  15  16
ATOM     16  C   UNL A   1      32.235  21.101  23.182  1.00  0.00     0.008 A 
ATOM     17  C   UNL A   1      33.205  15.768  24.920  1.00  0.00     0.044 C 
ATOM     18  C   UNL A   1      32.873  17.191  24.570  1.00  0.00    -0.047 A 
ATOM     19  C   UNL A   1      32.913  18.188  25.555  1.00  0.00     0.004 A 
ATOM     20  C   UNL A   1      32.529  17.515  23.246  1.00  0.00     0.051 A 
ATOM     21  C   UNL A   1      32.652  19.528  25.244  1.00  0.00     0.012 A 
ATOM     22  C   UNL A   1      32.293  18.859  22.965  1.00  0.00     0.134 A 
ATOM     23  C   UNL A   1      32.360  19.871  23.911  1.00  0.00     0.024 A 
ATOM     24  O   UNL A   1      32.020  19.382  21.737  1.00  0.00    -0.464 OA
ATOM     25  C   UNL A   1      31.980  20.734  21.876  1.00  0.00     0.200 A 
ENDBRANCH  15  16
ENDBRANCH   8  15
ENDBRANCH   5   7
ENDBRANCH   4   5
ENDBRANCH   3   4
ENDBRANCH   2   3
ENDBRANCH   1   2
BRANCH   1  26
ATOM     26  C   UNL A   1      42.922  18.838  26.447  1.00  0.00     0.202 C 
BRANCH  26  27
ATOM     27  C   UNL A   1      43.913  18.852  25.267  1.00  0.00     0.261 C 
BRANCH  27  28
ATOM     28  O   UNL A   1      44.855  19.927  25.381  1.00  0.00    -0.460 OA
BRANCH  28  29
ATOM     29  C   UNL A   1      44.887  20.770  24.315  1.00  0.00     0.338 C 
ATOM     30  O   UNL A   1      44.664  20.502  23.145  1.00  0.00    -0.246 OA
BRANCH  29  31
ATOM     31  C   UNL A   1      44.821  22.126  24.891  1.00  0.00     0.060 A 
ATOM     32  C   UNL A   1      45.450  22.412  26.104  1.00  0.00     0.016 A 
ATOM     33  C   UNL A   1      43.841  22.981  24.355  1.00  0.00     0.016 A 
ATOM     34  C   UNL A   1      45.032  23.524  26.822  1.00  0.00     0.010 A 
ATOM     35  C   UNL A   1      43.403  24.070  25.098  1.00  0.00     0.010 A 
ATOM     36  C   UNL A   1      43.976  24.323  26.345  1.00  0.00    -0.014 A 
BRANCH  36  37
ATOM     37  C   UNL A   1      43.654  25.535  27.099  1.00  0.00     0.031 A 
ATOM     38  C   UNL A   1      44.637  26.634  26.873  1.00  0.00     0.074 A 
ATOM     39  C   UNL A   1      42.535  25.771  27.812  1.00  0.00     0.049 A 
ATOM     40  N   UNL A   1      45.388  27.235  27.738  1.00  0.00    -0.248 NA
ATOM     41  C   UNL A   1      44.885  27.032  25.478  1.00  0.00     0.031 C 
ATOM     42  C   UNL A   1      41.316  24.966  27.900  1.00  0.00     0.029 A 
ATOM     43  N   UNL A   1      42.228  26.874  28.561  1.00  0.00    -0.354 N 
ATOM     44  C   UNL A   1      46.100  28.193  27.020  1.00  0.00     0.074 A 
ATOM     45  C   UNL A   1      45.846  27.941  25.627  1.00  0.00     0.031 C 
ATOM     46  C   UNL A   1      40.338  25.700  28.484  1.00  0.00     0.029 A 
ATOM     47  C   UNL A   1      40.890  26.973  28.921  1.00  0.00     0.049 A 
ATOM     48  H   UNL A   1      42.901  27.542  28.824  1.00  0.00     0.167 HD
ATOM     49  C   UNL A   1      46.706  29.250  27.625  1.00  0.00     0.037 A 
ATOM     50  C   UNL A   1      40.277  28.049  29.479  1.00  0.00     0.037 A 
ATOM     51  C   UNL A   1      46.915  29.017  29.027  1.00  0.00     0.049 A 
ATOM     52  C   UNL A   1      41.320  28.930  30.054  1.00  0.00     0.074 A 
ATOM     53  C   UNL A   1      47.625  28.092  29.767  1.00  0.00     0.029 A 
ATOM     54  N   UNL A   1      46.079  29.637  29.920  1.00  0.00    -0.354 N 
ATOM     55  N   UNL A   1      42.016  28.649  31.117  1.00  0.00    -0.248 NA
ATOM     56  C   UNL A   1      41.870  29.974  29.204  1.00  0.00     0.031 C 
ATOM     57  C   UNL A   1      46.832  27.864  30.931  1.00  0.00     0.029 A 
ATOM     58  C   UNL A   1      45.712  28.689  30.839  1.00  0.00     0.049 A 
ATOM     59  H   UNL A   1      45.796  30.580  29.904  1.00  0.00     0.167 HD
ATOM     60  C   UNL A   1      43.278  29.155  30.853  1.00  0.00     0.074 A 
ATOM     61  C   UNL A   1      43.103  30.045  29.709  1.00  0.00     0.031 C 
ATOM     62  C   UNL A   1      44.391  28.595  31.410  1.00  0.00     0.037 A 
BRANCH  49  63
ATOM     63  C   UNL A   1      46.801  30.623  27.011  1.00  0.00     0.057 A 
ATOM     64  C   UNL A   1      45.682  31.421  26.699  1.00  0.00     0.134 A 
ATOM     65  C   UNL A   1      48.036  31.294  27.008  1.00  0.00     0.134 A 
ATOM     66  F   UNL A   1      44.430  30.950  26.742  1.00  0.00    -0.206 F 
ATOM     67  C   UNL A   1      45.780  32.788  26.427  1.00  0.00     0.040 A 
ATOM     68  C   UNL A   1      48.139  32.673  26.788  1.00  0.00     0.040 A 
ATOM     69  F   UNL A   1      49.174  30.647  27.303  1.00  0.00    -0.206 F 
ATOM     70  C   UNL A   1      47.006  33.426  26.505  1.00  0.00     0.006 A 
ENDBRANCH  49  63
BRANCH  50  71
ATOM     71  C   UNL A   1      38.878  28.514  29.333  1.00  0.00     0.057 A 
ATOM     72  C   UNL A   1      38.453  29.176  28.169  1.00  0.00     0.134 A 
ATOM     73  C   UNL A   1      38.005  28.575  30.429  1.00  0.00     0.134 A 
ATOM     74  F   UNL A   1      39.245  29.252  27.090  1.00  0.00    -0.206 F 
ATOM     75  C   UNL A   1      37.238  29.869  28.102  1.00  0.00     0.040 A 
ATOM     76  C   UNL A   1      36.788  29.270  30.378  1.00  0.00     0.040 A 
ATOM     77  F   UNL A   1      38.341  28.015  31.601  1.00  0.00    -0.206 F 
ATOM     78  C   UNL A   1      36.406  29.929  29.213  1.00  0.00     0.006 A 
ENDBRANCH  50  71
BRANCH  62  79
ATOM     79  C   UNL A   1      44.197  27.599  32.516  1.00  0.00     0.057 A 
ATOM     80  C   UNL A   1      44.284  28.039  33.840  1.00  0.00     0.134 A 
ATOM     81  C   UNL A   1      44.071  26.217  32.311  1.00  0.00     0.134 A 
ATOM     82  F   UNL A   1      44.463  29.342  34.111  1.00  0.00    -0.206 F 
ATOM     83  C   UNL A   1      44.235  27.150  34.917  1.00  0.00     0.040 A 
ATOM     84  C   UNL A   1      43.985  25.320  33.379  1.00  0.00     0.040 A 
ATOM     85  F   UNL A   1      44.083  25.693  31.077  1.00  0.00    -0.206 F 
ATOM     86  C   UNL A   1      44.074  25.786  34.688  1.00  0.00     0.006 A 
ENDBRANCH  62  79
ENDBRANCH  36  37
ENDBRANCH  29  31
ENDBRANCH  28  29
ENDBRANCH  27  28
ENDBRANCH  26  27
ENDBRANCH   1  26
TORSDOF 16
ENDMDL
MODEL 3
REMARK VINA RESULT:     -11.0      4.349      9.919
REMARK SMILES Cc1ccc2c(CC(=O)N3CCC(C(=O)OCCOCCOC(=O)c4ccc(-c5c6nc(c(-c7c(F)cccc7F)c7ccc([nH]7)c(-c7c(F)cccc7F)c7nc(c(-c8c(F)cccc8F)c8ccc5[nH]8)C=C7)C=C6)cc4)CC3)coc2c1
REMARK SMILES IDX 19 1 18 2 17 3 16 4 14 5 15 6 13 7 8 8 9 9 10 10 11 11 80 12
REMARK SMILES IDX 12 13 79 14 7 15 6 16 1 17 2 18 3 19 84 20 4 21 83 22 5 23
REMARK SMILES IDX 82 24 81 25 20 26 21 27 22 28 23 29 24 30 25 31 26 32 78 33
REMARK SMILES IDX 27 34 77 35 28 36 29 37 30 38 71 39 31 40 76 41 70 42 72 43
REMARK SMILES IDX 32 44 75 45 69 46 68 47 33 49 59 50 42 51 58 52 43 53 46 54
REMARK SMILES IDX 57 55 73 56 44 57 45 58 56 60 74 61 47 62 34 63 35 64 40 65
REMARK SMILES IDX 36 66 37 67 39 68 41 69 38 70 60 71 61 72 66 73 62 74 63 75
REMARK SMILES IDX 65 76 67 77 64 78 48 79 49 80 54 81 50 82 51 83 53 84 55 85
REMARK SMILES IDX 52 86
REMARK H PARENT 72 48 46 59
REMARK Flexibility Score: inf
ROOT
ATOM      1  O   UNL A   1      32.987  36.922  29.526  1.00  0.00    -0.374 OA
ENDROOT
BRANCH   1   2
ATOM      2  C   UNL A   1      33.419  35.943  28.588  1.00  0.00     0.202 C 
BRANCH   2   3
ATOM      3  C   UNL A   1      34.418  34.866  29.029  1.00  0.00     0.261 C 
BRANCH   3   4
ATOM      4  O   UNL A   1      33.894  33.537  28.935  1.00  0.00    -0.463 OA
BRANCH   4   5
ATOM      5  C   UNL A   1      34.614  32.718  28.131  1.00  0.00     0.309 C 
ATOM      6  O   UNL A   1      35.660  33.020  27.566  1.00  0.00    -0.252 OA
BRANCH   5   7
ATOM      7  C   UNL A   1      33.998  31.351  27.967  1.00  0.00     0.103 C 
ATOM      8  C   UNL A   1      33.130  28.256  25.399  1.00  0.00     0.227 C 
ATOM      9  O   UNL A   1      32.231  28.595  24.617  1.00  0.00    -0.275 OA
ATOM     10  N   UNL A   1      33.290  28.915  26.613  1.00  0.00    -0.342 N 
ATOM     11  C   UNL A   1      32.224  29.793  27.091  1.00  0.00     0.120 C 
ATOM     12  C   UNL A   1      34.516  29.003  27.399  1.00  0.00     0.120 C 
ATOM     13  C   UNL A   1      32.686  31.249  27.172  1.00  0.00     0.037 C 
ATOM     14  C   UNL A   1      35.047  30.427  27.359  1.00  0.00     0.037 C 
BRANCH   8  15
ATOM     15  C   UNL A   1      33.909  26.976  25.091  1.00  0.00     0.139 C 
BRANCH  15  16
ATOM     16  C   UNL A   1      33.594  26.273  23.818  1.00  0.00     0.008 A 
ATOM     17  C   UNL A   1      32.059  21.015  22.268  1.00  0.00     0.044 C 
ATOM     18  C   UNL A   1      32.354  22.406  22.755  1.00  0.00    -0.047 A 
ATOM     19  C   UNL A   1      32.228  22.720  24.115  1.00  0.00     0.004 A 
ATOM     20  C   UNL A   1      32.766  23.386  21.835  1.00  0.00     0.051 A 
ATOM     21  C   UNL A   1      32.542  23.996  24.600  1.00  0.00     0.012 A 
ATOM     22  C   UNL A   1      33.088  24.641  22.350  1.00  0.00     0.134 A 
ATOM     23  C   UNL A   1      33.007  24.970  23.695  1.00  0.00     0.024 A 
ATOM     24  O   UNL A   1      33.574  25.695  21.638  1.00  0.00    -0.464 OA
ATOM     25  C   UNL A   1      33.870  26.679  22.529  1.00  0.00     0.200 A 
ENDBRANCH  15  16
ENDBRANCH   8  15
ENDBRANCH   5   7
ENDBRANCH   4   5
ENDBRANCH   3   4
ENDBRANCH   2   3
ENDBRANCH   1   2
BRANCH   1  26
ATOM     26  C   UNL A   1      33.303  36.732  30.907  1.00  0.00     0.202 C 
BRANCH  26  27
ATOM     27  C   UNL A   1      32.522  35.684  31.722  1.00  0.00     0.261 C 
BRANCH  27  28
ATOM     28  O   UNL A   1      33.403  34.773  32.394  1.00  0.00    -0.460 OA
BRANCH  28  29
ATOM     29  C   UNL A   1      34.367  35.365  33.147  1.00  0.00     0.338 C 
ATOM     30  O   UNL A   1      34.235  36.283  33.940  1.00  0.00    -0.246 OA
BRANCH  29  31
ATOM     31  C   UNL A   1      35.499  34.420  33.141  1.00  0.00     0.060 A 
ATOM     32  C   UNL A   1      36.814  34.888  33.173  1.00  0.00     0.016 A 
ATOM     33  C   UNL A   1      35.202  33.099  32.761  1.00  0.00     0.016 A 
ATOM     34  C   UNL A   1      37.829  34.044  32.744  1.00  0.00     0.010 A 
ATOM     35  C   UNL A   1      36.219  32.274  32.297  1.00  0.00     0.010 A 
ATOM     36  C   UNL A   1      37.528  32.758  32.259  1.00  0.00    -0.014 A 
BRANCH  36  37
ATOM     37  C   UNL A   1      38.652  31.885  31.918  1.00  0.00     0.031 A 
ATOM     38  C   UNL A   1      39.484  31.526  33.102  1.00  0.00     0.074 A 
ATOM     39  C   UNL A   1      38.889  31.300  30.727  1.00  0.00     0.049 A 
ATOM     40  N   UNL A   1      40.740  31.759  33.306  1.00  0.00    -0.248 NA
ATOM     41  C   UNL A   1      38.787  30.924  34.250  1.00  0.00     0.031 C 
ATOM     42  C   UNL A   1      38.037  31.259  29.538  1.00  0.00     0.029 A 
ATOM     43  N   UNL A   1      39.953  30.518  30.368  1.00  0.00    -0.354 N 
ATOM     44  C   UNL A   1      41.032  31.201  34.549  1.00  0.00     0.074 A 
ATOM     45  C   UNL A   1      39.776  30.815  35.135  1.00  0.00     0.031 C 
ATOM     46  C   UNL A   1      38.518  30.330  28.677  1.00  0.00     0.029 A 
ATOM     47  C   UNL A   1      39.772  29.803  29.192  1.00  0.00     0.049 A 
ATOM     48  H   UNL A   1      40.779  30.467  30.901  1.00  0.00     0.167 HD
ATOM     49  C   UNL A   1      42.305  30.922  34.937  1.00  0.00     0.037 A 
ATOM     50  C   UNL A   1      40.566  28.809  28.714  1.00  0.00     0.037 A 
ATOM     51  C   UNL A   1      43.272  31.657  34.172  1.00  0.00     0.049 A 
ATOM     52  C   UNL A   1      41.881  28.902  29.392  1.00  0.00     0.074 A 
ATOM     53  C   UNL A   1      43.547  32.996  33.974  1.00  0.00     0.029 A 
ATOM     54  N   UNL A   1      43.967  30.992  33.193  1.00  0.00    -0.354 N 
ATOM     55  N   UNL A   1      42.755  29.841  29.177  1.00  0.00    -0.248 NA
ATOM     56  C   UNL A   1      42.065  28.145  30.621  1.00  0.00     0.031 C 
ATOM     57  C   UNL A   1      43.969  33.091  32.615  1.00  0.00     0.029 A 
ATOM     58  C   UNL A   1      43.956  31.801  32.086  1.00  0.00     0.049 A 
ATOM     59  H   UNL A   1      44.389  30.107  33.269  1.00  0.00     0.167 HD
ATOM     60  C   UNL A   1      43.324  30.080  30.417  1.00  0.00     0.074 A 
ATOM     61  C   UNL A   1      42.934  28.942  31.244  1.00  0.00     0.031 C 
ATOM     62  C   UNL A   1      43.825  31.309  30.737  1.00  0.00     0.037 A 
BRANCH  49  63
ATOM     63  C   UNL A   1      42.679  29.732  35.783  1.00  0.00     0.057 A 
ATOM     64  C   UNL A   1      42.357  28.401  35.449  1.00  0.00     0.134 A 
ATOM     65  C   UNL A   1      43.643  29.880  36.795  1.00  0.00     0.134 A 
ATOM     66  F   UNL A   1      41.521  28.094  34.450  1.00  0.00    -0.206 F 
ATOM     67  C   UNL A   1      42.963  27.300  36.059  1.00  0.00     0.040 A 
ATOM     68  C   UNL A   1      44.294  28.785  37.376  1.00  0.00     0.040 A 
ATOM     69  F   UNL A   1      44.045  31.097  37.193  1.00  0.00    -0.206 F 
ATOM     70  C   UNL A   1      43.960  27.489  37.002  1.00  0.00     0.006 A 
ENDBRANCH  49  63
BRANCH  50  71
ATOM     71  C   UNL A   1      40.204  27.621  27.907  1.00  0.00     0.057 A 
ATOM     72  C   UNL A   1      39.461  26.567  28.464  1.00  0.00     0.134 A 
ATOM     73  C   UNL A   1      40.809  27.361  26.669  1.00  0.00     0.134 A 
ATOM     74  F   UNL A   1      38.910  26.679  29.680  1.00  0.00    -0.206 F 
ATOM     75  C   UNL A   1      39.338  25.323  27.834  1.00  0.00     0.040 A 
ATOM     76  C   UNL A   1      40.699  26.118  26.029  1.00  0.00     0.040 A 
ATOM     77  F   UNL A   1      41.578  28.287  26.077  1.00  0.00    -0.206 F 
ATOM     78  C   UNL A   1      39.969  25.090  26.619  1.00  0.00     0.006 A 
ENDBRANCH  50  71
BRANCH  62  79
ATOM     79  C   UNL A   1      43.989  32.309  29.629  1.00  0.00     0.057 A 
ATOM     80  C   UNL A   1      45.238  32.432  29.012  1.00  0.00     0.134 A 
ATOM     81  C   UNL A   1      43.002  33.236  29.260  1.00  0.00     0.134 A 
ATOM     82  F   UNL A   1      46.247  31.616  29.357  1.00  0.00    -0.206 F 
ATOM     83  C   UNL A   1      45.495  33.422  28.061  1.00  0.00     0.040 A 
ATOM     84  C   UNL A   1      43.236  34.209  28.284  1.00  0.00     0.040 A 
ATOM     85  F   UNL A   1      41.809  33.261  29.870  1.00  0.00    -0.206 F 
ATOM     86  C   UNL A   1      44.489  34.308  27.686  1.00  0.00     0.006 A 
ENDBRANCH  62  79
ENDBRANCH  36  37
ENDBRANCH  29  31
ENDBRANCH  28  29
ENDBRANCH  27  28
ENDBRANCH  26  27
ENDBRANCH   1  26
TORSDOF 16
ENDMDL
