MODEL 1
REMARK VINA RESULT:     -11.3      0.000      0.000
REMARK SMILES Cc1c(Br)c(C)c2c(c1Br)O[C@H](C(F)(F)F)C(C(=O)OCCOCCOC(=O)c1ccc(-c3c4nc(c(-c5c(F)cccc5F)c5ccc([nH]5)c(-c5c(F)cccc5F)c5nc(c(-c6c(F)cccc6F)c6ccc3[nH]6)C=C5)C=C4)cc1)=C2
REMARK SMILES IDX 24 1 23 2 22 3 21 4 20 5 18 6 19 7 17 8 1 9 2 10 3 11 9 12
REMARK SMILES IDX 4 13 5 14 8 15 10 16 6 17 7 18 11 19 83 20 12 21 13 22 14 23
REMARK SMILES IDX 15 24 16 25 25 26 26 27 27 28 28 29 29 30 30 31 82 32 31 33
REMARK SMILES IDX 81 34 32 35 33 36 34 37 75 38 35 39 80 40 74 41 76 42 36 43
REMARK SMILES IDX 79 44 73 45 72 46 37 48 63 49 46 50 62 51 47 52 50 53 61 54
REMARK SMILES IDX 77 55 48 56 49 57 60 59 78 60 51 61 38 62 39 63 44 64 40 65
REMARK SMILES IDX 41 66 43 67 45 68 42 69 64 70 65 71 70 72 66 73 67 74 69 75
REMARK SMILES IDX 71 76 68 77 52 78 53 79 58 80 54 81 55 82 57 83 59 84 56 85
REMARK H PARENT 76 47 50 58
REMARK Flexibility Score: inf
ROOT
ATOM      1  C   UNL A   1      31.449  31.277  26.167  1.00  0.00     0.202 C 
ENDROOT
BRANCH   1   2
ATOM      2  O   UNL A   1      32.342  30.184  26.387  1.00  0.00    -0.374 OA
BRANCH   2   3
ATOM      3  C   UNL A   1      31.790  28.984  26.929  1.00  0.00     0.202 C 
BRANCH   3   4
ATOM      4  C   UNL A   1      31.885  27.748  26.033  1.00  0.00     0.261 C 
BRANCH   4   5
ATOM      5  O   UNL A   1      33.187  27.146  26.131  1.00  0.00    -0.460 OA
BRANCH   5   6
ATOM      6  C   UNL A   1      33.681  26.666  24.968  1.00  0.00     0.338 C 
ATOM      7  O   UNL A   1      33.984  27.315  23.977  1.00  0.00    -0.246 OA
BRANCH   6   8
ATOM      8  C   UNL A   1      33.938  25.220  25.093  1.00  0.00     0.087 C 
ATOM      9  C   UNL A   1      36.635  19.294  24.911  1.00  0.00     0.047 C 
ATOM     10  C   UNL A   1      36.276  20.739  25.176  1.00  0.00    -0.019 A 
ATOM     11  C   UNL A   1      37.246  21.705  25.538  1.00  0.00     0.025 A 
ATOM     12  C   UNL A   1      34.942  21.169  24.996  1.00  0.00     0.064 A 
ATOM     13  Br  UNL A   1      39.082  21.176  25.723  1.00  0.00    -0.050 Br
ATOM     14  C   UNL A   1      36.896  23.066  25.725  1.00  0.00    -0.026 A 
ATOM     15  C   UNL A   1      34.586  22.522  25.137  1.00  0.00     0.142 A 
ATOM     16  Br  UNL A   1      33.574  19.927  24.482  1.00  0.00    -0.046 Br
ATOM     17  C   UNL A   1      37.900  24.108  26.172  1.00  0.00     0.046 C 
ATOM     18  C   UNL A   1      35.563  23.471  25.463  1.00  0.00     0.022 A 
ATOM     19  O   UNL A   1      33.265  22.844  24.962  1.00  0.00    -0.474 OA
ATOM     20  C   UNL A   1      35.184  24.882  25.445  1.00  0.00     0.027 C 
ATOM     21  C   UNL A   1      32.857  24.226  24.811  1.00  0.00     0.316 C 
BRANCH  21  22
ATOM     22  C   UNL A   1      32.231  24.404  23.420  1.00  0.00     0.430 C 
ATOM     23  F   UNL A   1      31.617  23.269  23.009  1.00  0.00    -0.167 F 
ATOM     24  F   UNL A   1      31.288  25.376  23.415  1.00  0.00    -0.167 F 
ATOM     25  F   UNL A   1      33.154  24.729  22.487  1.00  0.00    -0.167 F 
ENDBRANCH  21  22
ENDBRANCH   6   8
ENDBRANCH   5   6
ENDBRANCH   4   5
ENDBRANCH   3   4
ENDBRANCH   2   3
ENDBRANCH   1   2
BRANCH   1  26
ATOM     26  C   UNL A   1      31.522  32.430  27.175  1.00  0.00     0.261 C 
BRANCH  26  27
ATOM     27  O   UNL A   1      32.620  33.317  26.899  1.00  0.00    -0.460 OA
BRANCH  27  28
ATOM     28  C   UNL A   1      33.199  33.861  27.996  1.00  0.00     0.338 C 
ATOM     29  O   UNL A   1      32.734  34.721  28.731  1.00  0.00    -0.246 OA
BRANCH  28  30
ATOM     30  C   UNL A   1      34.447  33.146  28.318  1.00  0.00     0.060 A 
ATOM     31  C   UNL A   1      34.348  31.790  28.654  1.00  0.00     0.016 A 
ATOM     32  C   UNL A   1      35.676  33.805  28.373  1.00  0.00     0.016 A 
ATOM     33  C   UNL A   1      35.472  31.097  29.096  1.00  0.00     0.010 A 
ATOM     34  C   UNL A   1      36.803  33.111  28.830  1.00  0.00     0.010 A 
ATOM     35  C   UNL A   1      36.697  31.765  29.225  1.00  0.00    -0.014 A 
BRANCH  35  36
ATOM     36  C   UNL A   1      37.828  31.094  29.908  1.00  0.00     0.031 A 
ATOM     37  C   UNL A   1      38.099  31.410  31.352  1.00  0.00     0.074 A 
ATOM     38  C   UNL A   1      38.580  30.188  29.260  1.00  0.00     0.049 A 
ATOM     39  N   UNL A   1      39.055  30.974  32.131  1.00  0.00    -0.248 NA
ATOM     40  C   UNL A   1      37.164  32.340  32.009  1.00  0.00     0.031 C 
ATOM     41  C   UNL A   1      38.378  29.758  27.879  1.00  0.00     0.029 A 
ATOM     42  N   UNL A   1      39.669  29.470  29.684  1.00  0.00    -0.354 N 
ATOM     43  C   UNL A   1      38.837  31.570  33.366  1.00  0.00     0.074 A 
ATOM     44  C   UNL A   1      37.675  32.421  33.228  1.00  0.00     0.031 C 
ATOM     45  C   UNL A   1      39.319  28.849  27.566  1.00  0.00     0.029 A 
ATOM     46  C   UNL A   1      40.204  28.661  28.714  1.00  0.00     0.049 A 
ATOM     47  H   UNL A   1      40.031  29.529  30.598  1.00  0.00     0.167 HD
ATOM     48  C   UNL A   1      39.537  31.414  34.514  1.00  0.00     0.037 A 
ATOM     49  C   UNL A   1      41.295  27.871  28.745  1.00  0.00     0.037 A 
ATOM     50  C   UNL A   1      40.698  30.575  34.648  1.00  0.00     0.049 A 
ATOM     51  C   UNL A   1      42.107  27.780  30.008  1.00  0.00     0.074 A 
ATOM     52  C   UNL A   1      41.486  30.366  35.766  1.00  0.00     0.029 A 
ATOM     53  N   UNL A   1      41.236  29.804  33.628  1.00  0.00    -0.354 N 
ATOM     54  N   UNL A   1      41.902  28.359  31.166  1.00  0.00    -0.248 NA
ATOM     55  C   UNL A   1      43.305  26.927  29.968  1.00  0.00     0.031 C 
ATOM     56  C   UNL A   1      42.524  29.498  35.412  1.00  0.00     0.029 A 
ATOM     57  C   UNL A   1      42.354  29.129  34.088  1.00  0.00     0.049 A 
ATOM     58  H   UNL A   1      40.876  29.746  32.714  1.00  0.00     0.167 HD
ATOM     59  C   UNL A   1      42.923  27.919  32.000  1.00  0.00     0.074 A 
ATOM     60  C   UNL A   1      43.745  27.021  31.216  1.00  0.00     0.031 C 
ATOM     61  C   UNL A   1      43.154  28.229  33.299  1.00  0.00     0.037 A 
BRANCH  48  62
ATOM     62  C   UNL A   1      39.075  32.178  35.719  1.00  0.00     0.057 A 
ATOM     63  C   UNL A   1      38.249  31.594  36.686  1.00  0.00     0.134 A 
ATOM     64  C   UNL A   1      39.504  33.493  35.939  1.00  0.00     0.134 A 
ATOM     65  F   UNL A   1      37.792  30.343  36.525  1.00  0.00    -0.206 F 
ATOM     66  C   UNL A   1      37.858  32.295  37.829  1.00  0.00     0.040 A 
ATOM     67  C   UNL A   1      39.137  34.196  37.088  1.00  0.00     0.040 A 
ATOM     68  F   UNL A   1      40.298  34.109  35.051  1.00  0.00    -0.206 F 
ATOM     69  C   UNL A   1      38.310  33.597  38.037  1.00  0.00     0.006 A 
ENDBRANCH  48  62
BRANCH  49  70
ATOM     70  C   UNL A   1      41.681  27.099  27.538  1.00  0.00     0.057 A 
ATOM     71  C   UNL A   1      42.495  27.663  26.550  1.00  0.00     0.134 A 
ATOM     72  C   UNL A   1      41.253  25.781  27.348  1.00  0.00     0.134 A 
ATOM     73  F   UNL A   1      42.918  28.930  26.666  1.00  0.00    -0.206 F 
ATOM     74  C   UNL A   1      42.863  26.946  25.411  1.00  0.00     0.040 A 
ATOM     75  C   UNL A   1      41.632  25.044  26.224  1.00  0.00     0.040 A 
ATOM     76  F   UNL A   1      40.470  25.185  28.260  1.00  0.00    -0.206 F 
ATOM     77  C   UNL A   1      42.437  25.630  25.249  1.00  0.00     0.006 A 
ENDBRANCH  49  70
BRANCH  61  78
ATOM     78  C   UNL A   1      44.320  27.567  33.972  1.00  0.00     0.057 A 
ATOM     79  C   UNL A   1      45.584  28.166  34.020  1.00  0.00     0.134 A 
ATOM     80  C   UNL A   1      44.156  26.344  34.637  1.00  0.00     0.134 A 
ATOM     81  F   UNL A   1      45.808  29.333  33.397  1.00  0.00    -0.206 F 
ATOM     82  C   UNL A   1      46.648  27.564  34.695  1.00  0.00     0.040 A 
ATOM     83  C   UNL A   1      45.206  25.745  35.332  1.00  0.00     0.040 A 
ATOM     84  F   UNL A   1      42.966  25.724  34.637  1.00  0.00    -0.206 F 
ATOM     85  C   UNL A   1      46.458  26.355  35.360  1.00  0.00     0.006 A 
ENDBRANCH  61  78
ENDBRANCH  35  36
ENDBRANCH  28  30
ENDBRANCH  27  28
ENDBRANCH  26  27
ENDBRANCH   1  26
TORSDOF 15
ENDMDL
MODEL 2
REMARK VINA RESULT:     -11.1      4.085      7.634
REMARK SMILES Cc1c(Br)c(C)c2c(c1Br)O[C@H](C(F)(F)F)C(C(=O)OCCOCCOC(=O)c1ccc(-c3c4nc(c(-c5c(F)cccc5F)c5ccc([nH]5)c(-c5c(F)cccc5F)c5nc(c(-c6c(F)cccc6F)c6ccc3[nH]6)C=C5)C=C4)cc1)=C2
REMARK SMILES IDX 24 1 23 2 22 3 21 4 20 5 18 6 19 7 17 8 1 9 2 10 3 11 9 12
REMARK SMILES IDX 4 13 5 14 8 15 10 16 6 17 7 18 11 19 83 20 12 21 13 22 14 23
REMARK SMILES IDX 15 24 16 25 25 26 26 27 27 28 28 29 29 30 30 31 82 32 31 33
REMARK SMILES IDX 81 34 32 35 33 36 34 37 75 38 35 39 80 40 74 41 76 42 36 43
REMARK SMILES IDX 79 44 73 45 72 46 37 48 63 49 46 50 62 51 47 52 50 53 61 54
REMARK SMILES IDX 77 55 48 56 49 57 60 59 78 60 51 61 38 62 39 63 44 64 40 65
REMARK SMILES IDX 41 66 43 67 45 68 42 69 64 70 65 71 70 72 66 73 67 74 69 75
REMARK SMILES IDX 71 76 68 77 52 78 53 79 58 80 54 81 55 82 57 83 59 84 56 85
REMARK H PARENT 76 47 50 58
REMARK Flexibility Score: inf
ROOT
ATOM      1  C   UNL A   1      35.273  20.913  24.936  1.00  0.00     0.202 C 
ENDROOT
BRANCH   1   2
ATOM      2  O   UNL A   1      34.458  20.795  26.102  1.00  0.00    -0.374 OA
BRANCH   2   3
ATOM      3  C   UNL A   1      34.302  21.957  26.916  1.00  0.00     0.202 C 
BRANCH   3   4
ATOM      4  C   UNL A   1      34.893  23.249  26.348  1.00  0.00     0.261 C 
BRANCH   4   5
ATOM      5  O   UNL A   1      33.871  24.247  26.182  1.00  0.00    -0.460 OA
BRANCH   5   6
ATOM      6  C   UNL A   1      33.570  24.544  24.898  1.00  0.00     0.338 C 
ATOM      7  O   UNL A   1      33.596  23.781  23.943  1.00  0.00    -0.246 OA
BRANCH   6   8
ATOM      8  C   UNL A   1      33.064  25.926  24.810  1.00  0.00     0.087 C 
ATOM      9  C   UNL A   1      31.191  32.013  26.176  1.00  0.00     0.047 C 
ATOM     10  C   UNL A   1      31.945  30.720  25.957  1.00  0.00    -0.019 A 
ATOM     11  C   UNL A   1      33.118  30.398  26.681  1.00  0.00     0.025 A 
ATOM     12  C   UNL A   1      31.436  29.763  25.052  1.00  0.00     0.064 A 
ATOM     13  Br  UNL A   1      33.803  31.641  27.974  1.00  0.00    -0.050 Br
ATOM     14  C   UNL A   1      33.776  29.154  26.501  1.00  0.00    -0.026 A 
ATOM     15  C   UNL A   1      32.053  28.509  24.892  1.00  0.00     0.142 A 
ATOM     16  Br  UNL A   1      29.837  30.114  24.052  1.00  0.00    -0.046 Br
ATOM     17  C   UNL A   1      35.066  28.808  27.216  1.00  0.00     0.046 C 
ATOM     18  C   UNL A   1      33.193  28.191  25.639  1.00  0.00     0.022 A 
ATOM     19  O   UNL A   1      31.499  27.650  23.978  1.00  0.00    -0.474 OA
ATOM     20  C   UNL A   1      33.709  26.826  25.562  1.00  0.00     0.027 C 
ATOM     21  C   UNL A   1      31.888  26.255  23.948  1.00  0.00     0.316 C 
BRANCH  21  22
ATOM     22  C   UNL A   1      30.656  25.395  24.266  1.00  0.00     0.430 C 
ATOM     23  F   UNL A   1      30.711  24.906  25.529  1.00  0.00    -0.167 F 
ATOM     24  F   UNL A   1      29.509  26.110  24.180  1.00  0.00    -0.167 F 
ATOM     25  F   UNL A   1      30.541  24.342  23.426  1.00  0.00    -0.167 F 
ENDBRANCH  21  22
ENDBRANCH   6   8
ENDBRANCH   5   6
ENDBRANCH   4   5
ENDBRANCH   3   4
ENDBRANCH   2   3
ENDBRANCH   1   2
BRANCH   1  26
ATOM     26  C   UNL A   1      36.675  20.297  25.019  1.00  0.00     0.261 C 
BRANCH  26  27
ATOM     27  O   UNL A   1      37.703  21.301  25.046  1.00  0.00    -0.460 OA
BRANCH  27  28
ATOM     28  C   UNL A   1      38.792  20.978  25.783  1.00  0.00     0.338 C 
ATOM     29  O   UNL A   1      39.351  19.891  25.843  1.00  0.00    -0.246 OA
BRANCH  28  30
ATOM     30  C   UNL A   1      39.356  22.185  26.412  1.00  0.00     0.060 A 
ATOM     31  C   UNL A   1      38.796  23.420  26.059  1.00  0.00     0.016 A 
ATOM     32  C   UNL A   1      40.462  22.123  27.260  1.00  0.00     0.016 A 
ATOM     33  C   UNL A   1      39.371  24.603  26.515  1.00  0.00     0.010 A 
ATOM     34  C   UNL A   1      41.048  23.312  27.708  1.00  0.00     0.010 A 
ATOM     35  C   UNL A   1      40.526  24.556  27.309  1.00  0.00    -0.014 A 
BRANCH  35  36
ATOM     36  C   UNL A   1      41.264  25.807  27.601  1.00  0.00     0.031 A 
ATOM     37  C   UNL A   1      40.578  26.895  28.378  1.00  0.00     0.074 A 
ATOM     38  C   UNL A   1      42.541  25.957  27.209  1.00  0.00     0.049 A 
ATOM     39  N   UNL A   1      41.018  28.081  28.709  1.00  0.00    -0.248 NA
ATOM     40  C   UNL A   1      39.213  26.604  28.851  1.00  0.00     0.031 C 
ATOM     41  C   UNL A   1      43.329  24.951  26.500  1.00  0.00     0.029 A 
ATOM     42  N   UNL A   1      43.397  27.019  27.354  1.00  0.00    -0.354 N 
ATOM     43  C   UNL A   1      39.990  28.677  29.429  1.00  0.00     0.074 A 
ATOM     44  C   UNL A   1      38.893  27.734  29.465  1.00  0.00     0.031 C 
ATOM     45  C   UNL A   1      44.557  25.448  26.267  1.00  0.00     0.029 A 
ATOM     46  C   UNL A   1      44.627  26.814  26.782  1.00  0.00     0.049 A 
ATOM     47  H   UNL A   1      43.151  27.849  27.824  1.00  0.00     0.167 HD
ATOM     48  C   UNL A   1      39.968  29.897  30.016  1.00  0.00     0.037 A 
ATOM     49  C   UNL A   1      45.683  27.643  26.671  1.00  0.00     0.037 A 
ATOM     50  C   UNL A   1      41.055  30.837  29.972  1.00  0.00     0.049 A 
ATOM     51  C   UNL A   1      45.603  29.027  27.258  1.00  0.00     0.074 A 
ATOM     52  C   UNL A   1      41.120  32.106  30.520  1.00  0.00     0.029 A 
ATOM     53  N   UNL A   1      42.270  30.610  29.343  1.00  0.00    -0.354 N 
ATOM     54  N   UNL A   1      44.622  29.586  27.923  1.00  0.00    -0.248 NA
ATOM     55  C   UNL A   1      46.776  29.895  27.076  1.00  0.00     0.031 C 
ATOM     56  C   UNL A   1      42.361  32.661  30.191  1.00  0.00     0.029 A 
ATOM     57  C   UNL A   1      43.086  31.721  29.479  1.00  0.00     0.049 A 
ATOM     58  H   UNL A   1      42.516  29.782  28.871  1.00  0.00     0.167 HD
ATOM     59  C   UNL A   1      45.069  30.857  28.266  1.00  0.00     0.074 A 
ATOM     60  C   UNL A   1      46.411  30.985  27.737  1.00  0.00     0.031 C 
ATOM     61  C   UNL A   1      44.424  31.828  28.958  1.00  0.00     0.037 A 
BRANCH  48  62
ATOM     62  C   UNL A   1      38.720  30.293  30.747  1.00  0.00     0.057 A 
ATOM     63  C   UNL A   1      37.653  30.919  30.092  1.00  0.00     0.134 A 
ATOM     64  C   UNL A   1      38.563  29.996  32.107  1.00  0.00     0.134 A 
ATOM     65  F   UNL A   1      37.747  31.243  28.794  1.00  0.00    -0.206 F 
ATOM     66  C   UNL A   1      36.474  31.245  30.767  1.00  0.00     0.040 A 
ATOM     67  C   UNL A   1      37.382  30.297  32.786  1.00  0.00     0.040 A 
ATOM     68  F   UNL A   1      39.548  29.396  32.791  1.00  0.00    -0.206 F 
ATOM     69  C   UNL A   1      36.333  30.925  32.116  1.00  0.00     0.006 A 
ENDBRANCH  48  62
BRANCH  49  70
ATOM     70  C   UNL A   1      46.912  27.184  25.978  1.00  0.00     0.057 A 
ATOM     71  C   UNL A   1      47.922  26.508  26.670  1.00  0.00     0.134 A 
ATOM     72  C   UNL A   1      47.101  27.403  24.609  1.00  0.00     0.134 A 
ATOM     73  F   UNL A   1      47.807  26.289  27.987  1.00  0.00    -0.206 F 
ATOM     74  C   UNL A   1      49.082  26.073  26.027  1.00  0.00     0.040 A 
ATOM     75  C   UNL A   1      48.246  26.953  23.948  1.00  0.00     0.040 A 
ATOM     76  F   UNL A   1      46.168  28.046  23.890  1.00  0.00    -0.206 F 
ATOM     77  C   UNL A   1      49.242  26.289  24.660  1.00  0.00     0.006 A 
ENDBRANCH  49  70
BRANCH  61  78
ATOM     78  C   UNL A   1      45.170  33.102  29.222  1.00  0.00     0.057 A 
ATOM     79  C   UNL A   1      45.999  33.256  30.339  1.00  0.00     0.134 A 
ATOM     80  C   UNL A   1      45.108  34.164  28.309  1.00  0.00     0.134 A 
ATOM     81  F   UNL A   1      46.096  32.280  31.254  1.00  0.00    -0.206 F 
ATOM     82  C   UNL A   1      46.729  34.428  30.547  1.00  0.00     0.040 A 
ATOM     83  C   UNL A   1      45.850  35.330  28.494  1.00  0.00     0.040 A 
ATOM     84  F   UNL A   1      44.340  34.074  27.212  1.00  0.00    -0.206 F 
ATOM     85  C   UNL A   1      46.662  35.466  29.619  1.00  0.00     0.006 A 
ENDBRANCH  61  78
ENDBRANCH  35  36
ENDBRANCH  28  30
ENDBRANCH  27  28
ENDBRANCH  26  27
ENDBRANCH   1  26
TORSDOF 15
ENDMDL
MODEL 3
REMARK VINA RESULT:     -11.1      0.527      6.188
REMARK SMILES Cc1c(Br)c(C)c2c(c1Br)O[C@H](C(F)(F)F)C(C(=O)OCCOCCOC(=O)c1ccc(-c3c4nc(c(-c5c(F)cccc5F)c5ccc([nH]5)c(-c5c(F)cccc5F)c5nc(c(-c6c(F)cccc6F)c6ccc3[nH]6)C=C5)C=C4)cc1)=C2
REMARK SMILES IDX 24 1 23 2 22 3 21 4 20 5 18 6 19 7 17 8 1 9 2 10 3 11 9 12
REMARK SMILES IDX 4 13 5 14 8 15 10 16 6 17 7 18 11 19 83 20 12 21 13 22 14 23
REMARK SMILES IDX 15 24 16 25 25 26 26 27 27 28 28 29 29 30 30 31 82 32 31 33
REMARK SMILES IDX 81 34 32 35 33 36 34 37 75 38 35 39 80 40 74 41 76 42 36 43
REMARK SMILES IDX 79 44 73 45 72 46 37 48 63 49 46 50 62 51 47 52 50 53 61 54
REMARK SMILES IDX 77 55 48 56 49 57 60 59 78 60 51 61 38 62 39 63 44 64 40 65
REMARK SMILES IDX 41 66 43 67 45 68 42 69 64 70 65 71 70 72 66 73 67 74 69 75
REMARK SMILES IDX 71 76 68 77 52 78 53 79 58 80 54 81 55 82 57 83 59 84 56 85
REMARK H PARENT 76 47 50 58
REMARK Flexibility Score: inf
ROOT
ATOM      1  C   UNL A   1      31.382  31.354  26.282  1.00  0.00     0.202 C 
ENDROOT
BRANCH   1   2
ATOM      2  O   UNL A   1      32.498  30.496  26.523  1.00  0.00    -0.374 OA
BRANCH   2   3
ATOM      3  C   UNL A   1      32.243  29.255  27.180  1.00  0.00     0.202 C 
BRANCH   3   4
ATOM      4  C   UNL A   1      33.218  28.121  26.856  1.00  0.00     0.261 C 
BRANCH   4   5
ATOM      5  O   UNL A   1      32.564  27.088  26.098  1.00  0.00    -0.460 OA
BRANCH   5   6
ATOM      6  C   UNL A   1      33.269  26.625  25.042  1.00  0.00     0.338 C 
ATOM      7  O   UNL A   1      33.811  27.291  24.173  1.00  0.00    -0.246 OA
BRANCH   6   8
ATOM      8  C   UNL A   1      33.416  25.161  25.143  1.00  0.00     0.087 C 
ATOM      9  C   UNL A   1      35.575  19.032  24.696  1.00  0.00     0.047 C 
ATOM     10  C   UNL A   1      35.367  20.500  24.994  1.00  0.00    -0.019 A 
ATOM     11  C   UNL A   1      36.447  21.379  25.252  1.00  0.00     0.025 A 
ATOM     12  C   UNL A   1      34.063  21.041  24.952  1.00  0.00     0.064 A 
ATOM     13  Br  UNL A   1      38.241  20.698  25.247  1.00  0.00    -0.050 Br
ATOM     14  C   UNL A   1      36.232  22.764  25.471  1.00  0.00    -0.026 A 
ATOM     15  C   UNL A   1      33.837  22.419  25.126  1.00  0.00     0.142 A 
ATOM     16  Br  UNL A   1      32.549  19.921  24.584  1.00  0.00    -0.046 Br
ATOM     17  C   UNL A   1      37.361  23.715  25.810  1.00  0.00     0.046 C 
ATOM     18  C   UNL A   1      34.918  23.281  25.347  1.00  0.00     0.022 A 
ATOM     19  O   UNL A   1      32.537  22.851  25.087  1.00  0.00    -0.474 OA
ATOM     20  C   UNL A   1      34.659  24.719  25.365  1.00  0.00     0.027 C 
ATOM     21  C   UNL A   1      32.232  24.263  24.976  1.00  0.00     0.316 C 
BRANCH  21  22
ATOM     22  C   UNL A   1      31.484  24.502  23.657  1.00  0.00     0.430 C 
ATOM     23  F   UNL A   1      30.693  25.600  23.733  1.00  0.00    -0.167 F 
ATOM     24  F   UNL A   1      32.337  24.712  22.627  1.00  0.00    -0.167 F 
ATOM     25  F   UNL A   1      30.695  23.455  23.324  1.00  0.00    -0.167 F 
ENDBRANCH  21  22
ENDBRANCH   6   8
ENDBRANCH   5   6
ENDBRANCH   4   5
ENDBRANCH   3   4
ENDBRANCH   2   3
ENDBRANCH   1   2
BRANCH   1  26
ATOM     26  C   UNL A   1      31.469  32.768  26.868  1.00  0.00     0.261 C 
BRANCH  26  27
ATOM     27  O   UNL A   1      32.807  33.292  26.810  1.00  0.00    -0.460 OA
BRANCH  27  28
ATOM     28  C   UNL A   1      33.262  33.813  27.974  1.00  0.00     0.338 C 
ATOM     29  O   UNL A   1      32.693  34.620  28.698  1.00  0.00    -0.246 OA
BRANCH  28  30
ATOM     30  C   UNL A   1      34.511  33.143  28.376  1.00  0.00     0.060 A 
ATOM     31  C   UNL A   1      34.418  31.822  28.834  1.00  0.00     0.016 A 
ATOM     32  C   UNL A   1      35.734  33.815  28.387  1.00  0.00     0.016 A 
ATOM     33  C   UNL A   1      35.541  31.183  29.353  1.00  0.00     0.010 A 
ATOM     34  C   UNL A   1      36.859  33.176  28.920  1.00  0.00     0.010 A 
ATOM     35  C   UNL A   1      36.759  31.872  29.436  1.00  0.00    -0.014 A 
BRANCH  35  36
ATOM     36  C   UNL A   1      37.885  31.276  30.192  1.00  0.00     0.031 A 
ATOM     37  C   UNL A   1      38.772  30.272  29.510  1.00  0.00     0.074 A 
ATOM     38  C   UNL A   1      38.137  31.652  31.458  1.00  0.00     0.049 A 
ATOM     39  N   UNL A   1      39.783  29.597  29.991  1.00  0.00    -0.248 NA
ATOM     40  C   UNL A   1      38.481  29.994  28.093  1.00  0.00     0.031 C 
ATOM     41  C   UNL A   1      37.384  32.656  32.205  1.00  0.00     0.029 A 
ATOM     42  N   UNL A   1      39.100  31.226  32.337  1.00  0.00    -0.354 N 
ATOM     43  C   UNL A   1      40.252  28.820  28.940  1.00  0.00     0.074 A 
ATOM     44  C   UNL A   1      39.398  29.083  27.802  1.00  0.00     0.031 C 
ATOM     45  C   UNL A   1      37.912  32.768  33.436  1.00  0.00     0.029 A 
ATOM     46  C   UNL A   1      39.016  31.820  33.571  1.00  0.00     0.049 A 
ATOM     47  H   UNL A   1      39.785  30.557  32.104  1.00  0.00     0.167 HD
ATOM     48  C   UNL A   1      41.306  27.970  28.923  1.00  0.00     0.037 A 
ATOM     49  C   UNL A   1      39.740  31.609  34.688  1.00  0.00     0.037 A 
ATOM     50  C   UNL A   1      42.149  27.702  30.057  1.00  0.00     0.049 A 
ATOM     51  C   UNL A   1      40.853  30.596  34.669  1.00  0.00     0.074 A 
ATOM     52  C   UNL A   1      43.230  26.842  30.144  1.00  0.00     0.029 A 
ATOM     53  N   UNL A   1      42.005  28.291  31.304  1.00  0.00    -0.354 N 
ATOM     54  N   UNL A   1      41.279  29.856  33.675  1.00  0.00    -0.248 NA
ATOM     55  C   UNL A   1      41.584  30.389  35.928  1.00  0.00     0.031 C 
ATOM     56  C   UNL A   1      43.717  26.883  31.454  1.00  0.00     0.029 A 
ATOM     57  C   UNL A   1      42.969  27.803  32.170  1.00  0.00     0.049 A 
ATOM     58  H   UNL A   1      41.319  28.957  31.539  1.00  0.00     0.167 HD
ATOM     59  C   UNL A   1      42.344  29.118  34.177  1.00  0.00     0.074 A 
ATOM     60  C   UNL A   1      42.503  29.503  35.564  1.00  0.00     0.031 C 
ATOM     61  C   UNL A   1      43.122  28.206  33.544  1.00  0.00     0.037 A 
BRANCH  48  62
ATOM     62  C   UNL A   1      41.601  27.256  27.638  1.00  0.00     0.057 A 
ATOM     63  C   UNL A   1      42.430  27.817  26.660  1.00  0.00     0.134 A 
ATOM     64  C   UNL A   1      41.095  25.972  27.401  1.00  0.00     0.134 A 
ATOM     65  F   UNL A   1      42.934  29.050  26.821  1.00  0.00    -0.206 F 
ATOM     66  C   UNL A   1      42.739  27.129  25.484  1.00  0.00     0.040 A 
ATOM     67  C   UNL A   1      41.414  25.266  26.240  1.00  0.00     0.040 A 
ATOM     68  F   UNL A   1      40.296  25.378  28.300  1.00  0.00    -0.206 F 
ATOM     69  C   UNL A   1      42.237  25.845  25.277  1.00  0.00     0.006 A 
ENDBRANCH  48  62
BRANCH  49  70
ATOM     70  C   UNL A   1      39.436  32.378  35.920  1.00  0.00     0.057 A 
ATOM     71  C   UNL A   1      38.503  31.911  36.851  1.00  0.00     0.134 A 
ATOM     72  C   UNL A   1      40.075  33.592  36.198  1.00  0.00     0.134 A 
ATOM     73  F   UNL A   1      37.843  30.765  36.628  1.00  0.00    -0.206 F 
ATOM     74  C   UNL A   1      38.209  32.627  38.012  1.00  0.00     0.040 A 
ATOM     75  C   UNL A   1      39.808  34.308  37.366  1.00  0.00     0.040 A 
ATOM     76  F   UNL A   1      40.979  34.093  35.343  1.00  0.00    -0.206 F 
ATOM     77  C   UNL A   1      38.868  33.826  38.275  1.00  0.00     0.006 A 
ENDBRANCH  49  70
BRANCH  61  78
ATOM     78  C   UNL A   1      44.241  27.586  34.328  1.00  0.00     0.057 A 
ATOM     79  C   UNL A   1      45.476  28.226  34.485  1.00  0.00     0.134 A 
ATOM     80  C   UNL A   1      44.055  26.363  34.986  1.00  0.00     0.134 A 
ATOM     81  F   UNL A   1      45.720  29.395  33.874  1.00  0.00    -0.206 F 
ATOM     82  C   UNL A   1      46.492  27.664  35.260  1.00  0.00     0.040 A 
ATOM     83  C   UNL A   1      45.055  25.803  35.781  1.00  0.00     0.040 A 
ATOM     84  F   UNL A   1      42.890  25.705  34.884  1.00  0.00    -0.206 F 
ATOM     85  C   UNL A   1      46.280  26.453  35.917  1.00  0.00     0.006 A 
ENDBRANCH  61  78
ENDBRANCH  35  36
ENDBRANCH  28  30
ENDBRANCH  27  28
ENDBRANCH  26  27
ENDBRANCH   1  26
TORSDOF 15
ENDMDL
