MODEL 1
REMARK VINA RESULT:     -10.6      0.000      0.000
REMARK SMILES CC[C@@](C)(NC(=O)Nc1c(C)cccc1Cl)C(=O)OCCOCCOC(=O)c1ccc(-c2c3nc(c(-c4c(F)cccc4F)c4ccc([nH]4)c(-c4c(F)cccc4F)c4nc(c(-c5c(F)cccc5F)c5ccc2[nH]5)C=C4)C=C3)cc1
REMARK SMILES IDX 22 1 21 2 20 3 19 4 17 5 18 6 3 7 4 8 2 9 1 10 5 11 6 12
REMARK SMILES IDX 7 14 8 15 9 17 10 18 15 19 11 20 12 21 14 22 16 23 13 24
REMARK SMILES IDX 23 25 24 26 25 27 26 28 27 29 28 30 29 31 81 32 30 33 80 34
REMARK SMILES IDX 31 35 32 36 33 37 74 38 34 39 79 40 73 41 75 42 35 43 78 44
REMARK SMILES IDX 72 45 71 46 36 48 62 49 45 50 61 51 46 52 49 53 60 54 76 55
REMARK SMILES IDX 47 56 48 57 59 59 77 60 50 61 37 62 38 63 43 64 39 65 40 66
REMARK SMILES IDX 42 67 44 68 41 69 63 70 64 71 69 72 65 73 66 74 68 75 70 76
REMARK SMILES IDX 67 77 51 78 52 79 57 80 53 81 54 82 56 83 58 84 55 85
REMARK H PARENT 5 13 8 16 75 47 49 58
REMARK Flexibility Score: inf
ROOT
ATOM      1  O   UNL A   1      38.062  21.110  24.992  1.00  0.00    -0.374 OA
ENDROOT
BRANCH   1   2
ATOM      2  C   UNL A   1      36.894  21.639  25.594  1.00  0.00     0.202 C 
BRANCH   2   3
ATOM      3  C   UNL A   1      35.647  21.002  24.843  1.00  0.00     0.261 C 
BRANCH   3   4
ATOM      4  O   UNL A   1      34.604  22.007  24.462  1.00  0.00    -0.462 OA
BRANCH   4   5
ATOM      5  C   UNL A   1      34.300  22.804  23.364  1.00  0.00     0.331 C 
ATOM      6  O   UNL A   1      35.157  23.410  22.723  1.00  0.00    -0.249 OA
BRANCH   5   7
ATOM      7  C   UNL A   1      32.681  22.871  22.990  1.00  0.00     0.136 C 
ATOM      8  C   UNL A   1      32.186  21.408  23.048  1.00  0.00     0.047 C 
BRANCH   7   9
ATOM      9  C   UNL A   1      31.383  23.697  23.409  1.00  0.00     0.037 C 
ATOM     10  C   UNL A   1      30.605  23.547  24.693  1.00  0.00     0.007 C 
ENDBRANCH   7   9
BRANCH   7  11
ATOM     11  N   UNL A   1      32.891  23.387  21.666  1.00  0.00    -0.322 N 
ATOM     12  C   UNL A   1      33.026  24.716  21.449  1.00  0.00     0.320 C 
ATOM     13  H   UNL A   1      32.938  22.764  20.905  1.00  0.00     0.166 HD
ATOM     14  O   UNL A   1      33.183  25.078  20.280  1.00  0.00    -0.248 OA
ATOM     15  N   UNL A   1      32.892  25.665  22.432  1.00  0.00    -0.306 N 
ATOM     16  H   UNL A   1      32.829  26.513  21.936  1.00  0.00     0.171 HD
BRANCH  15  17
ATOM     17  C   UNL A   1      32.790  26.075  23.848  1.00  0.00     0.064 A 
ATOM     18  C   UNL A   1      33.529  25.892  25.097  1.00  0.00    -0.026 A 
ATOM     19  C   UNL A   1      31.715  27.019  23.949  1.00  0.00     0.064 A 
ATOM     20  C   UNL A   1      34.792  25.190  25.582  1.00  0.00     0.046 C 
ATOM     21  C   UNL A   1      33.102  26.615  26.260  1.00  0.00     0.005 A 
ATOM     22  C   UNL A   1      31.445  27.799  25.076  1.00  0.00     0.023 A 
ATOM     23  Cl  UNL A   1      30.599  27.270  22.622  1.00  0.00    -0.082 Cl
ATOM     24  C   UNL A   1      32.140  27.595  26.240  1.00  0.00     0.002 A 
ENDBRANCH  15  17
ENDBRANCH   7  11
ENDBRANCH   5   7
ENDBRANCH   4   5
ENDBRANCH   3   4
ENDBRANCH   2   3
ENDBRANCH   1   2
BRANCH   1  25
ATOM     25  C   UNL A   1      38.361  19.713  24.994  1.00  0.00     0.202 C 
BRANCH  25  26
ATOM     26  C   UNL A   1      39.531  19.570  26.002  1.00  0.00     0.261 C 
BRANCH  26  27
ATOM     27  O   UNL A   1      40.782  19.625  25.276  1.00  0.00    -0.460 OA
BRANCH  27  28
ATOM     28  C   UNL A   1      41.803  19.954  26.080  1.00  0.00     0.338 C 
ATOM     29  O   UNL A   1      42.913  19.407  26.066  1.00  0.00    -0.246 OA
BRANCH  28  30
ATOM     30  C   UNL A   1      41.596  21.262  26.735  1.00  0.00     0.060 A 
ATOM     31  C   UNL A   1      41.244  22.319  25.881  1.00  0.00     0.016 A 
ATOM     32  C   UNL A   1      41.810  21.503  28.092  1.00  0.00     0.016 A 
ATOM     33  C   UNL A   1      41.245  23.630  26.341  1.00  0.00     0.010 A 
ATOM     34  C   UNL A   1      41.828  22.832  28.554  1.00  0.00     0.010 A 
ATOM     35  C   UNL A   1      41.622  23.903  27.659  1.00  0.00    -0.014 A 
BRANCH  35  36
ATOM     36  C   UNL A   1      42.058  25.292  27.972  1.00  0.00     0.031 A 
ATOM     37  C   UNL A   1      43.415  25.743  27.486  1.00  0.00     0.074 A 
ATOM     38  C   UNL A   1      41.229  26.192  28.531  1.00  0.00     0.049 A 
ATOM     39  N   UNL A   1      43.979  26.924  27.565  1.00  0.00    -0.248 NA
ATOM     40  C   UNL A   1      44.241  24.730  26.809  1.00  0.00     0.031 C 
ATOM     41  C   UNL A   1      39.865  25.925  28.982  1.00  0.00     0.029 A 
ATOM     42  N   UNL A   1      41.418  27.526  28.800  1.00  0.00    -0.354 N 
ATOM     43  C   UNL A   1      45.215  26.795  26.940  1.00  0.00     0.074 A 
ATOM     44  C   UNL A   1      45.338  25.416  26.524  1.00  0.00     0.031 C 
ATOM     45  C   UNL A   1      39.344  27.061  29.481  1.00  0.00     0.029 A 
ATOM     46  C   UNL A   1      40.342  28.128  29.405  1.00  0.00     0.049 A 
ATOM     47  H   UNL A   1      42.249  28.007  28.579  1.00  0.00     0.167 HD
ATOM     48  C   UNL A   1      46.159  27.739  26.715  1.00  0.00     0.037 A 
ATOM     49  C   UNL A   1      40.186  29.387  29.860  1.00  0.00     0.037 A 
ATOM     50  C   UNL A   1      46.058  29.116  27.123  1.00  0.00     0.049 A 
ATOM     51  C   UNL A   1      41.295  30.396  29.686  1.00  0.00     0.074 A 
ATOM     52  C   UNL A   1      46.977  30.136  26.944  1.00  0.00     0.029 A 
ATOM     53  N   UNL A   1      44.978  29.665  27.793  1.00  0.00    -0.354 N 
ATOM     54  N   UNL A   1      42.454  30.263  29.087  1.00  0.00    -0.248 NA
ATOM     55  C   UNL A   1      41.066  31.737  30.247  1.00  0.00     0.031 C 
ATOM     56  C   UNL A   1      46.475  31.291  27.551  1.00  0.00     0.029 A 
ATOM     57  C   UNL A   1      45.219  31.005  28.056  1.00  0.00     0.049 A 
ATOM     58  H   UNL A   1      44.161  29.178  28.046  1.00  0.00     0.167 HD
ATOM     59  C   UNL A   1      43.074  31.506  29.175  1.00  0.00     0.074 A 
ATOM     60  C   UNL A   1      42.153  32.386  29.860  1.00  0.00     0.031 C 
ATOM     61  C   UNL A   1      44.300  31.883  28.733  1.00  0.00     0.037 A 
BRANCH  48  62
ATOM     62  C   UNL A   1      47.409  27.312  26.003  1.00  0.00     0.057 A 
ATOM     63  C   UNL A   1      48.510  26.789  26.694  1.00  0.00     0.134 A 
ATOM     64  C   UNL A   1      47.489  27.369  24.606  1.00  0.00     0.134 A 
ATOM     65  F   UNL A   1      48.503  26.720  28.034  1.00  0.00    -0.206 F 
ATOM     66  C   UNL A   1      49.650  26.349  26.020  1.00  0.00     0.040 A 
ATOM     67  C   UNL A   1      48.613  26.908  23.920  1.00  0.00     0.040 A 
ATOM     68  F   UNL A   1      46.467  27.855  23.885  1.00  0.00    -0.206 F 
ATOM     69  C   UNL A   1      49.698  26.398  24.628  1.00  0.00     0.006 A 
ENDBRANCH  48  62
BRANCH  49  70
ATOM     70  C   UNL A   1      38.940  29.779  30.572  1.00  0.00     0.057 A 
ATOM     71  C   UNL A   1      38.762  29.523  31.936  1.00  0.00     0.134 A 
ATOM     72  C   UNL A   1      37.865  30.349  29.878  1.00  0.00     0.134 A 
ATOM     73  F   UNL A   1      39.742  28.949  32.650  1.00  0.00    -0.206 F 
ATOM     74  C   UNL A   1      37.549  29.785  32.578  1.00  0.00     0.040 A 
ATOM     75  C   UNL A   1      36.659  30.646  30.513  1.00  0.00     0.040 A 
ATOM     76  F   UNL A   1      37.968  30.613  28.568  1.00  0.00    -0.206 F 
ATOM     77  C   UNL A   1      36.494  30.351  31.864  1.00  0.00     0.006 A 
ENDBRANCH  49  70
BRANCH  61  78
ATOM     78  C   UNL A   1      44.703  33.316  28.943  1.00  0.00     0.057 A 
ATOM     79  C   UNL A   1      44.411  34.315  28.004  1.00  0.00     0.134 A 
ATOM     80  C   UNL A   1      45.379  33.708  30.106  1.00  0.00     0.134 A 
ATOM     81  F   UNL A   1      43.774  34.012  26.863  1.00  0.00    -0.206 F 
ATOM     82  C   UNL A   1      44.814  35.640  28.195  1.00  0.00     0.040 A 
ATOM     83  C   UNL A   1      45.757  35.034  30.323  1.00  0.00     0.040 A 
ATOM     84  F   UNL A   1      45.678  32.809  31.056  1.00  0.00    -0.206 F 
ATOM     85  C   UNL A   1      45.485  36.002  29.360  1.00  0.00     0.006 A 
ENDBRANCH  61  78
ENDBRANCH  35  36
ENDBRANCH  28  30
ENDBRANCH  27  28
ENDBRANCH  26  27
ENDBRANCH  25  26
ENDBRANCH   1  25
TORSDOF 17
ENDMDL
MODEL 2
REMARK VINA RESULT:     -10.6      2.109      3.141
REMARK SMILES CC[C@@](C)(NC(=O)Nc1c(C)cccc1Cl)C(=O)OCCOCCOC(=O)c1ccc(-c2c3nc(c(-c4c(F)cccc4F)c4ccc([nH]4)c(-c4c(F)cccc4F)c4nc(c(-c5c(F)cccc5F)c5ccc2[nH]5)C=C4)C=C3)cc1
REMARK SMILES IDX 22 1 21 2 20 3 19 4 17 5 18 6 3 7 4 8 2 9 1 10 5 11 6 12
REMARK SMILES IDX 7 14 8 15 9 17 10 18 15 19 11 20 12 21 14 22 16 23 13 24
REMARK SMILES IDX 23 25 24 26 25 27 26 28 27 29 28 30 29 31 81 32 30 33 80 34
REMARK SMILES IDX 31 35 32 36 33 37 74 38 34 39 79 40 73 41 75 42 35 43 78 44
REMARK SMILES IDX 72 45 71 46 36 48 62 49 45 50 61 51 46 52 49 53 60 54 76 55
REMARK SMILES IDX 47 56 48 57 59 59 77 60 50 61 37 62 38 63 43 64 39 65 40 66
REMARK SMILES IDX 42 67 44 68 41 69 63 70 64 71 69 72 65 73 66 74 68 75 70 76
REMARK SMILES IDX 67 77 51 78 52 79 57 80 53 81 54 82 56 83 58 84 55 85
REMARK H PARENT 5 13 8 16 75 47 49 58
REMARK Flexibility Score: inf
ROOT
ATOM      1  O   UNL A   1      37.633  21.237  25.290  1.00  0.00    -0.374 OA
ENDROOT
BRANCH   1   2
ATOM      2  C   UNL A   1      36.431  21.984  25.345  1.00  0.00     0.202 C 
BRANCH   2   3
ATOM      3  C   UNL A   1      35.307  21.123  24.623  1.00  0.00     0.261 C 
BRANCH   3   4
ATOM      4  O   UNL A   1      34.163  20.765  25.521  1.00  0.00    -0.462 OA
BRANCH   4   5
ATOM      5  C   UNL A   1      32.885  21.240  25.793  1.00  0.00     0.331 C 
ATOM      6  O   UNL A   1      31.866  20.681  25.390  1.00  0.00    -0.249 OA
BRANCH   5   7
ATOM      7  C   UNL A   1      32.848  22.629  26.707  1.00  0.00     0.136 C 
ATOM      8  C   UNL A   1      33.983  22.467  27.745  1.00  0.00     0.047 C 
BRANCH   7   9
ATOM      9  C   UNL A   1      32.790  24.208  26.494  1.00  0.00     0.037 C 
ATOM     10  C   UNL A   1      33.902  25.078  25.962  1.00  0.00     0.007 C 
ENDBRANCH   7   9
BRANCH   7  11
ATOM     11  N   UNL A   1      31.525  22.396  27.215  1.00  0.00    -0.322 N 
ATOM     12  C   UNL A   1      30.431  22.753  26.504  1.00  0.00     0.320 C 
ATOM     13  H   UNL A   1      31.413  21.968  28.095  1.00  0.00     0.166 HD
ATOM     14  O   UNL A   1      29.332  22.536  27.021  1.00  0.00    -0.248 OA
ATOM     15  N   UNL A   1      30.489  23.428  25.310  1.00  0.00    -0.306 N 
ATOM     16  H   UNL A   1      29.561  23.725  25.160  1.00  0.00     0.171 HD
BRANCH  15  17
ATOM     17  C   UNL A   1      31.219  23.943  24.133  1.00  0.00     0.064 A 
ATOM     18  C   UNL A   1      32.025  23.422  23.030  1.00  0.00    -0.026 A 
ATOM     19  C   UNL A   1      30.915  25.340  24.014  1.00  0.00     0.064 A 
ATOM     20  C   UNL A   1      32.524  22.075  22.519  1.00  0.00     0.046 C 
ATOM     21  C   UNL A   1      32.448  24.327  22.001  1.00  0.00     0.005 A 
ATOM     22  C   UNL A   1      31.237  26.132  22.908  1.00  0.00     0.023 A 
ATOM     23  Cl  UNL A   1      30.101  26.206  25.300  1.00  0.00    -0.082 Cl
ATOM     24  C   UNL A   1      32.010  25.624  21.896  1.00  0.00     0.002 A 
ENDBRANCH  15  17
ENDBRANCH   7  11
ENDBRANCH   5   7
ENDBRANCH   4   5
ENDBRANCH   3   4
ENDBRANCH   2   3
ENDBRANCH   1   2
BRANCH   1  25
ATOM     25  C   UNL A   1      37.713  19.955  24.665  1.00  0.00     0.202 C 
BRANCH  25  26
ATOM     26  C   UNL A   1      38.903  19.254  25.371  1.00  0.00     0.261 C 
BRANCH  26  27
ATOM     27  O   UNL A   1      39.658  20.246  26.106  1.00  0.00    -0.460 OA
BRANCH  27  28
ATOM     28  C   UNL A   1      40.950  19.901  26.212  1.00  0.00     0.338 C 
ATOM     29  O   UNL A   1      41.441  18.864  25.750  1.00  0.00    -0.246 OA
BRANCH  28  30
ATOM     30  C   UNL A   1      41.797  21.042  26.619  1.00  0.00     0.060 A 
ATOM     31  C   UNL A   1      41.929  21.237  28.002  1.00  0.00     0.016 A 
ATOM     32  C   UNL A   1      42.376  21.948  25.728  1.00  0.00     0.016 A 
ATOM     33  C   UNL A   1      42.507  22.397  28.501  1.00  0.00     0.010 A 
ATOM     34  C   UNL A   1      42.944  23.131  26.233  1.00  0.00     0.010 A 
ATOM     35  C   UNL A   1      42.940  23.392  27.619  1.00  0.00    -0.014 A 
BRANCH  35  36
ATOM     36  C   UNL A   1      43.107  24.767  28.167  1.00  0.00     0.031 A 
ATOM     37  C   UNL A   1      44.508  25.276  28.407  1.00  0.00     0.074 A 
ATOM     38  C   UNL A   1      42.068  25.611  28.307  1.00  0.00     0.049 A 
ATOM     39  N   UNL A   1      44.909  26.461  28.800  1.00  0.00    -0.248 NA
ATOM     40  C   UNL A   1      45.604  24.327  28.156  1.00  0.00     0.031 C 
ATOM     41  C   UNL A   1      40.668  25.287  28.043  1.00  0.00     0.029 A 
ATOM     42  N   UNL A   1      42.042  26.928  28.696  1.00  0.00    -0.354 N 
ATOM     43  C   UNL A   1      46.298  26.399  28.833  1.00  0.00     0.074 A 
ATOM     44  C   UNL A   1      46.670  25.052  28.460  1.00  0.00     0.031 C 
ATOM     45  C   UNL A   1      39.918  26.377  28.286  1.00  0.00     0.029 A 
ATOM     46  C   UNL A   1      40.779  27.467  28.745  1.00  0.00     0.049 A 
ATOM     47  H   UNL A   1      42.854  27.440  28.920  1.00  0.00     0.167 HD
ATOM     48  C   UNL A   1      47.188  27.375  29.128  1.00  0.00     0.037 A 
ATOM     49  C   UNL A   1      40.365  28.690  29.130  1.00  0.00     0.037 A 
ATOM     50  C   UNL A   1      46.838  28.720  29.503  1.00  0.00     0.049 A 
ATOM     51  C   UNL A   1      41.374  29.731  29.552  1.00  0.00     0.074 A 
ATOM     52  C   UNL A   1      47.682  29.768  29.832  1.00  0.00     0.029 A 
ATOM     53  N   UNL A   1      45.545  29.202  29.606  1.00  0.00    -0.354 N 
ATOM     54  N   UNL A   1      42.683  29.662  29.570  1.00  0.00    -0.248 NA
ATOM     55  C   UNL A   1      40.841  31.028  30.000  1.00  0.00     0.031 C 
ATOM     56  C   UNL A   1      46.896  30.871  30.182  1.00  0.00     0.029 A 
ATOM     57  C   UNL A   1      45.566  30.527  30.015  1.00  0.00     0.049 A 
ATOM     58  H   UNL A   1      44.730  28.682  29.416  1.00  0.00     0.167 HD
ATOM     59  C   UNL A   1      43.125  30.909  30.002  1.00  0.00     0.074 A 
ATOM     60  C   UNL A   1      41.948  31.723  30.208  1.00  0.00     0.031 C 
ATOM     61  C   UNL A   1      44.394  31.339  30.214  1.00  0.00     0.037 A 
BRANCH  48  62
ATOM     62  C   UNL A   1      48.646  27.021  29.077  1.00  0.00     0.057 A 
ATOM     63  C   UNL A   1      49.416  27.232  27.926  1.00  0.00     0.134 A 
ATOM     64  C   UNL A   1      49.298  26.519  30.209  1.00  0.00     0.134 A 
ATOM     65  F   UNL A   1      48.848  27.698  26.803  1.00  0.00    -0.206 F 
ATOM     66  C   UNL A   1      50.782  26.946  27.901  1.00  0.00     0.040 A 
ATOM     67  C   UNL A   1      50.668  26.254  30.205  1.00  0.00     0.040 A 
ATOM     68  F   UNL A   1      48.619  26.298  31.345  1.00  0.00    -0.206 F 
ATOM     69  C   UNL A   1      51.413  26.466  29.047  1.00  0.00     0.006 A 
ENDBRANCH  48  62
BRANCH  49  70
ATOM     70  C   UNL A   1      38.913  29.009  29.182  1.00  0.00     0.057 A 
ATOM     71  C   UNL A   1      38.235  29.528  28.073  1.00  0.00     0.134 A 
ATOM     72  C   UNL A   1      38.190  28.875  30.375  1.00  0.00     0.134 A 
ATOM     73  F   UNL A   1      38.879  29.711  26.912  1.00  0.00    -0.206 F 
ATOM     74  C   UNL A   1      36.902  29.936  28.156  1.00  0.00     0.040 A 
ATOM     75  C   UNL A   1      36.849  29.248  30.463  1.00  0.00     0.040 A 
ATOM     76  F   UNL A   1      38.782  28.390  31.476  1.00  0.00    -0.206 F 
ATOM     77  C   UNL A   1      36.204  29.793  29.355  1.00  0.00     0.006 A 
ENDBRANCH  49  70
BRANCH  61  78
ATOM     78  C   UNL A   1      44.579  32.764  30.658  1.00  0.00     0.057 A 
ATOM     79  C   UNL A   1      44.708  33.816  29.741  1.00  0.00     0.134 A 
ATOM     80  C   UNL A   1      44.614  33.091  32.019  1.00  0.00     0.134 A 
ATOM     81  F   UNL A   1      44.691  33.576  28.421  1.00  0.00    -0.206 F 
ATOM     82  C   UNL A   1      44.906  35.134  30.163  1.00  0.00     0.040 A 
ATOM     83  C   UNL A   1      44.780  34.408  32.453  1.00  0.00     0.040 A 
ATOM     84  F   UNL A   1      44.483  32.138  32.954  1.00  0.00    -0.206 F 
ATOM     85  C   UNL A   1      44.938  35.433  31.523  1.00  0.00     0.006 A 
ENDBRANCH  61  78
ENDBRANCH  35  36
ENDBRANCH  28  30
ENDBRANCH  27  28
ENDBRANCH  26  27
ENDBRANCH  25  26
ENDBRANCH   1  25
TORSDOF 17
ENDMDL
MODEL 3
REMARK VINA RESULT:     -10.5      4.273      7.313
REMARK SMILES CC[C@@](C)(NC(=O)Nc1c(C)cccc1Cl)C(=O)OCCOCCOC(=O)c1ccc(-c2c3nc(c(-c4c(F)cccc4F)c4ccc([nH]4)c(-c4c(F)cccc4F)c4nc(c(-c5c(F)cccc5F)c5ccc2[nH]5)C=C4)C=C3)cc1
REMARK SMILES IDX 22 1 21 2 20 3 19 4 17 5 18 6 3 7 4 8 2 9 1 10 5 11 6 12
REMARK SMILES IDX 7 14 8 15 9 17 10 18 15 19 11 20 12 21 14 22 16 23 13 24
REMARK SMILES IDX 23 25 24 26 25 27 26 28 27 29 28 30 29 31 81 32 30 33 80 34
REMARK SMILES IDX 31 35 32 36 33 37 74 38 34 39 79 40 73 41 75 42 35 43 78 44
REMARK SMILES IDX 72 45 71 46 36 48 62 49 45 50 61 51 46 52 49 53 60 54 76 55
REMARK SMILES IDX 47 56 48 57 59 59 77 60 50 61 37 62 38 63 43 64 39 65 40 66
REMARK SMILES IDX 42 67 44 68 41 69 63 70 64 71 69 72 65 73 66 74 68 75 70 76
REMARK SMILES IDX 67 77 51 78 52 79 57 80 53 81 54 82 56 83 58 84 55 85
REMARK H PARENT 5 13 8 16 75 47 49 58
REMARK Flexibility Score: inf
ROOT
ATOM      1  O   UNL A   1      32.519  28.677  25.582  1.00  0.00    -0.374 OA
ENDROOT
BRANCH   1   2
ATOM      2  C   UNL A   1      32.656  27.387  25.013  1.00  0.00     0.202 C 
BRANCH   2   3
ATOM      3  C   UNL A   1      31.192  26.804  24.806  1.00  0.00     0.261 C 
BRANCH   3   4
ATOM      4  O   UNL A   1      31.050  25.977  23.566  1.00  0.00    -0.462 OA
BRANCH   4   5
ATOM      5  C   UNL A   1      31.240  24.651  23.190  1.00  0.00     0.331 C 
ATOM      6  O   UNL A   1      30.326  23.829  23.160  1.00  0.00    -0.249 OA
BRANCH   5   7
ATOM      7  C   UNL A   1      32.808  24.271  22.785  1.00  0.00     0.136 C 
ATOM      8  C   UNL A   1      33.332  25.487  21.987  1.00  0.00     0.047 C 
BRANCH   7   9
ATOM      9  C   UNL A   1      34.128  23.712  23.482  1.00  0.00     0.037 C 
ATOM     10  C   UNL A   1      34.987  24.444  24.483  1.00  0.00     0.007 C 
ENDBRANCH   7   9
BRANCH   7  11
ATOM     11  N   UNL A   1      32.446  23.133  21.986  1.00  0.00    -0.322 N 
ATOM     12  C   UNL A   1      32.190  21.932  22.555  1.00  0.00     0.320 C 
ATOM     13  H   UNL A   1      32.382  23.230  21.007  1.00  0.00     0.166 HD
ATOM     14  O   UNL A   1      31.905  21.003  21.795  1.00  0.00    -0.248 OA
ATOM     15  N   UNL A   1      32.334  21.683  23.897  1.00  0.00    -0.306 N 
ATOM     16  H   UNL A   1      32.289  20.701  23.961  1.00  0.00     0.171 HD
BRANCH  15  17
ATOM     17  C   UNL A   1      32.525  22.120  25.296  1.00  0.00     0.064 A 
ATOM     18  C   UNL A   1      31.817  22.907  26.303  1.00  0.00    -0.026 A 
ATOM     19  C   UNL A   1      33.690  21.453  25.802  1.00  0.00     0.064 A 
ATOM     20  C   UNL A   1      30.509  23.680  26.434  1.00  0.00     0.046 C 
ATOM     21  C   UNL A   1      32.353  22.966  27.632  1.00  0.00     0.005 A 
ATOM     22  C   UNL A   1      34.075  21.435  27.145  1.00  0.00     0.023 A 
ATOM     23  Cl  UNL A   1      34.778  20.589  24.735  1.00  0.00    -0.082 Cl
ATOM     24  C   UNL A   1      33.404  22.197  28.066  1.00  0.00     0.002 A 
ENDBRANCH  15  17
ENDBRANCH   7  11
ENDBRANCH   5   7
ENDBRANCH   4   5
ENDBRANCH   3   4
ENDBRANCH   2   3
ENDBRANCH   1   2
BRANCH   1  25
ATOM     25  C   UNL A   1      31.433  29.547  25.258  1.00  0.00     0.202 C 
BRANCH  25  26
ATOM     26  C   UNL A   1      31.669  30.802  26.138  1.00  0.00     0.261 C 
BRANCH  26  27
ATOM     27  O   UNL A   1      32.713  30.510  27.096  1.00  0.00    -0.460 OA
BRANCH  27  28
ATOM     28  C   UNL A   1      33.421  31.607  27.403  1.00  0.00     0.338 C 
ATOM     29  O   UNL A   1      32.929  32.712  27.663  1.00  0.00    -0.246 OA
BRANCH  28  30
ATOM     30  C   UNL A   1      34.822  31.286  27.748  1.00  0.00     0.060 A 
ATOM     31  C   UNL A   1      35.105  29.923  27.927  1.00  0.00     0.016 A 
ATOM     32  C   UNL A   1      35.812  32.241  27.980  1.00  0.00     0.016 A 
ATOM     33  C   UNL A   1      36.317  29.518  28.470  1.00  0.00     0.010 A 
ATOM     34  C   UNL A   1      37.033  31.832  28.547  1.00  0.00     0.010 A 
ATOM     35  C   UNL A   1      37.256  30.476  28.865  1.00  0.00    -0.014 A 
BRANCH  35  36
ATOM     36  C   UNL A   1      38.298  30.052  29.842  1.00  0.00     0.031 A 
ATOM     37  C   UNL A   1      39.371  29.097  29.374  1.00  0.00     0.074 A 
ATOM     38  C   UNL A   1      38.399  30.606  31.063  1.00  0.00     0.049 A 
ATOM     39  N   UNL A   1      40.424  28.649  30.012  1.00  0.00    -0.248 NA
ATOM     40  C   UNL A   1      39.246  28.592  27.997  1.00  0.00     0.031 C 
ATOM     41  C   UNL A   1      37.483  31.595  31.626  1.00  0.00     0.029 A 
ATOM     42  N   UNL A   1      39.339  30.416  32.048  1.00  0.00    -0.354 N 
ATOM     43  C   UNL A   1      41.087  27.821  29.113  1.00  0.00     0.074 A 
ATOM     44  C   UNL A   1      40.300  27.796  27.900  1.00  0.00     0.031 C 
ATOM     45  C   UNL A   1      37.903  31.920  32.862  1.00  0.00     0.029 A 
ATOM     46  C   UNL A   1      39.102  31.147  33.187  1.00  0.00     0.049 A 
ATOM     47  H   UNL A   1      40.110  29.813  31.947  1.00  0.00     0.167 HD
ATOM     48  C   UNL A   1      42.255  27.154  29.270  1.00  0.00     0.037 A 
ATOM     49  C   UNL A   1      39.764  31.175  34.361  1.00  0.00     0.037 A 
ATOM     50  C   UNL A   1      43.052  27.164  30.468  1.00  0.00     0.049 A 
ATOM     51  C   UNL A   1      41.010  30.343  34.545  1.00  0.00     0.074 A 
ATOM     52  C   UNL A   1      44.244  26.504  30.714  1.00  0.00     0.029 A 
ATOM     53  N   UNL A   1      42.739  27.864  31.621  1.00  0.00    -0.354 N 
ATOM     54  N   UNL A   1      41.631  29.572  33.685  1.00  0.00    -0.248 NA
ATOM     55  C   UNL A   1      41.653  30.395  35.868  1.00  0.00     0.031 C 
ATOM     56  C   UNL A   1      44.627  26.763  32.034  1.00  0.00     0.029 A 
ATOM     57  C   UNL A   1      43.704  27.632  32.590  1.00  0.00     0.049 A 
ATOM     58  H   UNL A   1      41.950  28.440  31.737  1.00  0.00     0.167 HD
ATOM     59  C   UNL A   1      42.745  29.074  34.353  1.00  0.00     0.074 A 
ATOM     60  C   UNL A   1      42.732  29.650  35.679  1.00  0.00     0.031 C 
ATOM     61  C   UNL A   1      43.693  28.211  33.909  1.00  0.00     0.037 A 
BRANCH  48  62
ATOM     62  C   UNL A   1      42.743  26.331  28.114  1.00  0.00     0.057 A 
ATOM     63  C   UNL A   1      42.330  25.005  27.926  1.00  0.00     0.134 A 
ATOM     64  C   UNL A   1      43.587  26.889  27.146  1.00  0.00     0.134 A 
ATOM     65  F   UNL A   1      41.533  24.406  28.824  1.00  0.00    -0.206 F 
ATOM     66  C   UNL A   1      42.750  24.262  26.822  1.00  0.00     0.040 A 
ATOM     67  C   UNL A   1      43.991  26.165  26.025  1.00  0.00     0.040 A 
ATOM     68  F   UNL A   1      44.014  28.156  27.265  1.00  0.00    -0.206 F 
ATOM     69  C   UNL A   1      43.574  24.846  25.862  1.00  0.00     0.006 A 
ENDBRANCH  48  62
BRANCH  49  70
ATOM     70  C   UNL A   1      39.251  31.992  35.493  1.00  0.00     0.057 A 
ATOM     71  C   UNL A   1      38.362  31.465  36.436  1.00  0.00     0.134 A 
ATOM     72  C   UNL A   1      39.582  33.349  35.607  1.00  0.00     0.134 A 
ATOM     73  F   UNL A   1      37.982  30.181  36.362  1.00  0.00    -0.206 F 
ATOM     74  C   UNL A   1      37.791  32.263  37.429  1.00  0.00     0.040 A 
ATOM     75  C   UNL A   1      39.044  34.150  36.614  1.00  0.00     0.040 A 
ATOM     76  F   UNL A   1      40.423  33.918  34.732  1.00  0.00    -0.206 F 
ATOM     77  C   UNL A   1      38.135  33.611  37.521  1.00  0.00     0.006 A 
ENDBRANCH  49  70
BRANCH  61  78
ATOM     78  C   UNL A   1      44.814  27.866  34.850  1.00  0.00     0.057 A 
ATOM     79  C   UNL A   1      45.988  28.628  34.917  1.00  0.00     0.134 A 
ATOM     80  C   UNL A   1      44.712  26.766  35.712  1.00  0.00     0.134 A 
ATOM     81  F   UNL A   1      46.158  29.690  34.116  1.00  0.00    -0.206 F 
ATOM     82  C   UNL A   1      47.036  28.284  35.777  1.00  0.00     0.040 A 
ATOM     83  C   UNL A   1      45.739  26.431  36.597  1.00  0.00     0.040 A 
ATOM     84  F   UNL A   1      43.611  25.999  35.713  1.00  0.00    -0.206 F 
ATOM     85  C   UNL A   1      46.909  27.184  36.623  1.00  0.00     0.006 A 
ENDBRANCH  61  78
ENDBRANCH  35  36
ENDBRANCH  28  30
ENDBRANCH  27  28
ENDBRANCH  26  27
ENDBRANCH  25  26
ENDBRANCH   1  25
TORSDOF 17
ENDMDL
