MODEL 1
REMARK VINA RESULT:     -12.0      0.000      0.000
REMARK SMILES NS(=O)(=O)c1ccc(N2N=C(C(=O)OCCOCCOC(=O)c3ccc(-c4c5nc(c(-c6c(F)cccc6F)c6ccc([nH]6)c(-c6c(F)cccc6F)c6nc(c(-c7c(F)cccc7F)c7ccc4[nH]7)C=C6)C=C5)cc3)C[C@H]2c2ccco2)cc1
REMARK SMILES IDX 16 1 15 2 14 3 12 4 13 5 11 6 9 7 10 8 78 9 77 10 8 11 5 12
REMARK SMILES IDX 6 13 85 14 7 15 84 16 2 17 3 18 4 19 1 20 79 23 80 24 83 25
REMARK SMILES IDX 81 26 82 27 17 28 18 29 19 30 20 31 21 32 22 33 23 34 24 35
REMARK SMILES IDX 76 36 25 37 75 38 26 39 27 40 28 41 69 42 29 43 74 44 68 45
REMARK SMILES IDX 70 46 30 47 73 48 67 49 66 50 31 52 57 53 40 54 56 55 41 56
REMARK SMILES IDX 44 57 55 58 71 59 42 60 43 61 54 63 72 64 45 65 32 66 33 67
REMARK SMILES IDX 38 68 34 69 35 70 37 71 39 72 36 73 58 74 59 75 64 76 60 77
REMARK SMILES IDX 61 78 63 79 65 80 62 81 46 82 47 83 52 84 48 85 49 86 51 87
REMARK SMILES IDX 53 88 50 89
REMARK H PARENT 1 21 1 22 70 51 44 62
REMARK Flexibility Score: inf
ROOT
ATOM      1  C   UNL A   1      33.260  21.525  24.768  1.00  0.00     0.202 C 
ENDROOT
BRANCH   1   2
ATOM      2  C   UNL A   1      32.126  21.684  25.784  1.00  0.00     0.261 C 
BRANCH   2   3
ATOM      3  O   UNL A   1      32.339  22.854  26.586  1.00  0.00    -0.459 OA
BRANCH   3   4
ATOM      4  C   UNL A   1      31.283  23.690  26.665  1.00  0.00     0.354 C 
ATOM      5  O   UNL A   1      30.262  23.548  27.309  1.00  0.00    -0.245 OA
BRANCH   4   6
ATOM      6  C   UNL A   1      31.605  24.952  25.908  1.00  0.00     0.148 C 
ATOM      7  N   UNL A   1      31.371  26.781  24.878  1.00  0.00    -0.254 N 
ATOM      8  N   UNL A   1      30.708  25.846  25.616  1.00  0.00    -0.169 NA
ATOM      9  C   UNL A   1      32.701  26.320  24.446  1.00  0.00     0.180 C 
ATOM     10  C   UNL A   1      33.015  25.296  25.548  1.00  0.00     0.101 C 
BRANCH   7  11
ATOM     11  C   UNL A   1      30.654  27.818  24.302  1.00  0.00     0.060 A 
ATOM     12  C   UNL A   1      29.126  29.888  23.163  1.00  0.00     0.082 A 
ATOM     13  C   UNL A   1      28.779  28.558  22.921  1.00  0.00     0.024 A 
ATOM     14  C   UNL A   1      30.253  30.193  23.925  1.00  0.00     0.024 A 
ATOM     15  C   UNL A   1      29.548  27.535  23.486  1.00  0.00     0.029 A 
ATOM     16  C   UNL A   1      31.012  29.160  24.480  1.00  0.00     0.029 A 
BRANCH  12  17
ATOM     17  S   UNL A   1      28.168  31.215  22.498  1.00  0.00     0.238 S 
ATOM     18  O   UNL A   1      27.244  31.678  23.513  1.00  0.00    -0.207 OA
ATOM     19  O   UNL A   1      27.746  30.848  21.172  1.00  0.00    -0.207 OA
BRANCH  17  20
ATOM     20  N   UNL A   1      29.268  32.471  22.309  1.00  0.00    -0.225 NA
ATOM     21  H   UNL A   1      28.977  33.064  21.531  1.00  0.00     0.137 HD
ATOM     22  H   UNL A   1      30.194  32.088  22.116  1.00  0.00     0.137 HD
ENDBRANCH  17  20
ENDBRANCH  12  17
ENDBRANCH   7  11
BRANCH   9  23
ATOM     23  C   UNL A   1      32.807  25.698  23.080  1.00  0.00     0.128 A 
ATOM     24  C   UNL A   1      32.592  26.183  21.804  1.00  0.00     0.048 A 
ATOM     25  O   UNL A   1      33.191  24.387  23.008  1.00  0.00    -0.467 OA
ATOM     26  C   UNL A   1      32.834  25.107  20.916  1.00  0.00     0.042 A 
ATOM     27  C   UNL A   1      33.209  24.042  21.698  1.00  0.00     0.195 A 
ENDBRANCH   9  23
ENDBRANCH   4   6
ENDBRANCH   3   4
ENDBRANCH   2   3
ENDBRANCH   1   2
BRANCH   1  28
ATOM     28  O   UNL A   1      34.360  20.713  25.178  1.00  0.00    -0.374 OA
BRANCH  28  29
ATOM     29  C   UNL A   1      35.591  21.365  25.494  1.00  0.00     0.202 C 
BRANCH  29  30
ATOM     30  C   UNL A   1      36.880  20.643  25.082  1.00  0.00     0.261 C 
BRANCH  30  31
ATOM     31  O   UNL A   1      38.014  21.525  25.012  1.00  0.00    -0.460 OA
BRANCH  31  32
ATOM     32  C   UNL A   1      39.026  21.192  25.852  1.00  0.00     0.338 C 
ATOM     33  O   UNL A   1      39.586  20.112  25.943  1.00  0.00    -0.246 OA
BRANCH  32  34
ATOM     34  C   UNL A   1      39.510  22.380  26.580  1.00  0.00     0.060 A 
ATOM     35  C   UNL A   1      38.949  23.613  26.225  1.00  0.00     0.016 A 
ATOM     36  C   UNL A   1      40.552  22.316  27.507  1.00  0.00     0.016 A 
ATOM     37  C   UNL A   1      39.473  24.792  26.746  1.00  0.00     0.010 A 
ATOM     38  C   UNL A   1      41.078  23.504  28.031  1.00  0.00     0.010 A 
ATOM     39  C   UNL A   1      40.570  24.749  27.619  1.00  0.00    -0.014 A 
BRANCH  39  40
ATOM     40  C   UNL A   1      41.242  26.022  27.978  1.00  0.00     0.031 A 
ATOM     41  C   UNL A   1      42.629  26.299  27.468  1.00  0.00     0.074 A 
ATOM     42  C   UNL A   1      40.594  26.957  28.694  1.00  0.00     0.049 A 
ATOM     43  N   UNL A   1      43.352  27.385  27.577  1.00  0.00    -0.248 NA
ATOM     44  C   UNL A   1      43.292  25.206  26.741  1.00  0.00     0.031 C 
ATOM     45  C   UNL A   1      39.248  26.811  29.245  1.00  0.00     0.029 A 
ATOM     46  N   UNL A   1      40.980  28.217  29.073  1.00  0.00    -0.354 N 
ATOM     47  C   UNL A   1      44.552  27.108  26.934  1.00  0.00     0.074 A 
ATOM     48  C   UNL A   1      44.476  25.736  26.476  1.00  0.00     0.031 C 
ATOM     49  C   UNL A   1      38.921  27.941  29.894  1.00  0.00     0.029 A 
ATOM     50  C   UNL A   1      40.036  28.882  29.812  1.00  0.00     0.049 A 
ATOM     51  H   UNL A   1      41.853  28.607  28.836  1.00  0.00     0.167 HD
ATOM     52  C   UNL A   1      45.615  27.923  26.731  1.00  0.00     0.037 A 
ATOM     53  C   UNL A   1      40.066  30.111  30.362  1.00  0.00     0.037 A 
ATOM     54  C   UNL A   1      45.692  29.288  27.187  1.00  0.00     0.049 A 
ATOM     55  C   UNL A   1      41.259  30.997  30.136  1.00  0.00     0.074 A 
ATOM     56  C   UNL A   1      46.707  30.208  26.993  1.00  0.00     0.029 A 
ATOM     57  N   UNL A   1      44.717  29.923  27.943  1.00  0.00    -0.354 N 
ATOM     58  N   UNL A   1      42.360  30.747  29.470  1.00  0.00    -0.248 NA
ATOM     59  C   UNL A   1      41.204  32.345  30.720  1.00  0.00     0.031 C 
ATOM     60  C   UNL A   1      46.370  31.383  27.675  1.00  0.00     0.029 A 
ATOM     61  C   UNL A   1      45.120  31.214  28.248  1.00  0.00     0.049 A 
ATOM     62  H   UNL A   1      43.865  29.517  28.222  1.00  0.00     0.167 HD
ATOM     63  C   UNL A   1      43.119  31.910  29.536  1.00  0.00     0.074 A 
ATOM     64  C   UNL A   1      42.344  32.871  30.295  1.00  0.00     0.031 C 
ATOM     65  C   UNL A   1      44.345  32.160  29.013  1.00  0.00     0.037 A 
BRANCH  52  66
ATOM     66  C   UNL A   1      46.794  27.343  26.003  1.00  0.00     0.057 A 
ATOM     67  C   UNL A   1      46.955  27.482  24.618  1.00  0.00     0.134 A 
ATOM     68  C   UNL A   1      47.785  26.639  26.698  1.00  0.00     0.134 A 
ATOM     69  F   UNL A   1      46.037  28.133  23.888  1.00  0.00    -0.206 F 
ATOM     70  C   UNL A   1      48.038  26.910  23.946  1.00  0.00     0.040 A 
ATOM     71  C   UNL A   1      48.887  26.088  26.043  1.00  0.00     0.040 A 
ATOM     72  F   UNL A   1      47.698  26.473  28.027  1.00  0.00    -0.206 F 
ATOM     73  C   UNL A   1      49.010  26.213  24.661  1.00  0.00     0.006 A 
ENDBRANCH  52  66
BRANCH  53  74
ATOM     74  C   UNL A   1      38.911  30.572  31.172  1.00  0.00     0.057 A 
ATOM     75  C   UNL A   1      38.829  30.313  32.544  1.00  0.00     0.134 A 
ATOM     76  C   UNL A   1      37.871  31.308  30.589  1.00  0.00     0.134 A 
ATOM     77  F   UNL A   1      39.786  29.597  33.153  1.00  0.00    -0.206 F 
ATOM     78  C   UNL A   1      37.752  30.763  33.308  1.00  0.00     0.040 A 
ATOM     79  C   UNL A   1      36.800  31.783  31.345  1.00  0.00     0.040 A 
ATOM     80  F   UNL A   1      37.896  31.592  29.279  1.00  0.00    -0.206 F 
ATOM     81  C   UNL A   1      36.737  31.507  32.710  1.00  0.00     0.006 A 
ENDBRANCH  53  74
BRANCH  65  82
ATOM     82  C   UNL A   1      44.914  33.534  29.222  1.00  0.00     0.057 A 
ATOM     83  C   UNL A   1      45.742  33.836  30.313  1.00  0.00     0.134 A 
ATOM     84  C   UNL A   1      44.649  34.563  28.311  1.00  0.00     0.134 A 
ATOM     85  F   UNL A   1      46.027  32.899  31.230  1.00  0.00    -0.206 F 
ATOM     86  C   UNL A   1      46.260  35.119  30.503  1.00  0.00     0.040 A 
ATOM     87  C   UNL A   1      45.183  35.842  28.475  1.00  0.00     0.040 A 
ATOM     88  F   UNL A   1      43.873  34.341  27.239  1.00  0.00    -0.206 F 
ATOM     89  C   UNL A   1      45.984  36.125  29.580  1.00  0.00     0.006 A 
ENDBRANCH  65  82
ENDBRANCH  39  40
ENDBRANCH  32  34
ENDBRANCH  31  32
ENDBRANCH  30  31
ENDBRANCH  29  30
ENDBRANCH  28  29
ENDBRANCH   1  28
TORSDOF 18
ENDMDL
MODEL 2
REMARK VINA RESULT:     -11.9      4.255      9.474
REMARK SMILES NS(=O)(=O)c1ccc(N2N=C(C(=O)OCCOCCOC(=O)c3ccc(-c4c5nc(c(-c6c(F)cccc6F)c6ccc([nH]6)c(-c6c(F)cccc6F)c6nc(c(-c7c(F)cccc7F)c7ccc4[nH]7)C=C6)C=C5)cc3)C[C@H]2c2ccco2)cc1
REMARK SMILES IDX 16 1 15 2 14 3 12 4 13 5 11 6 9 7 10 8 78 9 77 10 8 11 5 12
REMARK SMILES IDX 6 13 85 14 7 15 84 16 2 17 3 18 4 19 1 20 79 23 80 24 83 25
REMARK SMILES IDX 81 26 82 27 17 28 18 29 19 30 20 31 21 32 22 33 23 34 24 35
REMARK SMILES IDX 76 36 25 37 75 38 26 39 27 40 28 41 69 42 29 43 74 44 68 45
REMARK SMILES IDX 70 46 30 47 73 48 67 49 66 50 31 52 57 53 40 54 56 55 41 56
REMARK SMILES IDX 44 57 55 58 71 59 42 60 43 61 54 63 72 64 45 65 32 66 33 67
REMARK SMILES IDX 38 68 34 69 35 70 37 71 39 72 36 73 58 74 59 75 64 76 60 77
REMARK SMILES IDX 61 78 63 79 65 80 62 81 46 82 47 83 52 84 48 85 49 86 51 87
REMARK SMILES IDX 53 88 50 89
REMARK H PARENT 1 21 1 22 70 51 44 62
REMARK Flexibility Score: inf
ROOT
ATOM      1  C   UNL A   1      31.513  28.352  23.258  1.00  0.00     0.202 C 
ENDROOT
BRANCH   1   2
ATOM      2  C   UNL A   1      32.932  28.611  22.743  1.00  0.00     0.261 C 
BRANCH   2   3
ATOM      3  O   UNL A   1      33.811  27.559  23.165  1.00  0.00    -0.459 OA
BRANCH   3   4
ATOM      4  C   UNL A   1      33.658  26.392  22.505  1.00  0.00     0.354 C 
ATOM      5  O   UNL A   1      33.560  26.216  21.306  1.00  0.00    -0.245 OA
BRANCH   4   6
ATOM      6  C   UNL A   1      33.756  25.260  23.493  1.00  0.00     0.148 C 
ATOM      7  N   UNL A   1      33.807  23.308  24.300  1.00  0.00    -0.254 N 
ATOM      8  N   UNL A   1      33.794  24.011  23.132  1.00  0.00    -0.169 NA
ATOM      9  C   UNL A   1      33.486  24.146  25.468  1.00  0.00     0.180 C 
ATOM     10  C   UNL A   1      33.930  25.525  24.955  1.00  0.00     0.101 C 
BRANCH   7  11
ATOM     11  C   UNL A   1      33.722  21.925  24.256  1.00  0.00     0.060 A 
ATOM     12  C   UNL A   1      33.572  19.116  24.250  1.00  0.00     0.082 A 
ATOM     13  C   UNL A   1      34.716  19.746  24.742  1.00  0.00     0.024 A 
ATOM     14  C   UNL A   1      32.527  19.870  23.719  1.00  0.00     0.024 A 
ATOM     15  C   UNL A   1      34.785  21.144  24.735  1.00  0.00     0.029 A 
ATOM     16  C   UNL A   1      32.612  21.265  23.717  1.00  0.00     0.029 A 
BRANCH  12  17
ATOM     17  S   UNL A   1      33.424  17.356  24.266  1.00  0.00     0.238 S 
ATOM     18  O   UNL A   1      33.664  16.854  22.929  1.00  0.00    -0.207 OA
ATOM     19  O   UNL A   1      32.255  17.007  25.029  1.00  0.00    -0.207 OA
BRANCH  17  20
ATOM     20  N   UNL A   1      34.743  16.833  25.167  1.00  0.00    -0.225 NA
ATOM     21  H   UNL A   1      34.431  16.162  25.870  1.00  0.00     0.137 HD
ATOM     22  H   UNL A   1      35.178  17.632  25.630  1.00  0.00     0.137 HD
ENDBRANCH  17  20
ENDBRANCH  12  17
ENDBRANCH   7  11
BRANCH   9  23
ATOM     23  C   UNL A   1      32.053  24.172  25.926  1.00  0.00     0.128 A 
ATOM     24  C   UNL A   1      31.058  25.128  25.857  1.00  0.00     0.048 A 
ATOM     25  O   UNL A   1      31.566  23.055  26.547  1.00  0.00    -0.467 OA
ATOM     26  C   UNL A   1      29.918  24.573  26.487  1.00  0.00     0.042 A 
ATOM     27  C   UNL A   1      30.275  23.305  26.876  1.00  0.00     0.195 A 
ENDBRANCH   9  23
ENDBRANCH   4   6
ENDBRANCH   3   4
ENDBRANCH   2   3
ENDBRANCH   1   2
BRANCH   1  28
ATOM     28  O   UNL A   1      31.053  29.223  24.291  1.00  0.00    -0.374 OA
BRANCH  28  29
ATOM     29  C   UNL A   1      31.932  29.485  25.385  1.00  0.00     0.202 C 
BRANCH  29  30
ATOM     30  C   UNL A   1      31.801  30.854  26.064  1.00  0.00     0.261 C 
BRANCH  30  31
ATOM     31  O   UNL A   1      32.456  30.907  27.344  1.00  0.00    -0.460 OA
BRANCH  31  32
ATOM     32  C   UNL A   1      33.245  31.996  27.517  1.00  0.00     0.338 C 
ATOM     33  O   UNL A   1      32.901  33.166  27.510  1.00  0.00    -0.246 OA
BRANCH  32  34
ATOM     34  C   UNL A   1      34.614  31.592  27.890  1.00  0.00     0.060 A 
ATOM     35  C   UNL A   1      34.824  30.234  28.156  1.00  0.00     0.016 A 
ATOM     36  C   UNL A   1      35.642  32.519  28.075  1.00  0.00     0.016 A 
ATOM     37  C   UNL A   1      36.043  29.806  28.674  1.00  0.00     0.010 A 
ATOM     38  C   UNL A   1      36.869  32.086  28.595  1.00  0.00     0.010 A 
ATOM     39  C   UNL A   1      37.060  30.735  28.938  1.00  0.00    -0.014 A 
BRANCH  39  40
ATOM     40  C   UNL A   1      38.255  30.284  29.693  1.00  0.00     0.031 A 
ATOM     41  C   UNL A   1      38.440  30.720  31.120  1.00  0.00     0.074 A 
ATOM     42  C   UNL A   1      39.133  29.433  29.133  1.00  0.00     0.049 A 
ATOM     43  N   UNL A   1      39.355  30.360  31.985  1.00  0.00    -0.248 NA
ATOM     44  C   UNL A   1      37.470  31.694  31.641  1.00  0.00     0.031 C 
ATOM     45  C   UNL A   1      39.065  28.937  27.760  1.00  0.00     0.029 A 
ATOM     46  N   UNL A   1      40.249  28.833  29.656  1.00  0.00    -0.354 N 
ATOM     47  C   UNL A   1      39.070  31.060  33.151  1.00  0.00     0.074 A 
ATOM     48  C   UNL A   1      37.925  31.899  32.868  1.00  0.00     0.031 C 
ATOM     49  C   UNL A   1      40.098  28.105  27.549  1.00  0.00     0.029 A 
ATOM     50  C   UNL A   1      40.903  28.020  28.766  1.00  0.00     0.049 A 
ATOM     51  H   UNL A   1      40.552  28.972  30.583  1.00  0.00     0.167 HD
ATOM     52  C   UNL A   1      39.695  31.001  34.352  1.00  0.00     0.037 A 
ATOM     53  C   UNL A   1      42.025  27.290  28.914  1.00  0.00     0.037 A 
ATOM     54  C   UNL A   1      40.835  30.166  34.634  1.00  0.00     0.049 A 
ATOM     55  C   UNL A   1      42.712  27.246  30.250  1.00  0.00     0.074 A 
ATOM     56  C   UNL A   1      41.512  30.004  35.830  1.00  0.00     0.029 A 
ATOM     57  N   UNL A   1      41.476  29.364  33.702  1.00  0.00    -0.354 N 
ATOM     58  N   UNL A   1      42.395  27.862  31.363  1.00  0.00    -0.248 NA
ATOM     59  C   UNL A   1      43.901  26.388  30.356  1.00  0.00     0.031 C 
ATOM     60  C   UNL A   1      42.593  29.143  35.609  1.00  0.00     0.029 A 
ATOM     61  C   UNL A   1      42.558  28.726  34.289  1.00  0.00     0.049 A 
ATOM     62  H   UNL A   1      41.203  29.262  32.761  1.00  0.00     0.167 HD
ATOM     63  C   UNL A   1      43.330  27.451  32.307  1.00  0.00     0.074 A 
ATOM     64  C   UNL A   1      44.216  26.521  31.637  1.00  0.00     0.031 C 
ATOM     65  C   UNL A   1      43.441  27.809  33.610  1.00  0.00     0.037 A 
BRANCH  52  66
ATOM     66  C   UNL A   1      39.169  31.889  35.443  1.00  0.00     0.057 A 
ATOM     67  C   UNL A   1      39.552  33.233  35.557  1.00  0.00     0.134 A 
ATOM     68  C   UNL A   1      38.265  31.395  36.391  1.00  0.00     0.134 A 
ATOM     69  F   UNL A   1      40.425  33.768  34.690  1.00  0.00    -0.206 F 
ATOM     70  C   UNL A   1      39.083  34.041  36.595  1.00  0.00     0.040 A 
ATOM     71  C   UNL A   1      37.767  32.200  37.416  1.00  0.00     0.040 A 
ATOM     72  F   UNL A   1      37.853  30.119  36.338  1.00  0.00    -0.206 F 
ATOM     73  C   UNL A   1      38.184  33.525  37.527  1.00  0.00     0.006 A 
ENDBRANCH  52  66
BRANCH  53  74
ATOM     74  C   UNL A   1      42.555  26.530  27.754  1.00  0.00     0.057 A 
ATOM     75  C   UNL A   1      42.195  25.198  27.526  1.00  0.00     0.134 A 
ATOM     76  C   UNL A   1      43.419  27.135  26.832  1.00  0.00     0.134 A 
ATOM     77  F   UNL A   1      41.386  24.561  28.386  1.00  0.00    -0.206 F 
ATOM     78  C   UNL A   1      42.679  24.490  26.426  1.00  0.00     0.040 A 
ATOM     79  C   UNL A   1      43.892  26.445  25.715  1.00  0.00     0.040 A 
ATOM     80  F   UNL A   1      43.795  28.411  26.994  1.00  0.00    -0.206 F 
ATOM     81  C   UNL A   1      43.524  25.117  25.511  1.00  0.00     0.006 A 
ENDBRANCH  53  74
BRANCH  65  82
ATOM     82  C   UNL A   1      44.547  27.175  34.405  1.00  0.00     0.057 A 
ATOM     83  C   UNL A   1      45.806  27.778  34.537  1.00  0.00     0.134 A 
ATOM     84  C   UNL A   1      44.344  25.956  35.064  1.00  0.00     0.134 A 
ATOM     85  F   UNL A   1      46.071  28.940  33.921  1.00  0.00    -0.206 F 
ATOM     86  C   UNL A   1      46.830  27.176  35.271  1.00  0.00     0.040 A 
ATOM     87  C   UNL A   1      45.351  25.359  35.824  1.00  0.00     0.040 A 
ATOM     88  F   UNL A   1      43.161  25.329  34.989  1.00  0.00    -0.206 F 
ATOM     89  C   UNL A   1      46.602  25.965  35.921  1.00  0.00     0.006 A 
ENDBRANCH  65  82
ENDBRANCH  39  40
ENDBRANCH  32  34
ENDBRANCH  31  32
ENDBRANCH  30  31
ENDBRANCH  29  30
ENDBRANCH  28  29
ENDBRANCH   1  28
TORSDOF 18
ENDMDL
MODEL 3
REMARK VINA RESULT:     -11.8      2.212      2.967
REMARK SMILES NS(=O)(=O)c1ccc(N2N=C(C(=O)OCCOCCOC(=O)c3ccc(-c4c5nc(c(-c6c(F)cccc6F)c6ccc([nH]6)c(-c6c(F)cccc6F)c6nc(c(-c7c(F)cccc7F)c7ccc4[nH]7)C=C6)C=C5)cc3)C[C@H]2c2ccco2)cc1
REMARK SMILES IDX 16 1 15 2 14 3 12 4 13 5 11 6 9 7 10 8 78 9 77 10 8 11 5 12
REMARK SMILES IDX 6 13 85 14 7 15 84 16 2 17 3 18 4 19 1 20 79 23 80 24 83 25
REMARK SMILES IDX 81 26 82 27 17 28 18 29 19 30 20 31 21 32 22 33 23 34 24 35
REMARK SMILES IDX 76 36 25 37 75 38 26 39 27 40 28 41 69 42 29 43 74 44 68 45
REMARK SMILES IDX 70 46 30 47 73 48 67 49 66 50 31 52 57 53 40 54 56 55 41 56
REMARK SMILES IDX 44 57 55 58 71 59 42 60 43 61 54 63 72 64 45 65 32 66 33 67
REMARK SMILES IDX 38 68 34 69 35 70 37 71 39 72 36 73 58 74 59 75 64 76 60 77
REMARK SMILES IDX 61 78 63 79 65 80 62 81 46 82 47 83 52 84 48 85 49 86 51 87
REMARK SMILES IDX 53 88 50 89
REMARK H PARENT 1 21 1 22 70 51 44 62
REMARK Flexibility Score: inf
ROOT
ATOM      1  C   UNL A   1      32.985  21.702  24.441  1.00  0.00     0.202 C 
ENDROOT
BRANCH   1   2
ATOM      2  C   UNL A   1      32.217  22.083  25.710  1.00  0.00     0.261 C 
BRANCH   2   3
ATOM      3  O   UNL A   1      32.758  23.286  26.274  1.00  0.00    -0.459 OA
BRANCH   3   4
ATOM      4  C   UNL A   1      31.857  24.267  26.494  1.00  0.00     0.354 C 
ATOM      5  O   UNL A   1      30.785  24.186  27.060  1.00  0.00    -0.245 OA
BRANCH   4   6
ATOM      6  C   UNL A   1      32.442  25.575  26.030  1.00  0.00     0.148 C 
ATOM      7  N   UNL A   1      33.106  27.581  26.027  1.00  0.00    -0.254 N 
ATOM      8  N   UNL A   1      32.643  26.580  26.829  1.00  0.00    -0.169 NA
ATOM      9  C   UNL A   1      32.934  27.282  24.595  1.00  0.00     0.180 C 
ATOM     10  C   UNL A   1      32.933  25.746  24.627  1.00  0.00     0.101 C 
BRANCH   7  11
ATOM     11  C   UNL A   1      33.301  28.842  26.567  1.00  0.00     0.060 A 
ATOM     12  C   UNL A   1      33.767  31.413  27.612  1.00  0.00     0.082 A 
ATOM     13  C   UNL A   1      34.805  30.480  27.582  1.00  0.00     0.024 A 
ATOM     14  C   UNL A   1      32.492  31.060  27.172  1.00  0.00     0.024 A 
ATOM     15  C   UNL A   1      34.563  29.201  27.066  1.00  0.00     0.029 A 
ATOM     16  C   UNL A   1      32.266  29.779  26.662  1.00  0.00     0.029 A 
BRANCH  12  17
ATOM     17  S   UNL A   1      34.031  33.048  28.224  1.00  0.00     0.238 S 
ATOM     18  O   UNL A   1      35.141  33.642  27.508  1.00  0.00    -0.207 OA
ATOM     19  O   UNL A   1      33.964  33.010  29.661  1.00  0.00    -0.207 OA
BRANCH  17  20
ATOM     20  N   UNL A   1      32.679  33.908  27.715  1.00  0.00    -0.225 NA
ATOM     21  H   UNL A   1      31.938  33.255  27.457  1.00  0.00     0.137 HD
ATOM     22  H   UNL A   1      32.924  34.481  26.907  1.00  0.00     0.137 HD
ENDBRANCH  17  20
ENDBRANCH  12  17
ENDBRANCH   7  11
BRANCH   9  23
ATOM     23  C   UNL A   1      31.697  27.813  23.922  1.00  0.00     0.128 A 
ATOM     24  C   UNL A   1      30.377  27.405  23.918  1.00  0.00     0.048 A 
ATOM     25  O   UNL A   1      31.831  28.926  23.139  1.00  0.00    -0.467 OA
ATOM     26  C   UNL A   1      29.679  28.301  23.072  1.00  0.00     0.042 A 
ATOM     27  C   UNL A   1      30.606  29.215  22.635  1.00  0.00     0.195 A 
ENDBRANCH   9  23
ENDBRANCH   4   6
ENDBRANCH   3   4
ENDBRANCH   2   3
ENDBRANCH   1   2
BRANCH   1  28
ATOM     28  O   UNL A   1      34.170  20.930  24.635  1.00  0.00    -0.374 OA
BRANCH  28  29
ATOM     29  C   UNL A   1      35.419  21.622  24.674  1.00  0.00     0.202 C 
BRANCH  29  30
ATOM     30  C   UNL A   1      36.664  20.782  24.987  1.00  0.00     0.261 C 
BRANCH  30  31
ATOM     31  O   UNL A   1      37.885  21.532  24.871  1.00  0.00    -0.460 OA
BRANCH  31  32
ATOM     32  C   UNL A   1      38.852  21.154  25.744  1.00  0.00     0.338 C 
ATOM     33  O   UNL A   1      39.359  20.050  25.852  1.00  0.00    -0.246 OA
BRANCH  32  34
ATOM     34  C   UNL A   1      39.365  22.319  26.489  1.00  0.00     0.060 A 
ATOM     35  C   UNL A   1      38.767  23.556  26.221  1.00  0.00     0.016 A 
ATOM     36  C   UNL A   1      40.462  22.233  27.349  1.00  0.00     0.016 A 
ATOM     37  C   UNL A   1      39.307  24.721  26.758  1.00  0.00     0.010 A 
ATOM     38  C   UNL A   1      41.003  23.406  27.889  1.00  0.00     0.010 A 
ATOM     39  C   UNL A   1      40.455  24.660  27.561  1.00  0.00    -0.014 A 
BRANCH  39  40
ATOM     40  C   UNL A   1      41.131  25.927  27.931  1.00  0.00     0.031 A 
ATOM     41  C   UNL A   1      42.537  26.183  27.463  1.00  0.00     0.074 A 
ATOM     42  C   UNL A   1      40.472  26.876  28.619  1.00  0.00     0.049 A 
ATOM     43  N   UNL A   1      43.270  27.261  27.587  1.00  0.00    -0.248 NA
ATOM     44  C   UNL A   1      43.209  25.076  26.766  1.00  0.00     0.031 C 
ATOM     45  C   UNL A   1      39.108  26.750  29.128  1.00  0.00     0.029 A 
ATOM     46  N   UNL A   1      40.862  28.134  29.000  1.00  0.00    -0.354 N 
ATOM     47  C   UNL A   1      44.486  26.964  26.985  1.00  0.00     0.074 A 
ATOM     48  C   UNL A   1      44.408  25.590  26.535  1.00  0.00     0.031 C 
ATOM     49  C   UNL A   1      38.774  27.889  29.758  1.00  0.00     0.029 A 
ATOM     50  C   UNL A   1      39.903  28.816  29.704  1.00  0.00     0.049 A 
ATOM     51  H   UNL A   1      41.747  28.511  28.789  1.00  0.00     0.167 HD
ATOM     52  C   UNL A   1      45.565  27.764  26.809  1.00  0.00     0.037 A 
ATOM     53  C   UNL A   1      39.931  30.049  30.245  1.00  0.00     0.037 A 
ATOM     54  C   UNL A   1      45.644  29.132  27.257  1.00  0.00     0.049 A 
ATOM     55  C   UNL A   1      41.142  30.919  30.050  1.00  0.00     0.074 A 
ATOM     56  C   UNL A   1      46.676  30.038  27.088  1.00  0.00     0.029 A 
ATOM     57  N   UNL A   1      44.654  29.785  27.976  1.00  0.00    -0.354 N 
ATOM     58  N   UNL A   1      42.260  30.650  29.422  1.00  0.00    -0.248 NA
ATOM     59  C   UNL A   1      41.084  32.272  30.622  1.00  0.00     0.031 C 
ATOM     60  C   UNL A   1      46.332  31.223  27.750  1.00  0.00     0.029 A 
ATOM     61  C   UNL A   1      45.063  31.074  28.284  1.00  0.00     0.049 A 
ATOM     62  H   UNL A   1      43.788  29.392  28.231  1.00  0.00     0.167 HD
ATOM     63  C   UNL A   1      43.030  31.804  29.503  1.00  0.00     0.074 A 
ATOM     64  C   UNL A   1      42.244  32.780  30.229  1.00  0.00     0.031 C 
ATOM     65  C   UNL A   1      44.276  32.035  29.017  1.00  0.00     0.037 A 
BRANCH  52  66
ATOM     66  C   UNL A   1      46.759  27.165  26.124  1.00  0.00     0.057 A 
ATOM     67  C   UNL A   1      47.742  26.456  26.827  1.00  0.00     0.134 A 
ATOM     68  C   UNL A   1      46.927  27.295  24.740  1.00  0.00     0.134 A 
ATOM     69  F   UNL A   1      47.651  26.304  28.157  1.00  0.00    -0.206 F 
ATOM     70  C   UNL A   1      48.866  25.931  26.185  1.00  0.00     0.040 A 
ATOM     71  C   UNL A   1      48.030  26.751  24.081  1.00  0.00     0.040 A 
ATOM     72  F   UNL A   1      46.021  27.957  24.003  1.00  0.00    -0.206 F 
ATOM     73  C   UNL A   1      49.010  26.075  24.806  1.00  0.00     0.006 A 
ENDBRANCH  52  66
BRANCH  53  74
ATOM     74  C   UNL A   1      38.757  30.531  31.014  1.00  0.00     0.057 A 
ATOM     75  C   UNL A   1      37.693  31.191  30.389  1.00  0.00     0.134 A 
ATOM     76  C   UNL A   1      38.664  30.317  32.395  1.00  0.00     0.134 A 
ATOM     77  F   UNL A   1      37.736  31.441  29.072  1.00  0.00    -0.206 F 
ATOM     78  C   UNL A   1      36.581  31.628  31.110  1.00  0.00     0.040 A 
ATOM     79  C   UNL A   1      37.547  30.728  33.124  1.00  0.00     0.040 A 
ATOM     80  F   UNL A   1      39.648  29.686  33.049  1.00  0.00    -0.206 F 
ATOM     81  C   UNL A   1      36.503  31.389  32.481  1.00  0.00     0.006 A 
ENDBRANCH  53  74
BRANCH  65  82
ATOM     82  C   UNL A   1      44.855  33.404  29.234  1.00  0.00     0.057 A 
ATOM     83  C   UNL A   1      45.669  33.699  30.336  1.00  0.00     0.134 A 
ATOM     84  C   UNL A   1      44.614  34.435  28.317  1.00  0.00     0.134 A 
ATOM     85  F   UNL A   1      45.931  32.760  31.259  1.00  0.00    -0.206 F 
ATOM     86  C   UNL A   1      46.196  34.977  30.534  1.00  0.00     0.040 A 
ATOM     87  C   UNL A   1      45.158  35.708  28.489  1.00  0.00     0.040 A 
ATOM     88  F   UNL A   1      43.852  34.219  27.234  1.00  0.00    -0.206 F 
ATOM     89  C   UNL A   1      45.945  35.985  29.605  1.00  0.00     0.006 A 
ENDBRANCH  65  82
ENDBRANCH  39  40
ENDBRANCH  32  34
ENDBRANCH  31  32
ENDBRANCH  30  31
ENDBRANCH  29  30
ENDBRANCH  28  29
ENDBRANCH   1  28
TORSDOF 18
ENDMDL
