MODEL 1
REMARK VINA RESULT:     -11.2      0.000      0.000
REMARK SMILES Cc1cc(Cl)c2c(c1)C=C(C(=O)OCCOCCOC(=O)c1ccc(-c3c4nc(c(-c5c(F)cccc5F)c5ccc([nH]5)c(-c5c(F)cccc5F)c5nc(c(-c6c(F)cccc6F)c6ccc3[nH]6)C=C5)C=C4)cc1)[C@@H](C(F)(F)F)O2
REMARK SMILES IDX 17 1 16 2 15 3 14 4 13 5 11 6 12 7 10 8 1 9 2 10 3 11 8 12
REMARK SMILES IDX 4 13 7 14 5 15 6 16 9 17 81 18 76 19 77 20 78 21 79 22 80 23
REMARK SMILES IDX 18 24 19 25 20 26 21 27 22 28 23 29 75 30 24 31 74 32 25 33
REMARK SMILES IDX 26 34 27 35 68 36 28 37 73 38 67 39 69 40 29 41 72 42 66 43
REMARK SMILES IDX 65 44 30 46 56 47 39 48 55 49 40 50 43 51 54 52 70 53 41 54
REMARK SMILES IDX 42 55 53 57 71 58 44 59 31 60 32 61 37 62 33 63 34 64 36 65
REMARK SMILES IDX 38 66 35 67 57 68 58 69 63 70 59 71 60 72 62 73 64 74 61 75
REMARK SMILES IDX 45 76 46 77 51 78 47 79 48 80 50 81 52 82 49 83
REMARK H PARENT 69 45 43 56
REMARK Flexibility Score: inf
ROOT
ATOM      1  C   UNL A   1      31.462  31.864  26.536  1.00  0.00     0.202 C 
ENDROOT
BRANCH   1   2
ATOM      2  O   UNL A   1      32.270  30.798  27.043  1.00  0.00    -0.374 OA
BRANCH   2   3
ATOM      3  C   UNL A   1      32.878  29.922  26.097  1.00  0.00     0.202 C 
BRANCH   3   4
ATOM      4  C   UNL A   1      33.206  28.512  26.595  1.00  0.00     0.261 C 
BRANCH   4   5
ATOM      5  O   UNL A   1      32.721  27.510  25.686  1.00  0.00    -0.460 OA
BRANCH   5   6
ATOM      6  C   UNL A   1      31.880  26.606  26.238  1.00  0.00     0.338 C 
ATOM      7  O   UNL A   1      30.865  26.845  26.876  1.00  0.00    -0.246 OA
BRANCH   6   8
ATOM      8  C   UNL A   1      32.290  25.241  25.862  1.00  0.00     0.087 C 
ATOM      9  C   UNL A   1      37.413  21.878  25.355  1.00  0.00     0.044 C 
ATOM     10  C   UNL A   1      35.945  22.164  25.239  1.00  0.00    -0.049 A 
ATOM     11  C   UNL A   1      35.072  21.258  24.626  1.00  0.00     0.028 A 
ATOM     12  C   UNL A   1      35.427  23.358  25.753  1.00  0.00     0.015 A 
ATOM     13  C   UNL A   1      33.705  21.544  24.534  1.00  0.00     0.084 A 
ATOM     14  C   UNL A   1      34.064  23.657  25.635  1.00  0.00     0.019 A 
ATOM     15  Cl  UNL A   1      32.682  20.388  23.756  1.00  0.00    -0.080 Cl
ATOM     16  C   UNL A   1      33.191  22.745  25.037  1.00  0.00     0.146 A 
ATOM     17  C   UNL A   1      33.575  24.944  26.090  1.00  0.00     0.027 C 
ATOM     18  O   UNL A   1      31.845  22.971  24.935  1.00  0.00    -0.474 OA
ATOM     19  C   UNL A   1      31.308  24.287  25.243  1.00  0.00     0.316 C 
BRANCH  19  20
ATOM     20  C   UNL A   1      30.653  24.859  23.976  1.00  0.00     0.430 C 
ATOM     21  F   UNL A   1      30.265  23.873  23.134  1.00  0.00    -0.167 F 
ATOM     22  F   UNL A   1      29.543  25.577  24.267  1.00  0.00    -0.167 F 
ATOM     23  F   UNL A   1      31.492  25.672  23.294  1.00  0.00    -0.167 F 
ENDBRANCH  19  20
ENDBRANCH   6   8
ENDBRANCH   5   6
ENDBRANCH   4   5
ENDBRANCH   3   4
ENDBRANCH   2   3
ENDBRANCH   1   2
BRANCH   1  24
ATOM     24  C   UNL A   1      31.999  33.287  26.733  1.00  0.00     0.261 C 
BRANCH  24  25
ATOM     25  O   UNL A   1      32.322  33.553  28.110  1.00  0.00    -0.460 OA
BRANCH  25  26
ATOM     26  C   UNL A   1      33.412  34.332  28.298  1.00  0.00     0.338 C 
ATOM     27  O   UNL A   1      33.447  35.554  28.387  1.00  0.00    -0.246 OA
BRANCH  26  28
ATOM     28  C   UNL A   1      34.590  33.494  28.575  1.00  0.00     0.060 A 
ATOM     29  C   UNL A   1      34.373  32.254  29.190  1.00  0.00     0.016 A 
ATOM     30  C   UNL A   1      35.886  33.948  28.324  1.00  0.00     0.016 A 
ATOM     31  C   UNL A   1      35.457  31.483  29.602  1.00  0.00     0.010 A 
ATOM     32  C   UNL A   1      36.973  33.178  28.750  1.00  0.00     0.010 A 
ATOM     33  C   UNL A   1      36.762  31.961  29.423  1.00  0.00    -0.014 A 
BRANCH  33  34
ATOM     34  C   UNL A   1      37.887  31.259  30.085  1.00  0.00     0.031 A 
ATOM     35  C   UNL A   1      38.177  31.551  31.530  1.00  0.00     0.074 A 
ATOM     36  C   UNL A   1      38.605  30.335  29.423  1.00  0.00     0.049 A 
ATOM     37  N   UNL A   1      39.108  31.056  32.305  1.00  0.00    -0.248 NA
ATOM     38  C   UNL A   1      37.297  32.528  32.192  1.00  0.00     0.031 C 
ATOM     39  C   UNL A   1      38.383  29.926  28.038  1.00  0.00     0.029 A 
ATOM     40  N   UNL A   1      39.665  29.568  29.837  1.00  0.00    -0.354 N 
ATOM     41  C   UNL A   1      38.920  31.653  33.546  1.00  0.00     0.074 A 
ATOM     42  C   UNL A   1      37.811  32.572  33.413  1.00  0.00     0.031 C 
ATOM     43  C   UNL A   1      39.282  28.979  27.715  1.00  0.00     0.029 A 
ATOM     44  C   UNL A   1      40.157  28.738  28.861  1.00  0.00     0.049 A 
ATOM     45  H   UNL A   1      40.037  29.610  30.748  1.00  0.00     0.167 HD
ATOM     46  C   UNL A   1      39.603  31.442  34.696  1.00  0.00     0.037 A 
ATOM     47  C   UNL A   1      41.204  27.890  28.888  1.00  0.00     0.037 A 
ATOM     48  C   UNL A   1      40.710  30.533  34.826  1.00  0.00     0.049 A 
ATOM     49  C   UNL A   1      42.009  27.746  30.151  1.00  0.00     0.074 A 
ATOM     50  C   UNL A   1      41.466  30.253  35.950  1.00  0.00     0.029 A 
ATOM     51  N   UNL A   1      41.222  29.760  33.795  1.00  0.00    -0.354 N 
ATOM     52  N   UNL A   1      41.822  28.311  31.319  1.00  0.00    -0.248 NA
ATOM     53  C   UNL A   1      43.175  26.851  30.099  1.00  0.00     0.031 C 
ATOM     54  C   UNL A   1      42.464  29.342  35.589  1.00  0.00     0.029 A 
ATOM     55  C   UNL A   1      42.299  29.021  34.251  1.00  0.00     0.049 A 
ATOM     56  H   UNL A   1      40.871  29.740  32.876  1.00  0.00     0.167 HD
ATOM     57  C   UNL A   1      42.829  27.826  32.144  1.00  0.00     0.074 A 
ATOM     58  C   UNL A   1      43.619  26.912  31.347  1.00  0.00     0.031 C 
ATOM     59  C   UNL A   1      43.076  28.113  33.446  1.00  0.00     0.037 A 
BRANCH  46  60
ATOM     60  C   UNL A   1      39.179  32.218  35.905  1.00  0.00     0.057 A 
ATOM     61  C   UNL A   1      38.307  31.675  36.858  1.00  0.00     0.134 A 
ATOM     62  C   UNL A   1      39.684  33.502  36.146  1.00  0.00     0.134 A 
ATOM     63  F   UNL A   1      37.778  30.456  36.678  1.00  0.00    -0.206 F 
ATOM     64  C   UNL A   1      37.944  32.387  38.003  1.00  0.00     0.040 A 
ATOM     65  C   UNL A   1      39.346  34.214  37.297  1.00  0.00     0.040 A 
ATOM     66  F   UNL A   1      40.525  34.077  35.273  1.00  0.00    -0.206 F 
ATOM     67  C   UNL A   1      38.471  33.658  38.228  1.00  0.00     0.006 A 
ENDBRANCH  46  60
BRANCH  47  68
ATOM     68  C   UNL A   1      41.551  27.109  27.675  1.00  0.00     0.057 A 
ATOM     69  C   UNL A   1      42.369  27.649  26.678  1.00  0.00     0.134 A 
ATOM     70  C   UNL A   1      41.076  25.806  27.485  1.00  0.00     0.134 A 
ATOM     71  F   UNL A   1      42.836  28.901  26.792  1.00  0.00    -0.206 F 
ATOM     72  C   UNL A   1      42.699  26.925  25.530  1.00  0.00     0.040 A 
ATOM     73  C   UNL A   1      41.414  25.062  26.354  1.00  0.00     0.040 A 
ATOM     74  F   UNL A   1      40.285  25.233  28.404  1.00  0.00    -0.206 F 
ATOM     75  C   UNL A   1      42.226  25.624  25.371  1.00  0.00     0.006 A 
ENDBRANCH  47  68
BRANCH  59  76
ATOM     76  C   UNL A   1      44.237  27.425  34.102  1.00  0.00     0.057 A 
ATOM     77  C   UNL A   1      44.105  26.161  34.688  1.00  0.00     0.134 A 
ATOM     78  C   UNL A   1      45.514  28.000  34.078  1.00  0.00     0.134 A 
ATOM     79  F   UNL A   1      42.905  25.562  34.751  1.00  0.00    -0.206 F 
ATOM     80  C   UNL A   1      45.201  25.495  35.237  1.00  0.00     0.040 A 
ATOM     81  C   UNL A   1      46.622  27.333  34.603  1.00  0.00     0.040 A 
ATOM     82  F   UNL A   1      45.710  29.204  33.522  1.00  0.00    -0.206 F 
ATOM     83  C   UNL A   1      46.467  26.077  35.186  1.00  0.00     0.006 A 
ENDBRANCH  59  76
ENDBRANCH  33  34
ENDBRANCH  26  28
ENDBRANCH  25  26
ENDBRANCH  24  25
ENDBRANCH   1  24
TORSDOF 15
ENDMDL
MODEL 2
REMARK VINA RESULT:     -11.2      4.870      7.496
REMARK SMILES Cc1cc(Cl)c2c(c1)C=C(C(=O)OCCOCCOC(=O)c1ccc(-c3c4nc(c(-c5c(F)cccc5F)c5ccc([nH]5)c(-c5c(F)cccc5F)c5nc(c(-c6c(F)cccc6F)c6ccc3[nH]6)C=C5)C=C4)cc1)[C@@H](C(F)(F)F)O2
REMARK SMILES IDX 17 1 16 2 15 3 14 4 13 5 11 6 12 7 10 8 1 9 2 10 3 11 8 12
REMARK SMILES IDX 4 13 7 14 5 15 6 16 9 17 81 18 76 19 77 20 78 21 79 22 80 23
REMARK SMILES IDX 18 24 19 25 20 26 21 27 22 28 23 29 75 30 24 31 74 32 25 33
REMARK SMILES IDX 26 34 27 35 68 36 28 37 73 38 67 39 69 40 29 41 72 42 66 43
REMARK SMILES IDX 65 44 30 46 56 47 39 48 55 49 40 50 43 51 54 52 70 53 41 54
REMARK SMILES IDX 42 55 53 57 71 58 44 59 31 60 32 61 37 62 33 63 34 64 36 65
REMARK SMILES IDX 38 66 35 67 57 68 58 69 63 70 59 71 60 72 62 73 64 74 61 75
REMARK SMILES IDX 45 76 46 77 51 78 47 79 48 80 50 81 52 82 49 83
REMARK H PARENT 69 45 43 56
REMARK Flexibility Score: inf
ROOT
ATOM      1  C   UNL A   1      33.800  34.717  28.353  1.00  0.00     0.202 C 
ENDROOT
BRANCH   1   2
ATOM      2  O   UNL A   1      32.610  35.385  28.780  1.00  0.00    -0.374 OA
BRANCH   2   3
ATOM      3  C   UNL A   1      32.543  35.813  30.138  1.00  0.00     0.202 C 
BRANCH   3   4
ATOM      4  C   UNL A   1      33.863  35.813  30.914  1.00  0.00     0.261 C 
BRANCH   4   5
ATOM      5  O   UNL A   1      33.864  34.812  31.944  1.00  0.00    -0.460 OA
BRANCH   5   6
ATOM      6  C   UNL A   1      34.690  33.766  31.714  1.00  0.00     0.338 C 
ATOM      7  O   UNL A   1      34.403  32.714  31.160  1.00  0.00    -0.246 OA
BRANCH   6   8
ATOM      8  C   UNL A   1      36.064  34.109  32.125  1.00  0.00     0.087 C 
ATOM      9  C   UNL A   1      41.793  33.880  29.905  1.00  0.00     0.044 C 
ATOM     10  C   UNL A   1      40.733  34.129  30.937  1.00  0.00    -0.049 A 
ATOM     11  C   UNL A   1      41.062  34.468  32.253  1.00  0.00     0.028 A 
ATOM     12  C   UNL A   1      39.383  34.022  30.584  1.00  0.00     0.015 A 
ATOM     13  C   UNL A   1      40.056  34.700  33.198  1.00  0.00     0.084 A 
ATOM     14  C   UNL A   1      38.376  34.226  31.536  1.00  0.00     0.019 A 
ATOM     15  Cl  UNL A   1      40.529  35.106  34.810  1.00  0.00    -0.080 Cl
ATOM     16  C   UNL A   1      38.705  34.580  32.846  1.00  0.00     0.146 A 
ATOM     17  C   UNL A   1      36.990  34.013  31.164  1.00  0.00     0.027 C 
ATOM     18  O   UNL A   1      37.759  34.831  33.803  1.00  0.00    -0.474 OA
ATOM     19  C   UNL A   1      36.365  34.507  33.541  1.00  0.00     0.316 C 
BRANCH  19  20
ATOM     20  C   UNL A   1      35.908  33.450  34.559  1.00  0.00     0.430 C 
ATOM     21  F   UNL A   1      36.659  32.327  34.475  1.00  0.00    -0.167 F 
ATOM     22  F   UNL A   1      36.026  33.897  35.831  1.00  0.00    -0.167 F 
ATOM     23  F   UNL A   1      34.617  33.093  34.374  1.00  0.00    -0.167 F 
ENDBRANCH  19  20
ENDBRANCH   6   8
ENDBRANCH   5   6
ENDBRANCH   4   5
ENDBRANCH   3   4
ENDBRANCH   2   3
ENDBRANCH   1   2
BRANCH   1  24
ATOM     24  C   UNL A   1      33.649  33.254  27.919  1.00  0.00     0.261 C 
BRANCH  24  25
ATOM     25  O   UNL A   1      34.925  32.605  27.768  1.00  0.00    -0.460 OA
BRANCH  25  26
ATOM     26  C   UNL A   1      34.904  31.262  27.929  1.00  0.00     0.338 C 
ATOM     27  O   UNL A   1      34.123  30.464  27.424  1.00  0.00    -0.246 OA
BRANCH  26  28
ATOM     28  C   UNL A   1      36.093  30.825  28.679  1.00  0.00     0.060 A 
ATOM     29  C   UNL A   1      37.303  31.480  28.414  1.00  0.00     0.016 A 
ATOM     30  C   UNL A   1      36.048  29.737  29.553  1.00  0.00     0.016 A 
ATOM     31  C   UNL A   1      38.484  31.017  28.988  1.00  0.00     0.010 A 
ATOM     32  C   UNL A   1      37.238  29.265  30.117  1.00  0.00     0.010 A 
ATOM     33  C   UNL A   1      38.464  29.881  29.807  1.00  0.00    -0.014 A 
BRANCH  33  34
ATOM     34  C   UNL A   1      39.746  29.251  30.204  1.00  0.00     0.031 A 
ATOM     35  C   UNL A   1      40.454  29.757  31.430  1.00  0.00     0.074 A 
ATOM     36  C   UNL A   1      40.243  28.210  29.515  1.00  0.00     0.049 A 
ATOM     37  N   UNL A   1      41.582  29.357  31.959  1.00  0.00    -0.248 NA
ATOM     38  C   UNL A   1      39.802  30.856  32.159  1.00  0.00     0.031 C 
ATOM     39  C   UNL A   1      39.619  27.596  28.345  1.00  0.00     0.029 A 
ATOM     40  N   UNL A   1      41.389  27.480  29.710  1.00  0.00    -0.354 N 
ATOM     41  C   UNL A   1      41.770  30.148  33.086  1.00  0.00     0.074 A 
ATOM     42  C   UNL A   1      40.659  31.073  33.146  1.00  0.00     0.031 C 
ATOM     43  C   UNL A   1      40.391  26.579  27.924  1.00  0.00     0.029 A 
ATOM     44  C   UNL A   1      41.575  26.490  28.778  1.00  0.00     0.049 A 
ATOM     45  H   UNL A   1      42.018  27.651  30.448  1.00  0.00     0.167 HD
ATOM     46  C   UNL A   1      42.770  30.096  33.996  1.00  0.00     0.037 A 
ATOM     47  C   UNL A   1      42.592  25.620  28.626  1.00  0.00     0.037 A 
ATOM     48  C   UNL A   1      43.877  29.180  33.932  1.00  0.00     0.049 A 
ATOM     49  C   UNL A   1      43.744  25.648  29.595  1.00  0.00     0.074 A 
ATOM     50  C   UNL A   1      44.941  29.053  34.808  1.00  0.00     0.029 A 
ATOM     51  N   UNL A   1      44.064  28.237  32.934  1.00  0.00    -0.354 N 
ATOM     52  N   UNL A   1      43.909  26.396  30.659  1.00  0.00    -0.248 NA
ATOM     53  C   UNL A   1      44.851  24.715  29.340  1.00  0.00     0.031 C 
ATOM     54  C   UNL A   1      45.795  28.062  34.316  1.00  0.00     0.029 A 
ATOM     55  C   UNL A   1      45.239  27.541  33.159  1.00  0.00     0.049 A 
ATOM     56  H   UNL A   1      43.453  28.085  32.179  1.00  0.00     0.167 HD
ATOM     57  C   UNL A   1      45.125  26.012  31.211  1.00  0.00     0.074 A 
ATOM     58  C   UNL A   1      45.650  24.955  30.371  1.00  0.00     0.031 C 
ATOM     59  C   UNL A   1      45.749  26.491  32.314  1.00  0.00     0.037 A 
BRANCH  46  60
ATOM     60  C   UNL A   1      42.720  31.068  35.136  1.00  0.00     0.057 A 
ATOM     61  C   UNL A   1      42.243  30.694  36.399  1.00  0.00     0.134 A 
ATOM     62  C   UNL A   1      43.198  32.375  34.984  1.00  0.00     0.134 A 
ATOM     63  F   UNL A   1      41.759  29.460  36.605  1.00  0.00    -0.206 F 
ATOM     64  C   UNL A   1      42.234  31.591  37.469  1.00  0.00     0.040 A 
ATOM     65  C   UNL A   1      43.214  33.274  36.051  1.00  0.00     0.040 A 
ATOM     66  F   UNL A   1      43.670  32.794  33.800  1.00  0.00    -0.206 F 
ATOM     67  C   UNL A   1      42.728  32.884  37.298  1.00  0.00     0.006 A 
ENDBRANCH  46  60
BRANCH  47  68
ATOM     68  C   UNL A   1      42.568  24.646  27.507  1.00  0.00     0.057 A 
ATOM     69  C   UNL A   1      43.088  24.976  26.251  1.00  0.00     0.134 A 
ATOM     70  C   UNL A   1      42.028  23.364  27.666  1.00  0.00     0.134 A 
ATOM     71  F   UNL A   1      43.597  26.197  26.031  1.00  0.00    -0.206 F 
ATOM     72  C   UNL A   1      43.066  24.069  25.189  1.00  0.00     0.040 A 
ATOM     73  C   UNL A   1      42.019  22.440  26.621  1.00  0.00     0.040 A 
ATOM     74  F   UNL A   1      41.512  22.989  28.846  1.00  0.00    -0.206 F 
ATOM     75  C   UNL A   1      42.537  22.794  25.377  1.00  0.00     0.006 A 
ENDBRANCH  47  68
BRANCH  59  76
ATOM     76  C   UNL A   1      47.063  25.874  32.694  1.00  0.00     0.057 A 
ATOM     77  C   UNL A   1      47.145  24.847  33.643  1.00  0.00     0.134 A 
ATOM     78  C   UNL A   1      48.246  26.257  32.048  1.00  0.00     0.134 A 
ATOM     79  F   UNL A   1      46.049  24.442  34.302  1.00  0.00    -0.206 F 
ATOM     80  C   UNL A   1      48.360  24.229  33.943  1.00  0.00     0.040 A 
ATOM     81  C   UNL A   1      49.462  25.630  32.324  1.00  0.00     0.040 A 
ATOM     82  F   UNL A   1      48.233  27.226  31.122  1.00  0.00    -0.206 F 
ATOM     83  C   UNL A   1      49.521  24.614  33.275  1.00  0.00     0.006 A 
ENDBRANCH  59  76
ENDBRANCH  33  34
ENDBRANCH  26  28
ENDBRANCH  25  26
ENDBRANCH  24  25
ENDBRANCH   1  24
TORSDOF 15
ENDMDL
MODEL 3
REMARK VINA RESULT:     -11.1      2.229      3.782
REMARK SMILES Cc1cc(Cl)c2c(c1)C=C(C(=O)OCCOCCOC(=O)c1ccc(-c3c4nc(c(-c5c(F)cccc5F)c5ccc([nH]5)c(-c5c(F)cccc5F)c5nc(c(-c6c(F)cccc6F)c6ccc3[nH]6)C=C5)C=C4)cc1)[C@@H](C(F)(F)F)O2
REMARK SMILES IDX 17 1 16 2 15 3 14 4 13 5 11 6 12 7 10 8 1 9 2 10 3 11 8 12
REMARK SMILES IDX 4 13 7 14 5 15 6 16 9 17 81 18 76 19 77 20 78 21 79 22 80 23
REMARK SMILES IDX 18 24 19 25 20 26 21 27 22 28 23 29 75 30 24 31 74 32 25 33
REMARK SMILES IDX 26 34 27 35 68 36 28 37 73 38 67 39 69 40 29 41 72 42 66 43
REMARK SMILES IDX 65 44 30 46 56 47 39 48 55 49 40 50 43 51 54 52 70 53 41 54
REMARK SMILES IDX 42 55 53 57 71 58 44 59 31 60 32 61 37 62 33 63 34 64 36 65
REMARK SMILES IDX 38 66 35 67 57 68 58 69 63 70 59 71 60 72 62 73 64 74 61 75
REMARK SMILES IDX 45 76 46 77 51 78 47 79 48 80 50 81 52 82 49 83
REMARK H PARENT 69 45 43 56
REMARK Flexibility Score: inf
ROOT
ATOM      1  C   UNL A   1      31.708  31.348  26.477  1.00  0.00     0.202 C 
ENDROOT
BRANCH   1   2
ATOM      2  O   UNL A   1      32.459  30.288  27.076  1.00  0.00    -0.374 OA
BRANCH   2   3
ATOM      3  C   UNL A   1      33.760  30.024  26.557  1.00  0.00     0.202 C 
BRANCH   3   4
ATOM      4  C   UNL A   1      34.027  28.586  26.104  1.00  0.00     0.261 C 
BRANCH   4   5
ATOM      5  O   UNL A   1      33.921  28.459  24.677  1.00  0.00    -0.460 OA
BRANCH   5   6
ATOM      6  C   UNL A   1      33.361  27.303  24.253  1.00  0.00     0.338 C 
ATOM      7  O   UNL A   1      33.887  26.199  24.229  1.00  0.00    -0.246 OA
BRANCH   6   8
ATOM      8  C   UNL A   1      31.942  27.524  23.920  1.00  0.00     0.087 C 
ATOM      9  C   UNL A   1      28.386  31.740  21.203  1.00  0.00     0.044 C 
ATOM     10  C   UNL A   1      28.681  30.476  21.956  1.00  0.00    -0.049 A 
ATOM     11  C   UNL A   1      27.653  29.680  22.473  1.00  0.00     0.028 A 
ATOM     12  C   UNL A   1      30.007  30.077  22.149  1.00  0.00     0.015 A 
ATOM     13  C   UNL A   1      27.952  28.502  23.169  1.00  0.00     0.084 A 
ATOM     14  C   UNL A   1      30.308  28.914  22.869  1.00  0.00     0.019 A 
ATOM     15  Cl  UNL A   1      26.638  27.568  23.792  1.00  0.00    -0.080 Cl
ATOM     16  C   UNL A   1      29.282  28.111  23.372  1.00  0.00     0.146 A 
ATOM     17  C   UNL A   1      31.693  28.579  23.137  1.00  0.00     0.027 C 
ATOM     18  O   UNL A   1      29.521  26.944  24.046  1.00  0.00    -0.474 OA
ATOM     19  C   UNL A   1      30.875  26.618  24.466  1.00  0.00     0.316 C 
BRANCH  19  20
ATOM     20  C   UNL A   1      30.905  26.533  26.001  1.00  0.00     0.430 C 
ATOM     21  F   UNL A   1      31.959  25.803  26.434  1.00  0.00    -0.167 F 
ATOM     22  F   UNL A   1      31.026  27.757  26.567  1.00  0.00    -0.167 F 
ATOM     23  F   UNL A   1      29.783  25.967  26.499  1.00  0.00    -0.167 F 
ENDBRANCH  19  20
ENDBRANCH   6   8
ENDBRANCH   5   6
ENDBRANCH   4   5
ENDBRANCH   3   4
ENDBRANCH   2   3
ENDBRANCH   1   2
BRANCH   1  24
ATOM     24  C   UNL A   1      31.681  32.683  27.232  1.00  0.00     0.261 C 
BRANCH  24  25
ATOM     25  O   UNL A   1      32.943  33.371  27.150  1.00  0.00    -0.460 OA
BRANCH  25  26
ATOM     26  C   UNL A   1      33.181  34.244  28.156  1.00  0.00     0.338 C 
ATOM     27  O   UNL A   1      32.531  35.240  28.447  1.00  0.00    -0.246 OA
BRANCH  26  28
ATOM     28  C   UNL A   1      34.266  33.739  29.015  1.00  0.00     0.060 A 
ATOM     29  C   UNL A   1      35.568  34.174  28.736  1.00  0.00     0.016 A 
ATOM     30  C   UNL A   1      34.029  32.790  30.011  1.00  0.00     0.016 A 
ATOM     31  C   UNL A   1      36.647  33.623  29.423  1.00  0.00     0.010 A 
ATOM     32  C   UNL A   1      35.115  32.228  30.690  1.00  0.00     0.010 A 
ATOM     33  C   UNL A   1      36.429  32.616  30.373  1.00  0.00    -0.014 A 
BRANCH  33  34
ATOM     34  C   UNL A   1      37.588  31.865  30.910  1.00  0.00     0.031 A 
ATOM     35  C   UNL A   1      38.039  32.135  32.319  1.00  0.00     0.074 A 
ATOM     36  C   UNL A   1      38.195  30.919  30.174  1.00  0.00     0.049 A 
ATOM     37  N   UNL A   1      39.025  31.598  32.990  1.00  0.00    -0.248 NA
ATOM     38  C   UNL A   1      37.272  33.141  33.072  1.00  0.00     0.031 C 
ATOM     39  C   UNL A   1      37.815  30.529  28.819  1.00  0.00     0.029 A 
ATOM     40  N   UNL A   1      39.262  30.108  30.473  1.00  0.00    -0.354 N 
ATOM     41  C   UNL A   1      38.992  32.192  34.246  1.00  0.00     0.074 A 
ATOM     42  C   UNL A   1      37.913  33.155  34.232  1.00  0.00     0.031 C 
ATOM     43  C   UNL A   1      38.636  29.550  28.400  1.00  0.00     0.029 A 
ATOM     44  C   UNL A   1      39.616  29.266  29.448  1.00  0.00     0.049 A 
ATOM     45  H   UNL A   1      39.728  30.128  31.339  1.00  0.00     0.167 HD
ATOM     46  C   UNL A   1      39.782  31.947  35.317  1.00  0.00     0.037 A 
ATOM     47  C   UNL A   1      40.625  28.377  29.362  1.00  0.00     0.037 A 
ATOM     48  C   UNL A   1      40.860  30.994  35.327  1.00  0.00     0.049 A 
ATOM     49  C   UNL A   1      41.552  28.193  30.534  1.00  0.00     0.074 A 
ATOM     50  C   UNL A   1      41.717  30.675  36.366  1.00  0.00     0.029 A 
ATOM     51  N   UNL A   1      41.230  30.209  34.247  1.00  0.00    -0.354 N 
ATOM     52  N   UNL A   1      41.509  28.756  31.717  1.00  0.00    -0.248 NA
ATOM     53  C   UNL A   1      42.669  27.253  30.357  1.00  0.00     0.031 C 
ATOM     54  C   UNL A   1      42.634  29.728  35.900  1.00  0.00     0.029 A 
ATOM     55  C   UNL A   1      42.319  29.424  34.585  1.00  0.00     0.049 A 
ATOM     56  H   UNL A   1      40.784  30.209  33.369  1.00  0.00     0.167 HD
ATOM     57  C   UNL A   1      42.577  28.226  32.431  1.00  0.00     0.074 A 
ATOM     58  C   UNL A   1      43.243  27.287  31.552  1.00  0.00     0.031 C 
ATOM     59  C   UNL A   1      42.970  28.493  33.700  1.00  0.00     0.037 A 
BRANCH  46  60
ATOM     60  C   UNL A   1      39.518  32.730  36.567  1.00  0.00     0.057 A 
ATOM     61  C   UNL A   1      40.223  33.903  36.861  1.00  0.00     0.134 A 
ATOM     62  C   UNL A   1      38.515  32.335  37.460  1.00  0.00     0.134 A 
ATOM     63  F   UNL A   1      41.206  34.327  36.052  1.00  0.00    -0.206 F 
ATOM     64  C   UNL A   1      39.948  34.652  38.007  1.00  0.00     0.040 A 
ATOM     65  C   UNL A   1      38.215  33.086  38.598  1.00  0.00     0.040 A 
ATOM     66  F   UNL A   1      37.801  31.222  37.235  1.00  0.00    -0.206 F 
ATOM     67  C   UNL A   1      38.935  34.246  38.876  1.00  0.00     0.006 A 
ENDBRANCH  46  60
BRANCH  47  68
ATOM     68  C   UNL A   1      40.812  27.592  28.117  1.00  0.00     0.057 A 
ATOM     69  C   UNL A   1      41.589  28.084  27.063  1.00  0.00     0.134 A 
ATOM     70  C   UNL A   1      40.222  26.333  27.952  1.00  0.00     0.134 A 
ATOM     71  F   UNL A   1      42.160  29.294  27.153  1.00  0.00    -0.206 F 
ATOM     72  C   UNL A   1      41.768  27.356  25.885  1.00  0.00     0.040 A 
ATOM     73  C   UNL A   1      40.410  25.585  26.790  1.00  0.00     0.040 A 
ATOM     74  F   UNL A   1      39.464  25.808  28.926  1.00  0.00    -0.206 F 
ATOM     75  C   UNL A   1      41.183  26.098  25.750  1.00  0.00     0.006 A 
ENDBRANCH  47  68
BRANCH  59  76
ATOM     76  C   UNL A   1      44.164  27.755  34.229  1.00  0.00     0.057 A 
ATOM     77  C   UNL A   1      45.448  28.313  34.191  1.00  0.00     0.134 A 
ATOM     78  C   UNL A   1      44.017  26.509  34.852  1.00  0.00     0.134 A 
ATOM     79  F   UNL A   1      45.657  29.499  33.600  1.00  0.00    -0.206 F 
ATOM     80  C   UNL A   1      46.546  27.652  34.745  1.00  0.00     0.040 A 
ATOM     81  C   UNL A   1      45.103  25.850  35.430  1.00  0.00     0.040 A 
ATOM     82  F   UNL A   1      42.811  25.925  34.931  1.00  0.00    -0.206 F 
ATOM     83  C   UNL A   1      46.372  26.421  35.377  1.00  0.00     0.006 A 
ENDBRANCH  59  76
ENDBRANCH  33  34
ENDBRANCH  26  28
ENDBRANCH  25  26
ENDBRANCH  24  25
ENDBRANCH   1  24
TORSDOF 15
ENDMDL
