MODEL 1
REMARK VINA RESULT:     -10.5      0.000      0.000
REMARK SMILES Cc1nn(C(C)C)cc1-c1cnccc1C(=O)OCCOCCOC(=O)c1ccc(-c2c3nc(c(-c4c(F)cccc4F)c4ccc([nH]4)c(-c4c(F)cccc4F)c4nc(c(-c5c(F)cccc5F)c5ccc2[nH]5)C=C4)C=C3)cc1
REMARK SMILES IDX 21 1 20 2 19 3 18 4 16 5 17 6 15 7 10 8 11 9 12 10 14 11
REMARK SMILES IDX 13 12 9 13 1 14 2 15 3 16 4 17 8 18 5 19 6 20 7 21 22 22
REMARK SMILES IDX 23 23 24 24 25 25 26 26 27 27 28 28 80 29 29 30 79 31 30 32
REMARK SMILES IDX 31 33 32 34 73 35 33 36 78 37 72 38 74 39 34 40 77 41 71 42
REMARK SMILES IDX 70 43 35 45 61 46 44 47 60 48 45 49 48 50 59 51 75 52 46 53
REMARK SMILES IDX 47 54 58 56 76 57 49 58 36 59 37 60 42 61 38 62 39 63 41 64
REMARK SMILES IDX 43 65 40 66 62 67 63 68 68 69 64 70 65 71 67 72 69 73 66 74
REMARK SMILES IDX 50 75 51 76 56 77 52 78 53 79 55 80 57 81 54 82
REMARK H PARENT 74 44 48 55
REMARK Flexibility Score: inf
ROOT
ATOM      1  O   UNL A   1      39.183  22.193  25.821  1.00  0.00    -0.374 OA
ENDROOT
BRANCH   1   2
ATOM      2  C   UNL A   1      38.066  23.082  25.798  1.00  0.00     0.202 C 
BRANCH   2   3
ATOM      3  C   UNL A   1      36.865  22.657  24.955  1.00  0.00     0.261 C 
BRANCH   3   4
ATOM      4  O   UNL A   1      35.632  23.060  25.572  1.00  0.00    -0.460 OA
BRANCH   4   5
ATOM      5  C   UNL A   1      34.610  23.312  24.723  1.00  0.00     0.338 C 
ATOM      6  O   UNL A   1      34.680  23.366  23.504  1.00  0.00    -0.246 OA
BRANCH   5   7
ATOM      7  C   UNL A   1      33.306  23.342  25.424  1.00  0.00     0.071 A 
ATOM      8  C   UNL A   1      32.443  22.253  25.597  1.00  0.00     0.018 A 
ATOM      9  C   UNL A   1      31.315  22.486  26.384  1.00  0.00     0.120 A 
ATOM     10  N   UNL A   1      30.964  23.685  26.912  1.00  0.00    -0.264 NA
ATOM     11  C   UNL A   1      32.961  24.596  25.955  1.00  0.00     0.036 A 
ATOM     12  C   UNL A   1      31.786  24.720  26.669  1.00  0.00     0.112 A 
BRANCH   8  13
ATOM     13  C   UNL A   1      32.590  20.951  24.971  1.00  0.00     0.025 A 
ATOM     14  C   UNL A   1      31.922  21.384  22.466  1.00  0.00     0.069 C 
ATOM     15  C   UNL A   1      32.387  20.563  23.613  1.00  0.00     0.067 A 
ATOM     16  N   UNL A   1      32.686  19.274  23.418  1.00  0.00    -0.177 NA
ATOM     17  N   UNL A   1      33.096  18.843  24.624  1.00  0.00    -0.269 N 
ATOM     18  C   UNL A   1      32.986  19.791  25.602  1.00  0.00     0.118 A 
BRANCH  17  19
ATOM     19  C   UNL A   1      33.606  17.486  24.783  1.00  0.00     0.101 C 
ATOM     20  C   UNL A   1      32.568  16.587  25.449  1.00  0.00     0.033 C 
ATOM     21  C   UNL A   1      34.082  16.901  23.451  1.00  0.00     0.033 C 
ENDBRANCH  17  19
ENDBRANCH   8  13
ENDBRANCH   5   7
ENDBRANCH   4   5
ENDBRANCH   3   4
ENDBRANCH   2   3
ENDBRANCH   1   2
BRANCH   1  22
ATOM     22  C   UNL A   1      38.969  20.821  26.123  1.00  0.00     0.202 C 
BRANCH  22  23
ATOM     23  C   UNL A   1      39.818  19.786  25.398  1.00  0.00     0.261 C 
BRANCH  23  24
ATOM     24  O   UNL A   1      40.927  19.314  26.151  1.00  0.00    -0.460 OA
BRANCH  24  25
ATOM     25  C   UNL A   1      42.116  19.743  25.665  1.00  0.00     0.338 C 
ATOM     26  O   UNL A   1      42.822  19.185  24.845  1.00  0.00    -0.246 OA
BRANCH  25  27
ATOM     27  C   UNL A   1      42.553  20.917  26.427  1.00  0.00     0.060 A 
ATOM     28  C   UNL A   1      42.359  20.881  27.810  1.00  0.00     0.016 A 
ATOM     29  C   UNL A   1      42.882  22.101  25.756  1.00  0.00     0.016 A 
ATOM     30  C   UNL A   1      42.345  22.072  28.502  1.00  0.00     0.010 A 
ATOM     31  C   UNL A   1      42.852  23.292  26.444  1.00  0.00     0.010 A 
ATOM     32  C   UNL A   1      42.522  23.269  27.797  1.00  0.00    -0.014 A 
BRANCH  32  33
ATOM     33  C   UNL A   1      42.511  24.504  28.549  1.00  0.00     0.031 A 
ATOM     34  C   UNL A   1      41.278  25.295  28.324  1.00  0.00     0.074 A 
ATOM     35  C   UNL A   1      43.466  24.829  29.439  1.00  0.00     0.049 A 
ATOM     36  N   UNL A   1      41.186  26.458  27.774  1.00  0.00    -0.248 NA
ATOM     37  C   UNL A   1      39.981  24.645  28.578  1.00  0.00     0.031 C 
ATOM     38  C   UNL A   1      44.571  24.004  29.927  1.00  0.00     0.029 A 
ATOM     39  N   UNL A   1      43.585  25.962  30.181  1.00  0.00    -0.354 N 
ATOM     40  C   UNL A   1      39.834  26.782  27.801  1.00  0.00     0.074 A 
ATOM     41  C   UNL A   1      39.133  25.570  28.129  1.00  0.00     0.031 C 
ATOM     42  C   UNL A   1      45.092  24.572  31.040  1.00  0.00     0.029 A 
ATOM     43  C   UNL A   1      44.438  25.849  31.272  1.00  0.00     0.049 A 
ATOM     44  H   UNL A   1      43.105  26.794  29.963  1.00  0.00     0.167 HD
ATOM     45  C   UNL A   1      39.435  28.081  27.809  1.00  0.00     0.037 A 
ATOM     46  C   UNL A   1      44.516  26.715  32.316  1.00  0.00     0.037 A 
ATOM     47  C   UNL A   1      40.480  28.942  27.309  1.00  0.00     0.049 A 
ATOM     48  C   UNL A   1      43.905  27.999  31.871  1.00  0.00     0.074 A 
ATOM     49  C   UNL A   1      41.200  28.998  26.130  1.00  0.00     0.029 A 
ATOM     50  N   UNL A   1      41.197  29.684  28.218  1.00  0.00    -0.354 N 
ATOM     51  N   UNL A   1      44.451  28.794  30.993  1.00  0.00    -0.248 NA
ATOM     52  C   UNL A   1      42.468  28.157  32.049  1.00  0.00     0.031 C 
ATOM     53  C   UNL A   1      42.528  29.330  26.526  1.00  0.00     0.029 A 
ATOM     54  C   UNL A   1      42.523  29.536  27.904  1.00  0.00     0.049 A 
ATOM     55  H   UNL A   1      40.827  30.220  28.955  1.00  0.00     0.167 HD
ATOM     56  C   UNL A   1      43.394  29.218  30.202  1.00  0.00     0.074 A 
ATOM     57  C   UNL A   1      42.188  28.857  30.946  1.00  0.00     0.031 C 
ATOM     58  C   UNL A   1      43.578  29.544  28.889  1.00  0.00     0.037 A 
BRANCH  45  59
ATOM     59  C   UNL A   1      38.292  28.599  28.653  1.00  0.00     0.057 A 
ATOM     60  C   UNL A   1      37.430  29.563  28.099  1.00  0.00     0.134 A 
ATOM     61  C   UNL A   1      38.187  28.442  30.052  1.00  0.00     0.134 A 
ATOM     62  F   UNL A   1      37.423  29.806  26.780  1.00  0.00    -0.206 F 
ATOM     63  C   UNL A   1      36.618  30.386  28.888  1.00  0.00     0.040 A 
ATOM     64  C   UNL A   1      37.342  29.223  30.841  1.00  0.00     0.040 A 
ATOM     65  F   UNL A   1      38.957  27.601  30.751  1.00  0.00    -0.206 F 
ATOM     66  C   UNL A   1      36.583  30.227  30.266  1.00  0.00     0.006 A 
ENDBRANCH  45  59
BRANCH  46  67
ATOM     67  C   UNL A   1      44.795  26.437  33.748  1.00  0.00     0.057 A 
ATOM     68  C   UNL A   1      45.913  26.998  34.387  1.00  0.00     0.134 A 
ATOM     69  C   UNL A   1      43.841  25.849  34.597  1.00  0.00     0.134 A 
ATOM     70  F   UNL A   1      46.867  27.617  33.676  1.00  0.00    -0.206 F 
ATOM     71  C   UNL A   1      46.054  27.007  35.783  1.00  0.00     0.040 A 
ATOM     72  C   UNL A   1      43.975  25.841  35.991  1.00  0.00     0.040 A 
ATOM     73  F   UNL A   1      42.699  25.339  34.118  1.00  0.00    -0.206 F 
ATOM     74  C   UNL A   1      45.076  26.437  36.591  1.00  0.00     0.006 A 
ENDBRANCH  46  67
BRANCH  58  75
ATOM     75  C   UNL A   1      44.980  29.677  28.366  1.00  0.00     0.057 A 
ATOM     76  C   UNL A   1      45.751  30.848  28.457  1.00  0.00     0.134 A 
ATOM     77  C   UNL A   1      45.635  28.524  27.918  1.00  0.00     0.134 A 
ATOM     78  F   UNL A   1      45.244  31.977  28.968  1.00  0.00    -0.206 F 
ATOM     79  C   UNL A   1      47.099  30.872  28.085  1.00  0.00     0.040 A 
ATOM     80  C   UNL A   1      46.990  28.526  27.582  1.00  0.00     0.040 A 
ATOM     81  F   UNL A   1      44.977  27.355  27.857  1.00  0.00    -0.206 F 
ATOM     82  C   UNL A   1      47.726  29.705  27.657  1.00  0.00     0.006 A 
ENDBRANCH  58  75
ENDBRANCH  32  33
ENDBRANCH  25  27
ENDBRANCH  24  25
ENDBRANCH  23  24
ENDBRANCH  22  23
ENDBRANCH   1  22
TORSDOF 16
ENDMDL
MODEL 2
REMARK VINA RESULT:     -10.3      2.019      6.350
REMARK SMILES Cc1nn(C(C)C)cc1-c1cnccc1C(=O)OCCOCCOC(=O)c1ccc(-c2c3nc(c(-c4c(F)cccc4F)c4ccc([nH]4)c(-c4c(F)cccc4F)c4nc(c(-c5c(F)cccc5F)c5ccc2[nH]5)C=C4)C=C3)cc1
REMARK SMILES IDX 21 1 20 2 19 3 18 4 16 5 17 6 15 7 10 8 11 9 12 10 14 11
REMARK SMILES IDX 13 12 9 13 1 14 2 15 3 16 4 17 8 18 5 19 6 20 7 21 22 22
REMARK SMILES IDX 23 23 24 24 25 25 26 26 27 27 28 28 80 29 29 30 79 31 30 32
REMARK SMILES IDX 31 33 32 34 73 35 33 36 78 37 72 38 74 39 34 40 77 41 71 42
REMARK SMILES IDX 70 43 35 45 61 46 44 47 60 48 45 49 48 50 59 51 75 52 46 53
REMARK SMILES IDX 47 54 58 56 76 57 49 58 36 59 37 60 42 61 38 62 39 63 41 64
REMARK SMILES IDX 43 65 40 66 62 67 63 68 68 69 64 70 65 71 67 72 69 73 66 74
REMARK SMILES IDX 50 75 51 76 56 77 52 78 53 79 55 80 57 81 54 82
REMARK H PARENT 74 44 48 55
REMARK Flexibility Score: inf
ROOT
ATOM      1  O   UNL A   1      39.713  21.303  26.842  1.00  0.00    -0.374 OA
ENDROOT
BRANCH   1   2
ATOM      2  C   UNL A   1      39.520  22.518  26.118  1.00  0.00     0.202 C 
BRANCH   2   3
ATOM      3  C   UNL A   1      38.115  23.115  26.138  1.00  0.00     0.261 C 
BRANCH   3   4
ATOM      4  O   UNL A   1      37.127  22.122  25.819  1.00  0.00    -0.460 OA
BRANCH   4   5
ATOM      5  C   UNL A   1      36.396  22.362  24.707  1.00  0.00     0.338 C 
ATOM      6  O   UNL A   1      36.804  22.855  23.666  1.00  0.00    -0.246 OA
BRANCH   5   7
ATOM      7  C   UNL A   1      35.036  21.784  24.806  1.00  0.00     0.071 A 
ATOM      8  C   UNL A   1      33.836  22.507  24.809  1.00  0.00     0.018 A 
ATOM      9  C   UNL A   1      32.666  21.747  24.804  1.00  0.00     0.120 A 
ATOM     10  N   UNL A   1      32.611  20.394  24.876  1.00  0.00    -0.264 NA
ATOM     11  C   UNL A   1      35.006  20.382  24.889  1.00  0.00     0.036 A 
ATOM     12  C   UNL A   1      33.784  19.740  24.937  1.00  0.00     0.112 A 
BRANCH   8  13
ATOM     13  C   UNL A   1      33.720  23.951  24.892  1.00  0.00     0.025 A 
ATOM     14  C   UNL A   1      33.702  24.720  22.378  1.00  0.00     0.069 C 
ATOM     15  C   UNL A   1      33.641  24.922  23.849  1.00  0.00     0.067 A 
ATOM     16  N   UNL A   1      33.481  26.158  24.334  1.00  0.00    -0.177 NA
ATOM     17  N   UNL A   1      33.435  25.985  25.668  1.00  0.00    -0.269 N 
ATOM     18  C   UNL A   1      33.648  24.691  26.053  1.00  0.00     0.118 A 
BRANCH  17  19
ATOM     19  C   UNL A   1      33.166  27.119  26.544  1.00  0.00     0.101 C 
ATOM     20  C   UNL A   1      34.036  28.317  26.171  1.00  0.00     0.033 C 
ATOM     21  C   UNL A   1      31.681  27.487  26.554  1.00  0.00     0.033 C 
ENDBRANCH  17  19
ENDBRANCH   8  13
ENDBRANCH   5   7
ENDBRANCH   4   5
ENDBRANCH   3   4
ENDBRANCH   2   3
ENDBRANCH   1   2
BRANCH   1  22
ATOM     22  C   UNL A   1      40.555  20.298  26.293  1.00  0.00     0.202 C 
BRANCH  22  23
ATOM     23  C   UNL A   1      42.062  20.481  26.412  1.00  0.00     0.261 C 
BRANCH  23  24
ATOM     24  O   UNL A   1      42.759  20.371  25.178  1.00  0.00    -0.460 OA
BRANCH  24  25
ATOM     25  C   UNL A   1      44.048  20.779  25.261  1.00  0.00     0.338 C 
ATOM     26  O   UNL A   1      45.045  20.081  25.242  1.00  0.00    -0.246 OA
BRANCH  25  27
ATOM     27  C   UNL A   1      44.082  22.208  25.585  1.00  0.00     0.060 A 
ATOM     28  C   UNL A   1      44.846  22.588  26.690  1.00  0.00     0.016 A 
ATOM     29  C   UNL A   1      43.170  23.083  24.979  1.00  0.00     0.016 A 
ATOM     30  C   UNL A   1      44.581  23.802  27.286  1.00  0.00     0.010 A 
ATOM     31  C   UNL A   1      42.895  24.287  25.582  1.00  0.00     0.010 A 
ATOM     32  C   UNL A   1      43.560  24.605  26.763  1.00  0.00    -0.014 A 
BRANCH  32  33
ATOM     33  C   UNL A   1      43.308  25.879  27.402  1.00  0.00     0.031 A 
ATOM     34  C   UNL A   1      44.323  26.901  27.052  1.00  0.00     0.074 A 
ATOM     35  C   UNL A   1      42.207  26.126  28.134  1.00  0.00     0.049 A 
ATOM     36  N   UNL A   1      45.162  27.472  27.847  1.00  0.00    -0.248 NA
ATOM     37  C   UNL A   1      44.550  27.192  25.625  1.00  0.00     0.031 C 
ATOM     38  C   UNL A   1      41.028  25.279  28.316  1.00  0.00     0.029 A 
ATOM     39  N   UNL A   1      41.871  27.260  28.804  1.00  0.00    -0.354 N 
ATOM     40  C   UNL A   1      45.889  28.355  27.055  1.00  0.00     0.074 A 
ATOM     41  C   UNL A   1      45.602  28.007  25.690  1.00  0.00     0.031 C 
ATOM     42  C   UNL A   1      40.025  26.022  28.842  1.00  0.00     0.029 A 
ATOM     43  C   UNL A   1      40.525  27.354  29.140  1.00  0.00     0.049 A 
ATOM     44  H   UNL A   1      42.527  27.958  29.033  1.00  0.00     0.167 HD
ATOM     45  C   UNL A   1      46.457  29.464  27.600  1.00  0.00     0.037 A 
ATOM     46  C   UNL A   1      39.882  28.479  29.546  1.00  0.00     0.037 A 
ATOM     47  C   UNL A   1      46.616  29.310  29.026  1.00  0.00     0.049 A 
ATOM     48  C   UNL A   1      40.921  29.437  30.016  1.00  0.00     0.074 A 
ATOM     49  C   UNL A   1      47.256  28.385  29.830  1.00  0.00     0.029 A 
ATOM     50  N   UNL A   1      45.738  29.974  29.850  1.00  0.00    -0.354 N 
ATOM     51  N   UNL A   1      41.613  29.274  31.109  1.00  0.00    -0.248 NA
ATOM     52  C   UNL A   1      41.516  30.323  29.024  1.00  0.00     0.031 C 
ATOM     53  C   UNL A   1      46.384  28.199  30.942  1.00  0.00     0.029 A 
ATOM     54  C   UNL A   1      45.311  29.076  30.793  1.00  0.00     0.049 A 
ATOM     55  H   UNL A   1      45.466  30.917  29.775  1.00  0.00     0.167 HD
ATOM     56  C   UNL A   1      42.902  29.655  30.765  1.00  0.00     0.074 A 
ATOM     57  C   UNL A   1      42.766  30.365  29.494  1.00  0.00     0.031 C 
ATOM     58  C   UNL A   1      43.991  29.103  31.376  1.00  0.00     0.037 A 
BRANCH  45  59
ATOM     59  C   UNL A   1      46.466  30.815  26.923  1.00  0.00     0.057 A 
ATOM     60  C   UNL A   1      47.663  31.556  26.917  1.00  0.00     0.134 A 
ATOM     61  C   UNL A   1      45.313  31.548  26.568  1.00  0.00     0.134 A 
ATOM     62  F   UNL A   1      48.833  30.978  27.227  1.00  0.00    -0.206 F 
ATOM     63  C   UNL A   1      47.691  32.937  26.692  1.00  0.00     0.040 A 
ATOM     64  C   UNL A   1      45.339  32.915  26.292  1.00  0.00     0.040 A 
ATOM     65  F   UNL A   1      44.086  31.017  26.561  1.00  0.00    -0.206 F 
ATOM     66  C   UNL A   1      46.523  33.624  26.393  1.00  0.00     0.006 A 
ENDBRANCH  45  59
BRANCH  46  67
ATOM     67  C   UNL A   1      38.484  28.909  29.282  1.00  0.00     0.057 A 
ATOM     68  C   UNL A   1      37.556  29.027  30.330  1.00  0.00     0.134 A 
ATOM     69  C   UNL A   1      38.093  29.476  28.056  1.00  0.00     0.134 A 
ATOM     70  F   UNL A   1      37.841  28.553  31.552  1.00  0.00    -0.206 F 
ATOM     71  C   UNL A   1      36.334  29.700  30.179  1.00  0.00     0.040 A 
ATOM     72  C   UNL A   1      36.872  30.141  27.889  1.00  0.00     0.040 A 
ATOM     73  F   UNL A   1      38.914  29.489  26.998  1.00  0.00    -0.206 F 
ATOM     74  C   UNL A   1      35.994  30.271  28.957  1.00  0.00     0.006 A 
ENDBRANCH  46  67
BRANCH  58  75
ATOM     75  C   UNL A   1      43.783  28.256  32.600  1.00  0.00     0.057 A 
ATOM     76  C   UNL A   1      43.569  28.769  33.890  1.00  0.00     0.134 A 
ATOM     77  C   UNL A   1      43.611  26.877  32.432  1.00  0.00     0.134 A 
ATOM     78  F   UNL A   1      43.610  30.085  34.131  1.00  0.00    -0.206 F 
ATOM     79  C   UNL A   1      43.236  27.938  34.965  1.00  0.00     0.040 A 
ATOM     80  C   UNL A   1      43.240  26.044  33.489  1.00  0.00     0.040 A 
ATOM     81  F   UNL A   1      43.744  26.323  31.216  1.00  0.00    -0.206 F 
ATOM     82  C   UNL A   1      43.059  26.572  34.763  1.00  0.00     0.006 A 
ENDBRANCH  58  75
ENDBRANCH  32  33
ENDBRANCH  25  27
ENDBRANCH  24  25
ENDBRANCH  23  24
ENDBRANCH  22  23
ENDBRANCH   1  22
TORSDOF 16
ENDMDL
MODEL 3
REMARK VINA RESULT:     -10.1      3.570      7.999
REMARK SMILES Cc1nn(C(C)C)cc1-c1cnccc1C(=O)OCCOCCOC(=O)c1ccc(-c2c3nc(c(-c4c(F)cccc4F)c4ccc([nH]4)c(-c4c(F)cccc4F)c4nc(c(-c5c(F)cccc5F)c5ccc2[nH]5)C=C4)C=C3)cc1
REMARK SMILES IDX 21 1 20 2 19 3 18 4 16 5 17 6 15 7 10 8 11 9 12 10 14 11
REMARK SMILES IDX 13 12 9 13 1 14 2 15 3 16 4 17 8 18 5 19 6 20 7 21 22 22
REMARK SMILES IDX 23 23 24 24 25 25 26 26 27 27 28 28 80 29 29 30 79 31 30 32
REMARK SMILES IDX 31 33 32 34 73 35 33 36 78 37 72 38 74 39 34 40 77 41 71 42
REMARK SMILES IDX 70 43 35 45 61 46 44 47 60 48 45 49 48 50 59 51 75 52 46 53
REMARK SMILES IDX 47 54 58 56 76 57 49 58 36 59 37 60 42 61 38 62 39 63 41 64
REMARK SMILES IDX 43 65 40 66 62 67 63 68 68 69 64 70 65 71 67 72 69 73 66 74
REMARK SMILES IDX 50 75 51 76 56 77 52 78 53 79 55 80 57 81 54 82
REMARK H PARENT 74 44 48 55
REMARK Flexibility Score: inf
ROOT
ATOM      1  O   UNL A   1      33.656  29.049  27.519  1.00  0.00    -0.374 OA
ENDROOT
BRANCH   1   2
ATOM      2  C   UNL A   1      33.325  27.839  26.837  1.00  0.00     0.202 C 
BRANCH   2   3
ATOM      3  C   UNL A   1      31.863  27.400  26.884  1.00  0.00     0.261 C 
BRANCH   3   4
ATOM      4  O   UNL A   1      31.753  25.968  26.863  1.00  0.00    -0.460 OA
BRANCH   4   5
ATOM      5  C   UNL A   1      30.743  25.471  26.113  1.00  0.00     0.338 C 
ATOM      6  O   UNL A   1      29.552  25.523  26.380  1.00  0.00    -0.246 OA
BRANCH   5   7
ATOM      7  C   UNL A   1      31.219  24.994  24.794  1.00  0.00     0.071 A 
ATOM      8  C   UNL A   1      31.297  25.760  23.625  1.00  0.00     0.018 A 
ATOM      9  C   UNL A   1      31.878  25.133  22.522  1.00  0.00     0.120 A 
ATOM     10  N   UNL A   1      32.287  23.841  22.481  1.00  0.00    -0.264 NA
ATOM     11  C   UNL A   1      31.629  23.650  24.776  1.00  0.00     0.036 A 
ATOM     12  C   UNL A   1      32.135  23.120  23.606  1.00  0.00     0.112 A 
BRANCH   8  13
ATOM     13  C   UNL A   1      30.764  27.100  23.455  1.00  0.00     0.025 A 
ATOM     14  C   UNL A   1      32.910  28.597  23.201  1.00  0.00     0.069 C 
ATOM     15  C   UNL A   1      31.448  28.335  23.251  1.00  0.00     0.067 A 
ATOM     16  N   UNL A   1      30.594  29.350  23.079  1.00  0.00    -0.177 NA
ATOM     17  N   UNL A   1      29.380  28.776  23.148  1.00  0.00    -0.269 N 
ATOM     18  C   UNL A   1      29.429  27.443  23.446  1.00  0.00     0.118 A 
BRANCH  17  19
ATOM     19  C   UNL A   1      28.180  29.568  22.903  1.00  0.00     0.101 C 
ATOM     20  C   UNL A   1      28.206  30.180  21.505  1.00  0.00     0.033 C 
ATOM     21  C   UNL A   1      26.907  28.751  23.134  1.00  0.00     0.033 C 
ENDBRANCH  17  19
ENDBRANCH   8  13
ENDBRANCH   5   7
ENDBRANCH   4   5
ENDBRANCH   3   4
ENDBRANCH   2   3
ENDBRANCH   1   2
BRANCH   1  22
ATOM     22  C   UNL A   1      33.540  30.285  26.828  1.00  0.00     0.202 C 
BRANCH  22  23
ATOM     23  C   UNL A   1      33.659  31.572  27.634  1.00  0.00     0.261 C 
BRANCH  23  24
ATOM     24  O   UNL A   1      34.981  31.863  28.069  1.00  0.00    -0.460 OA
BRANCH  24  25
ATOM     25  C   UNL A   1      35.086  31.942  29.418  1.00  0.00     0.338 C 
ATOM     26  O   UNL A   1      34.416  32.624  30.171  1.00  0.00    -0.246 OA
BRANCH  25  27
ATOM     27  C   UNL A   1      36.286  31.219  29.851  1.00  0.00     0.060 A 
ATOM     28  C   UNL A   1      37.440  31.978  30.059  1.00  0.00     0.016 A 
ATOM     29  C   UNL A   1      36.321  29.820  29.780  1.00  0.00     0.016 A 
ATOM     30  C   UNL A   1      38.659  31.336  30.043  1.00  0.00     0.010 A 
ATOM     31  C   UNL A   1      37.539  29.182  29.748  1.00  0.00     0.010 A 
ATOM     32  C   UNL A   1      38.696  29.954  29.818  1.00  0.00    -0.014 A 
BRANCH  32  33
ATOM     33  C   UNL A   1      39.988  29.304  29.814  1.00  0.00     0.031 A 
ATOM     34  C   UNL A   1      40.532  29.113  31.179  1.00  0.00     0.074 A 
ATOM     35  C   UNL A   1      40.564  28.826  28.696  1.00  0.00     0.049 A 
ATOM     36  N   UNL A   1      41.595  29.646  31.678  1.00  0.00    -0.248 NA
ATOM     37  C   UNL A   1      39.707  28.385  32.159  1.00  0.00     0.031 C 
ATOM     38  C   UNL A   1      39.994  28.726  27.352  1.00  0.00     0.029 A 
ATOM     39  N   UNL A   1      41.776  28.227  28.556  1.00  0.00    -0.354 N 
ATOM     40  C   UNL A   1      41.688  29.155  32.976  1.00  0.00     0.074 A 
ATOM     41  C   UNL A   1      40.421  28.545  33.272  1.00  0.00     0.031 C 
ATOM     42  C   UNL A   1      40.762  27.897  26.605  1.00  0.00     0.029 A 
ATOM     43  C   UNL A   1      41.930  27.506  27.378  1.00  0.00     0.049 A 
ATOM     44  H   UNL A   1      42.487  28.298  29.234  1.00  0.00     0.167 HD
ATOM     45  C   UNL A   1      42.896  29.065  33.594  1.00  0.00     0.037 A 
ATOM     46  C   UNL A   1      42.907  26.599  27.121  1.00  0.00     0.037 A 
ATOM     47  C   UNL A   1      43.858  29.942  32.971  1.00  0.00     0.049 A 
ATOM     48  C   UNL A   1      44.013  26.856  28.084  1.00  0.00     0.074 A 
ATOM     49  C   UNL A   1      43.902  31.302  32.720  1.00  0.00     0.029 A 
ATOM     50  N   UNL A   1      44.806  29.382  32.147  1.00  0.00    -0.354 N 
ATOM     51  N   UNL A   1      44.786  27.905  28.036  1.00  0.00    -0.248 NA
ATOM     52  C   UNL A   1      43.948  26.186  29.377  1.00  0.00     0.031 C 
ATOM     53  C   UNL A   1      44.493  31.418  31.429  1.00  0.00     0.029 A 
ATOM     54  C   UNL A   1      44.848  30.139  31.006  1.00  0.00     0.049 A 
ATOM     55  H   UNL A   1      45.351  28.587  32.342  1.00  0.00     0.167 HD
ATOM     56  C   UNL A   1      44.937  28.288  29.360  1.00  0.00     0.074 A 
ATOM     57  C   UNL A   1      44.464  27.149  30.146  1.00  0.00     0.031 C 
ATOM     58  C   UNL A   1      45.141  29.594  29.702  1.00  0.00     0.037 A 
BRANCH  45  59
ATOM     59  C   UNL A   1      43.306  27.895  34.459  1.00  0.00     0.057 A 
ATOM     60  C   UNL A   1      43.360  26.615  33.877  1.00  0.00     0.134 A 
ATOM     61  C   UNL A   1      43.338  27.908  35.870  1.00  0.00     0.134 A 
ATOM     62  F   UNL A   1      43.344  26.462  32.545  1.00  0.00    -0.206 F 
ATOM     63  C   UNL A   1      43.328  25.441  34.640  1.00  0.00     0.040 A 
ATOM     64  C   UNL A   1      43.359  26.744  36.639  1.00  0.00     0.040 A 
ATOM     65  F   UNL A   1      43.254  29.031  36.590  1.00  0.00    -0.206 F 
ATOM     66  C   UNL A   1      43.312  25.504  36.026  1.00  0.00     0.006 A 
ENDBRANCH  45  59
BRANCH  46  67
ATOM     67  C   UNL A   1      42.841  25.348  26.322  1.00  0.00     0.057 A 
ATOM     68  C   UNL A   1      43.759  25.102  25.288  1.00  0.00     0.134 A 
ATOM     69  C   UNL A   1      42.065  24.244  26.721  1.00  0.00     0.134 A 
ATOM     70  F   UNL A   1      44.574  26.074  24.853  1.00  0.00    -0.206 F 
ATOM     71  C   UNL A   1      43.920  23.833  24.713  1.00  0.00     0.040 A 
ATOM     72  C   UNL A   1      42.209  22.975  26.148  1.00  0.00     0.040 A 
ATOM     73  F   UNL A   1      41.201  24.330  27.741  1.00  0.00    -0.206 F 
ATOM     74  C   UNL A   1      43.152  22.760  25.152  1.00  0.00     0.006 A 
ENDBRANCH  46  67
BRANCH  58  75
ATOM     75  C   UNL A   1      45.448  30.587  28.616  1.00  0.00     0.057 A 
ATOM     76  C   UNL A   1      46.733  30.824  28.101  1.00  0.00     0.134 A 
ATOM     77  C   UNL A   1      44.377  31.188  27.944  1.00  0.00     0.134 A 
ATOM     78  F   UNL A   1      47.810  30.214  28.609  1.00  0.00    -0.206 F 
ATOM     79  C   UNL A   1      46.939  31.651  26.992  1.00  0.00     0.040 A 
ATOM     80  C   UNL A   1      44.567  31.984  26.813  1.00  0.00     0.040 A 
ATOM     81  F   UNL A   1      43.116  30.964  28.345  1.00  0.00    -0.206 F 
ATOM     82  C   UNL A   1      45.853  32.225  26.337  1.00  0.00     0.006 A 
ENDBRANCH  58  75
ENDBRANCH  32  33
ENDBRANCH  25  27
ENDBRANCH  24  25
ENDBRANCH  23  24
ENDBRANCH  22  23
ENDBRANCH   1  22
TORSDOF 16
ENDMDL
