MODEL 1
REMARK VINA RESULT:     -10.9      0.000      0.000
REMARK SMILES CNC(=O)[C@H](C)S(=O)(=O)c1cc(C(=O)OCCOCCOC(=O)c2ccc(-c3c4nc(c(-c5c(F)cccc5F)c5ccc([nH]5)c(-c5c(F)cccc5F)c5nc(c(-c6c(F)cccc6F)c6ccc3[nH]6)C=C5)C=C4)cc2)c(C)cc1C
REMARK SMILES IDX 17 1 16 2 15 3 13 4 14 5 12 6 10 7 11 8 81 9 80 10 82 11
REMARK SMILES IDX 78 12 79 13 7 14 8 15 9 16 5 17 6 18 3 19 1 20 2 21 4 23
REMARK SMILES IDX 18 24 19 25 20 26 21 27 22 28 23 29 24 30 25 31 77 32 26 33
REMARK SMILES IDX 76 34 27 35 28 36 29 37 70 38 30 39 75 40 69 41 71 42 31 43
REMARK SMILES IDX 74 44 68 45 67 46 32 48 58 49 41 50 57 51 42 52 45 53 56 54
REMARK SMILES IDX 72 55 43 56 44 57 55 59 73 60 46 61 33 62 34 63 39 64 35 65
REMARK SMILES IDX 36 66 38 67 40 68 37 69 59 70 60 71 65 72 61 73 62 74 64 75
REMARK SMILES IDX 66 76 63 77 47 78 48 79 53 80 49 81 50 82 52 83 54 84 51 85
REMARK H PARENT 2 22 71 47 45 58
REMARK Flexibility Score: inf
ROOT
ATOM      1  C   UNL A   1      31.977  29.571  27.168  1.00  0.00     0.202 C 
ENDROOT
BRANCH   1   2
ATOM      2  C   UNL A   1      32.165  28.342  26.280  1.00  0.00     0.261 C 
BRANCH   2   3
ATOM      3  O   UNL A   1      33.412  28.448  25.571  1.00  0.00    -0.460 OA
BRANCH   3   4
ATOM      4  C   UNL A   1      33.334  28.227  24.242  1.00  0.00     0.338 C 
ATOM      5  O   UNL A   1      33.641  29.017  23.361  1.00  0.00    -0.246 OA
BRANCH   4   6
ATOM      6  C   UNL A   1      33.008  26.810  23.943  1.00  0.00     0.064 A 
ATOM      7  C   UNL A   1      33.813  24.515  24.218  1.00  0.00     0.071 A 
ATOM      8  C   UNL A   1      33.871  25.877  24.537  1.00  0.00     0.036 A 
ATOM      9  C   UNL A   1      32.892  24.069  23.259  1.00  0.00    -0.032 A 
ATOM     10  C   UNL A   1      31.950  24.997  22.766  1.00  0.00     0.009 A 
ATOM     11  C   UNL A   1      32.819  22.661  22.739  1.00  0.00     0.046 C 
ATOM     12  C   UNL A   1      31.964  26.360  23.124  1.00  0.00    -0.036 A 
ATOM     13  C   UNL A   1      30.894  27.251  22.564  1.00  0.00     0.045 C 
BRANCH   7  14
ATOM     14  S   UNL A   1      34.841  23.428  25.202  1.00  0.00     0.190 S 
ATOM     15  O   UNL A   1      33.991  22.690  26.119  1.00  0.00    -0.223 OA
ATOM     16  O   UNL A   1      35.872  24.280  25.770  1.00  0.00    -0.223 OA
BRANCH  14  17
ATOM     17  C   UNL A   1      35.583  22.229  24.117  1.00  0.00     0.199 C 
ATOM     18  C   UNL A   1      36.646  22.866  23.224  1.00  0.00     0.036 C 
BRANCH  17  19
ATOM     19  C   UNL A   1      36.165  21.078  24.902  1.00  0.00     0.238 C 
ATOM     20  C   UNL A   1      34.110  19.585  24.724  1.00  0.00     0.142 C 
ATOM     21  N   UNL A   1      35.465  19.927  25.099  1.00  0.00    -0.358 N 
ATOM     22  H   UNL A   1      35.958  19.217  25.570  1.00  0.00     0.163 HD
ATOM     23  O   UNL A   1      37.307  21.131  25.361  1.00  0.00    -0.274 OA
ENDBRANCH  17  19
ENDBRANCH  14  17
ENDBRANCH   7  14
ENDBRANCH   4   6
ENDBRANCH   3   4
ENDBRANCH   2   3
ENDBRANCH   1   2
BRANCH   1  24
ATOM     24  O   UNL A   1      32.389  30.812  26.591  1.00  0.00    -0.374 OA
BRANCH  24  25
ATOM     25  C   UNL A   1      31.411  31.847  26.488  1.00  0.00     0.202 C 
BRANCH  25  26
ATOM     26  C   UNL A   1      31.894  33.262  26.824  1.00  0.00     0.261 C 
BRANCH  26  27
ATOM     27  O   UNL A   1      32.263  33.393  28.209  1.00  0.00    -0.460 OA
BRANCH  27  28
ATOM     28  C   UNL A   1      33.325  34.199  28.431  1.00  0.00     0.338 C 
ATOM     29  O   UNL A   1      33.308  35.408  28.630  1.00  0.00    -0.246 OA
BRANCH  28  30
ATOM     30  C   UNL A   1      34.560  33.406  28.568  1.00  0.00     0.060 A 
ATOM     31  C   UNL A   1      34.426  32.090  29.031  1.00  0.00     0.016 A 
ATOM     32  C   UNL A   1      35.825  33.956  28.350  1.00  0.00     0.016 A 
ATOM     33  C   UNL A   1      35.556  31.349  29.362  1.00  0.00     0.010 A 
ATOM     34  C   UNL A   1      36.962  33.211  28.687  1.00  0.00     0.010 A 
ATOM     35  C   UNL A   1      36.827  31.926  29.247  1.00  0.00    -0.014 A 
BRANCH  35  36
ATOM     36  C   UNL A   1      37.974  31.259  29.907  1.00  0.00     0.031 A 
ATOM     37  C   UNL A   1      38.238  31.548  31.361  1.00  0.00     0.074 A 
ATOM     38  C   UNL A   1      38.725  30.358  29.252  1.00  0.00     0.049 A 
ATOM     39  N   UNL A   1      39.152  31.050  32.156  1.00  0.00    -0.248 NA
ATOM     40  C   UNL A   1      37.354  32.533  32.005  1.00  0.00     0.031 C 
ATOM     41  C   UNL A   1      38.551  29.967  27.855  1.00  0.00     0.029 A 
ATOM     42  N   UNL A   1      39.786  29.603  29.686  1.00  0.00    -0.354 N 
ATOM     43  C   UNL A   1      38.953  31.663  33.388  1.00  0.00     0.074 A 
ATOM     44  C   UNL A   1      37.859  32.594  33.227  1.00  0.00     0.031 C 
ATOM     45  C   UNL A   1      39.476  29.042  27.544  1.00  0.00     0.029 A 
ATOM     46  C   UNL A   1      40.314  28.789  28.715  1.00  0.00     0.049 A 
ATOM     47  H   UNL A   1      40.133  29.640  30.606  1.00  0.00     0.167 HD
ATOM     48  C   UNL A   1      39.611  31.458  34.553  1.00  0.00     0.037 A 
ATOM     49  C   UNL A   1      41.358  27.940  28.767  1.00  0.00     0.037 A 
ATOM     50  C   UNL A   1      40.696  30.527  34.718  1.00  0.00     0.049 A 
ATOM     51  C   UNL A   1      42.098  27.753  30.066  1.00  0.00     0.074 A 
ATOM     52  C   UNL A   1      41.423  30.240  35.861  1.00  0.00     0.029 A 
ATOM     53  N   UNL A   1      41.212  29.732  33.706  1.00  0.00    -0.354 N 
ATOM     54  N   UNL A   1      41.885  28.318  31.230  1.00  0.00    -0.248 NA
ATOM     55  C   UNL A   1      43.216  26.799  30.058  1.00  0.00     0.031 C 
ATOM     56  C   UNL A   1      42.403  29.299  35.531  1.00  0.00     0.029 A 
ATOM     57  C   UNL A   1      42.257  28.964  34.194  1.00  0.00     0.049 A 
ATOM     58  H   UNL A   1      40.885  29.716  32.778  1.00  0.00     0.167 HD
ATOM     59  C   UNL A   1      42.816  27.762  32.100  1.00  0.00     0.074 A 
ATOM     60  C   UNL A   1      43.590  26.811  31.329  1.00  0.00     0.031 C 
ATOM     61  C   UNL A   1      43.010  28.013  33.418  1.00  0.00     0.037 A 
BRANCH  48  62
ATOM     62  C   UNL A   1      39.184  32.279  35.734  1.00  0.00     0.057 A 
ATOM     63  C   UNL A   1      38.299  31.781  36.700  1.00  0.00     0.134 A 
ATOM     64  C   UNL A   1      39.669  33.581  35.912  1.00  0.00     0.134 A 
ATOM     65  F   UNL A   1      37.785  30.548  36.580  1.00  0.00    -0.206 F 
ATOM     66  C   UNL A   1      37.890  32.560  37.785  1.00  0.00     0.040 A 
ATOM     67  C   UNL A   1      39.287  34.359  37.005  1.00  0.00     0.040 A 
ATOM     68  F   UNL A   1      40.521  34.116  35.024  1.00  0.00    -0.206 F 
ATOM     69  C   UNL A   1      38.390  33.852  37.941  1.00  0.00     0.006 A 
ENDBRANCH  48  62
BRANCH  49  70
ATOM     70  C   UNL A   1      41.761  27.187  27.554  1.00  0.00     0.057 A 
ATOM     71  C   UNL A   1      41.182  25.952  27.241  1.00  0.00     0.134 A 
ATOM     72  C   UNL A   1      42.744  27.679  26.687  1.00  0.00     0.134 A 
ATOM     73  F   UNL A   1      40.251  25.419  28.046  1.00  0.00    -0.206 F 
ATOM     74  C   UNL A   1      41.579  25.223  26.118  1.00  0.00     0.040 A 
ATOM     75  C   UNL A   1      43.134  26.972  25.550  1.00  0.00     0.040 A 
ATOM     76  F   UNL A   1      43.333  28.858  26.933  1.00  0.00    -0.206 F 
ATOM     77  C   UNL A   1      42.555  25.737  25.266  1.00  0.00     0.006 A 
ENDBRANCH  49  70
BRANCH  61  78
ATOM     78  C   UNL A   1      44.066  27.212  34.122  1.00  0.00     0.057 A 
ATOM     79  C   UNL A   1      43.789  25.972  34.711  1.00  0.00     0.134 A 
ATOM     80  C   UNL A   1      45.385  27.679  34.188  1.00  0.00     0.134 A 
ATOM     81  F   UNL A   1      42.544  25.473  34.692  1.00  0.00    -0.206 F 
ATOM     82  C   UNL A   1      44.781  25.238  35.364  1.00  0.00     0.040 A 
ATOM     83  C   UNL A   1      46.390  26.943  34.816  1.00  0.00     0.040 A 
ATOM     84  F   UNL A   1      45.720  28.855  33.635  1.00  0.00    -0.206 F 
ATOM     85  C   UNL A   1      46.087  25.722  35.413  1.00  0.00     0.006 A 
ENDBRANCH  61  78
ENDBRANCH  35  36
ENDBRANCH  28  30
ENDBRANCH  27  28
ENDBRANCH  26  27
ENDBRANCH  25  26
ENDBRANCH  24  25
ENDBRANCH   1  24
TORSDOF 17
ENDMDL
MODEL 2
REMARK VINA RESULT:     -10.6      3.981      9.262
REMARK SMILES CNC(=O)[C@H](C)S(=O)(=O)c1cc(C(=O)OCCOCCOC(=O)c2ccc(-c3c4nc(c(-c5c(F)cccc5F)c5ccc([nH]5)c(-c5c(F)cccc5F)c5nc(c(-c6c(F)cccc6F)c6ccc3[nH]6)C=C5)C=C4)cc2)c(C)cc1C
REMARK SMILES IDX 17 1 16 2 15 3 13 4 14 5 12 6 10 7 11 8 81 9 80 10 82 11
REMARK SMILES IDX 78 12 79 13 7 14 8 15 9 16 5 17 6 18 3 19 1 20 2 21 4 23
REMARK SMILES IDX 18 24 19 25 20 26 21 27 22 28 23 29 24 30 25 31 77 32 26 33
REMARK SMILES IDX 76 34 27 35 28 36 29 37 70 38 30 39 75 40 69 41 71 42 31 43
REMARK SMILES IDX 74 44 68 45 67 46 32 48 58 49 41 50 57 51 42 52 45 53 56 54
REMARK SMILES IDX 72 55 43 56 44 57 55 59 73 60 46 61 33 62 34 63 39 64 35 65
REMARK SMILES IDX 36 66 38 67 40 68 37 69 59 70 60 71 65 72 61 73 62 74 64 75
REMARK SMILES IDX 66 76 63 77 47 78 48 79 53 80 49 81 50 82 52 83 54 84 51 85
REMARK H PARENT 2 22 71 47 45 58
REMARK Flexibility Score: inf
ROOT
ATOM      1  C   UNL A   1      35.545  20.690  25.310  1.00  0.00     0.202 C 
ENDROOT
BRANCH   1   2
ATOM      2  C   UNL A   1      35.742  22.194  25.131  1.00  0.00     0.261 C 
BRANCH   2   3
ATOM      3  O   UNL A   1      35.455  22.868  26.369  1.00  0.00    -0.460 OA
BRANCH   3   4
ATOM      4  C   UNL A   1      34.209  22.677  26.849  1.00  0.00     0.338 C 
ATOM      5  O   UNL A   1      33.918  22.105  27.890  1.00  0.00    -0.246 OA
BRANCH   4   6
ATOM      6  C   UNL A   1      33.199  23.423  26.057  1.00  0.00     0.064 A 
ATOM      7  C   UNL A   1      32.426  25.676  25.496  1.00  0.00     0.071 A 
ATOM      8  C   UNL A   1      33.383  24.814  26.044  1.00  0.00     0.036 A 
ATOM      9  C   UNL A   1      31.238  25.146  24.972  1.00  0.00    -0.032 A 
ATOM     10  C   UNL A   1      31.126  23.742  24.878  1.00  0.00     0.009 A 
ATOM     11  C   UNL A   1      30.085  25.970  24.473  1.00  0.00     0.046 C 
ATOM     12  C   UNL A   1      32.109  22.865  25.377  1.00  0.00    -0.036 A 
ATOM     13  C   UNL A   1      31.901  21.389  25.195  1.00  0.00     0.045 C 
BRANCH   7  14
ATOM     14  S   UNL A   1      32.892  27.401  25.377  1.00  0.00     0.190 S 
ATOM     15  O   UNL A   1      32.956  27.768  23.972  1.00  0.00    -0.223 OA
ATOM     16  O   UNL A   1      34.105  27.530  26.166  1.00  0.00    -0.223 OA
BRANCH  14  17
ATOM     17  C   UNL A   1      31.596  28.381  26.101  1.00  0.00     0.199 C 
ATOM     18  C   UNL A   1      31.582  28.250  27.623  1.00  0.00     0.036 C 
BRANCH  17  19
ATOM     19  C   UNL A   1      31.720  29.828  25.691  1.00  0.00     0.238 C 
ATOM     20  C   UNL A   1      30.121  29.669  23.715  1.00  0.00     0.142 C 
ATOM     21  N   UNL A   1      31.009  30.333  24.645  1.00  0.00    -0.358 N 
ATOM     22  H   UNL A   1      31.115  31.302  24.500  1.00  0.00     0.163 HD
ATOM     23  O   UNL A   1      32.444  30.609  26.311  1.00  0.00    -0.274 OA
ENDBRANCH  17  19
ENDBRANCH  14  17
ENDBRANCH   7  14
ENDBRANCH   4   6
ENDBRANCH   3   4
ENDBRANCH   2   3
ENDBRANCH   1   2
BRANCH   1  24
ATOM     24  O   UNL A   1      36.647  19.876  24.904  1.00  0.00    -0.374 OA
BRANCH  24  25
ATOM     25  C   UNL A   1      37.952  20.449  24.982  1.00  0.00     0.202 C 
BRANCH  25  26
ATOM     26  C   UNL A   1      39.090  19.482  25.325  1.00  0.00     0.261 C 
BRANCH  26  27
ATOM     27  O   UNL A   1      39.949  20.003  26.355  1.00  0.00    -0.460 OA
BRANCH  27  28
ATOM     28  C   UNL A   1      41.268  19.951  26.064  1.00  0.00     0.338 C 
ATOM     29  O   UNL A   1      41.842  19.118  25.371  1.00  0.00    -0.246 OA
BRANCH  28  30
ATOM     30  C   UNL A   1      41.959  21.151  26.570  1.00  0.00     0.060 A 
ATOM     31  C   UNL A   1      41.995  21.329  27.959  1.00  0.00     0.016 A 
ATOM     32  C   UNL A   1      42.469  22.131  25.715  1.00  0.00     0.016 A 
ATOM     33  C   UNL A   1      42.461  22.524  28.497  1.00  0.00     0.010 A 
ATOM     34  C   UNL A   1      42.934  23.335  26.257  1.00  0.00     0.010 A 
ATOM     35  C   UNL A   1      42.879  23.556  27.646  1.00  0.00    -0.014 A 
BRANCH  35  36
ATOM     36  C   UNL A   1      43.051  24.917  28.209  1.00  0.00     0.031 A 
ATOM     37  C   UNL A   1      44.438  25.379  28.570  1.00  0.00     0.074 A 
ATOM     38  C   UNL A   1      42.008  25.754  28.332  1.00  0.00     0.049 A 
ATOM     39  N   UNL A   1      44.834  26.537  29.034  1.00  0.00    -0.248 NA
ATOM     40  C   UNL A   1      45.523  24.402  28.384  1.00  0.00     0.031 C 
ATOM     41  C   UNL A   1      40.624  25.438  27.987  1.00  0.00     0.029 A 
ATOM     42  N   UNL A   1      41.958  27.052  28.777  1.00  0.00    -0.354 N 
ATOM     43  C   UNL A   1      46.210  26.426  29.197  1.00  0.00     0.074 A 
ATOM     44  C   UNL A   1      46.575  25.078  28.820  1.00  0.00     0.031 C 
ATOM     45  C   UNL A   1      39.857  26.515  28.235  1.00  0.00     0.029 A 
ATOM     46  C   UNL A   1      40.695  27.587  28.770  1.00  0.00     0.049 A 
ATOM     47  H   UNL A   1      42.754  27.550  29.073  1.00  0.00     0.167 HD
ATOM     48  C   UNL A   1      47.094  27.364  29.611  1.00  0.00     0.037 A 
ATOM     49  C   UNL A   1      40.266  28.805  29.154  1.00  0.00     0.037 A 
ATOM     50  C   UNL A   1      46.735  28.708  29.981  1.00  0.00     0.049 A 
ATOM     51  C   UNL A   1      41.263  29.822  29.643  1.00  0.00     0.074 A 
ATOM     52  C   UNL A   1      47.558  29.737  30.404  1.00  0.00     0.029 A 
ATOM     53  N   UNL A   1      45.442  29.207  29.974  1.00  0.00    -0.354 N 
ATOM     54  N   UNL A   1      42.564  29.715  29.768  1.00  0.00    -0.248 NA
ATOM     55  C   UNL A   1      40.729  31.136  30.030  1.00  0.00     0.031 C 
ATOM     56  C   UNL A   1      46.758  30.849  30.689  1.00  0.00     0.029 A 
ATOM     57  C   UNL A   1      45.442  30.526  30.398  1.00  0.00     0.049 A 
ATOM     58  H   UNL A   1      44.642  28.700  29.707  1.00  0.00     0.167 HD
ATOM     59  C   UNL A   1      43.007  30.955  30.213  1.00  0.00     0.074 A 
ATOM     60  C   UNL A   1      41.837  31.800  30.328  1.00  0.00     0.031 C 
ATOM     61  C   UNL A   1      44.271  31.358  30.496  1.00  0.00     0.037 A 
BRANCH  48  62
ATOM     62  C   UNL A   1      48.534  26.955  29.703  1.00  0.00     0.057 A 
ATOM     63  C   UNL A   1      49.079  26.426  30.881  1.00  0.00     0.134 A 
ATOM     64  C   UNL A   1      49.386  27.084  28.599  1.00  0.00     0.134 A 
ATOM     65  F   UNL A   1      48.322  26.292  31.980  1.00  0.00    -0.206 F 
ATOM     66  C   UNL A   1      50.426  26.067  30.965  1.00  0.00     0.040 A 
ATOM     67  C   UNL A   1      50.727  26.705  28.663  1.00  0.00     0.040 A 
ATOM     68  F   UNL A   1      48.926  27.581  27.440  1.00  0.00    -0.206 F 
ATOM     69  C   UNL A   1      51.252  26.202  29.850  1.00  0.00     0.006 A 
ENDBRANCH  48  62
BRANCH  49  70
ATOM     70  C   UNL A   1      38.822  29.137  29.079  1.00  0.00     0.057 A 
ATOM     71  C   UNL A   1      37.992  29.027  30.201  1.00  0.00     0.134 A 
ATOM     72  C   UNL A   1      38.236  29.560  27.881  1.00  0.00     0.134 A 
ATOM     73  F   UNL A   1      38.492  28.605  31.371  1.00  0.00    -0.206 F 
ATOM     74  C   UNL A   1      36.627  29.308  30.130  1.00  0.00     0.040 A 
ATOM     75  C   UNL A   1      36.877  29.866  27.800  1.00  0.00     0.040 A 
ATOM     76  F   UNL A   1      38.980  29.688  26.772  1.00  0.00    -0.206 F 
ATOM     77  C   UNL A   1      36.068  29.734  28.926  1.00  0.00     0.006 A 
ENDBRANCH  49  70
BRANCH  61  78
ATOM     78  C   UNL A   1      44.458  32.789  30.908  1.00  0.00     0.057 A 
ATOM     79  C   UNL A   1      44.452  33.183  32.251  1.00  0.00     0.134 A 
ATOM     80  C   UNL A   1      44.673  33.783  29.944  1.00  0.00     0.134 A 
ATOM     81  F   UNL A   1      44.241  32.282  33.223  1.00  0.00    -0.206 F 
ATOM     82  C   UNL A   1      44.625  34.518  32.621  1.00  0.00     0.040 A 
ATOM     83  C   UNL A   1      44.873  35.117  30.302  1.00  0.00     0.040 A 
ATOM     84  F   UNL A   1      44.701  33.472  28.639  1.00  0.00    -0.206 F 
ATOM     85  C   UNL A   1      44.841  35.489  31.644  1.00  0.00     0.006 A 
ENDBRANCH  61  78
ENDBRANCH  35  36
ENDBRANCH  28  30
ENDBRANCH  27  28
ENDBRANCH  26  27
ENDBRANCH  25  26
ENDBRANCH  24  25
ENDBRANCH   1  24
TORSDOF 17
ENDMDL
MODEL 3
REMARK VINA RESULT:     -10.5      2.692      8.176
REMARK SMILES CNC(=O)[C@H](C)S(=O)(=O)c1cc(C(=O)OCCOCCOC(=O)c2ccc(-c3c4nc(c(-c5c(F)cccc5F)c5ccc([nH]5)c(-c5c(F)cccc5F)c5nc(c(-c6c(F)cccc6F)c6ccc3[nH]6)C=C5)C=C4)cc2)c(C)cc1C
REMARK SMILES IDX 17 1 16 2 15 3 13 4 14 5 12 6 10 7 11 8 81 9 80 10 82 11
REMARK SMILES IDX 78 12 79 13 7 14 8 15 9 16 5 17 6 18 3 19 1 20 2 21 4 23
REMARK SMILES IDX 18 24 19 25 20 26 21 27 22 28 23 29 24 30 25 31 77 32 26 33
REMARK SMILES IDX 76 34 27 35 28 36 29 37 70 38 30 39 75 40 69 41 71 42 31 43
REMARK SMILES IDX 74 44 68 45 67 46 32 48 58 49 41 50 57 51 42 52 45 53 56 54
REMARK SMILES IDX 72 55 43 56 44 57 55 59 73 60 46 61 33 62 34 63 39 64 35 65
REMARK SMILES IDX 36 66 38 67 40 68 37 69 59 70 60 71 65 72 61 73 62 74 64 75
REMARK SMILES IDX 66 76 63 77 47 78 48 79 53 80 49 81 50 82 52 83 54 84 51 85
REMARK H PARENT 2 22 71 47 45 58
REMARK Flexibility Score: inf
ROOT
ATOM      1  C   UNL A   1      38.876  22.497  26.172  1.00  0.00     0.202 C 
ENDROOT
BRANCH   1   2
ATOM      2  C   UNL A   1      37.757  21.840  25.366  1.00  0.00     0.261 C 
BRANCH   2   3
ATOM      3  O   UNL A   1      36.741  22.814  25.070  1.00  0.00    -0.460 OA
BRANCH   3   4
ATOM      4  C   UNL A   1      36.289  22.799  23.799  1.00  0.00     0.338 C 
ATOM      5  O   UNL A   1      36.941  22.508  22.806  1.00  0.00    -0.246 OA
BRANCH   4   6
ATOM      6  C   UNL A   1      34.818  22.993  23.740  1.00  0.00     0.064 A 
ATOM      7  C   UNL A   1      33.080  24.634  23.218  1.00  0.00     0.071 A 
ATOM      8  C   UNL A   1      34.416  24.218  23.186  1.00  0.00     0.036 A 
ATOM      9  C   UNL A   1      32.119  23.825  23.842  1.00  0.00    -0.032 A 
ATOM     10  C   UNL A   1      32.517  22.544  24.280  1.00  0.00     0.009 A 
ATOM     11  C   UNL A   1      30.683  24.216  24.052  1.00  0.00     0.046 C 
ATOM     12  C   UNL A   1      33.850  22.093  24.202  1.00  0.00    -0.036 A 
ATOM     13  C   UNL A   1      34.155  20.699  24.669  1.00  0.00     0.045 C 
BRANCH   7  14
ATOM     14  S   UNL A   1      32.693  26.122  22.300  1.00  0.00     0.190 S 
ATOM     15  O   UNL A   1      31.470  25.898  21.547  1.00  0.00    -0.223 OA
ATOM     16  O   UNL A   1      33.899  26.440  21.554  1.00  0.00    -0.223 OA
BRANCH  14  17
ATOM     17  C   UNL A   1      32.344  27.421  23.463  1.00  0.00     0.199 C 
ATOM     18  C   UNL A   1      33.168  27.263  24.740  1.00  0.00     0.036 C 
BRANCH  17  19
ATOM     19  C   UNL A   1      32.575  28.778  22.843  1.00  0.00     0.238 C 
ATOM     20  C   UNL A   1      30.140  29.188  22.220  1.00  0.00     0.142 C 
ATOM     21  N   UNL A   1      31.544  29.515  22.344  1.00  0.00    -0.358 N 
ATOM     22  H   UNL A   1      31.794  30.411  22.019  1.00  0.00     0.163 HD
ATOM     23  O   UNL A   1      33.700  29.277  22.799  1.00  0.00    -0.274 OA
ENDBRANCH  17  19
ENDBRANCH  14  17
ENDBRANCH   7  14
ENDBRANCH   4   6
ENDBRANCH   3   4
ENDBRANCH   2   3
ENDBRANCH   1   2
BRANCH   1  24
ATOM     24  O   UNL A   1      39.731  21.597  26.880  1.00  0.00    -0.374 OA
BRANCH  24  25
ATOM     25  C   UNL A   1      40.912  21.150  26.213  1.00  0.00     0.202 C 
BRANCH  25  26
ATOM     26  C   UNL A   1      41.924  22.238  25.838  1.00  0.00     0.261 C 
BRANCH  26  27
ATOM     27  O   UNL A   1      41.928  23.321  26.787  1.00  0.00    -0.460 OA
BRANCH  27  28
ATOM     28  C   UNL A   1      42.200  24.532  26.252  1.00  0.00     0.338 C 
ATOM     29  O   UNL A   1      42.775  24.763  25.194  1.00  0.00    -0.246 OA
BRANCH  28  30
ATOM     30  C   UNL A   1      41.563  25.603  27.041  1.00  0.00     0.060 A 
ATOM     31  C   UNL A   1      42.152  26.873  26.986  1.00  0.00     0.016 A 
ATOM     32  C   UNL A   1      40.484  25.357  27.893  1.00  0.00     0.016 A 
ATOM     33  C   UNL A   1      41.722  27.879  27.845  1.00  0.00     0.010 A 
ATOM     34  C   UNL A   1      40.054  26.368  28.761  1.00  0.00     0.010 A 
ATOM     35  C   UNL A   1      40.709  27.614  28.777  1.00  0.00    -0.014 A 
BRANCH  35  36
ATOM     36  C   UNL A   1      40.499  28.571  29.889  1.00  0.00     0.031 A 
ATOM     37  C   UNL A   1      41.424  28.515  31.076  1.00  0.00     0.074 A 
ATOM     38  C   UNL A   1      39.551  29.521  29.819  1.00  0.00     0.049 A 
ATOM     39  N   UNL A   1      41.459  29.276  32.141  1.00  0.00    -0.248 NA
ATOM     40  C   UNL A   1      42.446  27.455  31.060  1.00  0.00     0.031 C 
ATOM     41  C   UNL A   1      38.615  29.701  28.711  1.00  0.00     0.029 A 
ATOM     42  N   UNL A   1      39.227  30.520  30.702  1.00  0.00    -0.354 N 
ATOM     43  C   UNL A   1      42.502  28.785  32.919  1.00  0.00     0.074 A 
ATOM     44  C   UNL A   1      43.048  27.641  32.225  1.00  0.00     0.031 C 
ATOM     45  C   UNL A   1      37.818  30.750  28.981  1.00  0.00     0.029 A 
ATOM     46  C   UNL A   1      38.179  31.302  30.287  1.00  0.00     0.049 A 
ATOM     47  H   UNL A   1      39.701  30.661  31.552  1.00  0.00     0.167 HD
ATOM     48  C   UNL A   1      42.971  29.254  34.099  1.00  0.00     0.037 A 
ATOM     49  C   UNL A   1      37.579  32.344  30.894  1.00  0.00     0.037 A 
ATOM     50  C   UNL A   1      42.434  30.397  34.790  1.00  0.00     0.049 A 
ATOM     51  C   UNL A   1      38.097  32.827  32.223  1.00  0.00     0.074 A 
ATOM     52  C   UNL A   1      42.847  30.956  35.987  1.00  0.00     0.029 A 
ATOM     53  N   UNL A   1      41.363  31.153  34.342  1.00  0.00    -0.354 N 
ATOM     54  N   UNL A   1      39.099  32.372  32.936  1.00  0.00    -0.248 NA
ATOM     55  C   UNL A   1      37.407  33.978  32.822  1.00  0.00     0.031 C 
ATOM     56  C   UNL A   1      42.000  32.030  36.282  1.00  0.00     0.029 A 
ATOM     57  C   UNL A   1      41.090  32.168  35.246  1.00  0.00     0.049 A 
ATOM     58  H   UNL A   1      40.867  30.994  33.507  1.00  0.00     0.167 HD
ATOM     59  C   UNL A   1      39.182  33.202  34.049  1.00  0.00     0.074 A 
ATOM     60  C   UNL A   1      38.134  34.191  33.910  1.00  0.00     0.031 C 
ATOM     61  C   UNL A   1      40.052  33.152  35.088  1.00  0.00     0.037 A 
BRANCH  48  62
ATOM     62  C   UNL A   1      44.114  28.509  34.725  1.00  0.00     0.057 A 
ATOM     63  C   UNL A   1      45.442  28.727  34.334  1.00  0.00     0.134 A 
ATOM     64  C   UNL A   1      43.884  27.568  35.736  1.00  0.00     0.134 A 
ATOM     65  F   UNL A   1      45.730  29.603  33.359  1.00  0.00    -0.206 F 
ATOM     66  C   UNL A   1      46.497  28.014  34.907  1.00  0.00     0.040 A 
ATOM     67  C   UNL A   1      44.932  26.868  36.334  1.00  0.00     0.040 A 
ATOM     68  F   UNL A   1      42.635  27.314  36.158  1.00  0.00    -0.206 F 
ATOM     69  C   UNL A   1      46.243  27.084  35.914  1.00  0.00     0.006 A 
ENDBRANCH  48  62
BRANCH  49  70
ATOM     70  C   UNL A   1      36.425  33.014  30.245  1.00  0.00     0.057 A 
ATOM     71  C   UNL A   1      36.607  33.904  29.180  1.00  0.00     0.134 A 
ATOM     72  C   UNL A   1      35.115  32.790  30.684  1.00  0.00     0.134 A 
ATOM     73  F   UNL A   1      37.841  34.176  28.731  1.00  0.00    -0.206 F 
ATOM     74  C   UNL A   1      35.529  34.562  28.586  1.00  0.00     0.040 A 
ATOM     75  C   UNL A   1      34.026  33.424  30.084  1.00  0.00     0.040 A 
ATOM     76  F   UNL A   1      34.876  31.946  31.698  1.00  0.00    -0.206 F 
ATOM     77  C   UNL A   1      34.233  34.317  29.036  1.00  0.00     0.006 A 
ENDBRANCH  49  70
BRANCH  61  78
ATOM     78  C   UNL A   1      39.938  34.227  36.130  1.00  0.00     0.057 A 
ATOM     79  C   UNL A   1      39.204  34.045  37.308  1.00  0.00     0.134 A 
ATOM     80  C   UNL A   1      40.595  35.452  35.960  1.00  0.00     0.134 A 
ATOM     81  F   UNL A   1      38.542  32.898  37.527  1.00  0.00    -0.206 F 
ATOM     82  C   UNL A   1      39.104  35.054  38.269  1.00  0.00     0.040 A 
ATOM     83  C   UNL A   1      40.524  36.459  36.924  1.00  0.00     0.040 A 
ATOM     84  F   UNL A   1      41.324  35.688  34.858  1.00  0.00    -0.206 F 
ATOM     85  C   UNL A   1      39.770  36.264  38.079  1.00  0.00     0.006 A 
ENDBRANCH  61  78
ENDBRANCH  35  36
ENDBRANCH  28  30
ENDBRANCH  27  28
ENDBRANCH  26  27
ENDBRANCH  25  26
ENDBRANCH  24  25
ENDBRANCH   1  24
TORSDOF 17
ENDMDL
