MODEL 1
REMARK VINA RESULT:     -11.4      0.000      0.000
REMARK SMILES C[C@@H](C(=O)OCCOCCOC(=O)c1ccc(-c2c3nc(c(-c4c(F)cccc4F)c4ccc([nH]4)c(-c4c(F)cccc4F)c4nc(c(-c5c(F)cccc5F)c5ccc2[nH]5)C=C4)C=C3)cc1)N1C(=O)/C(=C\c2ccc(OCc3ccccc3Cl)cc2)SC1=S
REMARK SMILES IDX 6 1 5 2 3 3 4 4 2 5 1 6 68 7 69 8 89 9 70 10 71 11 88 12
REMARK SMILES IDX 90 13 72 14 73 15 74 16 87 17 75 18 86 19 76 20 77 21 78 22
REMARK SMILES IDX 79 23 80 24 84 25 81 26 83 27 85 28 82 29 7 30 8 31 9 32
REMARK SMILES IDX 10 33 11 34 12 35 13 36 14 37 15 38 67 39 16 40 66 41 17 42
REMARK SMILES IDX 18 43 19 44 60 45 20 46 65 47 59 48 61 49 21 50 64 51 58 52
REMARK SMILES IDX 57 53 22 55 48 56 31 57 47 58 32 59 35 60 46 61 62 62 33 63
REMARK SMILES IDX 34 64 45 66 63 67 36 68 23 69 24 70 29 71 25 72 26 73 28 74
REMARK SMILES IDX 30 75 27 76 49 77 50 78 55 79 51 80 52 81 54 82 56 83 53 84
REMARK SMILES IDX 37 85 38 86 43 87 39 88 40 89 42 90 44 91 41 92
REMARK H PARENT 61 54 35 65
REMARK Flexibility Score: inf
ROOT
ATOM      1  C   UNL A   1      39.368  21.908  26.164  1.00  0.00     0.261 C 
ENDROOT
BRANCH   1   2
ATOM      2  O   UNL A   1      38.130  21.529  25.544  1.00  0.00    -0.462 OA
BRANCH   2   3
ATOM      3  C   UNL A   1      37.305  22.578  25.255  1.00  0.00     0.329 C 
ATOM      4  O   UNL A   1      37.385  23.666  25.814  1.00  0.00    -0.250 OA
BRANCH   3   5
ATOM      5  C   UNL A   1      36.231  22.231  24.196  1.00  0.00     0.199 C 
ATOM      6  C   UNL A   1      36.131  23.326  23.124  1.00  0.00     0.044 C 
BRANCH   5   7
ATOM      7  N   UNL A   1      34.958  21.903  24.914  1.00  0.00    -0.279 N 
ATOM      8  C   UNL A   1      34.008  22.849  25.277  1.00  0.00     0.266 C 
ATOM      9  C   UNL A   1      34.627  20.599  25.261  1.00  0.00     0.149 C 
ATOM     10  O   UNL A   1      34.046  24.050  25.055  1.00  0.00    -0.268 OA
ATOM     11  C   UNL A   1      32.868  22.192  25.994  1.00  0.00     0.081 C 
ATOM     12  S   UNL A   1      33.362  20.620  26.487  1.00  0.00    -0.054 SA
ATOM     13  S   UNL A   1      35.204  19.164  24.628  1.00  0.00    -0.052 S 
ATOM     14  C   UNL A   1      31.592  22.594  26.114  1.00  0.00     0.029 C 
BRANCH  14  15
ATOM     15  C   UNL A   1      30.996  23.699  25.363  1.00  0.00    -0.024 A 
ATOM     16  C   UNL A   1      30.469  24.819  26.001  1.00  0.00     0.012 A 
ATOM     17  C   UNL A   1      30.927  23.604  23.966  1.00  0.00     0.012 A 
ATOM     18  C   UNL A   1      29.980  25.882  25.237  1.00  0.00     0.047 A 
ATOM     19  C   UNL A   1      30.430  24.662  23.204  1.00  0.00     0.047 A 
ATOM     20  C   UNL A   1      30.022  25.833  23.839  1.00  0.00     0.119 A 
BRANCH  20  21
ATOM     21  O   UNL A   1      29.752  27.021  23.221  1.00  0.00    -0.489 OA
BRANCH  21  22
ATOM     22  C   UNL A   1      30.842  27.822  22.741  1.00  0.00     0.267 C 
BRANCH  22  23
ATOM     23  C   UNL A   1      31.850  28.326  23.770  1.00  0.00     0.008 A 
ATOM     24  C   UNL A   1      31.530  29.320  24.715  1.00  0.00     0.009 A 
ATOM     25  C   UNL A   1      33.127  27.742  23.868  1.00  0.00     0.047 A 
ATOM     26  C   UNL A   1      32.421  29.696  25.723  1.00  0.00     0.001 A 
ATOM     27  C   UNL A   1      34.032  28.137  24.865  1.00  0.00     0.021 A 
ATOM     28  Cl  UNL A   1      33.654  26.498  22.786  1.00  0.00    -0.084 Cl
ATOM     29  C   UNL A   1      33.675  29.105  25.799  1.00  0.00     0.002 A 
ENDBRANCH  22  23
ENDBRANCH  21  22
ENDBRANCH  20  21
ENDBRANCH  14  15
ENDBRANCH   5   7
ENDBRANCH   3   5
ENDBRANCH   2   3
ENDBRANCH   1   2
BRANCH   1  30
ATOM     30  C   UNL A   1      40.294  20.732  26.497  1.00  0.00     0.202 C 
BRANCH  30  31
ATOM     31  O   UNL A   1      41.465  20.557  25.709  1.00  0.00    -0.374 OA
BRANCH  31  32
ATOM     32  C   UNL A   1      42.714  20.986  26.252  1.00  0.00     0.202 C 
BRANCH  32  33
ATOM     33  C   UNL A   1      43.598  21.865  25.364  1.00  0.00     0.261 C 
BRANCH  33  34
ATOM     34  O   UNL A   1      44.354  22.813  26.142  1.00  0.00    -0.460 OA
BRANCH  34  35
ATOM     35  C   UNL A   1      44.379  24.066  25.640  1.00  0.00     0.338 C 
ATOM     36  O   UNL A   1      44.859  24.429  24.568  1.00  0.00    -0.246 OA
BRANCH  35  37
ATOM     37  C   UNL A   1      43.565  24.966  26.472  1.00  0.00     0.060 A 
ATOM     38  C   UNL A   1      43.947  26.313  26.530  1.00  0.00     0.016 A 
ATOM     39  C   UNL A   1      42.505  24.493  27.246  1.00  0.00     0.016 A 
ATOM     40  C   UNL A   1      43.309  27.182  27.410  1.00  0.00     0.010 A 
ATOM     41  C   UNL A   1      41.871  25.366  28.138  1.00  0.00     0.010 A 
ATOM     42  C   UNL A   1      42.298  26.701  28.253  1.00  0.00    -0.014 A 
BRANCH  42  43
ATOM     43  C   UNL A   1      41.812  27.556  29.362  1.00  0.00     0.031 A 
ATOM     44  C   UNL A   1      42.524  27.503  30.686  1.00  0.00     0.074 A 
ATOM     45  C   UNL A   1      40.781  28.399  29.181  1.00  0.00     0.049 A 
ATOM     46  N   UNL A   1      42.257  28.137  31.798  1.00  0.00    -0.248 NA
ATOM     47  C   UNL A   1      43.694  26.612  30.765  1.00  0.00     0.031 C 
ATOM     48  C   UNL A   1      40.041  28.574  27.933  1.00  0.00     0.029 A 
ATOM     49  N   UNL A   1      40.176  29.264  30.057  1.00  0.00    -0.354 N 
ATOM     50  C   UNL A   1      43.222  27.722  32.708  1.00  0.00     0.074 A 
ATOM     51  C   UNL A   1      44.059  26.758  32.029  1.00  0.00     0.031 C 
ATOM     52  C   UNL A   1      39.070  29.483  28.128  1.00  0.00     0.029 A 
ATOM     53  C   UNL A   1      39.102  29.929  29.519  1.00  0.00     0.049 A 
ATOM     54  H   UNL A   1      40.483  29.396  30.984  1.00  0.00     0.167 HD
ATOM     55  C   UNL A   1      43.400  28.119  33.990  1.00  0.00     0.037 A 
ATOM     56  C   UNL A   1      38.233  30.783  30.093  1.00  0.00     0.037 A 
ATOM     57  C   UNL A   1      42.565  29.078  34.665  1.00  0.00     0.049 A 
ATOM     58  C   UNL A   1      38.407  31.152  31.542  1.00  0.00     0.074 A 
ATOM     59  C   UNL A   1      42.668  29.551  35.962  1.00  0.00     0.029 A 
ATOM     60  N   UNL A   1      41.469  29.706  34.095  1.00  0.00    -0.354 N 
ATOM     61  N   UNL A   1      39.331  30.768  32.390  1.00  0.00    -0.248 NA
ATOM     62  C   UNL A   1      37.419  32.078  32.113  1.00  0.00     0.031 C 
ATOM     63  C   UNL A   1      41.606  30.431  36.191  1.00  0.00     0.029 A 
ATOM     64  C   UNL A   1      40.871  30.546  35.021  1.00  0.00     0.049 A 
ATOM     65  H   UNL A   1      41.159  29.574  33.170  1.00  0.00     0.167 HD
ATOM     66  C   UNL A   1      39.053  31.424  33.582  1.00  0.00     0.074 A 
ATOM     67  C   UNL A   1      37.880  32.241  33.346  1.00  0.00     0.031 C 
ATOM     68  C   UNL A   1      39.708  31.357  34.767  1.00  0.00     0.037 A 
BRANCH  55  69
ATOM     69  C   UNL A   1      44.530  27.495  34.756  1.00  0.00     0.057 A 
ATOM     70  C   UNL A   1      45.818  28.045  34.752  1.00  0.00     0.134 A 
ATOM     71  C   UNL A   1      44.320  26.345  35.528  1.00  0.00     0.134 A 
ATOM     72  F   UNL A   1      46.090  29.136  34.021  1.00  0.00    -0.206 F 
ATOM     73  C   UNL A   1      46.863  27.462  35.473  1.00  0.00     0.040 A 
ATOM     74  C   UNL A   1      45.350  25.768  36.273  1.00  0.00     0.040 A 
ATOM     75  F   UNL A   1      43.109  25.770  35.578  1.00  0.00    -0.206 F 
ATOM     76  C   UNL A   1      46.627  26.323  36.242  1.00  0.00     0.006 A 
ENDBRANCH  55  69
BRANCH  56  77
ATOM     77  C   UNL A   1      37.104  31.334  29.302  1.00  0.00     0.057 A 
ATOM     78  C   UNL A   1      37.157  32.622  28.758  1.00  0.00     0.134 A 
ATOM     79  C   UNL A   1      35.935  30.591  29.090  1.00  0.00     0.134 A 
ATOM     80  F   UNL A   1      38.239  33.391  28.948  1.00  0.00    -0.206 F 
ATOM     81  C   UNL A   1      36.082  33.160  28.047  1.00  0.00     0.040 A 
ATOM     82  C   UNL A   1      34.864  31.107  28.359  1.00  0.00     0.040 A 
ATOM     83  F   UNL A   1      35.823  29.349  29.584  1.00  0.00    -0.206 F 
ATOM     84  C   UNL A   1      34.933  32.398  27.841  1.00  0.00     0.006 A 
ENDBRANCH  56  77
BRANCH  68  85
ATOM     85  C   UNL A   1      39.197  32.216  35.887  1.00  0.00     0.057 A 
ATOM     86  C   UNL A   1      39.622  33.539  36.060  1.00  0.00     0.134 A 
ATOM     87  C   UNL A   1      38.235  31.723  36.779  1.00  0.00     0.134 A 
ATOM     88  F   UNL A   1      40.551  34.066  35.248  1.00  0.00    -0.206 F 
ATOM     89  C   UNL A   1      39.125  34.334  37.094  1.00  0.00     0.040 A 
ATOM     90  C   UNL A   1      37.711  32.518  37.799  1.00  0.00     0.040 A 
ATOM     91  F   UNL A   1      37.777  30.467  36.663  1.00  0.00    -0.206 F 
ATOM     92  C   UNL A   1      38.160  33.826  37.962  1.00  0.00     0.006 A 
ENDBRANCH  68  85
ENDBRANCH  42  43
ENDBRANCH  35  37
ENDBRANCH  34  35
ENDBRANCH  33  34
ENDBRANCH  32  33
ENDBRANCH  31  32
ENDBRANCH  30  31
ENDBRANCH   1  30
TORSDOF 19
ENDMDL
MODEL 2
REMARK VINA RESULT:     -10.4      2.408      8.624
REMARK SMILES C[C@@H](C(=O)OCCOCCOC(=O)c1ccc(-c2c3nc(c(-c4c(F)cccc4F)c4ccc([nH]4)c(-c4c(F)cccc4F)c4nc(c(-c5c(F)cccc5F)c5ccc2[nH]5)C=C4)C=C3)cc1)N1C(=O)/C(=C\c2ccc(OCc3ccccc3Cl)cc2)SC1=S
REMARK SMILES IDX 6 1 5 2 3 3 4 4 2 5 1 6 68 7 69 8 89 9 70 10 71 11 88 12
REMARK SMILES IDX 90 13 72 14 73 15 74 16 87 17 75 18 86 19 76 20 77 21 78 22
REMARK SMILES IDX 79 23 80 24 84 25 81 26 83 27 85 28 82 29 7 30 8 31 9 32
REMARK SMILES IDX 10 33 11 34 12 35 13 36 14 37 15 38 67 39 16 40 66 41 17 42
REMARK SMILES IDX 18 43 19 44 60 45 20 46 65 47 59 48 61 49 21 50 64 51 58 52
REMARK SMILES IDX 57 53 22 55 48 56 31 57 47 58 32 59 35 60 46 61 62 62 33 63
REMARK SMILES IDX 34 64 45 66 63 67 36 68 23 69 24 70 29 71 25 72 26 73 28 74
REMARK SMILES IDX 30 75 27 76 49 77 50 78 55 79 51 80 52 81 54 82 56 83 53 84
REMARK SMILES IDX 37 85 38 86 43 87 39 88 40 89 42 90 44 91 41 92
REMARK H PARENT 61 54 35 65
REMARK Flexibility Score: inf
ROOT
ATOM      1  C   UNL A   1      30.972  27.809  23.240  1.00  0.00     0.261 C 
ENDROOT
BRANCH   1   2
ATOM      2  O   UNL A   1      32.098  27.508  22.403  1.00  0.00    -0.462 OA
BRANCH   2   3
ATOM      3  C   UNL A   1      32.952  26.579  22.926  1.00  0.00     0.329 C 
ATOM      4  O   UNL A   1      33.451  26.681  24.041  1.00  0.00    -0.250 OA
BRANCH   3   5
ATOM      5  C   UNL A   1      33.267  25.423  21.946  1.00  0.00     0.199 C 
ATOM      6  C   UNL A   1      32.378  25.495  20.696  1.00  0.00     0.044 C 
BRANCH   5   7
ATOM      7  N   UNL A   1      33.215  24.137  22.710  1.00  0.00    -0.279 N 
ATOM      8  C   UNL A   1      34.327  23.349  22.978  1.00  0.00     0.266 C 
ATOM      9  C   UNL A   1      32.025  23.639  23.227  1.00  0.00     0.149 C 
ATOM     10  O   UNL A   1      35.485  23.583  22.665  1.00  0.00    -0.268 OA
ATOM     11  C   UNL A   1      33.926  22.126  23.744  1.00  0.00     0.081 C 
ATOM     12  S   UNL A   1      32.221  21.932  23.616  1.00  0.00    -0.054 SA
ATOM     13  S   UNL A   1      30.600  24.449  23.554  1.00  0.00    -0.052 S 
ATOM     14  C   UNL A   1      34.656  21.362  24.573  1.00  0.00     0.029 C 
BRANCH  14  15
ATOM     15  C   UNL A   1      35.989  21.710  25.065  1.00  0.00    -0.024 A 
ATOM     16  C   UNL A   1      36.227  22.892  25.762  1.00  0.00     0.012 A 
ATOM     17  C   UNL A   1      37.055  20.841  24.795  1.00  0.00     0.012 A 
ATOM     18  C   UNL A   1      37.501  23.142  26.279  1.00  0.00     0.047 A 
ATOM     19  C   UNL A   1      38.328  21.097  25.304  1.00  0.00     0.047 A 
ATOM     20  C   UNL A   1      38.534  22.215  26.109  1.00  0.00     0.119 A 
BRANCH  20  21
ATOM     21  O   UNL A   1      39.645  22.456  26.867  1.00  0.00    -0.489 OA
BRANCH  21  22
ATOM     22  C   UNL A   1      40.905  22.666  26.213  1.00  0.00     0.267 C 
BRANCH  22  23
ATOM     23  C   UNL A   1      41.869  21.485  26.148  1.00  0.00     0.008 A 
ATOM     24  C   UNL A   1      41.577  20.240  26.737  1.00  0.00     0.009 A 
ATOM     25  C   UNL A   1      43.063  21.574  25.407  1.00  0.00     0.047 A 
ATOM     26  C   UNL A   1      42.414  19.133  26.579  1.00  0.00     0.001 A 
ATOM     27  C   UNL A   1      43.916  20.470  25.269  1.00  0.00     0.021 A 
ATOM     28  Cl  UNL A   1      43.545  23.035  24.613  1.00  0.00    -0.084 Cl
ATOM     29  C   UNL A   1      43.585  19.246  25.844  1.00  0.00     0.002 A 
ENDBRANCH  22  23
ENDBRANCH  21  22
ENDBRANCH  20  21
ENDBRANCH  14  15
ENDBRANCH   5   7
ENDBRANCH   3   5
ENDBRANCH   2   3
ENDBRANCH   1   2
BRANCH   1  30
ATOM     30  C   UNL A   1      30.976  29.230  23.817  1.00  0.00     0.202 C 
BRANCH  30  31
ATOM     31  O   UNL A   1      31.992  29.570  24.753  1.00  0.00    -0.374 OA
BRANCH  31  32
ATOM     32  C   UNL A   1      31.661  30.474  25.807  1.00  0.00     0.202 C 
BRANCH  32  33
ATOM     33  C   UNL A   1      32.451  30.346  27.112  1.00  0.00     0.261 C 
BRANCH  33  34
ATOM     34  O   UNL A   1      33.867  30.496  26.890  1.00  0.00    -0.460 OA
BRANCH  34  35
ATOM     35  C   UNL A   1      34.450  31.485  27.600  1.00  0.00     0.338 C 
ATOM     36  O   UNL A   1      33.951  32.558  27.931  1.00  0.00    -0.246 OA
BRANCH  35  37
ATOM     37  C   UNL A   1      35.752  31.039  28.122  1.00  0.00     0.060 A 
ATOM     38  C   UNL A   1      35.838  29.728  28.608  1.00  0.00     0.016 A 
ATOM     39  C   UNL A   1      36.842  31.905  28.215  1.00  0.00     0.016 A 
ATOM     40  C   UNL A   1      36.995  29.294  29.246  1.00  0.00     0.010 A 
ATOM     41  C   UNL A   1      38.002  31.471  28.866  1.00  0.00     0.010 A 
ATOM     42  C   UNL A   1      38.067  30.180  29.420  1.00  0.00    -0.014 A 
BRANCH  42  43
ATOM     43  C   UNL A   1      39.180  29.801  30.324  1.00  0.00     0.031 A 
ATOM     44  C   UNL A   1      39.217  30.381  31.711  1.00  0.00     0.074 A 
ATOM     45  C   UNL A   1      40.118  28.921  29.932  1.00  0.00     0.049 A 
ATOM     46  N   UNL A   1      40.106  30.215  32.657  1.00  0.00    -0.248 NA
ATOM     47  C   UNL A   1      38.103  31.269  32.081  1.00  0.00     0.031 C 
ATOM     48  C   UNL A   1      40.163  28.258  28.631  1.00  0.00     0.029 A 
ATOM     49  N   UNL A   1      41.218  28.441  30.595  1.00  0.00    -0.354 N 
ATOM     50  C   UNL A   1      39.660  30.977  33.730  1.00  0.00     0.074 A 
ATOM     51  C   UNL A   1      38.442  31.631  33.309  1.00  0.00     0.031 C 
ATOM     52  C   UNL A   1      41.246  27.464  28.586  1.00  0.00     0.029 A 
ATOM     53  C   UNL A   1      41.984  27.587  29.841  1.00  0.00     0.049 A 
ATOM     54  H   UNL A   1      41.437  28.685  31.524  1.00  0.00     0.167 HD
ATOM     55  C   UNL A   1      40.212  31.109  34.959  1.00  0.00     0.037 A 
ATOM     56  C   UNL A   1      43.158  26.993  30.126  1.00  0.00     0.037 A 
ATOM     57  C   UNL A   1      41.425  30.456  35.377  1.00  0.00     0.049 A 
ATOM     58  C   UNL A   1      43.791  27.214  31.475  1.00  0.00     0.074 A 
ATOM     59  C   UNL A   1      42.060  30.521  36.605  1.00  0.00     0.029 A 
ATOM     60  N   UNL A   1      42.188  29.624  34.574  1.00  0.00    -0.354 N 
ATOM     61  N   UNL A   1      43.354  27.923  32.488  1.00  0.00    -0.248 NA
ATOM     62  C   UNL A   1      45.078  26.548  31.720  1.00  0.00     0.031 C 
ATOM     63  C   UNL A   1      43.234  29.764  36.529  1.00  0.00     0.029 A 
ATOM     64  C   UNL A   1      43.302  29.186  35.271  1.00  0.00     0.049 A 
ATOM     65  H   UNL A   1      41.972  29.381  33.645  1.00  0.00     0.167 HD
ATOM     66  C   UNL A   1      44.296  27.767  33.497  1.00  0.00     0.074 A 
ATOM     67  C   UNL A   1      45.322  26.886  32.979  1.00  0.00     0.031 C 
ATOM     68  C   UNL A   1      44.310  28.304  34.742  1.00  0.00     0.037 A 
BRANCH  55  69
ATOM     69  C   UNL A   1      39.516  32.013  35.935  1.00  0.00     0.057 A 
ATOM     70  C   UNL A   1      39.895  33.351  36.103  1.00  0.00     0.134 A 
ATOM     71  C   UNL A   1      38.436  31.547  36.695  1.00  0.00     0.134 A 
ATOM     72  F   UNL A   1      40.932  33.855  35.416  1.00  0.00    -0.206 F 
ATOM     73  C   UNL A   1      39.238  34.188  37.006  1.00  0.00     0.040 A 
ATOM     74  C   UNL A   1      37.755  32.381  37.583  1.00  0.00     0.040 A 
ATOM     75  F   UNL A   1      38.020  30.277  36.580  1.00  0.00    -0.206 F 
ATOM     76  C   UNL A   1      38.159  33.704  37.745  1.00  0.00     0.006 A 
ENDBRANCH  55  69
BRANCH  56  77
ATOM     77  C   UNL A   1      43.827  26.145  29.107  1.00  0.00     0.057 A 
ATOM     78  C   UNL A   1      43.679  24.754  29.107  1.00  0.00     0.134 A 
ATOM     79  C   UNL A   1      44.648  26.707  28.120  1.00  0.00     0.134 A 
ATOM     80  F   UNL A   1      42.926  24.155  30.040  1.00  0.00    -0.206 F 
ATOM     81  C   UNL A   1      44.337  23.950  28.175  1.00  0.00     0.040 A 
ATOM     82  C   UNL A   1      45.290  25.917  27.167  1.00  0.00     0.040 A 
ATOM     83  F   UNL A   1      44.829  28.036  28.066  1.00  0.00    -0.206 F 
ATOM     84  C   UNL A   1      45.142  24.533  27.197  1.00  0.00     0.006 A 
ENDBRANCH  56  77
BRANCH  68  85
ATOM     85  C   UNL A   1      45.451  27.926  35.643  1.00  0.00     0.057 A 
ATOM     86  C   UNL A   1      46.679  28.597  35.604  1.00  0.00     0.134 A 
ATOM     87  C   UNL A   1      45.301  26.904  36.590  1.00  0.00     0.134 A 
ATOM     88  F   UNL A   1      46.891  29.576  34.711  1.00  0.00    -0.206 F 
ATOM     89  C   UNL A   1      47.727  28.250  36.459  1.00  0.00     0.040 A 
ATOM     90  C   UNL A   1      46.331  26.567  37.468  1.00  0.00     0.040 A 
ATOM     91  F   UNL A   1      44.146  26.228  36.686  1.00  0.00    -0.206 F 
ATOM     92  C   UNL A   1      47.550  27.237  37.400  1.00  0.00     0.006 A 
ENDBRANCH  68  85
ENDBRANCH  42  43
ENDBRANCH  35  37
ENDBRANCH  34  35
ENDBRANCH  33  34
ENDBRANCH  32  33
ENDBRANCH  31  32
ENDBRANCH  30  31
ENDBRANCH   1  30
TORSDOF 19
ENDMDL
MODEL 3
REMARK VINA RESULT:     -10.4      2.803      8.742
REMARK SMILES C[C@@H](C(=O)OCCOCCOC(=O)c1ccc(-c2c3nc(c(-c4c(F)cccc4F)c4ccc([nH]4)c(-c4c(F)cccc4F)c4nc(c(-c5c(F)cccc5F)c5ccc2[nH]5)C=C4)C=C3)cc1)N1C(=O)/C(=C\c2ccc(OCc3ccccc3Cl)cc2)SC1=S
REMARK SMILES IDX 6 1 5 2 3 3 4 4 2 5 1 6 68 7 69 8 89 9 70 10 71 11 88 12
REMARK SMILES IDX 90 13 72 14 73 15 74 16 87 17 75 18 86 19 76 20 77 21 78 22
REMARK SMILES IDX 79 23 80 24 84 25 81 26 83 27 85 28 82 29 7 30 8 31 9 32
REMARK SMILES IDX 10 33 11 34 12 35 13 36 14 37 15 38 67 39 16 40 66 41 17 42
REMARK SMILES IDX 18 43 19 44 60 45 20 46 65 47 59 48 61 49 21 50 64 51 58 52
REMARK SMILES IDX 57 53 22 55 48 56 31 57 47 58 32 59 35 60 46 61 62 62 33 63
REMARK SMILES IDX 34 64 45 66 63 67 36 68 23 69 24 70 29 71 25 72 26 73 28 74
REMARK SMILES IDX 30 75 27 76 49 77 50 78 55 79 51 80 52 81 54 82 56 83 53 84
REMARK SMILES IDX 37 85 38 86 43 87 39 88 40 89 42 90 44 91 41 92
REMARK H PARENT 61 54 35 65
REMARK Flexibility Score: inf
ROOT
ATOM      1  C   UNL A   1      31.377  30.063  25.173  1.00  0.00     0.261 C 
ENDROOT
BRANCH   1   2
ATOM      2  O   UNL A   1      32.513  29.530  24.477  1.00  0.00    -0.462 OA
BRANCH   2   3
ATOM      3  C   UNL A   1      32.384  28.220  24.117  1.00  0.00     0.329 C 
ATOM      4  O   UNL A   1      32.247  27.855  22.955  1.00  0.00    -0.250 OA
BRANCH   3   5
ATOM      5  C   UNL A   1      32.371  27.255  25.328  1.00  0.00     0.199 C 
ATOM      6  C   UNL A   1      33.596  27.475  26.228  1.00  0.00     0.044 C 
BRANCH   5   7
ATOM      7  N   UNL A   1      32.182  25.862  24.812  1.00  0.00    -0.279 N 
ATOM      8  C   UNL A   1      33.206  25.086  24.284  1.00  0.00     0.266 C 
ATOM      9  C   UNL A   1      30.944  25.232  24.840  1.00  0.00     0.149 C 
ATOM     10  O   UNL A   1      34.383  25.395  24.183  1.00  0.00    -0.268 OA
ATOM     11  C   UNL A   1      32.676  23.755  23.846  1.00  0.00     0.081 C 
ATOM     12  S   UNL A   1      30.961  23.853  23.744  1.00  0.00    -0.054 SA
ATOM     13  S   UNL A   1      29.608  25.581  25.781  1.00  0.00    -0.052 S 
ATOM     14  C   UNL A   1      33.318  22.583  23.716  1.00  0.00     0.029 C 
BRANCH  14  15
ATOM     15  C   UNL A   1      34.676  22.323  24.194  1.00  0.00    -0.024 A 
ATOM     16  C   UNL A   1      34.918  21.763  25.446  1.00  0.00     0.012 A 
ATOM     17  C   UNL A   1      35.757  22.681  23.377  1.00  0.00     0.012 A 
ATOM     18  C   UNL A   1      36.230  21.462  25.825  1.00  0.00     0.047 A 
ATOM     19  C   UNL A   1      37.067  22.389  23.761  1.00  0.00     0.047 A 
ATOM     20  C   UNL A   1      37.297  21.713  24.956  1.00  0.00     0.119 A 
BRANCH  20  21
ATOM     21  O   UNL A   1      38.482  21.150  25.336  1.00  0.00    -0.489 OA
BRANCH  21  22
ATOM     22  C   UNL A   1      39.368  21.893  26.186  1.00  0.00     0.267 C 
BRANCH  22  23
ATOM     23  C   UNL A   1      40.862  21.609  26.064  1.00  0.00     0.008 A 
ATOM     24  C   UNL A   1      41.830  22.632  26.091  1.00  0.00     0.009 A 
ATOM     25  C   UNL A   1      41.338  20.284  26.009  1.00  0.00     0.047 A 
ATOM     26  C   UNL A   1      43.199  22.354  26.089  1.00  0.00     0.001 A 
ATOM     27  C   UNL A   1      42.712  20.006  25.983  1.00  0.00     0.021 A 
ATOM     28  Cl  UNL A   1      40.267  18.924  25.987  1.00  0.00    -0.084 Cl
ATOM     29  C   UNL A   1      43.642  21.040  26.035  1.00  0.00     0.002 A 
ENDBRANCH  22  23
ENDBRANCH  21  22
ENDBRANCH  20  21
ENDBRANCH  14  15
ENDBRANCH   5   7
ENDBRANCH   3   5
ENDBRANCH   2   3
ENDBRANCH   1   2
BRANCH   1  30
ATOM     30  C   UNL A   1      31.714  30.745  26.505  1.00  0.00     0.202 C 
BRANCH  30  31
ATOM     31  O   UNL A   1      31.019  31.940  26.840  1.00  0.00    -0.374 OA
BRANCH  31  32
ATOM     32  C   UNL A   1      31.683  33.187  26.631  1.00  0.00     0.202 C 
BRANCH  32  33
ATOM     33  C   UNL A   1      32.813  33.548  27.599  1.00  0.00     0.261 C 
BRANCH  33  34
ATOM     34  O   UNL A   1      32.406  34.568  28.531  1.00  0.00    -0.460 OA
BRANCH  34  35
ATOM     35  C   UNL A   1      33.417  35.159  29.202  1.00  0.00     0.338 C 
ATOM     36  O   UNL A   1      33.404  36.258  29.752  1.00  0.00    -0.246 OA
BRANCH  35  37
ATOM     37  C   UNL A   1      34.535  34.217  29.373  1.00  0.00     0.060 A 
ATOM     38  C   UNL A   1      34.281  33.039  30.089  1.00  0.00     0.016 A 
ATOM     39  C   UNL A   1      35.822  34.513  28.922  1.00  0.00     0.016 A 
ATOM     40  C   UNL A   1      35.327  32.179  30.411  1.00  0.00     0.010 A 
ATOM     41  C   UNL A   1      36.874  33.652  29.255  1.00  0.00     0.010 A 
ATOM     42  C   UNL A   1      36.637  32.506  30.035  1.00  0.00    -0.014 A 
BRANCH  42  43
ATOM     43  C   UNL A   1      37.767  31.733  30.603  1.00  0.00     0.031 A 
ATOM     44  C   UNL A   1      38.166  31.975  32.033  1.00  0.00     0.074 A 
ATOM     45  C   UNL A   1      38.400  30.799  29.873  1.00  0.00     0.049 A 
ATOM     46  N   UNL A   1      39.137  31.438  32.727  1.00  0.00    -0.248 NA
ATOM     47  C   UNL A   1      37.362  32.956  32.781  1.00  0.00     0.031 C 
ATOM     48  C   UNL A   1      38.076  30.442  28.493  1.00  0.00     0.029 A 
ATOM     49  N   UNL A   1      39.456  29.984  30.193  1.00  0.00    -0.354 N 
ATOM     50  C   UNL A   1      39.062  32.016  33.988  1.00  0.00     0.074 A 
ATOM     51  C   UNL A   1      37.973  32.967  33.955  1.00  0.00     0.031 C 
ATOM     52  C   UNL A   1      38.926  29.486  28.080  1.00  0.00     0.029 A 
ATOM     53  C   UNL A   1      39.870  29.187  29.155  1.00  0.00     0.049 A 
ATOM     54  H   UNL A   1      39.876  29.971  31.084  1.00  0.00     0.167 HD
ATOM     55  C   UNL A   1      39.825  31.766  35.078  1.00  0.00     0.037 A 
ATOM     56  C   UNL A   1      40.908  28.332  29.077  1.00  0.00     0.037 A 
ATOM     57  C   UNL A   1      40.908  30.820  35.109  1.00  0.00     0.049 A 
ATOM     58  C   UNL A   1      41.788  28.127  30.281  1.00  0.00     0.074 A 
ATOM     59  C   UNL A   1      41.736  30.490  36.168  1.00  0.00     0.029 A 
ATOM     60  N   UNL A   1      41.317  30.055  34.028  1.00  0.00    -0.354 N 
ATOM     61  N   UNL A   1      41.700  28.665  31.473  1.00  0.00    -0.248 NA
ATOM     62  C   UNL A   1      42.911  27.190  30.128  1.00  0.00     0.031 C 
ATOM     63  C   UNL A   1      42.676  29.559  35.714  1.00  0.00     0.029 A 
ATOM     64  C   UNL A   1      42.400  29.270  34.387  1.00  0.00     0.049 A 
ATOM     65  H   UNL A   1      40.900  30.068  33.136  1.00  0.00     0.167 HD
ATOM     66  C   UNL A   1      42.734  28.114  32.219  1.00  0.00     0.074 A 
ATOM     67  C   UNL A   1      43.431  27.190  31.348  1.00  0.00     0.031 C 
ATOM     68  C   UNL A   1      43.078  28.351  33.509  1.00  0.00     0.037 A 
BRANCH  55  69
ATOM     69  C   UNL A   1      39.526  32.550  36.324  1.00  0.00     0.057 A 
ATOM     70  C   UNL A   1      40.217  33.726  36.641  1.00  0.00     0.134 A 
ATOM     71  C   UNL A   1      38.516  32.136  37.201  1.00  0.00     0.134 A 
ATOM     72  F   UNL A   1      41.207  34.167  35.850  1.00  0.00    -0.206 F 
ATOM     73  C   UNL A   1      39.929  34.453  37.798  1.00  0.00     0.040 A 
ATOM     74  C   UNL A   1      38.201  32.867  38.348  1.00  0.00     0.040 A 
ATOM     75  F   UNL A   1      37.814  31.021  36.955  1.00  0.00    -0.206 F 
ATOM     76  C   UNL A   1      38.912  34.026  38.652  1.00  0.00     0.006 A 
ENDBRANCH  55  69
BRANCH  56  77
ATOM     77  C   UNL A   1      41.186  27.619  27.805  1.00  0.00     0.057 A 
ATOM     78  C   UNL A   1      42.001  28.182  26.818  1.00  0.00     0.134 A 
ATOM     79  C   UNL A   1      40.624  26.363  27.540  1.00  0.00     0.134 A 
ATOM     80  F   UNL A   1      42.548  29.392  27.003  1.00  0.00    -0.206 F 
ATOM     81  C   UNL A   1      42.234  27.532  25.604  1.00  0.00     0.040 A 
ATOM     82  C   UNL A   1      40.870  25.691  26.342  1.00  0.00     0.040 A 
ATOM     83  F   UNL A   1      39.834  25.768  28.447  1.00  0.00    -0.206 F 
ATOM     84  C   UNL A   1      41.671  26.279  25.367  1.00  0.00     0.006 A 
ENDBRANCH  56  77
BRANCH  68  85
ATOM     85  C   UNL A   1      44.234  27.573  34.069  1.00  0.00     0.057 A 
ATOM     86  C   UNL A   1      45.539  28.083  34.068  1.00  0.00     0.134 A 
ATOM     87  C   UNL A   1      44.031  26.317  34.653  1.00  0.00     0.134 A 
ATOM     88  F   UNL A   1      45.802  29.276  33.512  1.00  0.00    -0.206 F 
ATOM     89  C   UNL A   1      46.604  27.360  34.609  1.00  0.00     0.040 A 
ATOM     90  C   UNL A   1      45.083  25.597  35.220  1.00  0.00     0.040 A 
ATOM     91  F   UNL A   1      42.804  25.775  34.695  1.00  0.00    -0.206 F 
ATOM     92  C   UNL A   1      46.375  26.116  35.194  1.00  0.00     0.006 A 
ENDBRANCH  68  85
ENDBRANCH  42  43
ENDBRANCH  35  37
ENDBRANCH  34  35
ENDBRANCH  33  34
ENDBRANCH  32  33
ENDBRANCH  31  32
ENDBRANCH  30  31
ENDBRANCH   1  30
TORSDOF 19
ENDMDL
