MODEL 1
REMARK VINA RESULT:     -11.6      0.000      0.000
REMARK SMILES O=C(OCCOCCOC(=O)[C@@H]1[C@@H](C(=O)Nc2cccc([N+](=O)[O-])c2)[C@@H]2C=C[C@H]1O2)c1ccc(-c2c3nc(c(-c4c(F)cccc4F)c4ccc([nH]4)c(-c4c(F)cccc4F)c4nc(c(-c5c(F)cccc5F)c5ccc2[nH]5)C=C4)C=C3)cc1
REMARK SMILES IDX 7 1 6 2 5 3 4 4 3 5 2 6 1 7 31 8 32 9 84 10 33 11 83 12
REMARK SMILES IDX 34 13 35 14 36 15 77 16 37 17 82 18 76 19 78 20 38 21 81 22
REMARK SMILES IDX 75 23 74 24 39 26 65 27 48 28 64 29 49 30 52 31 63 32 79 33
REMARK SMILES IDX 50 34 51 35 62 37 80 38 53 39 40 40 41 41 46 42 42 43 43 44
REMARK SMILES IDX 45 45 47 46 44 47 66 48 67 49 72 50 68 51 69 52 71 53 73 54
REMARK SMILES IDX 70 55 54 56 55 57 60 58 56 59 57 60 59 61 61 62 58 63 8 64
REMARK SMILES IDX 9 65 10 66 11 67 12 68 13 69 29 70 26 71 28 72 30 73 27 74
REMARK SMILES IDX 14 75 15 76 16 77 17 79 18 80 25 81 19 82 21 83 20 84 22 85
REMARK SMILES IDX 23 86 24 87
REMARK H PARENT 78 25 52 36 16 78
REMARK Flexibility Score: inf
ROOT
ATOM      1  C   UNL A   1      32.304  28.649  26.830  1.00  0.00     0.202 C 
ENDROOT
BRANCH   1   2
ATOM      2  O   UNL A   1      31.607  29.328  25.778  1.00  0.00    -0.374 OA
BRANCH   2   3
ATOM      3  C   UNL A   1      31.580  30.754  25.860  1.00  0.00     0.202 C 
BRANCH   3   4
ATOM      4  C   UNL A   1      31.953  31.459  27.181  1.00  0.00     0.261 C 
BRANCH   4   5
ATOM      5  O   UNL A   1      32.298  32.851  26.994  1.00  0.00    -0.460 OA
BRANCH   5   6
ATOM      6  C   UNL A   1      33.022  33.565  27.906  1.00  0.00     0.338 C 
ATOM      7  O   UNL A   1      32.613  34.636  28.335  1.00  0.00    -0.246 OA
BRANCH   6   8
ATOM      8  C   UNL A   1      34.351  33.037  28.328  1.00  0.00     0.060 A 
ATOM      9  C   UNL A   1      34.495  31.705  28.674  1.00  0.00     0.016 A 
ATOM     10  C   UNL A   1      35.486  33.849  28.387  1.00  0.00     0.016 A 
ATOM     11  C   UNL A   1      35.627  31.204  29.259  1.00  0.00     0.010 A 
ATOM     12  C   UNL A   1      36.702  33.318  28.855  1.00  0.00     0.010 A 
ATOM     13  C   UNL A   1      36.758  31.996  29.326  1.00  0.00    -0.014 A 
BRANCH  13  14
ATOM     14  C   UNL A   1      37.913  31.381  30.002  1.00  0.00     0.031 A 
ATOM     15  C   UNL A   1      38.056  31.572  31.477  1.00  0.00     0.074 A 
ATOM     16  C   UNL A   1      38.641  30.460  29.338  1.00  0.00     0.049 A 
ATOM     17  N   UNL A   1      38.981  31.124  32.280  1.00  0.00    -0.248 NA
ATOM     18  C   UNL A   1      37.001  32.354  32.146  1.00  0.00     0.031 C 
ATOM     19  C   UNL A   1      38.426  30.062  27.939  1.00  0.00     0.029 A 
ATOM     20  N   UNL A   1      39.642  29.632  29.761  1.00  0.00    -0.354 N 
ATOM     21  C   UNL A   1      38.658  31.623  33.534  1.00  0.00     0.074 A 
ATOM     22  C   UNL A   1      37.436  32.381  33.396  1.00  0.00     0.031 C 
ATOM     23  C   UNL A   1      39.217  29.019  27.651  1.00  0.00     0.029 A 
ATOM     24  C   UNL A   1      40.073  28.752  28.798  1.00  0.00     0.049 A 
ATOM     25  H   UNL A   1      40.019  29.663  30.671  1.00  0.00     0.167 HD
ATOM     26  C   UNL A   1      39.349  31.476  34.686  1.00  0.00     0.037 A 
ATOM     27  C   UNL A   1      41.080  27.861  28.832  1.00  0.00     0.037 A 
ATOM     28  C   UNL A   1      40.550  30.693  34.783  1.00  0.00     0.049 A 
ATOM     29  C   UNL A   1      41.892  27.791  30.093  1.00  0.00     0.074 A 
ATOM     30  C   UNL A   1      41.410  30.544  35.853  1.00  0.00     0.029 A 
ATOM     31  N   UNL A   1      41.049  29.907  33.751  1.00  0.00    -0.354 N 
ATOM     32  N   UNL A   1      41.682  28.389  31.242  1.00  0.00    -0.248 NA
ATOM     33  C   UNL A   1      43.103  26.964  30.052  1.00  0.00     0.031 C 
ATOM     34  C   UNL A   1      42.449  29.694  35.456  1.00  0.00     0.029 A 
ATOM     35  C   UNL A   1      42.214  29.280  34.152  1.00  0.00     0.049 A 
ATOM     36  H   UNL A   1      40.633  29.810  32.864  1.00  0.00     0.167 HD
ATOM     37  C   UNL A   1      42.730  28.010  32.066  1.00  0.00     0.074 A 
ATOM     38  C   UNL A   1      43.561  27.108  31.288  1.00  0.00     0.031 C 
ATOM     39  C   UNL A   1      42.998  28.381  33.342  1.00  0.00     0.037 A 
BRANCH  26  40
ATOM     40  C   UNL A   1      38.871  32.273  35.861  1.00  0.00     0.057 A 
ATOM     41  C   UNL A   1      39.230  33.610  36.062  1.00  0.00     0.134 A 
ATOM     42  C   UNL A   1      38.101  31.653  36.853  1.00  0.00     0.134 A 
ATOM     43  F   UNL A   1      40.001  34.250  35.170  1.00  0.00    -0.206 F 
ATOM     44  C   UNL A   1      38.865  34.294  37.225  1.00  0.00     0.040 A 
ATOM     45  C   UNL A   1      37.712  32.331  38.009  1.00  0.00     0.040 A 
ATOM     46  F   UNL A   1      37.736  30.368  36.728  1.00  0.00    -0.206 F 
ATOM     47  C   UNL A   1      38.104  33.655  38.202  1.00  0.00     0.006 A 
ENDBRANCH  26  40
BRANCH  27  48
ATOM     48  C   UNL A   1      41.420  27.049  27.635  1.00  0.00     0.057 A 
ATOM     49  C   UNL A   1      40.914  25.756  27.459  1.00  0.00     0.134 A 
ATOM     50  C   UNL A   1      42.272  27.541  26.635  1.00  0.00     0.134 A 
ATOM     51  F   UNL A   1      40.112  25.213  28.386  1.00  0.00    -0.206 F 
ATOM     52  C   UNL A   1      41.249  24.982  26.344  1.00  0.00     0.040 A 
ATOM     53  C   UNL A   1      42.592  26.792  25.502  1.00  0.00     0.040 A 
ATOM     54  F   UNL A   1      42.799  28.772  26.739  1.00  0.00    -0.206 F 
ATOM     55  C   UNL A   1      42.084  25.503  25.358  1.00  0.00     0.006 A 
ENDBRANCH  27  48
BRANCH  39  56
ATOM     56  C   UNL A   1      44.216  27.781  33.967  1.00  0.00     0.057 A 
ATOM     57  C   UNL A   1      44.170  26.550  34.630  1.00  0.00     0.134 A 
ATOM     58  C   UNL A   1      45.452  28.430  33.871  1.00  0.00     0.134 A 
ATOM     59  F   UNL A   1      43.009  25.893  34.766  1.00  0.00    -0.206 F 
ATOM     60  C   UNL A   1      45.315  25.990  35.195  1.00  0.00     0.040 A 
ATOM     61  C   UNL A   1      46.607  27.869  34.412  1.00  0.00     0.040 A 
ATOM     62  F   UNL A   1      45.555  29.610  33.242  1.00  0.00    -0.206 F 
ATOM     63  C   UNL A   1      46.539  26.648  35.081  1.00  0.00     0.006 A 
ENDBRANCH  39  56
ENDBRANCH  13  14
ENDBRANCH   6   8
ENDBRANCH   5   6
ENDBRANCH   4   5
ENDBRANCH   3   4
ENDBRANCH   2   3
ENDBRANCH   1   2
BRANCH   1  64
ATOM     64  C   UNL A   1      31.865  27.192  26.931  1.00  0.00     0.261 C 
BRANCH  64  65
ATOM     65  O   UNL A   1      31.966  26.611  25.619  1.00  0.00    -0.463 OA
BRANCH  65  66
ATOM     66  C   UNL A   1      33.197  26.160  25.262  1.00  0.00     0.312 C 
ATOM     67  O   UNL A   1      33.930  25.486  25.968  1.00  0.00    -0.252 OA
BRANCH  66  68
ATOM     68  C   UNL A   1      33.545  26.646  23.880  1.00  0.00     0.147 C 
ATOM     69  C   UNL A   1      32.379  27.313  23.091  1.00  0.00     0.129 C 
ATOM     70  C   UNL A   1      33.885  25.449  22.977  1.00  0.00     0.157 C 
ATOM     71  C   UNL A   1      32.359  26.453  21.801  1.00  0.00     0.155 C 
ATOM     72  C   UNL A   1      32.748  24.472  22.831  1.00  0.00     0.004 C 
ATOM     73  O   UNL A   1      33.763  26.096  21.682  1.00  0.00    -0.365 OA
ATOM     74  C   UNL A   1      31.818  25.083  22.086  1.00  0.00     0.004 C 
BRANCH  69  75
ATOM     75  C   UNL A   1      32.627  28.751  22.673  1.00  0.00     0.231 C 
ATOM     76  O   UNL A   1      33.740  29.270  22.742  1.00  0.00    -0.274 OA
ATOM     77  N   UNL A   1      31.631  29.416  21.993  1.00  0.00    -0.325 N 
ATOM     78  H   UNL A   1      31.951  29.966  21.242  1.00  0.00     0.169 HD
BRANCH  77  79
ATOM     79  C   UNL A   1      30.236  29.448  22.186  1.00  0.00     0.048 A 
ATOM     80  C   UNL A   1      29.562  30.645  21.905  1.00  0.00     0.026 A 
ATOM     81  C   UNL A   1      29.529  28.405  22.783  1.00  0.00     0.111 A 
ATOM     82  C   UNL A   1      28.188  30.779  22.146  1.00  0.00     0.009 A 
ATOM     83  C   UNL A   1      28.156  28.562  23.054  1.00  0.00     0.271 A 
ATOM     84  C   UNL A   1      27.473  29.731  22.718  1.00  0.00     0.086 A 
BRANCH  83  85
ATOM     85  N   UNL A   1      27.435  27.500  23.751  1.00  0.00     0.062 N 
ATOM     86  O   UNL A   1      26.241  27.685  24.013  1.00  0.00    -0.258 OA
ATOM     87  O   UNL A   1      28.062  26.462  24.006  1.00  0.00    -0.258 OA
ENDBRANCH  83  85
ENDBRANCH  77  79
ENDBRANCH  69  75
ENDBRANCH  66  68
ENDBRANCH  65  66
ENDBRANCH  64  65
ENDBRANCH   1  64
TORSDOF 17
ENDMDL
MODEL 2
REMARK VINA RESULT:     -11.6      2.155      4.427
REMARK SMILES O=C(OCCOCCOC(=O)[C@@H]1[C@@H](C(=O)Nc2cccc([N+](=O)[O-])c2)[C@@H]2C=C[C@H]1O2)c1ccc(-c2c3nc(c(-c4c(F)cccc4F)c4ccc([nH]4)c(-c4c(F)cccc4F)c4nc(c(-c5c(F)cccc5F)c5ccc2[nH]5)C=C4)C=C3)cc1
REMARK SMILES IDX 7 1 6 2 5 3 4 4 3 5 2 6 1 7 31 8 32 9 84 10 33 11 83 12
REMARK SMILES IDX 34 13 35 14 36 15 77 16 37 17 82 18 76 19 78 20 38 21 81 22
REMARK SMILES IDX 75 23 74 24 39 26 65 27 48 28 64 29 49 30 52 31 63 32 79 33
REMARK SMILES IDX 50 34 51 35 62 37 80 38 53 39 40 40 41 41 46 42 42 43 43 44
REMARK SMILES IDX 45 45 47 46 44 47 66 48 67 49 72 50 68 51 69 52 71 53 73 54
REMARK SMILES IDX 70 55 54 56 55 57 60 58 56 59 57 60 59 61 61 62 58 63 8 64
REMARK SMILES IDX 9 65 10 66 11 67 12 68 13 69 29 70 26 71 28 72 30 73 27 74
REMARK SMILES IDX 14 75 15 76 16 77 17 79 18 80 25 81 19 82 21 83 20 84 22 85
REMARK SMILES IDX 23 86 24 87
REMARK H PARENT 78 25 52 36 16 78
REMARK Flexibility Score: inf
ROOT
ATOM      1  C   UNL A   1      33.585  29.172  26.353  1.00  0.00     0.202 C 
ENDROOT
BRANCH   1   2
ATOM      2  O   UNL A   1      33.092  30.487  26.070  1.00  0.00    -0.374 OA
BRANCH   2   3
ATOM      3  C   UNL A   1      31.807  30.805  26.607  1.00  0.00     0.202 C 
BRANCH   3   4
ATOM      4  C   UNL A   1      31.445  32.270  26.928  1.00  0.00     0.261 C 
BRANCH   4   5
ATOM      5  O   UNL A   1      32.594  33.149  26.901  1.00  0.00    -0.460 OA
BRANCH   5   6
ATOM      6  C   UNL A   1      33.192  33.625  28.035  1.00  0.00     0.338 C 
ATOM      7  O   UNL A   1      32.682  34.531  28.681  1.00  0.00    -0.246 OA
BRANCH   6   8
ATOM      8  C   UNL A   1      34.508  33.052  28.437  1.00  0.00     0.060 A 
ATOM      9  C   UNL A   1      34.595  31.740  28.868  1.00  0.00     0.016 A 
ATOM     10  C   UNL A   1      35.686  33.801  28.393  1.00  0.00     0.016 A 
ATOM     11  C   UNL A   1      35.724  31.216  29.439  1.00  0.00     0.010 A 
ATOM     12  C   UNL A   1      36.892  33.235  28.846  1.00  0.00     0.010 A 
ATOM     13  C   UNL A   1      36.898  31.947  29.405  1.00  0.00    -0.014 A 
BRANCH  13  14
ATOM     14  C   UNL A   1      38.047  31.314  30.074  1.00  0.00     0.031 A 
ATOM     15  C   UNL A   1      38.198  31.496  31.549  1.00  0.00     0.074 A 
ATOM     16  C   UNL A   1      38.762  30.388  29.402  1.00  0.00     0.049 A 
ATOM     17  N   UNL A   1      39.120  31.033  32.347  1.00  0.00    -0.248 NA
ATOM     18  C   UNL A   1      37.155  32.287  32.226  1.00  0.00     0.031 C 
ATOM     19  C   UNL A   1      38.538  30.000  28.002  1.00  0.00     0.029 A 
ATOM     20  N   UNL A   1      39.755  29.545  29.818  1.00  0.00    -0.354 N 
ATOM     21  C   UNL A   1      38.808  31.529  33.604  1.00  0.00     0.074 A 
ATOM     22  C   UNL A   1      37.594  32.302  33.475  1.00  0.00     0.031 C 
ATOM     23  C   UNL A   1      39.315  28.948  27.706  1.00  0.00     0.029 A 
ATOM     24  C   UNL A   1      40.171  28.665  28.849  1.00  0.00     0.049 A 
ATOM     25  H   UNL A   1      40.135  29.567  30.727  1.00  0.00     0.167 HD
ATOM     26  C   UNL A   1      39.500  31.367  34.753  1.00  0.00     0.037 A 
ATOM     27  C   UNL A   1      41.168  27.761  28.876  1.00  0.00     0.037 A 
ATOM     28  C   UNL A   1      40.692  30.569  34.842  1.00  0.00     0.049 A 
ATOM     29  C   UNL A   1      41.983  27.675  30.133  1.00  0.00     0.074 A 
ATOM     30  C   UNL A   1      41.553  30.405  35.909  1.00  0.00     0.029 A 
ATOM     31  N   UNL A   1      41.178  29.783  33.804  1.00  0.00    -0.354 N 
ATOM     32  N   UNL A   1      41.785  28.270  31.286  1.00  0.00    -0.248 NA
ATOM     33  C   UNL A   1      43.184  26.835  30.084  1.00  0.00     0.031 C 
ATOM     34  C   UNL A   1      42.581  29.544  35.503  1.00  0.00     0.029 A 
ATOM     35  C   UNL A   1      42.336  29.140  34.199  1.00  0.00     0.049 A 
ATOM     36  H   UNL A   1      40.758  29.696  32.918  1.00  0.00     0.167 HD
ATOM     37  C   UNL A   1      42.830  27.875  32.104  1.00  0.00     0.074 A 
ATOM     38  C   UNL A   1      43.647  26.966  31.319  1.00  0.00     0.031 C 
ATOM     39  C   UNL A   1      43.107  28.235  33.381  1.00  0.00     0.037 A 
BRANCH  26  40
ATOM     40  C   UNL A   1      39.036  32.164  35.934  1.00  0.00     0.057 A 
ATOM     41  C   UNL A   1      38.148  31.652  36.888  1.00  0.00     0.134 A 
ATOM     42  C   UNL A   1      39.426  33.503  36.065  1.00  0.00     0.134 A 
ATOM     43  F   UNL A   1      37.704  30.390  36.796  1.00  0.00    -0.206 F 
ATOM     44  C   UNL A   1      37.642  32.454  37.914  1.00  0.00     0.040 A 
ATOM     45  C   UNL A   1      38.943  34.308  37.098  1.00  0.00     0.040 A 
ATOM     46  F   UNL A   1      40.262  34.059  35.176  1.00  0.00    -0.206 F 
ATOM     47  C   UNL A   1      38.039  33.786  38.021  1.00  0.00     0.006 A 
ENDBRANCH  26  40
BRANCH  27  48
ATOM     48  C   UNL A   1      41.494  26.951  27.672  1.00  0.00     0.057 A 
ATOM     49  C   UNL A   1      42.353  27.431  26.678  1.00  0.00     0.134 A 
ATOM     50  C   UNL A   1      40.942  25.676  27.479  1.00  0.00     0.134 A 
ATOM     51  F   UNL A   1      42.898  28.651  26.787  1.00  0.00    -0.206 F 
ATOM     52  C   UNL A   1      42.644  26.680  25.535  1.00  0.00     0.040 A 
ATOM     53  C   UNL A   1      41.247  24.902  26.358  1.00  0.00     0.040 A 
ATOM     54  F   UNL A   1      40.105  25.154  28.389  1.00  0.00    -0.206 F 
ATOM     55  C   UNL A   1      42.096  25.408  25.377  1.00  0.00     0.006 A 
ENDBRANCH  27  48
BRANCH  39  56
ATOM     56  C   UNL A   1      44.320  27.617  33.999  1.00  0.00     0.057 A 
ATOM     57  C   UNL A   1      45.568  28.249  33.956  1.00  0.00     0.134 A 
ATOM     58  C   UNL A   1      44.225  26.394  34.673  1.00  0.00     0.134 A 
ATOM     59  F   UNL A   1      45.719  29.415  33.310  1.00  0.00    -0.206 F 
ATOM     60  C   UNL A   1      46.689  27.673  34.550  1.00  0.00     0.040 A 
ATOM     61  C   UNL A   1      45.335  25.821  35.289  1.00  0.00     0.040 A 
ATOM     62  F   UNL A   1      43.052  25.748  34.749  1.00  0.00    -0.206 F 
ATOM     63  C   UNL A   1      46.573  26.459  35.225  1.00  0.00     0.006 A 
ENDBRANCH  39  56
ENDBRANCH  13  14
ENDBRANCH   6   8
ENDBRANCH   5   6
ENDBRANCH   4   5
ENDBRANCH   3   4
ENDBRANCH   2   3
ENDBRANCH   1   2
BRANCH   1  64
ATOM     64  C   UNL A   1      33.489  28.272  25.126  1.00  0.00     0.261 C 
BRANCH  64  65
ATOM     65  O   UNL A   1      32.815  27.064  25.517  1.00  0.00    -0.463 OA
BRANCH  65  66
ATOM     66  C   UNL A   1      31.536  26.929  25.080  1.00  0.00     0.312 C 
ATOM     67  O   UNL A   1      30.805  27.850  24.749  1.00  0.00    -0.252 OA
BRANCH  66  68
ATOM     68  C   UNL A   1      31.133  25.478  25.096  1.00  0.00     0.147 C 
ATOM     69  C   UNL A   1      32.302  24.461  25.258  1.00  0.00     0.129 C 
ATOM     70  C   UNL A   1      30.562  25.080  23.726  1.00  0.00     0.157 C 
ATOM     71  C   UNL A   1      32.095  23.566  24.007  1.00  0.00     0.155 C 
ATOM     72  C   UNL A   1      31.544  25.254  22.598  1.00  0.00     0.004 C 
ATOM     73  O   UNL A   1      30.652  23.635  23.852  1.00  0.00    -0.365 OA
ATOM     74  C   UNL A   1      32.476  24.306  22.759  1.00  0.00     0.004 C 
BRANCH  69  75
ATOM     75  C   UNL A   1      32.207  23.562  26.478  1.00  0.00     0.231 C 
ATOM     76  O   UNL A   1      31.438  23.801  27.407  1.00  0.00    -0.274 OA
ATOM     77  N   UNL A   1      32.834  22.337  26.437  1.00  0.00    -0.325 N 
ATOM     78  H   UNL A   1      32.308  21.600  26.826  1.00  0.00     0.169 HD
BRANCH  77  79
ATOM     79  C   UNL A   1      34.095  21.954  25.941  1.00  0.00     0.048 A 
ATOM     80  C   UNL A   1      34.212  20.685  25.356  1.00  0.00     0.026 A 
ATOM     81  C   UNL A   1      35.250  22.707  26.143  1.00  0.00     0.111 A 
ATOM     82  C   UNL A   1      35.450  20.201  24.911  1.00  0.00     0.009 A 
ATOM     83  C   UNL A   1      36.495  22.198  25.726  1.00  0.00     0.271 A 
ATOM     84  C   UNL A   1      36.602  20.961  25.087  1.00  0.00     0.086 A 
BRANCH  83  85
ATOM     85  N   UNL A   1      37.712  22.952  26.009  1.00  0.00     0.062 N 
ATOM     86  O   UNL A   1      37.605  24.165  26.228  1.00  0.00    -0.258 OA
ATOM     87  O   UNL A   1      38.776  22.319  26.046  1.00  0.00    -0.258 OA
ENDBRANCH  83  85
ENDBRANCH  77  79
ENDBRANCH  69  75
ENDBRANCH  66  68
ENDBRANCH  65  66
ENDBRANCH  64  65
ENDBRANCH   1  64
TORSDOF 17
ENDMDL
MODEL 3
REMARK VINA RESULT:     -11.5      6.333     10.479
REMARK SMILES O=C(OCCOCCOC(=O)[C@@H]1[C@@H](C(=O)Nc2cccc([N+](=O)[O-])c2)[C@@H]2C=C[C@H]1O2)c1ccc(-c2c3nc(c(-c4c(F)cccc4F)c4ccc([nH]4)c(-c4c(F)cccc4F)c4nc(c(-c5c(F)cccc5F)c5ccc2[nH]5)C=C4)C=C3)cc1
REMARK SMILES IDX 7 1 6 2 5 3 4 4 3 5 2 6 1 7 31 8 32 9 84 10 33 11 83 12
REMARK SMILES IDX 34 13 35 14 36 15 77 16 37 17 82 18 76 19 78 20 38 21 81 22
REMARK SMILES IDX 75 23 74 24 39 26 65 27 48 28 64 29 49 30 52 31 63 32 79 33
REMARK SMILES IDX 50 34 51 35 62 37 80 38 53 39 40 40 41 41 46 42 42 43 43 44
REMARK SMILES IDX 45 45 47 46 44 47 66 48 67 49 72 50 68 51 69 52 71 53 73 54
REMARK SMILES IDX 70 55 54 56 55 57 60 58 56 59 57 60 59 61 61 62 58 63 8 64
REMARK SMILES IDX 9 65 10 66 11 67 12 68 13 69 29 70 26 71 28 72 30 73 27 74
REMARK SMILES IDX 14 75 15 76 16 77 17 79 18 80 25 81 19 82 21 83 20 84 22 85
REMARK SMILES IDX 23 86 24 87
REMARK H PARENT 78 25 52 36 16 78
REMARK Flexibility Score: inf
ROOT
ATOM      1  C   UNL A   1      39.226  21.531  26.072  1.00  0.00     0.202 C 
ENDROOT
BRANCH   1   2
ATOM      2  O   UNL A   1      40.049  20.370  25.905  1.00  0.00    -0.374 OA
BRANCH   2   3
ATOM      3  C   UNL A   1      41.275  20.358  26.639  1.00  0.00     0.202 C 
BRANCH   3   4
ATOM      4  C   UNL A   1      42.331  19.268  26.363  1.00  0.00     0.261 C 
BRANCH   4   5
ATOM      5  O   UNL A   1      42.910  19.373  25.042  1.00  0.00    -0.460 OA
BRANCH   5   6
ATOM      6  C   UNL A   1      44.216  19.717  24.829  1.00  0.00     0.338 C 
ATOM      7  O   UNL A   1      45.057  18.864  24.576  1.00  0.00    -0.246 OA
BRANCH   6   8
ATOM      8  C   UNL A   1      44.605  21.150  24.966  1.00  0.00     0.060 A 
ATOM      9  C   UNL A   1      45.425  21.553  26.006  1.00  0.00     0.016 A 
ATOM     10  C   UNL A   1      44.170  22.124  24.066  1.00  0.00     0.016 A 
ATOM     11  C   UNL A   1      45.654  22.869  26.307  1.00  0.00     0.010 A 
ATOM     12  C   UNL A   1      44.511  23.473  24.277  1.00  0.00     0.010 A 
ATOM     13  C   UNL A   1      45.227  23.847  25.426  1.00  0.00    -0.014 A 
BRANCH  13  14
ATOM     14  C   UNL A   1      45.490  25.231  25.854  1.00  0.00     0.031 A 
ATOM     15  C   UNL A   1      44.430  25.949  26.625  1.00  0.00     0.074 A 
ATOM     16  C   UNL A   1      46.750  25.707  25.778  1.00  0.00     0.049 A 
ATOM     17  N   UNL A   1      44.440  27.161  27.105  1.00  0.00    -0.248 NA
ATOM     18  C   UNL A   1      43.201  25.192  26.916  1.00  0.00     0.031 C 
ATOM     19  C   UNL A   1      47.898  24.976  25.221  1.00  0.00     0.029 A 
ATOM     20  N   UNL A   1      47.299  26.870  26.242  1.00  0.00    -0.354 N 
ATOM     21  C   UNL A   1      43.197  27.336  27.697  1.00  0.00     0.074 A 
ATOM     22  C   UNL A   1      42.468  26.097  27.546  1.00  0.00     0.031 C 
ATOM     23  C   UNL A   1      49.018  25.676  25.448  1.00  0.00     0.029 A 
ATOM     24  C   UNL A   1      48.658  26.949  26.054  1.00  0.00     0.049 A 
ATOM     25  H   UNL A   1      46.771  27.582  26.670  1.00  0.00     0.167 HD
ATOM     26  C   UNL A   1      42.711  28.450  28.287  1.00  0.00     0.037 A 
ATOM     27  C   UNL A   1      49.506  27.963  26.308  1.00  0.00     0.037 A 
ATOM     28  C   UNL A   1      43.479  29.654  28.437  1.00  0.00     0.049 A 
ATOM     29  C   UNL A   1      48.919  29.224  26.871  1.00  0.00     0.074 A 
ATOM     30  C   UNL A   1      43.082  30.888  28.913  1.00  0.00     0.029 A 
ATOM     31  N   UNL A   1      44.828  29.759  28.117  1.00  0.00    -0.354 N 
ATOM     32  N   UNL A   1      47.694  29.449  27.287  1.00  0.00    -0.248 NA
ATOM     33  C   UNL A   1      49.810  30.385  26.958  1.00  0.00     0.031 C 
ATOM     34  C   UNL A   1      44.185  31.750  28.848  1.00  0.00     0.029 A 
ATOM     35  C   UNL A   1      45.278  31.040  28.372  1.00  0.00     0.049 A 
ATOM     36  H   UNL A   1      45.382  29.027  27.761  1.00  0.00     0.167 HD
ATOM     37  C   UNL A   1      47.665  30.774  27.690  1.00  0.00     0.074 A 
ATOM     38  C   UNL A   1      49.006  31.295  27.491  1.00  0.00     0.031 C 
ATOM     39  C   UNL A   1      46.628  31.505  28.167  1.00  0.00     0.037 A 
BRANCH  26  40
ATOM     40  C   UNL A   1      41.266  28.422  28.684  1.00  0.00     0.057 A 
ATOM     41  C   UNL A   1      40.839  28.003  29.950  1.00  0.00     0.134 A 
ATOM     42  C   UNL A   1      40.281  28.745  27.743  1.00  0.00     0.134 A 
ATOM     43  F   UNL A   1      41.732  27.639  30.883  1.00  0.00    -0.206 F 
ATOM     44  C   UNL A   1      39.481  27.877  30.254  1.00  0.00     0.040 A 
ATOM     45  C   UNL A   1      38.922  28.644  28.042  1.00  0.00     0.040 A 
ATOM     46  F   UNL A   1      40.623  29.140  26.507  1.00  0.00    -0.206 F 
ATOM     47  C   UNL A   1      38.518  28.198  29.299  1.00  0.00     0.006 A 
ENDBRANCH  26  40
BRANCH  27  48
ATOM     48  C   UNL A   1      50.946  27.857  25.956  1.00  0.00     0.057 A 
ATOM     49  C   UNL A   1      51.398  28.065  24.648  1.00  0.00     0.134 A 
ATOM     50  C   UNL A   1      51.912  27.533  26.921  1.00  0.00     0.134 A 
ATOM     51  F   UNL A   1      50.527  28.355  23.672  1.00  0.00    -0.206 F 
ATOM     52  C   UNL A   1      52.750  27.945  24.311  1.00  0.00     0.040 A 
ATOM     53  C   UNL A   1      53.268  27.439  26.606  1.00  0.00     0.040 A 
ATOM     54  F   UNL A   1      51.551  27.315  28.195  1.00  0.00    -0.206 F 
ATOM     55  C   UNL A   1      53.689  27.639  25.294  1.00  0.00     0.006 A 
ENDBRANCH  27  48
BRANCH  39  56
ATOM     56  C   UNL A   1      46.926  32.925  28.528  1.00  0.00     0.057 A 
ATOM     57  C   UNL A   1      46.777  33.965  27.603  1.00  0.00     0.134 A 
ATOM     58  C   UNL A   1      47.333  33.254  29.826  1.00  0.00     0.134 A 
ATOM     59  F   UNL A   1      46.406  33.704  26.341  1.00  0.00    -0.206 F 
ATOM     60  C   UNL A   1      47.041  35.287  27.955  1.00  0.00     0.040 A 
ATOM     61  C   UNL A   1      47.578  34.575  30.194  1.00  0.00     0.040 A 
ATOM     62  F   UNL A   1      47.486  32.298  30.754  1.00  0.00    -0.206 F 
ATOM     63  C   UNL A   1      47.436  35.596  29.256  1.00  0.00     0.006 A 
ENDBRANCH  39  56
ENDBRANCH  13  14
ENDBRANCH   6   8
ENDBRANCH   5   6
ENDBRANCH   4   5
ENDBRANCH   3   4
ENDBRANCH   2   3
ENDBRANCH   1   2
BRANCH   1  64
ATOM     64  C   UNL A   1      38.010  21.480  25.153  1.00  0.00     0.261 C 
BRANCH  64  65
ATOM     65  O   UNL A   1      36.848  21.779  25.945  1.00  0.00    -0.463 OA
BRANCH  65  66
ATOM     66  C   UNL A   1      36.452  23.078  25.951  1.00  0.00     0.312 C 
ATOM     67  O   UNL A   1      37.200  24.041  26.030  1.00  0.00    -0.252 OA
BRANCH  66  68
ATOM     68  C   UNL A   1      34.950  23.162  25.885  1.00  0.00     0.147 C 
ATOM     69  C   UNL A   1      34.235  21.909  25.297  1.00  0.00     0.129 C 
ATOM     70  C   UNL A   1      34.531  24.255  24.888  1.00  0.00     0.157 C 
ATOM     71  C   UNL A   1      33.415  22.546  24.144  1.00  0.00     0.155 C 
ATOM     72  C   UNL A   1      35.024  24.003  23.487  1.00  0.00     0.004 C 
ATOM     73  O   UNL A   1      33.146  23.866  24.690  1.00  0.00    -0.365 OA
ATOM     74  C   UNL A   1      34.318  22.964  23.021  1.00  0.00     0.004 C 
BRANCH  69  75
ATOM     75  C   UNL A   1      33.248  21.234  26.233  1.00  0.00     0.231 C 
ATOM     76  O   UNL A   1      32.921  21.732  27.308  1.00  0.00    -0.274 OA
ATOM     77  N   UNL A   1      32.539  20.151  25.764  1.00  0.00    -0.325 N 
ATOM     78  H   UNL A   1      31.590  20.144  26.026  1.00  0.00     0.169 HD
BRANCH  77  79
ATOM     79  C   UNL A   1      32.934  19.050  24.979  1.00  0.00     0.048 A 
ATOM     80  C   UNL A   1      32.483  18.995  23.653  1.00  0.00     0.026 A 
ATOM     81  C   UNL A   1      33.615  17.951  25.502  1.00  0.00     0.111 A 
ATOM     82  C   UNL A   1      32.767  17.893  22.834  1.00  0.00     0.009 A 
ATOM     83  C   UNL A   1      33.865  16.834  24.682  1.00  0.00     0.271 A 
ATOM     84  C   UNL A   1      33.469  16.805  23.344  1.00  0.00     0.086 A 
BRANCH  83  85
ATOM     85  N   UNL A   1      34.508  15.654  25.252  1.00  0.00     0.062 N 
ATOM     86  O   UNL A   1      33.852  14.606  25.308  1.00  0.00    -0.258 OA
ATOM     87  O   UNL A   1      35.686  15.770  25.615  1.00  0.00    -0.258 OA
ENDBRANCH  83  85
ENDBRANCH  77  79
ENDBRANCH  69  75
ENDBRANCH  66  68
ENDBRANCH  65  66
ENDBRANCH  64  65
ENDBRANCH   1  64
TORSDOF 17
ENDMDL
