MODEL 1
REMARK VINA RESULT:     -10.5      0.000      0.000
REMARK SMILES COc1cc(OC)c([C@@H]2C[C@H]2C(=O)OCCOCCOC(=O)c2ccc(-c3c4nc(c(-c5c(F)cccc5F)c5ccc([nH]5)c(-c5c(F)cccc5F)c5nc(c(-c6c(F)cccc6F)c6ccc3[nH]6)C=C5)C=C4)cc2)c(OC)c1
REMARK SMILES IDX 17 1 16 2 15 3 14 4 12 5 13 6 11 7 9 8 10 9 8 10 3 11 4 12
REMARK SMILES IDX 80 13 5 14 77 15 2 16 1 17 6 18 7 19 78 20 79 21 18 22 19 23
REMARK SMILES IDX 20 24 21 25 22 26 23 27 24 28 76 29 25 30 75 31 26 32 27 33
REMARK SMILES IDX 28 34 69 35 29 36 74 37 68 38 70 39 30 40 73 41 67 42 66 43
REMARK SMILES IDX 31 45 57 46 40 47 56 48 41 49 44 50 55 51 71 52 42 53 43 54
REMARK SMILES IDX 54 56 72 57 45 58 32 59 33 60 38 61 34 62 35 63 37 64 39 65
REMARK SMILES IDX 36 66 58 67 59 68 64 69 60 70 61 71 63 72 65 73 62 74 46 75
REMARK SMILES IDX 47 76 52 77 48 78 49 79 51 80 53 81 50 82
REMARK H PARENT 70 44 44 55
REMARK Flexibility Score: inf
ROOT
ATOM      1  O   UNL A   1      35.775  21.072  24.717  1.00  0.00    -0.374 OA
ENDROOT
BRANCH   1   2
ATOM      2  C   UNL A   1      34.375  21.228  24.948  1.00  0.00     0.202 C 
BRANCH   2   3
ATOM      3  C   UNL A   1      33.868  22.662  25.133  1.00  0.00     0.261 C 
BRANCH   3   4
ATOM      4  O   UNL A   1      33.518  22.912  26.500  1.00  0.00    -0.463 OA
BRANCH   4   5
ATOM      5  C   UNL A   1      32.521  23.817  26.689  1.00  0.00     0.309 C 
ATOM      6  O   UNL A   1      31.636  23.742  27.528  1.00  0.00    -0.252 OA
BRANCH   5   7
ATOM      7  C   UNL A   1      32.603  24.986  25.777  1.00  0.00     0.107 C 
ATOM      8  C   UNL A   1      31.762  26.247  25.955  1.00  0.00     0.042 C 
ATOM      9  C   UNL A   1      33.256  26.253  26.234  1.00  0.00     0.025 C 
BRANCH   8  10
ATOM     10  C   UNL A   1      31.236  27.108  24.798  1.00  0.00     0.040 A 
ATOM     11  C   UNL A   1      30.286  28.784  22.678  1.00  0.00     0.126 A 
ATOM     12  C   UNL A   1      31.143  29.286  23.649  1.00  0.00     0.093 A 
ATOM     13  C   UNL A   1      29.872  27.458  22.769  1.00  0.00     0.093 A 
ATOM     14  C   UNL A   1      31.601  28.471  24.692  1.00  0.00     0.129 A 
ATOM     15  C   UNL A   1      30.325  26.632  23.817  1.00  0.00     0.129 A 
BRANCH  11  16
ATOM     16  O   UNL A   1      29.918  29.676  21.711  1.00  0.00    -0.496 OA
ATOM     17  C   UNL A   1      29.155  30.803  22.129  1.00  0.00     0.278 C 
ENDBRANCH  11  16
BRANCH  14  18
ATOM     18  O   UNL A   1      32.276  29.146  25.684  1.00  0.00    -0.496 OA
ATOM     19  C   UNL A   1      31.787  30.457  25.936  1.00  0.00     0.278 C 
ENDBRANCH  14  18
BRANCH  15  20
ATOM     20  O   UNL A   1      29.863  25.349  23.992  1.00  0.00    -0.496 OA
ATOM     21  C   UNL A   1      30.361  24.337  23.125  1.00  0.00     0.278 C 
ENDBRANCH  15  20
ENDBRANCH   8  10
ENDBRANCH   5   7
ENDBRANCH   4   5
ENDBRANCH   3   4
ENDBRANCH   2   3
ENDBRANCH   1   2
BRANCH   1  22
ATOM     22  C   UNL A   1      36.343  19.779  24.942  1.00  0.00     0.202 C 
BRANCH  22  23
ATOM     23  C   UNL A   1      37.874  19.692  24.989  1.00  0.00     0.261 C 
BRANCH  23  24
ATOM     24  O   UNL A   1      38.498  20.918  25.415  1.00  0.00    -0.460 OA
BRANCH  24  25
ATOM     25  C   UNL A   1      39.630  20.750  26.140  1.00  0.00     0.338 C 
ATOM     26  O   UNL A   1      40.374  19.782  26.138  1.00  0.00    -0.246 OA
BRANCH  25  27
ATOM     27  C   UNL A   1      39.978  21.986  26.868  1.00  0.00     0.060 A 
ATOM     28  C   UNL A   1      39.258  23.144  26.542  1.00  0.00     0.016 A 
ATOM     29  C   UNL A   1      41.057  22.050  27.752  1.00  0.00     0.016 A 
ATOM     30  C   UNL A   1      39.660  24.381  27.040  1.00  0.00     0.010 A 
ATOM     31  C   UNL A   1      41.464  23.296  28.247  1.00  0.00     0.010 A 
ATOM     32  C   UNL A   1      40.797  24.471  27.855  1.00  0.00    -0.014 A 
BRANCH  32  33
ATOM     33  C   UNL A   1      41.378  25.810  28.126  1.00  0.00     0.031 A 
ATOM     34  C   UNL A   1      42.760  26.120  27.611  1.00  0.00     0.074 A 
ATOM     35  C   UNL A   1      40.670  26.760  28.761  1.00  0.00     0.049 A 
ATOM     36  N   UNL A   1      43.449  27.230  27.696  1.00  0.00    -0.248 NA
ATOM     37  C   UNL A   1      43.456  25.033  26.904  1.00  0.00     0.031 C 
ATOM     38  C   UNL A   1      39.314  26.599  29.279  1.00  0.00     0.029 A 
ATOM     39  N   UNL A   1      40.999  28.056  29.070  1.00  0.00    -0.354 N 
ATOM     40  C   UNL A   1      44.656  26.974  27.056  1.00  0.00     0.074 A 
ATOM     41  C   UNL A   1      44.620  25.597  26.617  1.00  0.00     0.031 C 
ATOM     42  C   UNL A   1      38.925  27.754  29.849  1.00  0.00     0.029 A 
ATOM     43  C   UNL A   1      40.011  28.728  29.747  1.00  0.00     0.049 A 
ATOM     44  H   UNL A   1      41.861  28.466  28.830  1.00  0.00     0.167 HD
ATOM     45  C   UNL A   1      45.698  27.814  26.842  1.00  0.00     0.037 A 
ATOM     46  C   UNL A   1      39.989  29.985  30.231  1.00  0.00     0.037 A 
ATOM     47  C   UNL A   1      45.738  29.186  27.271  1.00  0.00     0.049 A 
ATOM     48  C   UNL A   1      41.174  30.888  30.011  1.00  0.00     0.074 A 
ATOM     49  C   UNL A   1      46.748  30.117  27.095  1.00  0.00     0.029 A 
ATOM     50  N   UNL A   1      44.721  29.825  27.961  1.00  0.00    -0.354 N 
ATOM     51  N   UNL A   1      42.298  30.642  29.382  1.00  0.00    -0.248 NA
ATOM     52  C   UNL A   1      41.079  32.251  30.556  1.00  0.00     0.031 C 
ATOM     53  C   UNL A   1      46.354  31.311  27.710  1.00  0.00     0.029 A 
ATOM     54  C   UNL A   1      45.082  31.135  28.229  1.00  0.00     0.049 A 
ATOM     55  H   UNL A   1      43.867  29.410  28.223  1.00  0.00     0.167 HD
ATOM     56  C   UNL A   1      43.026  31.826  29.425  1.00  0.00     0.074 A 
ATOM     57  C   UNL A   1      42.214  32.791  30.135  1.00  0.00     0.031 C 
ATOM     58  C   UNL A   1      44.255  32.090  28.919  1.00  0.00     0.037 A 
BRANCH  45  59
ATOM     59  C   UNL A   1      46.890  27.260  26.121  1.00  0.00     0.057 A 
ATOM     60  C   UNL A   1      47.926  26.608  26.801  1.00  0.00     0.134 A 
ATOM     61  C   UNL A   1      46.988  27.353  24.727  1.00  0.00     0.134 A 
ATOM     62  F   UNL A   1      47.899  26.500  28.138  1.00  0.00    -0.206 F 
ATOM     63  C   UNL A   1      49.027  26.084  26.122  1.00  0.00     0.040 A 
ATOM     64  C   UNL A   1      48.073  26.814  24.034  1.00  0.00     0.040 A 
ATOM     65  F   UNL A   1      46.027  27.963  24.016  1.00  0.00    -0.206 F 
ATOM     66  C   UNL A   1      49.099  26.180  24.734  1.00  0.00     0.006 A 
ENDBRANCH  45  59
BRANCH  46  67
ATOM     67  C   UNL A   1      38.801  30.476  30.973  1.00  0.00     0.057 A 
ATOM     68  C   UNL A   1      38.665  30.268  32.351  1.00  0.00     0.134 A 
ATOM     69  C   UNL A   1      37.756  31.134  30.313  1.00  0.00     0.134 A 
ATOM     70  F   UNL A   1      39.622  29.621  33.032  1.00  0.00    -0.206 F 
ATOM     71  C   UNL A   1      37.525  30.677  33.042  1.00  0.00     0.040 A 
ATOM     72  C   UNL A   1      36.620  31.570  30.997  1.00  0.00     0.040 A 
ATOM     73  F   UNL A   1      37.826  31.363  28.994  1.00  0.00    -0.206 F 
ATOM     74  C   UNL A   1      36.499  31.335  32.365  1.00  0.00     0.006 A 
ENDBRANCH  46  67
BRANCH  58  75
ATOM     75  C   UNL A   1      44.773  33.491  29.067  1.00  0.00     0.057 A 
ATOM     76  C   UNL A   1      45.551  33.882  30.163  1.00  0.00     0.134 A 
ATOM     77  C   UNL A   1      44.514  34.450  28.080  1.00  0.00     0.134 A 
ATOM     78  F   UNL A   1      45.826  33.014  31.148  1.00  0.00    -0.206 F 
ATOM     79  C   UNL A   1      46.031  35.188  30.285  1.00  0.00     0.040 A 
ATOM     80  C   UNL A   1      45.008  35.751  28.179  1.00  0.00     0.040 A 
ATOM     81  F   UNL A   1      43.783  34.136  26.999  1.00  0.00    -0.206 F 
ATOM     82  C   UNL A   1      45.764  36.125  29.288  1.00  0.00     0.006 A 
ENDBRANCH  58  75
ENDBRANCH  32  33
ENDBRANCH  25  27
ENDBRANCH  24  25
ENDBRANCH  23  24
ENDBRANCH  22  23
ENDBRANCH   1  22
TORSDOF 18
ENDMDL
MODEL 2
REMARK VINA RESULT:     -10.4      5.485     10.539
REMARK SMILES COc1cc(OC)c([C@@H]2C[C@H]2C(=O)OCCOCCOC(=O)c2ccc(-c3c4nc(c(-c5c(F)cccc5F)c5ccc([nH]5)c(-c5c(F)cccc5F)c5nc(c(-c6c(F)cccc6F)c6ccc3[nH]6)C=C5)C=C4)cc2)c(OC)c1
REMARK SMILES IDX 17 1 16 2 15 3 14 4 12 5 13 6 11 7 9 8 10 9 8 10 3 11 4 12
REMARK SMILES IDX 80 13 5 14 77 15 2 16 1 17 6 18 7 19 78 20 79 21 18 22 19 23
REMARK SMILES IDX 20 24 21 25 22 26 23 27 24 28 76 29 25 30 75 31 26 32 27 33
REMARK SMILES IDX 28 34 69 35 29 36 74 37 68 38 70 39 30 40 73 41 67 42 66 43
REMARK SMILES IDX 31 45 57 46 40 47 56 48 41 49 44 50 55 51 71 52 42 53 43 54
REMARK SMILES IDX 54 56 72 57 45 58 32 59 33 60 38 61 34 62 35 63 37 64 39 65
REMARK SMILES IDX 36 66 58 67 59 68 64 69 60 70 61 71 63 72 65 73 62 74 46 75
REMARK SMILES IDX 47 76 52 77 48 78 49 79 51 80 53 81 50 82
REMARK H PARENT 70 44 44 55
REMARK Flexibility Score: inf
ROOT
ATOM      1  O   UNL A   1      41.663  19.899  25.708  1.00  0.00    -0.374 OA
ENDROOT
BRANCH   1   2
ATOM      2  C   UNL A   1      42.773  19.187  26.254  1.00  0.00     0.202 C 
BRANCH   2   3
ATOM      3  C   UNL A   1      43.855  18.744  25.264  1.00  0.00     0.261 C 
BRANCH   3   4
ATOM      4  O   UNL A   1      44.288  19.840  24.448  1.00  0.00    -0.463 OA
BRANCH   4   5
ATOM      5  C   UNL A   1      45.286  20.599  24.974  1.00  0.00     0.309 C 
ATOM      6  O   UNL A   1      46.363  20.185  25.376  1.00  0.00    -0.252 OA
BRANCH   5   7
ATOM      7  C   UNL A   1      44.974  22.051  25.000  1.00  0.00     0.107 C 
ATOM      8  C   UNL A   1      46.020  23.126  25.277  1.00  0.00     0.042 C 
ATOM      9  C   UNL A   1      45.437  22.939  23.887  1.00  0.00     0.025 C 
BRANCH   8  10
ATOM     10  C   UNL A   1      45.734  24.443  26.013  1.00  0.00     0.040 A 
ATOM     11  C   UNL A   1      45.245  26.940  27.327  1.00  0.00     0.126 A 
ATOM     12  C   UNL A   1      45.798  26.906  26.053  1.00  0.00     0.093 A 
ATOM     13  C   UNL A   1      44.959  25.739  27.967  1.00  0.00     0.093 A 
ATOM     14  C   UNL A   1      46.048  25.685  25.413  1.00  0.00     0.129 A 
ATOM     15  C   UNL A   1      45.210  24.506  27.332  1.00  0.00     0.129 A 
BRANCH  11  16
ATOM     16  O   UNL A   1      45.044  28.192  27.838  1.00  0.00    -0.496 OA
ATOM     17  C   UNL A   1      45.108  29.281  26.923  1.00  0.00     0.278 C 
ENDBRANCH  11  16
BRANCH  14  18
ATOM     18  O   UNL A   1      46.776  25.794  24.250  1.00  0.00    -0.496 OA
ATOM     19  C   UNL A   1      48.141  26.142  24.445  1.00  0.00     0.278 C 
ENDBRANCH  14  18
BRANCH  15  20
ATOM     20  O   UNL A   1      45.030  23.302  27.970  1.00  0.00    -0.496 OA
ATOM     21  C   UNL A   1      44.132  23.259  29.073  1.00  0.00     0.278 C 
ENDBRANCH  15  20
ENDBRANCH   8  10
ENDBRANCH   5   7
ENDBRANCH   4   5
ENDBRANCH   3   4
ENDBRANCH   2   3
ENDBRANCH   1   2
BRANCH   1  22
ATOM     22  C   UNL A   1      41.171  21.022  26.442  1.00  0.00     0.202 C 
BRANCH  22  23
ATOM     23  C   UNL A   1      41.897  22.359  26.234  1.00  0.00     0.261 C 
BRANCH  23  24
ATOM     24  O   UNL A   1      41.063  23.502  26.503  1.00  0.00    -0.460 OA
BRANCH  24  25
ATOM     25  C   UNL A   1      41.635  24.695  26.212  1.00  0.00     0.338 C 
ATOM     26  O   UNL A   1      42.388  24.949  25.285  1.00  0.00    -0.246 OA
BRANCH  25  27
ATOM     27  C   UNL A   1      41.114  25.758  27.094  1.00  0.00     0.060 A 
ATOM     28  C   UNL A   1      41.661  27.039  26.942  1.00  0.00     0.016 A 
ATOM     29  C   UNL A   1      40.210  25.492  28.124  1.00  0.00     0.016 A 
ATOM     30  C   UNL A   1      41.364  28.039  27.866  1.00  0.00     0.010 A 
ATOM     31  C   UNL A   1      39.917  26.497  29.056  1.00  0.00     0.010 A 
ATOM     32  C   UNL A   1      40.530  27.759  28.956  1.00  0.00    -0.014 A 
BRANCH  32  33
ATOM     33  C   UNL A   1      40.466  28.732  30.076  1.00  0.00     0.031 A 
ATOM     34  C   UNL A   1      39.410  29.806  30.046  1.00  0.00     0.074 A 
ATOM     35  C   UNL A   1      41.285  28.627  31.137  1.00  0.00     0.049 A 
ATOM     36  N   UNL A   1      39.144  30.736  30.929  1.00  0.00    -0.248 NA
ATOM     37  C   UNL A   1      38.538  29.835  28.862  1.00  0.00     0.031 C 
ATOM     38  C   UNL A   1      42.326  27.616  31.304  1.00  0.00     0.029 A 
ATOM     39  N   UNL A   1      41.362  29.384  32.280  1.00  0.00    -0.354 N 
ATOM     40  C   UNL A   1      38.077  31.457  30.407  1.00  0.00     0.074 A 
ATOM     41  C   UNL A   1      37.765  30.881  29.118  1.00  0.00     0.031 C 
ATOM     42  C   UNL A   1      42.943  27.816  32.483  1.00  0.00     0.029 A 
ATOM     43  C   UNL A   1      42.350  28.978  33.143  1.00  0.00     0.049 A 
ATOM     44  H   UNL A   1      40.766  30.145  32.463  1.00  0.00     0.167 HD
ATOM     45  C   UNL A   1      37.407  32.499  30.957  1.00  0.00     0.037 A 
ATOM     46  C   UNL A   1      42.733  29.491  34.328  1.00  0.00     0.037 A 
ATOM     47  C   UNL A   1      37.708  33.074  32.241  1.00  0.00     0.049 A 
ATOM     48  C   UNL A   1      41.996  30.672  34.902  1.00  0.00     0.074 A 
ATOM     49  C   UNL A   1      37.081  34.128  32.883  1.00  0.00     0.029 A 
ATOM     50  N   UNL A   1      38.722  32.639  33.079  1.00  0.00    -0.354 N 
ATOM     51  N   UNL A   1      40.972  31.328  34.411  1.00  0.00    -0.248 NA
ATOM     52  C   UNL A   1      42.458  31.173  36.205  1.00  0.00     0.031 C 
ATOM     53  C   UNL A   1      37.740  34.353  34.098  1.00  0.00     0.029 A 
ATOM     54  C   UNL A   1      38.747  33.411  34.229  1.00  0.00     0.049 A 
ATOM     55  H   UNL A   1      39.335  31.893  32.886  1.00  0.00     0.167 HD
ATOM     56  C   UNL A   1      40.648  32.293  35.357  1.00  0.00     0.074 A 
ATOM     57  C   UNL A   1      41.578  32.132  36.454  1.00  0.00     0.031 C 
ATOM     58  C   UNL A   1      39.665  33.226  35.321  1.00  0.00     0.037 A 
BRANCH  45  59
ATOM     59  C   UNL A   1      36.287  33.096  30.157  1.00  0.00     0.057 A 
ATOM     60  C   UNL A   1      34.946  32.812  30.441  1.00  0.00     0.134 A 
ATOM     61  C   UNL A   1      36.554  33.988  29.111  1.00  0.00     0.134 A 
ATOM     62  F   UNL A   1      34.625  31.953  31.421  1.00  0.00    -0.206 F 
ATOM     63  C   UNL A   1      33.908  33.381  29.700  1.00  0.00     0.040 A 
ATOM     64  C   UNL A   1      35.525  34.580  28.377  1.00  0.00     0.040 A 
ATOM     65  F   UNL A   1      37.818  34.304  28.791  1.00  0.00    -0.206 F 
ATOM     66  C   UNL A   1      34.197  34.273  28.670  1.00  0.00     0.006 A 
ENDBRANCH  45  59
BRANCH  46  67
ATOM     67  C   UNL A   1      43.873  28.890  35.066  1.00  0.00     0.057 A 
ATOM     68  C   UNL A   1      43.669  27.917  36.052  1.00  0.00     0.134 A 
ATOM     69  C   UNL A   1      45.189  29.299  34.824  1.00  0.00     0.134 A 
ATOM     70  F   UNL A   1      42.428  27.503  36.345  1.00  0.00    -0.206 F 
ATOM     71  C   UNL A   1      44.731  27.390  36.788  1.00  0.00     0.040 A 
ATOM     72  C   UNL A   1      46.263  28.763  35.537  1.00  0.00     0.040 A 
ATOM     73  F   UNL A   1      45.450  30.228  33.892  1.00  0.00    -0.206 F 
ATOM     74  C   UNL A   1      46.034  27.811  36.527  1.00  0.00     0.006 A 
ENDBRANCH  46  67
BRANCH  58  75
ATOM     75  C   UNL A   1      39.511  34.109  36.525  1.00  0.00     0.057 A 
ATOM     76  C   UNL A   1      38.807  33.696  37.663  1.00  0.00     0.134 A 
ATOM     77  C   UNL A   1      40.105  35.377  36.556  1.00  0.00     0.134 A 
ATOM     78  F   UNL A   1      38.206  32.497  37.694  1.00  0.00    -0.206 F 
ATOM     79  C   UNL A   1      38.676  34.526  38.779  1.00  0.00     0.040 A 
ATOM     80  C   UNL A   1      40.001  36.206  37.673  1.00  0.00     0.040 A 
ATOM     81  F   UNL A   1      40.802  35.829  35.501  1.00  0.00    -0.206 F 
ATOM     82  C   UNL A   1      39.279  35.782  38.788  1.00  0.00     0.006 A 
ENDBRANCH  58  75
ENDBRANCH  32  33
ENDBRANCH  25  27
ENDBRANCH  24  25
ENDBRANCH  23  24
ENDBRANCH  22  23
ENDBRANCH   1  22
TORSDOF 18
ENDMDL
MODEL 3
REMARK VINA RESULT:     -10.3      3.729      9.373
REMARK SMILES COc1cc(OC)c([C@@H]2C[C@H]2C(=O)OCCOCCOC(=O)c2ccc(-c3c4nc(c(-c5c(F)cccc5F)c5ccc([nH]5)c(-c5c(F)cccc5F)c5nc(c(-c6c(F)cccc6F)c6ccc3[nH]6)C=C5)C=C4)cc2)c(OC)c1
REMARK SMILES IDX 17 1 16 2 15 3 14 4 12 5 13 6 11 7 9 8 10 9 8 10 3 11 4 12
REMARK SMILES IDX 80 13 5 14 77 15 2 16 1 17 6 18 7 19 78 20 79 21 18 22 19 23
REMARK SMILES IDX 20 24 21 25 22 26 23 27 24 28 76 29 25 30 75 31 26 32 27 33
REMARK SMILES IDX 28 34 69 35 29 36 74 37 68 38 70 39 30 40 73 41 67 42 66 43
REMARK SMILES IDX 31 45 57 46 40 47 56 48 41 49 44 50 55 51 71 52 42 53 43 54
REMARK SMILES IDX 54 56 72 57 45 58 32 59 33 60 38 61 34 62 35 63 37 64 39 65
REMARK SMILES IDX 36 66 58 67 59 68 64 69 60 70 61 71 63 72 65 73 62 74 46 75
REMARK SMILES IDX 47 76 52 77 48 78 49 79 51 80 53 81 50 82
REMARK H PARENT 70 44 44 55
REMARK Flexibility Score: inf
ROOT
ATOM      1  O   UNL A   1      32.342  29.693  25.996  1.00  0.00    -0.374 OA
ENDROOT
BRANCH   1   2
ATOM      2  C   UNL A   1      32.042  28.658  26.933  1.00  0.00     0.202 C 
BRANCH   2   3
ATOM      3  C   UNL A   1      31.683  27.289  26.349  1.00  0.00     0.261 C 
BRANCH   3   4
ATOM      4  O   UNL A   1      32.009  27.222  24.955  1.00  0.00    -0.463 OA
BRANCH   4   5
ATOM      5  C   UNL A   1      33.225  26.686  24.667  1.00  0.00     0.309 C 
ATOM      6  O   UNL A   1      34.121  27.238  24.046  1.00  0.00    -0.252 OA
BRANCH   5   7
ATOM      7  C   UNL A   1      33.413  25.318  25.214  1.00  0.00     0.107 C 
ATOM      8  C   UNL A   1      33.937  24.150  24.385  1.00  0.00     0.042 C 
ATOM      9  C   UNL A   1      34.792  24.792  25.465  1.00  0.00     0.025 C 
BRANCH   8  10
ATOM     10  C   UNL A   1      33.504  22.689  24.576  1.00  0.00     0.040 A 
ATOM     11  C   UNL A   1      32.620  19.992  24.959  1.00  0.00     0.126 A 
ATOM     12  C   UNL A   1      31.721  21.049  25.030  1.00  0.00     0.093 A 
ATOM     13  C   UNL A   1      33.964  20.267  24.727  1.00  0.00     0.093 A 
ATOM     14  C   UNL A   1      32.153  22.370  24.854  1.00  0.00     0.129 A 
ATOM     15  C   UNL A   1      34.408  21.593  24.551  1.00  0.00     0.129 A 
BRANCH  11  16
ATOM     16  O   UNL A   1      32.073  18.753  25.141  1.00  0.00    -0.496 OA
ATOM     17  C   UNL A   1      32.916  17.751  25.700  1.00  0.00     0.278 C 
ENDBRANCH  11  16
BRANCH  14  18
ATOM     18  O   UNL A   1      31.203  23.321  25.147  1.00  0.00    -0.496 OA
ATOM     19  C   UNL A   1      30.768  23.314  26.501  1.00  0.00     0.278 C 
ENDBRANCH  14  18
BRANCH  15  20
ATOM     20  O   UNL A   1      35.739  21.910  24.416  1.00  0.00    -0.496 OA
ATOM     21  C   UNL A   1      36.592  21.694  25.534  1.00  0.00     0.278 C 
ENDBRANCH  15  20
ENDBRANCH   8  10
ENDBRANCH   5   7
ENDBRANCH   4   5
ENDBRANCH   3   4
ENDBRANCH   2   3
ENDBRANCH   1   2
BRANCH   1  22
ATOM     22  C   UNL A   1      31.372  30.727  25.819  1.00  0.00     0.202 C 
BRANCH  22  23
ATOM     23  C   UNL A   1      31.660  32.073  26.499  1.00  0.00     0.261 C 
BRANCH  23  24
ATOM     24  O   UNL A   1      32.518  31.953  27.649  1.00  0.00    -0.460 OA
BRANCH  24  25
ATOM     25  C   UNL A   1      33.432  32.946  27.774  1.00  0.00     0.338 C 
ATOM     26  O   UNL A   1      33.219  34.147  27.815  1.00  0.00    -0.246 OA
BRANCH  25  27
ATOM     27  C   UNL A   1      34.779  32.393  28.016  1.00  0.00     0.060 A 
ATOM     28  C   UNL A   1      34.883  31.004  28.167  1.00  0.00     0.016 A 
ATOM     29  C   UNL A   1      35.893  33.212  28.215  1.00  0.00     0.016 A 
ATOM     30  C   UNL A   1      36.081  30.435  28.591  1.00  0.00     0.010 A 
ATOM     31  C   UNL A   1      37.096  32.638  28.648  1.00  0.00     0.010 A 
ATOM     32  C   UNL A   1      37.180  31.254  28.883  1.00  0.00    -0.014 A 
BRANCH  32  33
ATOM     33  C   UNL A   1      38.335  30.669  29.610  1.00  0.00     0.031 A 
ATOM     34  C   UNL A   1      38.546  31.037  31.056  1.00  0.00     0.074 A 
ATOM     35  C   UNL A   1      39.146  29.773  29.021  1.00  0.00     0.049 A 
ATOM     36  N   UNL A   1      39.461  30.621  31.895  1.00  0.00    -0.248 NA
ATOM     37  C   UNL A   1      37.598  32.004  31.632  1.00  0.00     0.031 C 
ATOM     38  C   UNL A   1      39.032  29.308  27.641  1.00  0.00     0.029 A 
ATOM     39  N   UNL A   1      40.228  29.090  29.520  1.00  0.00    -0.354 N 
ATOM     40  C   UNL A   1      39.198  31.274  33.094  1.00  0.00     0.074 A 
ATOM     41  C   UNL A   1      38.061  32.137  32.866  1.00  0.00     0.031 C 
ATOM     42  C   UNL A   1      40.009  28.416  27.400  1.00  0.00     0.029 A 
ATOM     43  C   UNL A   1      40.825  28.261  28.603  1.00  0.00     0.049 A 
ATOM     44  H   UNL A   1      40.546  29.187  30.446  1.00  0.00     0.167 HD
ATOM     45  C   UNL A   1      39.839  31.156  34.282  1.00  0.00     0.037 A 
ATOM     46  C   UNL A   1      41.910  27.471  28.722  1.00  0.00     0.037 A 
ATOM     47  C   UNL A   1      40.966  30.295  34.517  1.00  0.00     0.049 A 
ATOM     48  C   UNL A   1      42.626  27.384  30.044  1.00  0.00     0.074 A 
ATOM     49  C   UNL A   1      41.678  30.105  35.690  1.00  0.00     0.029 A 
ATOM     50  N   UNL A   1      41.546  29.479  33.560  1.00  0.00    -0.354 N 
ATOM     51  N   UNL A   1      42.351  27.987  31.176  1.00  0.00    -0.248 NA
ATOM     52  C   UNL A   1      43.794  26.494  30.108  1.00  0.00     0.031 C 
ATOM     53  C   UNL A   1      42.711  29.197  35.431  1.00  0.00     0.029 A 
ATOM     54  C   UNL A   1      42.614  28.790  34.110  1.00  0.00     0.049 A 
ATOM     55  H   UNL A   1      41.244  29.399  32.626  1.00  0.00     0.167 HD
ATOM     56  C   UNL A   1      43.289  27.522  32.092  1.00  0.00     0.074 A 
ATOM     57  C   UNL A   1      44.134  26.583  31.386  1.00  0.00     0.031 C 
ATOM     58  C   UNL A   1      43.433  27.843  33.401  1.00  0.00     0.037 A 
BRANCH  45  59
ATOM     59  C   UNL A   1      39.338  31.997  35.419  1.00  0.00     0.057 A 
ATOM     60  C   UNL A   1      38.433  31.497  36.363  1.00  0.00     0.134 A 
ATOM     61  C   UNL A   1      39.790  33.311  35.587  1.00  0.00     0.134 A 
ATOM     62  F   UNL A   1      37.951  30.250  36.249  1.00  0.00    -0.206 F 
ATOM     63  C   UNL A   1      37.981  32.280  37.426  1.00  0.00     0.040 A 
ATOM     64  C   UNL A   1      39.362  34.098  36.658  1.00  0.00     0.040 A 
ATOM     65  F   UNL A   1      40.660  33.849  34.719  1.00  0.00    -0.206 F 
ATOM     66  C   UNL A   1      38.451  33.583  37.579  1.00  0.00     0.006 A 
ENDBRANCH  45  59
BRANCH  46  67
ATOM     67  C   UNL A   1      42.391  26.686  27.558  1.00  0.00     0.057 A 
ATOM     68  C   UNL A   1      43.327  27.215  26.661  1.00  0.00     0.134 A 
ATOM     69  C   UNL A   1      41.898  25.403  27.295  1.00  0.00     0.134 A 
ATOM     70  F   UNL A   1      43.816  28.450  26.846  1.00  0.00    -0.206 F 
ATOM     71  C   UNL A   1      43.740  26.504  25.533  1.00  0.00     0.040 A 
ATOM     72  C   UNL A   1      42.321  24.671  26.184  1.00  0.00     0.040 A 
ATOM     73  F   UNL A   1      40.999  24.841  28.117  1.00  0.00    -0.206 F 
ATOM     74  C   UNL A   1      43.239  25.226  25.295  1.00  0.00     0.006 A 
ENDBRANCH  46  67
BRANCH  58  75
ATOM     75  C   UNL A   1      44.511  27.133  34.168  1.00  0.00     0.057 A 
ATOM     76  C   UNL A   1      44.287  25.901  34.794  1.00  0.00     0.134 A 
ATOM     77  C   UNL A   1      45.797  27.679  34.252  1.00  0.00     0.134 A 
ATOM     78  F   UNL A   1      43.073  25.330  34.758  1.00  0.00    -0.206 F 
ATOM     79  C   UNL A   1      45.300  25.249  35.500  1.00  0.00     0.040 A 
ATOM     80  C   UNL A   1      46.825  27.025  34.935  1.00  0.00     0.040 A 
ATOM     81  F   UNL A   1      46.081  28.853  33.666  1.00  0.00    -0.206 F 
ATOM     82  C   UNL A   1      46.575  25.808  35.567  1.00  0.00     0.006 A 
ENDBRANCH  58  75
ENDBRANCH  32  33
ENDBRANCH  25  27
ENDBRANCH  24  25
ENDBRANCH  23  24
ENDBRANCH  22  23
ENDBRANCH   1  22
TORSDOF 18
ENDMDL
