MODEL 1
REMARK VINA RESULT:     -11.2      0.000      0.000
REMARK SMILES Cn1cc(C(=O)OCCOCCOC(=O)c2ccc(-c3c4nc(c(-c5c(F)cccc5F)c5ccc([nH]5)c(-c5c(F)cccc5F)c5nc(c(-c6c(F)cccc6F)c6ccc3[nH]6)C=C5)C=C4)cc2)c(C(=O)Nc2ccc(-n3cncn3)cc2)n1
REMARK SMILES IDX 9 1 8 2 7 3 5 4 6 5 4 6 1 7 2 8 3 9 85 10 70 11 71 12 72 13
REMARK SMILES IDX 73 14 74 16 75 17 84 18 76 19 83 20 77 21 78 22 79 23 82 24
REMARK SMILES IDX 80 25 81 26 10 27 11 28 12 29 13 30 14 31 15 32 16 33 17 34
REMARK SMILES IDX 69 35 18 36 68 37 19 38 20 39 21 40 62 41 22 42 67 43 61 44
REMARK SMILES IDX 63 45 23 46 66 47 60 48 59 49 24 51 50 52 33 53 49 54 34 55
REMARK SMILES IDX 37 56 48 57 64 58 35 59 36 60 47 62 65 63 38 64 25 65 26 66
REMARK SMILES IDX 31 67 27 68 28 69 30 70 32 71 29 72 51 73 52 74 57 75 53 76
REMARK SMILES IDX 54 77 56 78 58 79 55 80 39 81 40 82 45 83 41 84 42 85 44 86
REMARK SMILES IDX 46 87 43 88
REMARK H PARENT 73 15 63 50 37 61
REMARK Flexibility Score: inf
ROOT
ATOM      1  C   UNL A   1      35.009  23.776  25.484  1.00  0.00     0.202 C 
ENDROOT
BRANCH   1   2
ATOM      2  C   UNL A   1      33.929  24.383  26.376  1.00  0.00     0.261 C 
BRANCH   2   3
ATOM      3  O   UNL A   1      33.423  25.538  25.713  1.00  0.00    -0.460 OA
BRANCH   3   4
ATOM      4  C   UNL A   1      32.356  26.171  26.273  1.00  0.00     0.342 C 
ATOM      5  O   UNL A   1      31.382  25.625  26.766  1.00  0.00    -0.246 OA
BRANCH   4   6
ATOM      6  C   UNL A   1      32.542  27.592  26.148  1.00  0.00     0.111 A 
ATOM      7  C   UNL A   1      34.141  30.631  27.223  1.00  0.00     0.173 C 
ATOM      8  N   UNL A   1      33.361  29.559  26.654  1.00  0.00    -0.274 N 
ATOM      9  C   UNL A   1      33.396  28.261  27.014  1.00  0.00     0.125 A 
ATOM     10  N   UNL A   1      32.501  29.806  25.667  1.00  0.00    -0.167 NA
ATOM     11  C   UNL A   1      31.997  28.600  25.285  1.00  0.00     0.165 A 
BRANCH  11  12
ATOM     12  C   UNL A   1      31.098  28.622  24.092  1.00  0.00     0.277 C 
ATOM     13  O   UNL A   1      30.403  29.619  23.852  1.00  0.00    -0.267 OA
ATOM     14  N   UNL A   1      31.083  27.685  23.086  1.00  0.00    -0.321 N 
ATOM     15  H   UNL A   1      30.951  28.087  22.197  1.00  0.00     0.170 HD
BRANCH  14  16
ATOM     16  C   UNL A   1      31.212  26.299  23.031  1.00  0.00     0.041 A 
ATOM     17  C   UNL A   1      32.363  25.793  22.416  1.00  0.00     0.028 A 
ATOM     18  C   UNL A   1      30.246  25.422  23.507  1.00  0.00     0.028 A 
ATOM     19  C   UNL A   1      32.671  24.435  22.515  1.00  0.00     0.030 A 
ATOM     20  C   UNL A   1      30.495  24.044  23.494  1.00  0.00     0.030 A 
ATOM     21  C   UNL A   1      31.760  23.571  23.124  1.00  0.00     0.067 A 
BRANCH  21  22
ATOM     22  N   UNL A   1      32.191  22.303  23.585  1.00  0.00    -0.221 N 
ATOM     23  C   UNL A   1      32.463  21.172  22.854  1.00  0.00     0.225 A 
ATOM     24  N   UNL A   1      32.073  21.960  24.894  1.00  0.00    -0.155 NA
ATOM     25  N   UNL A   1      32.331  20.099  23.602  1.00  0.00    -0.223 NA
ATOM     26  C   UNL A   1      32.061  20.628  24.829  1.00  0.00     0.246 A 
ENDBRANCH  21  22
ENDBRANCH  14  16
ENDBRANCH  11  12
ENDBRANCH   4   6
ENDBRANCH   3   4
ENDBRANCH   2   3
ENDBRANCH   1   2
BRANCH   1  27
ATOM     27  O   UNL A   1      35.431  22.459  25.863  1.00  0.00    -0.374 OA
BRANCH  27  28
ATOM     28  C   UNL A   1      35.660  21.551  24.777  1.00  0.00     0.202 C 
BRANCH  28  29
ATOM     29  C   UNL A   1      36.909  20.676  24.966  1.00  0.00     0.261 C 
BRANCH  29  30
ATOM     30  O   UNL A   1      38.077  21.507  25.017  1.00  0.00    -0.460 OA
BRANCH  30  31
ATOM     31  C   UNL A   1      39.030  21.093  25.889  1.00  0.00     0.338 C 
ATOM     32  O   UNL A   1      39.482  19.969  26.015  1.00  0.00    -0.246 OA
BRANCH  31  33
ATOM     33  C   UNL A   1      39.642  22.294  26.497  1.00  0.00     0.060 A 
ATOM     34  C   UNL A   1      39.055  23.532  26.197  1.00  0.00     0.016 A 
ATOM     35  C   UNL A   1      40.689  22.210  27.421  1.00  0.00     0.016 A 
ATOM     36  C   UNL A   1      39.530  24.695  26.797  1.00  0.00     0.010 A 
ATOM     37  C   UNL A   1      41.188  23.377  27.997  1.00  0.00     0.010 A 
ATOM     38  C   UNL A   1      40.635  24.624  27.652  1.00  0.00    -0.014 A 
BRANCH  38  39
ATOM     39  C   UNL A   1      41.425  25.849  27.900  1.00  0.00     0.031 A 
ATOM     40  C   UNL A   1      40.735  26.944  28.665  1.00  0.00     0.074 A 
ATOM     41  C   UNL A   1      42.694  25.986  27.484  1.00  0.00     0.049 A 
ATOM     42  N   UNL A   1      41.130  28.162  28.921  1.00  0.00    -0.248 NA
ATOM     43  C   UNL A   1      39.406  26.616  29.213  1.00  0.00     0.031 C 
ATOM     44  C   UNL A   1      43.483  24.963  26.802  1.00  0.00     0.029 A 
ATOM     45  N   UNL A   1      43.539  27.062  27.575  1.00  0.00    -0.354 N 
ATOM     46  C   UNL A   1      40.095  28.743  29.643  1.00  0.00     0.074 A 
ATOM     47  C   UNL A   1      39.048  27.758  29.772  1.00  0.00     0.031 C 
ATOM     48  C   UNL A   1      44.699  25.469  26.520  1.00  0.00     0.029 A 
ATOM     49  C   UNL A   1      44.754  26.860  26.968  1.00  0.00     0.049 A 
ATOM     50  H   UNL A   1      43.298  27.899  28.033  1.00  0.00     0.167 HD
ATOM     51  C   UNL A   1      40.023  29.992  30.153  1.00  0.00     0.037 A 
ATOM     52  C   UNL A   1      45.772  27.721  26.774  1.00  0.00     0.037 A 
ATOM     53  C   UNL A   1      41.064  30.968  30.010  1.00  0.00     0.049 A 
ATOM     54  C   UNL A   1      45.636  29.137  27.278  1.00  0.00     0.074 A 
ATOM     55  C   UNL A   1      41.091  32.275  30.459  1.00  0.00     0.029 A 
ATOM     56  N   UNL A   1      42.266  30.736  29.360  1.00  0.00    -0.354 N 
ATOM     57  N   UNL A   1      44.646  29.690  27.939  1.00  0.00    -0.248 NA
ATOM     58  C   UNL A   1      46.752  30.052  26.998  1.00  0.00     0.031 C 
ATOM     59  C   UNL A   1      42.299  32.846  30.048  1.00  0.00     0.029 A 
ATOM     60  C   UNL A   1      43.040  31.881  29.382  1.00  0.00     0.049 A 
ATOM     61  H   UNL A   1      42.531  29.883  28.947  1.00  0.00     0.167 HD
ATOM     62  C   UNL A   1      45.029  31.006  28.172  1.00  0.00     0.074 A 
ATOM     63  C   UNL A   1      46.347  31.164  27.594  1.00  0.00     0.031 C 
ATOM     64  C   UNL A   1      44.353  31.999  28.803  1.00  0.00     0.037 A 
BRANCH  51  65
ATOM     65  C   UNL A   1      38.757  30.364  30.862  1.00  0.00     0.057 A 
ATOM     66  C   UNL A   1      38.563  30.095  32.223  1.00  0.00     0.134 A 
ATOM     67  C   UNL A   1      37.705  30.970  30.164  1.00  0.00     0.134 A 
ATOM     68  F   UNL A   1      39.521  29.485  32.938  1.00  0.00    -0.206 F 
ATOM     69  C   UNL A   1      37.359  30.397  32.861  1.00  0.00     0.040 A 
ATOM     70  C   UNL A   1      36.506  31.299  30.797  1.00  0.00     0.040 A 
ATOM     71  F   UNL A   1      37.823  31.241  28.856  1.00  0.00    -0.206 F 
ATOM     72  C   UNL A   1      36.328  31.007  32.148  1.00  0.00     0.006 A 
ENDBRANCH  51  65
BRANCH  52  73
ATOM     73  C   UNL A   1      46.992  27.295  26.039  1.00  0.00     0.057 A 
ATOM     74  C   UNL A   1      47.092  27.440  24.650  1.00  0.00     0.134 A 
ATOM     75  C   UNL A   1      48.071  26.695  26.701  1.00  0.00     0.134 A 
ATOM     76  F   UNL A   1      46.081  27.979  23.953  1.00  0.00    -0.206 F 
ATOM     77  C   UNL A   1      48.211  26.990  23.944  1.00  0.00     0.040 A 
ATOM     78  C   UNL A   1      49.206  26.264  26.011  1.00  0.00     0.040 A 
ATOM     79  F   UNL A   1      48.038  26.521  28.030  1.00  0.00    -0.206 F 
ATOM     80  C   UNL A   1      49.275  26.403  24.627  1.00  0.00     0.006 A 
ENDBRANCH  52  73
BRANCH  64  81
ATOM     81  C   UNL A   1      45.040  33.325  28.928  1.00  0.00     0.057 A 
ATOM     82  C   UNL A   1      44.845  34.346  27.991  1.00  0.00     0.134 A 
ATOM     83  C   UNL A   1      45.852  33.603  30.035  1.00  0.00     0.134 A 
ATOM     84  F   UNL A   1      44.085  34.137  26.906  1.00  0.00    -0.206 F 
ATOM     85  C   UNL A   1      45.450  35.595  28.142  1.00  0.00     0.040 A 
ATOM     86  C   UNL A   1      46.442  34.855  30.209  1.00  0.00     0.040 A 
ATOM     87  F   UNL A   1      46.067  32.669  30.975  1.00  0.00    -0.206 F 
ATOM     88  C   UNL A   1      46.243  35.854  29.258  1.00  0.00     0.006 A 
ENDBRANCH  64  81
ENDBRANCH  38  39
ENDBRANCH  31  33
ENDBRANCH  30  31
ENDBRANCH  29  30
ENDBRANCH  28  29
ENDBRANCH  27  28
ENDBRANCH   1  27
TORSDOF 17
ENDMDL
MODEL 2
REMARK VINA RESULT:     -11.0      1.973      7.242
REMARK SMILES Cn1cc(C(=O)OCCOCCOC(=O)c2ccc(-c3c4nc(c(-c5c(F)cccc5F)c5ccc([nH]5)c(-c5c(F)cccc5F)c5nc(c(-c6c(F)cccc6F)c6ccc3[nH]6)C=C5)C=C4)cc2)c(C(=O)Nc2ccc(-n3cncn3)cc2)n1
REMARK SMILES IDX 9 1 8 2 7 3 5 4 6 5 4 6 1 7 2 8 3 9 85 10 70 11 71 12 72 13
REMARK SMILES IDX 73 14 74 16 75 17 84 18 76 19 83 20 77 21 78 22 79 23 82 24
REMARK SMILES IDX 80 25 81 26 10 27 11 28 12 29 13 30 14 31 15 32 16 33 17 34
REMARK SMILES IDX 69 35 18 36 68 37 19 38 20 39 21 40 62 41 22 42 67 43 61 44
REMARK SMILES IDX 63 45 23 46 66 47 60 48 59 49 24 51 50 52 33 53 49 54 34 55
REMARK SMILES IDX 37 56 48 57 64 58 35 59 36 60 47 62 65 63 38 64 25 65 26 66
REMARK SMILES IDX 31 67 27 68 28 69 30 70 32 71 29 72 51 73 52 74 57 75 53 76
REMARK SMILES IDX 54 77 56 78 58 79 55 80 39 81 40 82 45 83 41 84 42 85 44 86
REMARK SMILES IDX 46 87 43 88
REMARK H PARENT 73 15 63 50 37 61
REMARK Flexibility Score: inf
ROOT
ATOM      1  C   UNL A   1      36.692  22.204  25.717  1.00  0.00     0.202 C 
ENDROOT
BRANCH   1   2
ATOM      2  C   UNL A   1      36.501  23.716  25.797  1.00  0.00     0.261 C 
BRANCH   2   3
ATOM      3  O   UNL A   1      35.546  24.082  24.805  1.00  0.00    -0.460 OA
BRANCH   3   4
ATOM      4  C   UNL A   1      34.363  24.601  25.228  1.00  0.00     0.342 C 
ATOM      5  O   UNL A   1      34.216  25.676  25.788  1.00  0.00    -0.246 OA
BRANCH   4   6
ATOM      6  C   UNL A   1      33.315  23.656  24.950  1.00  0.00     0.111 A 
ATOM      7  C   UNL A   1      32.182  20.647  23.333  1.00  0.00     0.173 C 
ATOM      8  N   UNL A   1      32.401  21.886  24.039  1.00  0.00    -0.274 N 
ATOM      9  C   UNL A   1      33.553  22.582  24.104  1.00  0.00     0.125 A 
ATOM     10  N   UNL A   1      31.407  22.455  24.720  1.00  0.00    -0.167 NA
ATOM     11  C   UNL A   1      31.941  23.540  25.345  1.00  0.00     0.165 A 
BRANCH  11  12
ATOM     12  C   UNL A   1      31.027  24.264  26.279  1.00  0.00     0.277 C 
ATOM     13  O   UNL A   1      30.528  23.675  27.248  1.00  0.00    -0.267 OA
ATOM     14  N   UNL A   1      30.802  25.621  26.285  1.00  0.00    -0.321 N 
ATOM     15  H   UNL A   1      30.722  25.986  27.196  1.00  0.00     0.170 HD
BRANCH  14  16
ATOM     16  C   UNL A   1      30.661  26.598  25.304  1.00  0.00     0.041 A 
ATOM     17  C   UNL A   1      29.765  26.327  24.262  1.00  0.00     0.028 A 
ATOM     18  C   UNL A   1      31.390  27.780  25.291  1.00  0.00     0.028 A 
ATOM     19  C   UNL A   1      29.404  27.335  23.367  1.00  0.00     0.030 A 
ATOM     20  C   UNL A   1      31.121  28.749  24.316  1.00  0.00     0.030 A 
ATOM     21  C   UNL A   1      30.038  28.577  23.445  1.00  0.00     0.067 A 
BRANCH  21  22
ATOM     22  N   UNL A   1      29.443  29.711  22.841  1.00  0.00    -0.221 N 
ATOM     23  C   UNL A   1      28.719  30.717  23.434  1.00  0.00     0.225 A 
ATOM     24  N   UNL A   1      29.246  29.764  21.498  1.00  0.00    -0.155 NA
ATOM     25  N   UNL A   1      27.918  31.284  22.559  1.00  0.00    -0.223 NA
ATOM     26  C   UNL A   1      28.252  30.647  21.401  1.00  0.00     0.246 A 
ENDBRANCH  21  22
ENDBRANCH  14  16
ENDBRANCH  11  12
ENDBRANCH   4   6
ENDBRANCH   3   4
ENDBRANCH   2   3
ENDBRANCH   1   2
BRANCH   1  27
ATOM     27  O   UNL A   1      37.724  21.775  24.818  1.00  0.00    -0.374 OA
BRANCH  27  28
ATOM     28  C   UNL A   1      38.208  20.441  25.030  1.00  0.00     0.202 C 
BRANCH  28  29
ATOM     29  C   UNL A   1      39.456  20.381  25.926  1.00  0.00     0.261 C 
BRANCH  29  30
ATOM     30  O   UNL A   1      40.368  19.397  25.418  1.00  0.00    -0.460 OA
BRANCH  30  31
ATOM     31  C   UNL A   1      41.491  19.228  26.159  1.00  0.00     0.338 C 
ATOM     32  O   UNL A   1      42.056  18.181  26.419  1.00  0.00    -0.246 OA
BRANCH  31  33
ATOM     33  C   UNL A   1      42.089  20.560  26.388  1.00  0.00     0.060 A 
ATOM     34  C   UNL A   1      42.285  20.953  27.720  1.00  0.00     0.016 A 
ATOM     35  C   UNL A   1      42.549  21.360  25.337  1.00  0.00     0.016 A 
ATOM     36  C   UNL A   1      42.916  22.160  28.008  1.00  0.00     0.010 A 
ATOM     37  C   UNL A   1      43.152  22.585  25.622  1.00  0.00     0.010 A 
ATOM     38  C   UNL A   1      43.296  23.003  26.958  1.00  0.00    -0.014 A 
BRANCH  38  39
ATOM     39  C   UNL A   1      43.509  24.439  27.238  1.00  0.00     0.031 A 
ATOM     40  C   UNL A   1      44.926  24.934  27.144  1.00  0.00     0.074 A 
ATOM     41  C   UNL A   1      42.501  25.272  27.546  1.00  0.00     0.049 A 
ATOM     42  N   UNL A   1      45.425  26.100  27.452  1.00  0.00    -0.248 NA
ATOM     43  C   UNL A   1      45.919  23.969  26.637  1.00  0.00     0.031 C 
ATOM     44  C   UNL A   1      41.085  24.917  27.590  1.00  0.00     0.029 A 
ATOM     45  N   UNL A   1      42.530  26.599  27.889  1.00  0.00    -0.354 N 
ATOM     46  C   UNL A   1      46.786  26.001  27.189  1.00  0.00     0.074 A 
ATOM     47  C   UNL A   1      47.041  24.662  26.715  1.00  0.00     0.031 C 
ATOM     48  C   UNL A   1      40.378  26.002  27.959  1.00  0.00     0.029 A 
ATOM     49  C   UNL A   1      41.297  27.110  28.212  1.00  0.00     0.049 A 
ATOM     50  H   UNL A   1      43.356  27.135  27.902  1.00  0.00     0.167 HD
ATOM     51  C   UNL A   1      47.742  26.946  27.333  1.00  0.00     0.037 A 
ATOM     52  C   UNL A   1      40.968  28.327  28.688  1.00  0.00     0.037 A 
ATOM     53  C   UNL A   1      47.482  28.270  27.816  1.00  0.00     0.049 A 
ATOM     54  C   UNL A   1      42.063  29.339  28.921  1.00  0.00     0.074 A 
ATOM     55  C   UNL A   1      48.374  29.303  28.031  1.00  0.00     0.029 A 
ATOM     56  N   UNL A   1      46.224  28.740  28.163  1.00  0.00    -0.354 N 
ATOM     57  N   UNL A   1      43.351  29.234  28.694  1.00  0.00    -0.248 NA
ATOM     58  C   UNL A   1      41.660  30.634  29.488  1.00  0.00     0.031 C 
ATOM     59  C   UNL A   1      47.659  30.390  28.544  1.00  0.00     0.029 A 
ATOM     60  C   UNL A   1      46.317  30.046  28.606  1.00  0.00     0.049 A 
ATOM     61  H   UNL A   1      45.389  28.222  28.101  1.00  0.00     0.167 HD
ATOM     62  C   UNL A   1      43.907  30.451  29.069  1.00  0.00     0.074 A 
ATOM     63  C   UNL A   1      42.815  31.285  29.524  1.00  0.00     0.031 C 
ATOM     64  C   UNL A   1      45.204  30.848  29.044  1.00  0.00     0.037 A 
BRANCH  51  65
ATOM     65  C   UNL A   1      49.147  26.544  27.006  1.00  0.00     0.057 A 
ATOM     66  C   UNL A   1      49.704  26.760  25.738  1.00  0.00     0.134 A 
ATOM     67  C   UNL A   1      49.944  25.903  27.963  1.00  0.00     0.134 A 
ATOM     68  F   UNL A   1      48.979  27.338  24.767  1.00  0.00    -0.206 F 
ATOM     69  C   UNL A   1      50.996  26.333  25.428  1.00  0.00     0.040 A 
ATOM     70  C   UNL A   1      51.246  25.495  27.672  1.00  0.00     0.040 A 
ATOM     71  F   UNL A   1      49.465  25.655  29.191  1.00  0.00    -0.206 F 
ATOM     72  C   UNL A   1      51.773  25.703  26.399  1.00  0.00     0.006 A 
ENDBRANCH  51  65
BRANCH  52  73
ATOM     73  C   UNL A   1      39.556  28.652  29.017  1.00  0.00     0.057 A 
ATOM     74  C   UNL A   1      38.699  29.218  28.066  1.00  0.00     0.134 A 
ATOM     75  C   UNL A   1      39.039  28.443  30.302  1.00  0.00     0.134 A 
ATOM     76  F   UNL A   1      39.141  29.471  26.825  1.00  0.00    -0.206 F 
ATOM     77  C   UNL A   1      37.387  29.579  28.383  1.00  0.00     0.040 A 
ATOM     78  C   UNL A   1      37.722  28.776  30.626  1.00  0.00     0.040 A 
ATOM     79  F   UNL A   1      39.807  27.910  31.263  1.00  0.00    -0.206 F 
ATOM     80  C   UNL A   1      36.894  29.354  29.667  1.00  0.00     0.006 A 
ENDBRANCH  52  73
BRANCH  64  81
ATOM     81  C   UNL A   1      45.503  32.248  29.489  1.00  0.00     0.057 A 
ATOM     82  C   UNL A   1      45.864  32.539  30.810  1.00  0.00     0.134 A 
ATOM     83  C   UNL A   1      45.493  33.304  28.569  1.00  0.00     0.134 A 
ATOM     84  F   UNL A   1      45.883  31.571  31.738  1.00  0.00    -0.206 F 
ATOM     85  C   UNL A   1      46.189  33.838  31.204  1.00  0.00     0.040 A 
ATOM     86  C   UNL A   1      45.839  34.601  28.946  1.00  0.00     0.040 A 
ATOM     87  F   UNL A   1      45.169  33.086  27.285  1.00  0.00    -0.206 F 
ATOM     88  C   UNL A   1      46.185  34.871  30.268  1.00  0.00     0.006 A 
ENDBRANCH  64  81
ENDBRANCH  38  39
ENDBRANCH  31  33
ENDBRANCH  30  31
ENDBRANCH  29  30
ENDBRANCH  28  29
ENDBRANCH  27  28
ENDBRANCH   1  27
TORSDOF 17
ENDMDL
MODEL 3
REMARK VINA RESULT:     -10.9      2.025      4.292
REMARK SMILES Cn1cc(C(=O)OCCOCCOC(=O)c2ccc(-c3c4nc(c(-c5c(F)cccc5F)c5ccc([nH]5)c(-c5c(F)cccc5F)c5nc(c(-c6c(F)cccc6F)c6ccc3[nH]6)C=C5)C=C4)cc2)c(C(=O)Nc2ccc(-n3cncn3)cc2)n1
REMARK SMILES IDX 9 1 8 2 7 3 5 4 6 5 4 6 1 7 2 8 3 9 85 10 70 11 71 12 72 13
REMARK SMILES IDX 73 14 74 16 75 17 84 18 76 19 83 20 77 21 78 22 79 23 82 24
REMARK SMILES IDX 80 25 81 26 10 27 11 28 12 29 13 30 14 31 15 32 16 33 17 34
REMARK SMILES IDX 69 35 18 36 68 37 19 38 20 39 21 40 62 41 22 42 67 43 61 44
REMARK SMILES IDX 63 45 23 46 66 47 60 48 59 49 24 51 50 52 33 53 49 54 34 55
REMARK SMILES IDX 37 56 48 57 64 58 35 59 36 60 47 62 65 63 38 64 25 65 26 66
REMARK SMILES IDX 31 67 27 68 28 69 30 70 32 71 29 72 51 73 52 74 57 75 53 76
REMARK SMILES IDX 54 77 56 78 58 79 55 80 39 81 40 82 45 83 41 84 42 85 44 86
REMARK SMILES IDX 46 87 43 88
REMARK H PARENT 73 15 63 50 37 61
REMARK Flexibility Score: inf
ROOT
ATOM      1  C   UNL A   1      36.679  23.259  24.188  1.00  0.00     0.202 C 
ENDROOT
BRANCH   1   2
ATOM      2  C   UNL A   1      35.861  23.744  25.383  1.00  0.00     0.261 C 
BRANCH   2   3
ATOM      3  O   UNL A   1      34.855  24.622  24.887  1.00  0.00    -0.460 OA
BRANCH   3   4
ATOM      4  C   UNL A   1      34.058  24.167  23.883  1.00  0.00     0.342 C 
ATOM      5  O   UNL A   1      34.021  24.612  22.747  1.00  0.00    -0.246 OA
BRANCH   4   6
ATOM      6  C   UNL A   1      33.233  23.104  24.390  1.00  0.00     0.111 A 
ATOM      7  C   UNL A   1      32.214  19.653  24.336  1.00  0.00     0.173 C 
ATOM      8  N   UNL A   1      32.435  21.068  24.511  1.00  0.00    -0.274 N 
ATOM      9  C   UNL A   1      33.314  21.834  23.837  1.00  0.00     0.125 A 
ATOM     10  N   UNL A   1      31.733  21.750  25.416  1.00  0.00    -0.167 NA
ATOM     11  C   UNL A   1      32.228  23.018  25.410  1.00  0.00     0.165 A 
BRANCH  11  12
ATOM     12  C   UNL A   1      31.671  23.935  26.450  1.00  0.00     0.277 C 
ATOM     13  O   UNL A   1      31.374  23.501  27.572  1.00  0.00    -0.267 OA
ATOM     14  N   UNL A   1      31.610  25.305  26.357  1.00  0.00    -0.321 N 
ATOM     15  H   UNL A   1      31.807  25.752  27.212  1.00  0.00     0.170 HD
BRANCH  14  16
ATOM     16  C   UNL A   1      31.333  26.209  25.334  1.00  0.00     0.041 A 
ATOM     17  C   UNL A   1      30.056  26.146  24.761  1.00  0.00     0.028 A 
ATOM     18  C   UNL A   1      32.263  27.115  24.841  1.00  0.00     0.028 A 
ATOM     19  C   UNL A   1      29.628  27.151  23.892  1.00  0.00     0.030 A 
ATOM     20  C   UNL A   1      31.873  28.049  23.873  1.00  0.00     0.030 A 
ATOM     21  C   UNL A   1      30.525  28.148  23.506  1.00  0.00     0.067 A 
BRANCH  21  22
ATOM     22  N   UNL A   1      30.039  29.364  22.965  1.00  0.00    -0.221 N 
ATOM     23  C   UNL A   1      29.449  30.418  23.621  1.00  0.00     0.225 A 
ATOM     24  N   UNL A   1      29.805  29.491  21.633  1.00  0.00    -0.155 NA
ATOM     25  N   UNL A   1      28.688  31.103  22.797  1.00  0.00    -0.223 NA
ATOM     26  C   UNL A   1      28.911  30.480  21.605  1.00  0.00     0.246 A 
ENDBRANCH  21  22
ENDBRANCH  14  16
ENDBRANCH  11  12
ENDBRANCH   4   6
ENDBRANCH   3   4
ENDBRANCH   2   3
ENDBRANCH   1   2
BRANCH   1  27
ATOM     27  O   UNL A   1      37.095  21.889  24.262  1.00  0.00    -0.374 OA
BRANCH  27  28
ATOM     28  C   UNL A   1      37.527  21.447  25.557  1.00  0.00     0.202 C 
BRANCH  28  29
ATOM     29  C   UNL A   1      39.048  21.539  25.756  1.00  0.00     0.261 C 
BRANCH  29  30
ATOM     30  O   UNL A   1      39.499  20.435  26.553  1.00  0.00    -0.460 OA
BRANCH  30  31
ATOM     31  C   UNL A   1      40.764  20.023  26.290  1.00  0.00     0.338 C 
ATOM     32  O   UNL A   1      41.108  18.986  25.752  1.00  0.00    -0.246 OA
BRANCH  31  33
ATOM     33  C   UNL A   1      41.671  21.167  26.518  1.00  0.00     0.060 A 
ATOM     34  C   UNL A   1      41.996  21.471  27.848  1.00  0.00     0.016 A 
ATOM     35  C   UNL A   1      42.279  21.858  25.464  1.00  0.00     0.016 A 
ATOM     36  C   UNL A   1      42.906  22.484  28.133  1.00  0.00     0.010 A 
ATOM     37  C   UNL A   1      43.166  22.895  25.747  1.00  0.00     0.010 A 
ATOM     38  C   UNL A   1      43.446  23.235  27.083  1.00  0.00    -0.014 A 
BRANCH  38  39
ATOM     39  C   UNL A   1      44.007  24.572  27.378  1.00  0.00     0.031 A 
ATOM     40  C   UNL A   1      43.027  25.623  27.821  1.00  0.00     0.074 A 
ATOM     41  C   UNL A   1      45.318  24.843  27.275  1.00  0.00     0.049 A 
ATOM     42  N   UNL A   1      43.208  26.899  28.027  1.00  0.00    -0.248 NA
ATOM     43  C   UNL A   1      41.646  25.165  28.059  1.00  0.00     0.031 C 
ATOM     44  C   UNL A   1      46.363  23.883  26.928  1.00  0.00     0.029 A 
ATOM     45  N   UNL A   1      45.988  26.027  27.448  1.00  0.00    -0.354 N 
ATOM     46  C   UNL A   1      41.965  27.393  28.402  1.00  0.00     0.074 A 
ATOM     47  C   UNL A   1      41.034  26.290  28.380  1.00  0.00     0.031 C 
ATOM     48  C   UNL A   1      47.547  24.524  26.898  1.00  0.00     0.029 A 
ATOM     49  C   UNL A   1      47.332  25.941  27.185  1.00  0.00     0.049 A 
ATOM     50  H   UNL A   1      45.547  26.859  27.736  1.00  0.00     0.167 HD
ATOM     51  C   UNL A   1      41.627  28.659  28.735  1.00  0.00     0.037 A 
ATOM     52  C   UNL A   1      48.266  26.912  27.151  1.00  0.00     0.037 A 
ATOM     53  C   UNL A   1      42.556  29.751  28.743  1.00  0.00     0.049 A 
ATOM     54  C   UNL A   1      47.851  28.334  27.444  1.00  0.00     0.074 A 
ATOM     55  C   UNL A   1      42.324  31.081  29.034  1.00  0.00     0.029 A 
ATOM     56  N   UNL A   1      43.904  29.630  28.439  1.00  0.00    -0.354 N 
ATOM     57  N   UNL A   1      46.670  28.800  27.774  1.00  0.00    -0.248 NA
ATOM     58  C   UNL A   1      48.895  29.364  27.345  1.00  0.00     0.031 C 
ATOM     59  C   UNL A   1      43.528  31.775  28.871  1.00  0.00     0.029 A 
ATOM     60  C   UNL A   1      44.516  30.867  28.521  1.00  0.00     0.049 A 
ATOM     61  H   UNL A   1      44.358  28.789  28.202  1.00  0.00     0.167 HD
ATOM     62  C   UNL A   1      46.833  30.170  27.944  1.00  0.00     0.074 A 
ATOM     63  C   UNL A   1      48.230  30.457  27.694  1.00  0.00     0.031 C 
ATOM     64  C   UNL A   1      45.913  31.112  28.274  1.00  0.00     0.037 A 
BRANCH  51  65
ATOM     65  C   UNL A   1      40.188  28.914  29.063  1.00  0.00     0.057 A 
ATOM     66  C   UNL A   1      39.704  28.840  30.376  1.00  0.00     0.134 A 
ATOM     67  C   UNL A   1      39.269  29.206  28.048  1.00  0.00     0.134 A 
ATOM     68  F   UNL A   1      40.528  28.529  31.388  1.00  0.00    -0.206 F 
ATOM     69  C   UNL A   1      38.351  29.026  30.664  1.00  0.00     0.040 A 
ATOM     70  C   UNL A   1      37.919  29.419  28.327  1.00  0.00     0.040 A 
ATOM     71  F   UNL A   1      39.668  29.278  26.769  1.00  0.00    -0.206 F 
ATOM     72  C   UNL A   1      37.455  29.322  29.638  1.00  0.00     0.006 A 
ENDBRANCH  51  65
BRANCH  52  73
ATOM     73  C   UNL A   1      49.673  26.595  26.792  1.00  0.00     0.057 A 
ATOM     74  C   UNL A   1      50.635  26.341  27.776  1.00  0.00     0.134 A 
ATOM     75  C   UNL A   1      50.099  26.578  25.458  1.00  0.00     0.134 A 
ATOM     76  F   UNL A   1      50.298  26.371  29.074  1.00  0.00    -0.206 F 
ATOM     77  C   UNL A   1      51.972  26.098  27.449  1.00  0.00     0.040 A 
ATOM     78  C   UNL A   1      51.427  26.312  25.116  1.00  0.00     0.040 A 
ATOM     79  F   UNL A   1      49.231  26.819  24.466  1.00  0.00    -0.206 F 
ATOM     80  C   UNL A   1      52.370  26.079  26.114  1.00  0.00     0.006 A 
ENDBRANCH  52  73
BRANCH  64  81
ATOM     81  C   UNL A   1      46.395  32.524  28.413  1.00  0.00     0.057 A 
ATOM     82  C   UNL A   1      46.330  33.433  27.351  1.00  0.00     0.134 A 
ATOM     83  C   UNL A   1      46.868  32.995  29.645  1.00  0.00     0.134 A 
ATOM     84  F   UNL A   1      45.895  33.038  26.145  1.00  0.00    -0.206 F 
ATOM     85  C   UNL A   1      46.735  34.759  27.504  1.00  0.00     0.040 A 
ATOM     86  C   UNL A   1      47.252  34.325  29.817  1.00  0.00     0.040 A 
ATOM     87  F   UNL A   1      46.941  32.176  30.705  1.00  0.00    -0.206 F 
ATOM     88  C   UNL A   1      47.190  35.210  28.742  1.00  0.00     0.006 A 
ENDBRANCH  64  81
ENDBRANCH  38  39
ENDBRANCH  31  33
ENDBRANCH  30  31
ENDBRANCH  29  30
ENDBRANCH  28  29
ENDBRANCH  27  28
ENDBRANCH   1  27
TORSDOF 17
ENDMDL
