MODEL 1
REMARK VINA RESULT:     -11.5      0.000      0.000
REMARK SMILES O=C(OCCOCCOC(=O)c1cccc(N[C@H]2CCCC[C@@H]2O)c1)c1ccc(-c2c3nc(c(-c4c(F)cccc4F)c4ccc([nH]4)c(-c4c(F)cccc4F)c4nc(c(-c5c(F)cccc5F)c5ccc2[nH]5)C=C4)C=C3)cc1
REMARK SMILES IDX 7 1 6 2 5 3 4 4 3 5 2 6 1 7 26 8 27 9 79 10 28 11 78 12
REMARK SMILES IDX 29 13 30 14 31 15 72 16 32 17 77 18 71 19 73 20 33 21 76 22
REMARK SMILES IDX 70 23 69 24 34 26 60 27 43 28 59 29 44 30 47 31 58 32 74 33
REMARK SMILES IDX 45 34 46 35 57 37 75 38 48 39 35 40 36 41 41 42 37 43 38 44
REMARK SMILES IDX 40 45 42 46 39 47 61 48 62 49 67 50 63 51 64 52 66 53 68 54
REMARK SMILES IDX 65 55 49 56 50 57 55 58 51 59 52 60 54 61 56 62 53 63 8 64
REMARK SMILES IDX 9 65 10 66 11 67 12 68 13 69 25 70 14 71 16 72 15 73 17 74
REMARK SMILES IDX 18 76 19 77 23 78 20 79 22 80 21 81 24 82
REMARK H PARENT 73 25 47 36 17 75 24 83
REMARK Flexibility Score: inf
ROOT
ATOM      1  C   UNL A   1      40.769  20.700  26.229  1.00  0.00     0.202 C 
ENDROOT
BRANCH   1   2
ATOM      2  O   UNL A   1      41.700  21.536  25.529  1.00  0.00    -0.374 OA
BRANCH   2   3
ATOM      3  C   UNL A   1      43.076  21.341  25.865  1.00  0.00     0.202 C 
BRANCH   3   4
ATOM      4  C   UNL A   1      44.064  22.018  24.911  1.00  0.00     0.261 C 
BRANCH   4   5
ATOM      5  O   UNL A   1      43.652  23.365  24.631  1.00  0.00    -0.460 OA
BRANCH   5   6
ATOM      6  C   UNL A   1      44.173  24.521  25.104  1.00  0.00     0.338 C 
ATOM      7  O   UNL A   1      45.234  24.922  24.628  1.00  0.00    -0.246 OA
BRANCH   6   8
ATOM      8  C   UNL A   1      43.527  25.359  26.162  1.00  0.00     0.060 A 
ATOM      9  C   UNL A   1      43.807  26.704  26.409  1.00  0.00     0.016 A 
ATOM     10  C   UNL A   1      42.502  24.757  26.913  1.00  0.00     0.016 A 
ATOM     11  C   UNL A   1      43.163  27.410  27.413  1.00  0.00     0.010 A 
ATOM     12  C   UNL A   1      41.815  25.471  27.900  1.00  0.00     0.010 A 
ATOM     13  C   UNL A   1      42.169  26.796  28.169  1.00  0.00    -0.014 A 
BRANCH  13  14
ATOM     14  C   UNL A   1      41.632  27.549  29.314  1.00  0.00     0.031 A 
ATOM     15  C   UNL A   1      42.420  27.554  30.587  1.00  0.00     0.074 A 
ATOM     16  C   UNL A   1      40.562  28.344  29.139  1.00  0.00     0.049 A 
ATOM     17  N   UNL A   1      42.181  28.182  31.707  1.00  0.00    -0.248 NA
ATOM     18  C   UNL A   1      43.662  26.761  30.591  1.00  0.00     0.031 C 
ATOM     19  C   UNL A   1      39.819  28.490  27.884  1.00  0.00     0.029 A 
ATOM     20  N   UNL A   1      39.947  29.215  29.996  1.00  0.00    -0.354 N 
ATOM     21  C   UNL A   1      43.225  27.839  32.555  1.00  0.00     0.074 A 
ATOM     22  C   UNL A   1      44.099  26.948  31.827  1.00  0.00     0.031 C 
ATOM     23  C   UNL A   1      38.871  29.427  28.044  1.00  0.00     0.029 A 
ATOM     24  C   UNL A   1      38.903  29.900  29.423  1.00  0.00     0.049 A 
ATOM     25  H   UNL A   1      40.225  29.338  30.931  1.00  0.00     0.167 HD
ATOM     26  C   UNL A   1      43.424  28.232  33.834  1.00  0.00     0.037 A 
ATOM     27  C   UNL A   1      38.061  30.796  29.970  1.00  0.00     0.037 A 
ATOM     28  C   UNL A   1      42.536  29.120  34.531  1.00  0.00     0.049 A 
ATOM     29  C   UNL A   1      38.257  31.151  31.420  1.00  0.00     0.074 A 
ATOM     30  C   UNL A   1      42.583  29.538  35.848  1.00  0.00     0.029 A 
ATOM     31  N   UNL A   1      41.432  29.732  33.951  1.00  0.00    -0.354 N 
ATOM     32  N   UNL A   1      39.204  30.768  32.243  1.00  0.00    -0.248 NA
ATOM     33  C   UNL A   1      37.263  32.049  32.020  1.00  0.00     0.031 C 
ATOM     34  C   UNL A   1      41.483  30.374  36.074  1.00  0.00     0.029 A 
ATOM     35  C   UNL A   1      40.778  30.513  34.886  1.00  0.00     0.049 A 
ATOM     36  H   UNL A   1      41.155  29.625  33.012  1.00  0.00     0.167 HD
ATOM     37  C   UNL A   1      38.934  31.389  33.453  1.00  0.00     0.074 A 
ATOM     38  C   UNL A   1      37.743  32.191  33.247  1.00  0.00     0.031 C 
ATOM     39  C   UNL A   1      39.600  31.304  34.632  1.00  0.00     0.037 A 
BRANCH  26  40
ATOM     40  C   UNL A   1      44.593  27.628  34.552  1.00  0.00     0.057 A 
ATOM     41  C   UNL A   1      45.858  28.232  34.567  1.00  0.00     0.134 A 
ATOM     42  C   UNL A   1      44.462  26.390  35.193  1.00  0.00     0.134 A 
ATOM     43  F   UNL A   1      46.061  29.402  33.943  1.00  0.00    -0.206 F 
ATOM     44  C   UNL A   1      46.957  27.609  35.166  1.00  0.00     0.040 A 
ATOM     45  C   UNL A   1      45.546  25.769  35.815  1.00  0.00     0.040 A 
ATOM     46  F   UNL A   1      43.281  25.755  35.208  1.00  0.00    -0.206 F 
ATOM     47  C   UNL A   1      46.801  26.375  35.794  1.00  0.00     0.006 A 
ENDBRANCH  26  40
BRANCH  27  48
ATOM     48  C   UNL A   1      36.956  31.383  29.169  1.00  0.00     0.057 A 
ATOM     49  C   UNL A   1      36.996  32.711  28.728  1.00  0.00     0.134 A 
ATOM     50  C   UNL A   1      35.820  30.633  28.837  1.00  0.00     0.134 A 
ATOM     51  F   UNL A   1      38.044  33.491  29.028  1.00  0.00    -0.206 F 
ATOM     52  C   UNL A   1      35.943  33.274  28.001  1.00  0.00     0.040 A 
ATOM     53  C   UNL A   1      34.773  31.174  28.088  1.00  0.00     0.040 A 
ATOM     54  F   UNL A   1      35.714  29.354  29.229  1.00  0.00    -0.206 F 
ATOM     55  C   UNL A   1      34.830  32.502  27.675  1.00  0.00     0.006 A 
ENDBRANCH  27  48
BRANCH  39  56
ATOM     56  C   UNL A   1      39.071  32.131  35.764  1.00  0.00     0.057 A 
ATOM     57  C   UNL A   1      38.202  31.597  36.722  1.00  0.00     0.134 A 
ATOM     58  C   UNL A   1      39.469  33.465  35.912  1.00  0.00     0.134 A 
ATOM     59  F   UNL A   1      37.775  30.330  36.625  1.00  0.00    -0.206 F 
ATOM     60  C   UNL A   1      37.727  32.372  37.780  1.00  0.00     0.040 A 
ATOM     61  C   UNL A   1      39.022  34.241  36.980  1.00  0.00     0.040 A 
ATOM     62  F   UNL A   1      40.308  34.029  35.029  1.00  0.00    -0.206 F 
ATOM     63  C   UNL A   1      38.143  33.696  37.915  1.00  0.00     0.006 A 
ENDBRANCH  39  56
ENDBRANCH  13  14
ENDBRANCH   6   8
ENDBRANCH   5   6
ENDBRANCH   4   5
ENDBRANCH   3   4
ENDBRANCH   2   3
ENDBRANCH   1   2
BRANCH   1  64
ATOM     64  C   UNL A   1      39.506  21.500  26.565  1.00  0.00     0.261 C 
BRANCH  64  65
ATOM     65  O   UNL A   1      38.808  21.783  25.343  1.00  0.00    -0.460 OA
BRANCH  65  66
ATOM     66  C   UNL A   1      37.894  20.845  24.987  1.00  0.00     0.338 C 
ATOM     67  O   UNL A   1      38.008  19.633  25.049  1.00  0.00    -0.246 OA
BRANCH  66  68
ATOM     68  C   UNL A   1      36.617  21.548  24.761  1.00  0.00     0.062 A 
ATOM     69  C   UNL A   1      36.666  22.842  24.238  1.00  0.00     0.016 A 
ATOM     70  C   UNL A   1      35.388  20.905  24.958  1.00  0.00     0.041 A 
ATOM     71  C   UNL A   1      35.491  23.447  23.817  1.00  0.00     0.003 A 
ATOM     72  C   UNL A   1      34.187  21.535  24.621  1.00  0.00     0.035 A 
ATOM     73  C   UNL A   1      34.273  22.785  23.990  1.00  0.00     0.026 A 
BRANCH  72  74
ATOM     74  N   UNL A   1      32.999  20.914  24.961  1.00  0.00    -0.380 N 
ATOM     75  H   UNL A   1      32.408  21.398  25.584  1.00  0.00     0.160 HD
BRANCH  74  76
ATOM     76  C   UNL A   1      32.528  19.602  24.486  1.00  0.00     0.107 C 
ATOM     77  C   UNL A   1      32.534  19.503  22.951  1.00  0.00     0.027 C 
ATOM     78  C   UNL A   1      33.254  18.464  25.241  1.00  0.00     0.136 C 
ATOM     79  C   UNL A   1      32.318  18.086  22.439  1.00  0.00     0.002 C 
ATOM     80  C   UNL A   1      32.987  17.092  24.634  1.00  0.00     0.034 C 
ATOM     81  C   UNL A   1      33.243  17.095  23.134  1.00  0.00     0.003 C 
BRANCH  78  82
ATOM     82  O   UNL A   1      32.818  18.449  26.607  1.00  0.00    -0.391 OA
ATOM     83  H   UNL A   1      32.104  17.802  26.712  1.00  0.00     0.211 HD
ENDBRANCH  78  82
ENDBRANCH  74  76
ENDBRANCH  72  74
ENDBRANCH  66  68
ENDBRANCH  65  66
ENDBRANCH  64  65
ENDBRANCH   1  64
TORSDOF 17
ENDMDL
MODEL 2
REMARK VINA RESULT:     -11.4      1.529      2.875
REMARK SMILES O=C(OCCOCCOC(=O)c1cccc(N[C@H]2CCCC[C@@H]2O)c1)c1ccc(-c2c3nc(c(-c4c(F)cccc4F)c4ccc([nH]4)c(-c4c(F)cccc4F)c4nc(c(-c5c(F)cccc5F)c5ccc2[nH]5)C=C4)C=C3)cc1
REMARK SMILES IDX 7 1 6 2 5 3 4 4 3 5 2 6 1 7 26 8 27 9 79 10 28 11 78 12
REMARK SMILES IDX 29 13 30 14 31 15 72 16 32 17 77 18 71 19 73 20 33 21 76 22
REMARK SMILES IDX 70 23 69 24 34 26 60 27 43 28 59 29 44 30 47 31 58 32 74 33
REMARK SMILES IDX 45 34 46 35 57 37 75 38 48 39 35 40 36 41 41 42 37 43 38 44
REMARK SMILES IDX 40 45 42 46 39 47 61 48 62 49 67 50 63 51 64 52 66 53 68 54
REMARK SMILES IDX 65 55 49 56 50 57 55 58 51 59 52 60 54 61 56 62 53 63 8 64
REMARK SMILES IDX 9 65 10 66 11 67 12 68 13 69 25 70 14 71 16 72 15 73 17 74
REMARK SMILES IDX 18 76 19 77 23 78 20 79 22 80 21 81 24 82
REMARK H PARENT 73 25 47 36 17 75 24 83
REMARK Flexibility Score: inf
ROOT
ATOM      1  C   UNL A   1      46.086  19.994  25.004  1.00  0.00     0.202 C 
ENDROOT
BRANCH   1   2
ATOM      2  O   UNL A   1      45.777  21.358  25.315  1.00  0.00    -0.374 OA
BRANCH   2   3
ATOM      3  C   UNL A   1      46.301  22.330  24.407  1.00  0.00     0.202 C 
BRANCH   3   4
ATOM      4  C   UNL A   1      46.408  23.745  24.983  1.00  0.00     0.261 C 
BRANCH   4   5
ATOM      5  O   UNL A   1      45.257  24.525  24.623  1.00  0.00    -0.460 OA
BRANCH   5   6
ATOM      6  C   UNL A   1      43.985  24.405  25.066  1.00  0.00     0.338 C 
ATOM      7  O   UNL A   1      43.277  23.524  24.579  1.00  0.00    -0.246 OA
BRANCH   6   8
ATOM      8  C   UNL A   1      43.383  25.268  26.130  1.00  0.00     0.060 A 
ATOM      9  C   UNL A   1      43.771  26.576  26.423  1.00  0.00     0.016 A 
ATOM     10  C   UNL A   1      42.289  24.738  26.836  1.00  0.00     0.016 A 
ATOM     11  C   UNL A   1      43.162  27.309  27.429  1.00  0.00     0.010 A 
ATOM     12  C   UNL A   1      41.637  25.482  27.824  1.00  0.00     0.010 A 
ATOM     13  C   UNL A   1      42.097  26.764  28.140  1.00  0.00    -0.014 A 
BRANCH  13  14
ATOM     14  C   UNL A   1      41.594  27.531  29.292  1.00  0.00     0.031 A 
ATOM     15  C   UNL A   1      42.399  27.520  30.553  1.00  0.00     0.074 A 
ATOM     16  C   UNL A   1      40.539  28.349  29.131  1.00  0.00     0.049 A 
ATOM     17  N   UNL A   1      42.191  28.154  31.675  1.00  0.00    -0.248 NA
ATOM     18  C   UNL A   1      43.623  26.698  30.541  1.00  0.00     0.031 C 
ATOM     19  C   UNL A   1      39.782  28.511  27.887  1.00  0.00     0.029 A 
ATOM     20  N   UNL A   1      39.956  29.235  29.995  1.00  0.00    -0.354 N 
ATOM     21  C   UNL A   1      43.239  27.789  32.509  1.00  0.00     0.074 A 
ATOM     22  C   UNL A   1      44.082  26.878  31.770  1.00  0.00     0.031 C 
ATOM     23  C   UNL A   1      38.857  29.469  28.058  1.00  0.00     0.029 A 
ATOM     24  C   UNL A   1      38.919  29.943  29.436  1.00  0.00     0.049 A 
ATOM     25  H   UNL A   1      40.250  29.354  30.926  1.00  0.00     0.167 HD
ATOM     26  C   UNL A   1      43.466  28.180  33.784  1.00  0.00     0.037 A 
ATOM     27  C   UNL A   1      38.107  30.859  29.994  1.00  0.00     0.037 A 
ATOM     28  C   UNL A   1      42.608  29.088  34.493  1.00  0.00     0.049 A 
ATOM     29  C   UNL A   1      38.332  31.211  31.440  1.00  0.00     0.074 A 
ATOM     30  C   UNL A   1      42.683  29.507  35.808  1.00  0.00     0.029 A 
ATOM     31  N   UNL A   1      41.510  29.724  33.928  1.00  0.00    -0.354 N 
ATOM     32  N   UNL A   1      39.282  30.807  32.250  1.00  0.00    -0.248 NA
ATOM     33  C   UNL A   1      37.367  32.132  32.053  1.00  0.00     0.031 C 
ATOM     34  C   UNL A   1      41.605  30.367  36.048  1.00  0.00     0.029 A 
ATOM     35  C   UNL A   1      40.887  30.521  34.871  1.00  0.00     0.049 A 
ATOM     36  H   UNL A   1      41.217  29.622  32.993  1.00  0.00     0.167 HD
ATOM     37  C   UNL A   1      39.043  31.436  33.463  1.00  0.00     0.074 A 
ATOM     38  C   UNL A   1      37.867  32.265  33.273  1.00  0.00     0.031 C 
ATOM     39  C   UNL A   1      39.724  31.338  34.632  1.00  0.00     0.037 A 
BRANCH  26  40
ATOM     40  C   UNL A   1      44.631  27.550  34.487  1.00  0.00     0.057 A 
ATOM     41  C   UNL A   1      45.911  28.121  34.476  1.00  0.00     0.134 A 
ATOM     42  C   UNL A   1      44.479  26.320  35.138  1.00  0.00     0.134 A 
ATOM     43  F   UNL A   1      46.133  29.282  33.841  1.00  0.00    -0.206 F 
ATOM     44  C   UNL A   1      47.003  27.474  35.061  1.00  0.00     0.040 A 
ATOM     45  C   UNL A   1      45.557  25.675  35.745  1.00  0.00     0.040 A 
ATOM     46  F   UNL A   1      43.282  25.715  35.177  1.00  0.00    -0.206 F 
ATOM     47  C   UNL A   1      46.827  26.248  35.699  1.00  0.00     0.006 A 
ENDBRANCH  26  40
BRANCH  27  48
ATOM     48  C   UNL A   1      37.003  31.469  29.208  1.00  0.00     0.057 A 
ATOM     49  C   UNL A   1      37.068  32.794  28.761  1.00  0.00     0.134 A 
ATOM     50  C   UNL A   1      35.844  30.746  28.897  1.00  0.00     0.134 A 
ATOM     51  F   UNL A   1      38.140  33.550  29.042  1.00  0.00    -0.206 F 
ATOM     52  C   UNL A   1      36.018  33.380  28.049  1.00  0.00     0.040 A 
ATOM     53  C   UNL A   1      34.799  31.310  28.162  1.00  0.00     0.040 A 
ATOM     54  F   UNL A   1      35.714  29.472  29.295  1.00  0.00    -0.206 F 
ATOM     55  C   UNL A   1      34.882  32.634  27.743  1.00  0.00     0.006 A 
ENDBRANCH  27  48
BRANCH  39  56
ATOM     56  C   UNL A   1      39.230  32.178  35.770  1.00  0.00     0.057 A 
ATOM     57  C   UNL A   1      38.341  31.674  36.726  1.00  0.00     0.134 A 
ATOM     58  C   UNL A   1      39.682  33.494  35.927  1.00  0.00     0.134 A 
ATOM     59  F   UNL A   1      37.863  30.426  36.621  1.00  0.00    -0.206 F 
ATOM     60  C   UNL A   1      37.899  32.461  37.790  1.00  0.00     0.040 A 
ATOM     61  C   UNL A   1      39.268  34.280  37.000  1.00  0.00     0.040 A 
ATOM     62  F   UNL A   1      40.543  34.029  35.046  1.00  0.00    -0.206 F 
ATOM     63  C   UNL A   1      38.369  33.765  37.933  1.00  0.00     0.006 A 
ENDBRANCH  39  56
ENDBRANCH  13  14
ENDBRANCH   6   8
ENDBRANCH   5   6
ENDBRANCH   4   5
ENDBRANCH   3   4
ENDBRANCH   2   3
ENDBRANCH   1   2
BRANCH   1  64
ATOM     64  C   UNL A   1      44.790  19.183  24.890  1.00  0.00     0.261 C 
BRANCH  64  65
ATOM     65  O   UNL A   1      43.727  19.935  25.492  1.00  0.00    -0.460 OA
BRANCH  65  66
ATOM     66  C   UNL A   1      42.625  19.205  25.802  1.00  0.00     0.338 C 
ATOM     67  O   UNL A   1      42.528  17.990  25.857  1.00  0.00    -0.246 OA
BRANCH  66  68
ATOM     68  C   UNL A   1      41.619  20.143  26.334  1.00  0.00     0.062 A 
ATOM     69  C   UNL A   1      41.846  20.700  27.595  1.00  0.00     0.016 A 
ATOM     70  C   UNL A   1      40.527  20.554  25.560  1.00  0.00     0.041 A 
ATOM     71  C   UNL A   1      41.038  21.739  28.032  1.00  0.00     0.003 A 
ATOM     72  C   UNL A   1      39.650  21.539  26.023  1.00  0.00     0.035 A 
ATOM     73  C   UNL A   1      39.968  22.162  27.238  1.00  0.00     0.026 A 
BRANCH  72  74
ATOM     74  N   UNL A   1      38.513  21.809  25.283  1.00  0.00    -0.380 N 
ATOM     75  H   UNL A   1      38.643  22.020  24.330  1.00  0.00     0.160 HD
BRANCH  74  76
ATOM     76  C   UNL A   1      37.126  21.813  25.778  1.00  0.00     0.107 C 
ATOM     77  C   UNL A   1      36.594  23.238  26.008  1.00  0.00     0.027 C 
ATOM     78  C   UNL A   1      36.241  20.891  24.908  1.00  0.00     0.136 C 
ATOM     79  C   UNL A   1      35.092  23.288  26.254  1.00  0.00     0.002 C 
ATOM     80  C   UNL A   1      34.756  21.035  25.221  1.00  0.00     0.034 C 
ATOM     81  C   UNL A   1      34.329  22.496  25.200  1.00  0.00     0.003 C 
BRANCH  78  82
ATOM     82  O   UNL A   1      36.621  19.526  25.127  1.00  0.00    -0.391 OA
ATOM     83  H   UNL A   1      35.963  18.938  24.725  1.00  0.00     0.211 HD
ENDBRANCH  78  82
ENDBRANCH  74  76
ENDBRANCH  72  74
ENDBRANCH  66  68
ENDBRANCH  65  66
ENDBRANCH  64  65
ENDBRANCH   1  64
TORSDOF 17
ENDMDL
MODEL 3
REMARK VINA RESULT:     -11.2      6.051     11.269
REMARK SMILES O=C(OCCOCCOC(=O)c1cccc(N[C@H]2CCCC[C@@H]2O)c1)c1ccc(-c2c3nc(c(-c4c(F)cccc4F)c4ccc([nH]4)c(-c4c(F)cccc4F)c4nc(c(-c5c(F)cccc5F)c5ccc2[nH]5)C=C4)C=C3)cc1
REMARK SMILES IDX 7 1 6 2 5 3 4 4 3 5 2 6 1 7 26 8 27 9 79 10 28 11 78 12
REMARK SMILES IDX 29 13 30 14 31 15 72 16 32 17 77 18 71 19 73 20 33 21 76 22
REMARK SMILES IDX 70 23 69 24 34 26 60 27 43 28 59 29 44 30 47 31 58 32 74 33
REMARK SMILES IDX 45 34 46 35 57 37 75 38 48 39 35 40 36 41 41 42 37 43 38 44
REMARK SMILES IDX 40 45 42 46 39 47 61 48 62 49 67 50 63 51 64 52 66 53 68 54
REMARK SMILES IDX 65 55 49 56 50 57 55 58 51 59 52 60 54 61 56 62 53 63 8 64
REMARK SMILES IDX 9 65 10 66 11 67 12 68 13 69 25 70 14 71 16 72 15 73 17 74
REMARK SMILES IDX 18 76 19 77 23 78 20 79 22 80 21 81 24 82
REMARK H PARENT 73 25 47 36 17 75 24 83
REMARK Flexibility Score: inf
ROOT
ATOM      1  C   UNL A   1      34.535  35.512  33.333  1.00  0.00     0.202 C 
ENDROOT
BRANCH   1   2
ATOM      2  O   UNL A   1      35.865  35.499  32.798  1.00  0.00    -0.374 OA
BRANCH   2   3
ATOM      3  C   UNL A   1      36.819  34.734  33.537  1.00  0.00     0.202 C 
BRANCH   3   4
ATOM      4  C   UNL A   1      36.210  33.811  34.596  1.00  0.00     0.261 C 
BRANCH   4   5
ATOM      5  O   UNL A   1      36.280  32.440  34.172  1.00  0.00    -0.460 OA
BRANCH   5   6
ATOM      6  C   UNL A   1      36.132  31.936  32.926  1.00  0.00     0.338 C 
ATOM      7  O   UNL A   1      35.019  31.984  32.404  1.00  0.00    -0.246 OA
BRANCH   6   8
ATOM      8  C   UNL A   1      37.247  31.335  32.127  1.00  0.00     0.060 A 
ATOM      9  C   UNL A   1      38.281  30.556  32.646  1.00  0.00     0.016 A 
ATOM     10  C   UNL A   1      37.198  31.512  30.733  1.00  0.00     0.016 A 
ATOM     11  C   UNL A   1      39.279  30.036  31.835  1.00  0.00     0.010 A 
ATOM     12  C   UNL A   1      38.173  30.957  29.899  1.00  0.00     0.010 A 
ATOM     13  C   UNL A   1      39.235  30.241  30.460  1.00  0.00    -0.014 A 
BRANCH  13  14
ATOM     14  C   UNL A   1      40.398  29.795  29.675  1.00  0.00     0.031 A 
ATOM     15  C   UNL A   1      41.562  30.727  29.547  1.00  0.00     0.074 A 
ATOM     16  C   UNL A   1      40.462  28.520  29.253  1.00  0.00     0.049 A 
ATOM     17  N   UNL A   1      42.711  30.542  28.956  1.00  0.00    -0.248 NA
ATOM     18  C   UNL A   1      41.420  32.044  30.194  1.00  0.00     0.031 C 
ATOM     19  C   UNL A   1      39.416  27.513  29.458  1.00  0.00     0.029 A 
ATOM     20  N   UNL A   1      41.462  27.839  28.615  1.00  0.00    -0.354 N 
ATOM     21  C   UNL A   1      43.417  31.724  29.137  1.00  0.00     0.074 A 
ATOM     22  C   UNL A   1      42.571  32.622  29.889  1.00  0.00     0.031 C 
ATOM     23  C   UNL A   1      39.848  26.332  28.988  1.00  0.00     0.029 A 
ATOM     24  C   UNL A   1      41.170  26.514  28.398  1.00  0.00     0.049 A 
ATOM     25  H   UNL A   1      42.307  28.257  28.337  1.00  0.00     0.167 HD
ATOM     26  C   UNL A   1      44.661  32.027  28.701  1.00  0.00     0.037 A 
ATOM     27  C   UNL A   1      41.893  25.567  27.774  1.00  0.00     0.037 A 
ATOM     28  C   UNL A   1      45.479  31.112  27.955  1.00  0.00     0.049 A 
ATOM     29  C   UNL A   1      43.240  25.957  27.227  1.00  0.00     0.074 A 
ATOM     30  C   UNL A   1      46.724  31.319  27.393  1.00  0.00     0.029 A 
ATOM     31  N   UNL A   1      45.120  29.800  27.672  1.00  0.00    -0.354 N 
ATOM     32  N   UNL A   1      43.876  27.099  27.335  1.00  0.00    -0.248 NA
ATOM     33  C   UNL A   1      43.962  24.935  26.459  1.00  0.00     0.031 C 
ATOM     34  C   UNL A   1      47.101  30.142  26.735  1.00  0.00     0.029 A 
ATOM     35  C   UNL A   1      46.112  29.188  26.928  1.00  0.00     0.049 A 
ATOM     36  H   UNL A   1      44.282  29.369  27.957  1.00  0.00     0.167 HD
ATOM     37  C   UNL A   1      45.079  26.932  26.667  1.00  0.00     0.074 A 
ATOM     38  C   UNL A   1      45.091  25.568  26.174  1.00  0.00     0.031 C 
ATOM     39  C   UNL A   1      46.085  27.821  26.470  1.00  0.00     0.037 A 
BRANCH  26  40
ATOM     40  C   UNL A   1      45.145  33.423  28.957  1.00  0.00     0.057 A 
ATOM     41  C   UNL A   1      45.862  33.768  30.111  1.00  0.00     0.134 A 
ATOM     42  C   UNL A   1      44.837  34.451  28.057  1.00  0.00     0.134 A 
ATOM     43  F   UNL A   1      46.161  32.839  31.030  1.00  0.00    -0.206 F 
ATOM     44  C   UNL A   1      46.227  35.092  30.374  1.00  0.00     0.040 A 
ATOM     45  C   UNL A   1      45.216  35.772  28.297  1.00  0.00     0.040 A 
ATOM     46  F   UNL A   1      44.145  34.189  26.938  1.00  0.00    -0.206 F 
ATOM     47  C   UNL A   1      45.905  36.098  29.464  1.00  0.00     0.006 A 
ENDBRANCH  26  40
BRANCH  27  48
ATOM     48  C   UNL A   1      41.355  24.192  27.607  1.00  0.00     0.057 A 
ATOM     49  C   UNL A   1      41.856  23.114  28.346  1.00  0.00     0.134 A 
ATOM     50  C   UNL A   1      40.334  23.917  26.687  1.00  0.00     0.134 A 
ATOM     51  F   UNL A   1      42.848  23.302  29.228  1.00  0.00    -0.206 F 
ATOM     52  C   UNL A   1      41.372  21.814  28.167  1.00  0.00     0.040 A 
ATOM     53  C   UNL A   1      39.822  22.629  26.518  1.00  0.00     0.040 A 
ATOM     54  F   UNL A   1      39.808  24.903  25.944  1.00  0.00    -0.206 F 
ATOM     55  C   UNL A   1      40.348  21.572  27.254  1.00  0.00     0.006 A 
ENDBRANCH  27  48
BRANCH  39  56
ATOM     56  C   UNL A   1      47.286  27.323  25.725  1.00  0.00     0.057 A 
ATOM     57  C   UNL A   1      47.401  27.460  24.337  1.00  0.00     0.134 A 
ATOM     58  C   UNL A   1      48.352  26.735  26.414  1.00  0.00     0.134 A 
ATOM     59  F   UNL A   1      46.405  28.004  23.621  1.00  0.00    -0.206 F 
ATOM     60  C   UNL A   1      48.530  27.006  23.655  1.00  0.00     0.040 A 
ATOM     61  C   UNL A   1      49.497  26.301  25.747  1.00  0.00     0.040 A 
ATOM     62  F   UNL A   1      48.303  26.585  27.747  1.00  0.00    -0.206 F 
ATOM     63  C   UNL A   1      49.585  26.431  24.362  1.00  0.00     0.006 A 
ENDBRANCH  39  56
ENDBRANCH  13  14
ENDBRANCH   6   8
ENDBRANCH   5   6
ENDBRANCH   4   5
ENDBRANCH   3   4
ENDBRANCH   2   3
ENDBRANCH   1   2
BRANCH   1  64
ATOM     64  C   UNL A   1      33.518  35.343  32.200  1.00  0.00     0.261 C 
BRANCH  64  65
ATOM     65  O   UNL A   1      34.232  35.074  30.984  1.00  0.00    -0.460 OA
BRANCH  65  66
ATOM     66  C   UNL A   1      33.447  34.962  29.882  1.00  0.00     0.338 C 
ATOM     67  O   UNL A   1      32.534  35.695  29.541  1.00  0.00    -0.246 OA
BRANCH  66  68
ATOM     68  C   UNL A   1      34.065  33.945  29.011  1.00  0.00     0.062 A 
ATOM     69  C   UNL A   1      35.371  34.169  28.571  1.00  0.00     0.016 A 
ATOM     70  C   UNL A   1      33.412  32.741  28.721  1.00  0.00     0.041 A 
ATOM     71  C   UNL A   1      36.055  33.144  27.932  1.00  0.00     0.003 A 
ATOM     72  C   UNL A   1      34.055  31.731  28.002  1.00  0.00     0.035 A 
ATOM     73  C   UNL A   1      35.403  31.936  27.674  1.00  0.00     0.026 A 
BRANCH  72  74
ATOM     74  N   UNL A   1      33.322  30.620  27.625  1.00  0.00    -0.380 N 
ATOM     75  H   UNL A   1      32.837  30.145  28.339  1.00  0.00     0.160 HD
BRANCH  74  76
ATOM     76  C   UNL A   1      33.193  30.077  26.262  1.00  0.00     0.107 C 
ATOM     77  C   UNL A   1      33.991  28.775  26.078  1.00  0.00     0.027 C 
ATOM     78  C   UNL A   1      31.706  30.025  25.841  1.00  0.00     0.136 C 
ATOM     79  C   UNL A   1      33.664  28.047  24.781  1.00  0.00     0.002 C 
ATOM     80  C   UNL A   1      31.489  29.258  24.543  1.00  0.00     0.034 C 
ATOM     81  C   UNL A   1      32.161  27.893  24.592  1.00  0.00     0.003 C 
BRANCH  78  82
ATOM     82  O   UNL A   1      31.218  31.362  25.665  1.00  0.00    -0.391 OA
ATOM     83  H   UNL A   1      31.435  31.671  24.772  1.00  0.00     0.211 HD
ENDBRANCH  78  82
ENDBRANCH  74  76
ENDBRANCH  72  74
ENDBRANCH  66  68
ENDBRANCH  65  66
ENDBRANCH  64  65
ENDBRANCH   1  64
TORSDOF 17
ENDMDL
