MODEL 1
REMARK VINA RESULT:     -10.9      0.000      0.000
REMARK SMILES O=C(OCCOCCOC(=O)c1ccc(S(=O)(=O)NCc2ccn[nH]2)c(F)c1)c1ccc(-c2c3nc(c(-c4c(F)cccc4F)c4ccc([nH]4)c(-c4c(F)cccc4F)c4nc(c(-c5c(F)cccc5F)c5ccc2[nH]5)C=C4)C=C3)cc1
REMARK SMILES IDX 7 1 6 2 5 3 4 4 3 5 2 6 1 7 29 8 30 9 82 10 31 11 81 12
REMARK SMILES IDX 32 13 33 14 34 15 75 16 35 17 80 18 74 19 76 20 36 21 79 22
REMARK SMILES IDX 73 23 72 24 37 26 63 27 46 28 62 29 47 30 50 31 61 32 77 33
REMARK SMILES IDX 48 34 49 35 60 37 78 38 51 39 38 40 39 41 44 42 40 43 41 44
REMARK SMILES IDX 43 45 45 46 42 47 64 48 65 49 70 50 66 51 67 52 69 53 71 54
REMARK SMILES IDX 68 55 52 56 53 57 58 58 54 59 55 60 57 61 59 62 56 63 8 64
REMARK SMILES IDX 9 65 10 66 11 67 12 68 13 69 28 70 14 71 26 72 15 73 27 74
REMARK SMILES IDX 16 75 17 76 18 77 19 78 20 80 21 81 22 82 25 83 23 84 24 85
REMARK H PARENT 76 25 50 36 19 79 25 86
REMARK Flexibility Score: inf
ROOT
ATOM      1  C   UNL A   1      40.863  20.794  26.489  1.00  0.00     0.202 C 
ENDROOT
BRANCH   1   2
ATOM      2  O   UNL A   1      42.245  21.073  26.748  1.00  0.00    -0.374 OA
BRANCH   2   3
ATOM      3  C   UNL A   1      43.160  20.674  25.729  1.00  0.00     0.202 C 
BRANCH   3   4
ATOM      4  C   UNL A   1      44.114  21.784  25.277  1.00  0.00     0.261 C 
BRANCH   4   5
ATOM      5  O   UNL A   1      43.412  23.035  25.181  1.00  0.00    -0.460 OA
BRANCH   5   6
ATOM      6  C   UNL A   1      43.885  24.286  25.379  1.00  0.00     0.338 C 
ATOM      7  O   UNL A   1      44.700  24.743  24.580  1.00  0.00    -0.246 OA
BRANCH   6   8
ATOM      8  C   UNL A   1      43.472  25.155  26.522  1.00  0.00     0.060 A 
ATOM      9  C   UNL A   1      43.938  26.451  26.745  1.00  0.00     0.016 A 
ATOM     10  C   UNL A   1      42.465  24.662  27.371  1.00  0.00     0.016 A 
ATOM     11  C   UNL A   1      43.480  27.216  27.807  1.00  0.00     0.010 A 
ATOM     12  C   UNL A   1      41.961  25.442  28.416  1.00  0.00     0.010 A 
ATOM     13  C   UNL A   1      42.483  26.719  28.640  1.00  0.00    -0.014 A 
BRANCH  13  14
ATOM     14  C   UNL A   1      42.061  27.554  29.776  1.00  0.00     0.031 A 
ATOM     15  C   UNL A   1      40.832  28.391  29.632  1.00  0.00     0.074 A 
ATOM     16  C   UNL A   1      42.708  27.440  30.950  1.00  0.00     0.049 A 
ATOM     17  N   UNL A   1      40.287  29.210  30.488  1.00  0.00    -0.248 NA
ATOM     18  C   UNL A   1      40.106  28.276  28.355  1.00  0.00     0.031 C 
ATOM     19  C   UNL A   1      43.842  26.546  31.199  1.00  0.00     0.029 A 
ATOM     20  N   UNL A   1      42.486  28.043  32.157  1.00  0.00    -0.354 N 
ATOM     21  C   UNL A   1      39.174  29.731  29.845  1.00  0.00     0.074 A 
ATOM     22  C   UNL A   1      39.115  29.136  28.530  1.00  0.00     0.031 C 
ATOM     23  C   UNL A   1      44.199  26.642  32.490  1.00  0.00     0.029 A 
ATOM     24  C   UNL A   1      43.367  27.651  33.135  1.00  0.00     0.049 A 
ATOM     25  H   UNL A   1      41.765  28.696  32.311  1.00  0.00     0.167 HD
ATOM     26  C   UNL A   1      38.291  30.638  30.321  1.00  0.00     0.037 A 
ATOM     27  C   UNL A   1      43.501  28.089  34.400  1.00  0.00     0.037 A 
ATOM     28  C   UNL A   1      38.380  31.205  31.639  1.00  0.00     0.049 A 
ATOM     29  C   UNL A   1      42.562  29.160  34.878  1.00  0.00     0.074 A 
ATOM     30  C   UNL A   1      37.582  32.172  32.219  1.00  0.00     0.029 A 
ATOM     31  N   UNL A   1      39.338  30.850  32.581  1.00  0.00    -0.354 N 
ATOM     32  N   UNL A   1      41.551  29.707  34.243  1.00  0.00    -0.248 NA
ATOM     33  C   UNL A   1      42.788  29.693  36.227  1.00  0.00     0.031 C 
ATOM     34  C   UNL A   1      38.086  32.434  33.497  1.00  0.00     0.029 A 
ATOM     35  C   UNL A   1      39.167  31.594  33.732  1.00  0.00     0.049 A 
ATOM     36  H   UNL A   1      40.036  30.168  32.447  1.00  0.00     0.167 HD
ATOM     37  C   UNL A   1      41.017  30.646  35.112  1.00  0.00     0.074 A 
ATOM     38  C   UNL A   1      41.804  30.579  36.329  1.00  0.00     0.031 C 
ATOM     39  C   UNL A   1      39.976  31.494  34.923  1.00  0.00     0.037 A 
BRANCH  26  40
ATOM     40  C   UNL A   1      37.220  31.109  29.385  1.00  0.00     0.057 A 
ATOM     41  C   UNL A   1      36.116  30.291  29.110  1.00  0.00     0.134 A 
ATOM     42  C   UNL A   1      37.261  32.366  28.770  1.00  0.00     0.134 A 
ATOM     43  F   UNL A   1      36.011  29.078  29.673  1.00  0.00    -0.206 F 
ATOM     44  C   UNL A   1      35.094  30.706  28.257  1.00  0.00     0.040 A 
ATOM     45  C   UNL A   1      36.232  32.802  27.932  1.00  0.00     0.040 A 
ATOM     46  F   UNL A   1      38.276  33.210  29.015  1.00  0.00    -0.206 F 
ATOM     47  C   UNL A   1      35.147  31.968  27.669  1.00  0.00     0.006 A 
ENDBRANCH  26  40
BRANCH  27  48
ATOM     48  C   UNL A   1      44.585  27.545  35.259  1.00  0.00     0.057 A 
ATOM     49  C   UNL A   1      45.871  28.102  35.247  1.00  0.00     0.134 A 
ATOM     50  C   UNL A   1      44.378  26.430  36.079  1.00  0.00     0.134 A 
ATOM     51  F   UNL A   1      46.138  29.172  34.482  1.00  0.00    -0.206 F 
ATOM     52  C   UNL A   1      46.918  27.554  35.990  1.00  0.00     0.040 A 
ATOM     53  C   UNL A   1      45.410  25.885  36.848  1.00  0.00     0.040 A 
ATOM     54  F   UNL A   1      43.166  25.860  36.151  1.00  0.00    -0.206 F 
ATOM     55  C   UNL A   1      46.688  26.441  36.795  1.00  0.00     0.006 A 
ENDBRANCH  27  48
BRANCH  39  56
ATOM     56  C   UNL A   1      39.625  32.410  36.054  1.00  0.00     0.057 A 
ATOM     57  C   UNL A   1      38.606  32.070  36.952  1.00  0.00     0.134 A 
ATOM     58  C   UNL A   1      40.222  33.669  36.187  1.00  0.00     0.134 A 
ATOM     59  F   UNL A   1      37.989  30.882  36.866  1.00  0.00    -0.206 F 
ATOM     60  C   UNL A   1      38.176  32.963  37.933  1.00  0.00     0.040 A 
ATOM     61  C   UNL A   1      39.816  34.560  37.179  1.00  0.00     0.040 A 
ATOM     62  F   UNL A   1      41.209  34.043  35.361  1.00  0.00    -0.206 F 
ATOM     63  C   UNL A   1      38.782  34.213  38.047  1.00  0.00     0.006 A 
ENDBRANCH  39  56
ENDBRANCH  13  14
ENDBRANCH   6   8
ENDBRANCH   5   6
ENDBRANCH   4   5
ENDBRANCH   3   4
ENDBRANCH   2   3
ENDBRANCH   1   2
BRANCH   1  64
ATOM     64  C   UNL A   1      40.075  22.106  26.500  1.00  0.00     0.261 C 
BRANCH  64  65
ATOM     65  O   UNL A   1      38.717  21.810  26.136  1.00  0.00    -0.460 OA
BRANCH  65  66
ATOM     66  C   UNL A   1      37.919  22.898  25.990  1.00  0.00     0.338 C 
ATOM     67  O   UNL A   1      38.254  24.069  25.973  1.00  0.00    -0.246 OA
BRANCH  66  68
ATOM     68  C   UNL A   1      36.560  22.430  25.638  1.00  0.00     0.063 A 
ATOM     69  C   UNL A   1      36.320  21.104  25.262  1.00  0.00     0.017 A 
ATOM     70  C   UNL A   1      35.511  23.362  25.640  1.00  0.00     0.056 A 
ATOM     71  C   UNL A   1      35.029  20.707  24.913  1.00  0.00     0.026 A 
ATOM     72  C   UNL A   1      34.225  22.958  25.288  1.00  0.00     0.144 A 
ATOM     73  C   UNL A   1      33.980  21.638  24.941  1.00  0.00     0.118 A 
ATOM     74  F   UNL A   1      33.247  23.873  25.276  1.00  0.00    -0.205 F 
BRANCH  73  75
ATOM     75  S   UNL A   1      32.346  21.072  24.622  1.00  0.00     0.243 S 
ATOM     76  O   UNL A   1      31.489  21.680  25.621  1.00  0.00    -0.207 OA
ATOM     77  O   UNL A   1      32.101  21.267  23.212  1.00  0.00    -0.207 OA
BRANCH  75  78
ATOM     78  N   UNL A   1      32.285  19.431  24.894  1.00  0.00    -0.205 NA
ATOM     79  H   UNL A   1      31.365  19.252  25.297  1.00  0.00     0.141 HD
BRANCH  78  80
ATOM     80  C   UNL A   1      32.462  18.433  23.857  1.00  0.00     0.154 C 
BRANCH  80  81
ATOM     81  C   UNL A   1      33.270  17.269  24.288  1.00  0.00     0.050 A 
ATOM     82  C   UNL A   1      34.626  17.151  24.525  1.00  0.00     0.046 A 
ATOM     83  N   UNL A   1      32.744  16.046  24.621  1.00  0.00    -0.281 N 
ATOM     84  C   UNL A   1      34.800  15.852  25.035  1.00  0.00     0.135 A 
ATOM     85  N   UNL A   1      33.652  15.179  25.100  1.00  0.00    -0.184 NA
ATOM     86  H   UNL A   1      31.790  15.825  24.519  1.00  0.00     0.190 HD
ENDBRANCH  80  81
ENDBRANCH  78  80
ENDBRANCH  75  78
ENDBRANCH  73  75
ENDBRANCH  66  68
ENDBRANCH  65  66
ENDBRANCH  64  65
ENDBRANCH   1  64
TORSDOF 18
ENDMDL
MODEL 2
REMARK VINA RESULT:     -10.9      1.438      2.527
REMARK SMILES O=C(OCCOCCOC(=O)c1ccc(S(=O)(=O)NCc2ccn[nH]2)c(F)c1)c1ccc(-c2c3nc(c(-c4c(F)cccc4F)c4ccc([nH]4)c(-c4c(F)cccc4F)c4nc(c(-c5c(F)cccc5F)c5ccc2[nH]5)C=C4)C=C3)cc1
REMARK SMILES IDX 7 1 6 2 5 3 4 4 3 5 2 6 1 7 29 8 30 9 82 10 31 11 81 12
REMARK SMILES IDX 32 13 33 14 34 15 75 16 35 17 80 18 74 19 76 20 36 21 79 22
REMARK SMILES IDX 73 23 72 24 37 26 63 27 46 28 62 29 47 30 50 31 61 32 77 33
REMARK SMILES IDX 48 34 49 35 60 37 78 38 51 39 38 40 39 41 44 42 40 43 41 44
REMARK SMILES IDX 43 45 45 46 42 47 64 48 65 49 70 50 66 51 67 52 69 53 71 54
REMARK SMILES IDX 68 55 52 56 53 57 58 58 54 59 55 60 57 61 59 62 56 63 8 64
REMARK SMILES IDX 9 65 10 66 11 67 12 68 13 69 28 70 14 71 26 72 15 73 27 74
REMARK SMILES IDX 16 75 17 76 18 77 19 78 20 80 21 81 22 82 25 83 23 84 24 85
REMARK H PARENT 76 25 50 36 19 79 25 86
REMARK Flexibility Score: inf
ROOT
ATOM      1  C   UNL A   1      44.311  19.204  25.015  1.00  0.00     0.202 C 
ENDROOT
BRANCH   1   2
ATOM      2  O   UNL A   1      43.832  20.440  24.467  1.00  0.00    -0.374 OA
BRANCH   2   3
ATOM      3  C   UNL A   1      44.244  21.623  25.151  1.00  0.00     0.202 C 
BRANCH   3   4
ATOM      4  C   UNL A   1      44.247  22.880  24.276  1.00  0.00     0.261 C 
BRANCH   4   5
ATOM      5  O   UNL A   1      43.528  23.941  24.927  1.00  0.00    -0.460 OA
BRANCH   5   6
ATOM      6  C   UNL A   1      43.987  25.148  25.330  1.00  0.00     0.338 C 
ATOM      7  O   UNL A   1      44.902  25.673  24.698  1.00  0.00    -0.246 OA
BRANCH   6   8
ATOM      8  C   UNL A   1      43.440  25.890  26.506  1.00  0.00     0.060 A 
ATOM      9  C   UNL A   1      42.584  25.344  27.463  1.00  0.00     0.016 A 
ATOM     10  C   UNL A   1      43.907  27.200  26.711  1.00  0.00     0.016 A 
ATOM     11  C   UNL A   1      42.146  26.081  28.552  1.00  0.00     0.010 A 
ATOM     12  C   UNL A   1      43.511  27.937  27.831  1.00  0.00     0.010 A 
ATOM     13  C   UNL A   1      42.616  27.376  28.747  1.00  0.00    -0.014 A 
BRANCH  13  14
ATOM     14  C   UNL A   1      42.089  28.130  29.896  1.00  0.00     0.031 A 
ATOM     15  C   UNL A   1      40.814  28.890  29.728  1.00  0.00     0.074 A 
ATOM     16  C   UNL A   1      42.690  28.007  31.093  1.00  0.00     0.049 A 
ATOM     17  N   UNL A   1      40.178  29.634  30.590  1.00  0.00    -0.248 NA
ATOM     18  C   UNL A   1      40.155  28.785  28.415  1.00  0.00     0.031 C 
ATOM     19  C   UNL A   1      43.869  27.179  31.358  1.00  0.00     0.029 A 
ATOM     20  N   UNL A   1      42.374  28.540  32.312  1.00  0.00    -0.354 N 
ATOM     21  C   UNL A   1      39.061  30.109  29.917  1.00  0.00     0.074 A 
ATOM     22  C   UNL A   1      39.101  29.570  28.578  1.00  0.00     0.031 C 
ATOM     23  C   UNL A   1      44.161  27.241  32.667  1.00  0.00     0.029 A 
ATOM     24  C   UNL A   1      43.235  28.164  33.313  1.00  0.00     0.049 A 
ATOM     25  H   UNL A   1      41.605  29.138  32.458  1.00  0.00     0.167 HD
ATOM     26  C   UNL A   1      38.099  30.934  30.389  1.00  0.00     0.037 A 
ATOM     27  C   UNL A   1      43.283  28.553  34.600  1.00  0.00     0.037 A 
ATOM     28  C   UNL A   1      38.092  31.447  31.731  1.00  0.00     0.049 A 
ATOM     29  C   UNL A   1      42.254  29.538  35.077  1.00  0.00     0.074 A 
ATOM     30  C   UNL A   1      37.205  32.332  32.313  1.00  0.00     0.029 A 
ATOM     31  N   UNL A   1      39.029  31.114  32.702  1.00  0.00    -0.354 N 
ATOM     32  N   UNL A   1      41.237  30.046  34.419  1.00  0.00    -0.248 NA
ATOM     33  C   UNL A   1      42.383  30.025  36.456  1.00  0.00     0.031 C 
ATOM     34  C   UNL A   1      37.633  32.571  33.623  1.00  0.00     0.029 A 
ATOM     35  C   UNL A   1      38.756  31.794  33.874  1.00  0.00     0.049 A 
ATOM     36  H   UNL A   1      39.775  30.486  32.574  1.00  0.00     0.167 HD
ATOM     37  C   UNL A   1      40.603  30.909  35.299  1.00  0.00     0.074 A 
ATOM     38  C   UNL A   1      41.339  30.839  36.548  1.00  0.00     0.031 C 
ATOM     39  C   UNL A   1      39.517  31.694  35.096  1.00  0.00     0.037 A 
BRANCH  26  40
ATOM     40  C   UNL A   1      37.041  31.375  29.423  1.00  0.00     0.057 A 
ATOM     41  C   UNL A   1      35.960  30.532  29.130  1.00  0.00     0.134 A 
ATOM     42  C   UNL A   1      37.073  32.627  28.797  1.00  0.00     0.134 A 
ATOM     43  F   UNL A   1      35.866  29.323  29.703  1.00  0.00    -0.206 F 
ATOM     44  C   UNL A   1      34.951  30.919  28.249  1.00  0.00     0.040 A 
ATOM     45  C   UNL A   1      36.055  33.034  27.931  1.00  0.00     0.040 A 
ATOM     46  F   UNL A   1      38.064  33.493  29.057  1.00  0.00    -0.206 F 
ATOM     47  C   UNL A   1      34.993  32.176  27.651  1.00  0.00     0.006 A 
ENDBRANCH  26  40
BRANCH  27  48
ATOM     48  C   UNL A   1      44.362  28.044  35.487  1.00  0.00     0.057 A 
ATOM     49  C   UNL A   1      44.201  26.861  36.222  1.00  0.00     0.134 A 
ATOM     50  C   UNL A   1      45.559  28.746  35.658  1.00  0.00     0.134 A 
ATOM     51  F   UNL A   1      43.076  26.140  36.105  1.00  0.00    -0.206 F 
ATOM     52  C   UNL A   1      45.173  26.412  37.117  1.00  0.00     0.040 A 
ATOM     53  C   UNL A   1      46.553  28.295  36.532  1.00  0.00     0.040 A 
ATOM     54  F   UNL A   1      45.785  29.876  34.971  1.00  0.00    -0.206 F 
ATOM     55  C   UNL A   1      46.356  27.131  37.273  1.00  0.00     0.006 A 
ENDBRANCH  27  48
BRANCH  39  56
ATOM     56  C   UNL A   1      39.055  32.534  36.246  1.00  0.00     0.057 A 
ATOM     57  C   UNL A   1      39.571  33.821  36.438  1.00  0.00     0.134 A 
ATOM     58  C   UNL A   1      38.184  32.026  37.217  1.00  0.00     0.134 A 
ATOM     59  F   UNL A   1      40.420  34.355  35.546  1.00  0.00    -0.206 F 
ATOM     60  C   UNL A   1      39.252  34.569  37.570  1.00  0.00     0.040 A 
ATOM     61  C   UNL A   1      37.839  32.775  38.341  1.00  0.00     0.040 A 
ATOM     62  F   UNL A   1      37.651  30.803  37.080  1.00  0.00    -0.206 F 
ATOM     63  C   UNL A   1      38.385  34.045  38.527  1.00  0.00     0.006 A 
ENDBRANCH  39  56
ENDBRANCH  13  14
ENDBRANCH   6   8
ENDBRANCH   5   6
ENDBRANCH   4   5
ENDBRANCH   3   4
ENDBRANCH   2   3
ENDBRANCH   1   2
BRANCH   1  64
ATOM     64  C   UNL A   1      43.153  18.479  25.705  1.00  0.00     0.261 C 
BRANCH  64  65
ATOM     65  O   UNL A   1      41.948  19.215  25.438  1.00  0.00    -0.460 OA
BRANCH  65  66
ATOM     66  C   UNL A   1      41.351  19.742  26.537  1.00  0.00     0.338 C 
ATOM     67  O   UNL A   1      41.827  19.877  27.651  1.00  0.00    -0.246 OA
BRANCH  66  68
ATOM     68  C   UNL A   1      40.061  20.336  26.122  1.00  0.00     0.063 A 
ATOM     69  C   UNL A   1      39.094  19.581  25.448  1.00  0.00     0.017 A 
ATOM     70  C   UNL A   1      39.840  21.698  26.375  1.00  0.00     0.056 A 
ATOM     71  C   UNL A   1      37.901  20.183  25.051  1.00  0.00     0.026 A 
ATOM     72  C   UNL A   1      38.646  22.292  25.973  1.00  0.00     0.144 A 
ATOM     73  C   UNL A   1      37.676  21.540  25.329  1.00  0.00     0.118 A 
ATOM     74  F   UNL A   1      38.470  23.600  26.206  1.00  0.00    -0.205 F 
BRANCH  73  75
ATOM     75  S   UNL A   1      36.108  22.230  24.931  1.00  0.00     0.243 S 
ATOM     76  O   UNL A   1      35.599  22.841  26.142  1.00  0.00    -0.207 OA
ATOM     77  O   UNL A   1      36.284  23.003  23.723  1.00  0.00    -0.207 OA
BRANCH  75  78
ATOM     78  N   UNL A   1      35.057  20.994  24.557  1.00  0.00    -0.205 NA
ATOM     79  H   UNL A   1      35.634  20.156  24.479  1.00  0.00     0.141 HD
BRANCH  78  80
ATOM     80  C   UNL A   1      33.926  20.618  25.384  1.00  0.00     0.154 C 
BRANCH  80  81
ATOM     81  C   UNL A   1      33.511  19.207  25.210  1.00  0.00     0.050 A 
ATOM     82  C   UNL A   1      33.694  18.337  24.153  1.00  0.00     0.046 A 
ATOM     83  N   UNL A   1      32.895  18.460  26.183  1.00  0.00    -0.281 N 
ATOM     84  C   UNL A   1      33.202  17.099  24.605  1.00  0.00     0.135 A 
ATOM     85  N   UNL A   1      32.721  17.171  25.845  1.00  0.00    -0.184 NA
ATOM     86  H   UNL A   1      32.607  18.834  27.047  1.00  0.00     0.190 HD
ENDBRANCH  80  81
ENDBRANCH  78  80
ENDBRANCH  75  78
ENDBRANCH  73  75
ENDBRANCH  66  68
ENDBRANCH  65  66
ENDBRANCH  64  65
ENDBRANCH   1  64
TORSDOF 18
ENDMDL
MODEL 3
REMARK VINA RESULT:     -10.8      0.742      6.261
REMARK SMILES O=C(OCCOCCOC(=O)c1ccc(S(=O)(=O)NCc2ccn[nH]2)c(F)c1)c1ccc(-c2c3nc(c(-c4c(F)cccc4F)c4ccc([nH]4)c(-c4c(F)cccc4F)c4nc(c(-c5c(F)cccc5F)c5ccc2[nH]5)C=C4)C=C3)cc1
REMARK SMILES IDX 7 1 6 2 5 3 4 4 3 5 2 6 1 7 29 8 30 9 82 10 31 11 81 12
REMARK SMILES IDX 32 13 33 14 34 15 75 16 35 17 80 18 74 19 76 20 36 21 79 22
REMARK SMILES IDX 73 23 72 24 37 26 63 27 46 28 62 29 47 30 50 31 61 32 77 33
REMARK SMILES IDX 48 34 49 35 60 37 78 38 51 39 38 40 39 41 44 42 40 43 41 44
REMARK SMILES IDX 43 45 45 46 42 47 64 48 65 49 70 50 66 51 67 52 69 53 71 54
REMARK SMILES IDX 68 55 52 56 53 57 58 58 54 59 55 60 57 61 59 62 56 63 8 64
REMARK SMILES IDX 9 65 10 66 11 67 12 68 13 69 28 70 14 71 26 72 15 73 27 74
REMARK SMILES IDX 16 75 17 76 18 77 19 78 20 80 21 81 22 82 25 83 23 84 24 85
REMARK H PARENT 76 25 50 36 19 79 25 86
REMARK Flexibility Score: inf
ROOT
ATOM      1  C   UNL A   1      40.815  20.870  26.720  1.00  0.00     0.202 C 
ENDROOT
BRANCH   1   2
ATOM      2  O   UNL A   1      42.227  21.020  26.918  1.00  0.00    -0.374 OA
BRANCH   2   3
ATOM      3  C   UNL A   1      43.054  20.580  25.842  1.00  0.00     0.202 C 
BRANCH   3   4
ATOM      4  C   UNL A   1      43.956  21.674  25.261  1.00  0.00     0.261 C 
BRANCH   4   5
ATOM      5  O   UNL A   1      43.224  22.904  25.131  1.00  0.00    -0.460 OA
BRANCH   5   6
ATOM      6  C   UNL A   1      43.651  24.168  25.356  1.00  0.00     0.338 C 
ATOM      7  O   UNL A   1      44.506  24.644  24.612  1.00  0.00    -0.246 OA
BRANCH   6   8
ATOM      8  C   UNL A   1      43.140  25.028  26.466  1.00  0.00     0.060 A 
ATOM      9  C   UNL A   1      42.330  24.581  27.511  1.00  0.00     0.016 A 
ATOM     10  C   UNL A   1      43.593  26.358  26.507  1.00  0.00     0.016 A 
ATOM     11  C   UNL A   1      41.923  25.428  28.529  1.00  0.00     0.010 A 
ATOM     12  C   UNL A   1      43.229  27.209  27.555  1.00  0.00     0.010 A 
ATOM     13  C   UNL A   1      42.380  26.742  28.562  1.00  0.00    -0.014 A 
BRANCH  13  14
ATOM     14  C   UNL A   1      41.886  27.611  29.642  1.00  0.00     0.031 A 
ATOM     15  C   UNL A   1      42.679  27.704  30.905  1.00  0.00     0.074 A 
ATOM     16  C   UNL A   1      40.818  28.398  29.415  1.00  0.00     0.049 A 
ATOM     17  N   UNL A   1      42.428  28.386  31.987  1.00  0.00    -0.248 NA
ATOM     18  C   UNL A   1      43.935  26.935  30.949  1.00  0.00     0.031 C 
ATOM     19  C   UNL A   1      40.069  28.452  28.157  1.00  0.00     0.029 A 
ATOM     20  N   UNL A   1      40.203  29.324  30.211  1.00  0.00    -0.354 N 
ATOM     21  C   UNL A   1      43.477  28.108  32.852  1.00  0.00     0.074 A 
ATOM     22  C   UNL A   1      44.369  27.198  32.172  1.00  0.00     0.031 C 
ATOM     23  C   UNL A   1      39.110  29.385  28.260  1.00  0.00     0.029 A 
ATOM     24  C   UNL A   1      39.134  29.940  29.609  1.00  0.00     0.049 A 
ATOM     25  H   UNL A   1      40.497  29.529  31.128  1.00  0.00     0.167 HD
ATOM     26  C   UNL A   1      43.659  28.572  34.109  1.00  0.00     0.037 A 
ATOM     27  C   UNL A   1      38.257  30.828  30.109  1.00  0.00     0.037 A 
ATOM     28  C   UNL A   1      42.750  29.481  34.752  1.00  0.00     0.049 A 
ATOM     29  C   UNL A   1      38.431  31.262  31.537  1.00  0.00     0.074 A 
ATOM     30  C   UNL A   1      42.794  29.981  36.039  1.00  0.00     0.029 A 
ATOM     31  N   UNL A   1      41.625  30.023  34.143  1.00  0.00    -0.354 N 
ATOM     32  N   UNL A   1      39.384  30.942  32.381  1.00  0.00    -0.248 NA
ATOM     33  C   UNL A   1      37.407  32.155  32.093  1.00  0.00     0.031 C 
ATOM     34  C   UNL A   1      41.668  30.790  36.223  1.00  0.00     0.029 A 
ATOM     35  C   UNL A   1      40.951  30.836  35.035  1.00  0.00     0.049 A 
ATOM     36  H   UNL A   1      41.349  29.854  33.213  1.00  0.00     0.167 HD
ATOM     37  C   UNL A   1      39.081  31.593  33.567  1.00  0.00     0.074 A 
ATOM     38  C   UNL A   1      37.863  32.345  33.325  1.00  0.00     0.031 C 
ATOM     39  C   UNL A   1      39.740  31.567  34.751  1.00  0.00     0.037 A 
BRANCH  26  40
ATOM     40  C   UNL A   1      44.836  28.042  34.871  1.00  0.00     0.057 A 
ATOM     41  C   UNL A   1      44.701  26.896  35.666  1.00  0.00     0.134 A 
ATOM     42  C   UNL A   1      46.100  28.641  34.811  1.00  0.00     0.134 A 
ATOM     43  F   UNL A   1      43.519  26.269  35.761  1.00  0.00    -0.206 F 
ATOM     44  C   UNL A   1      45.779  26.367  36.375  1.00  0.00     0.040 A 
ATOM     45  C   UNL A   1      47.193  28.107  35.498  1.00  0.00     0.040 A 
ATOM     46  F   UNL A   1      46.304  29.723  34.044  1.00  0.00    -0.206 F 
ATOM     47  C   UNL A   1      47.032  26.970  36.288  1.00  0.00     0.006 A 
ENDBRANCH  26  40
BRANCH  27  48
ATOM     48  C   UNL A   1      37.132  31.312  29.267  1.00  0.00     0.057 A 
ATOM     49  C   UNL A   1      37.146  32.595  28.702  1.00  0.00     0.134 A 
ATOM     50  C   UNL A   1      35.997  30.525  29.041  1.00  0.00     0.134 A 
ATOM     51  F   UNL A   1      38.203  33.401  28.882  1.00  0.00    -0.206 F 
ATOM     52  C   UNL A   1      36.063  33.091  27.975  1.00  0.00     0.040 A 
ATOM     53  C   UNL A   1      34.916  30.999  28.292  1.00  0.00     0.040 A 
ATOM     54  F   UNL A   1      35.928  29.281  29.537  1.00  0.00    -0.206 F 
ATOM     55  C   UNL A   1      34.943  32.290  27.766  1.00  0.00     0.006 A 
ENDBRANCH  27  48
BRANCH  39  56
ATOM     56  C   UNL A   1      39.166  32.378  35.872  1.00  0.00     0.057 A 
ATOM     57  C   UNL A   1      39.595  33.694  36.088  1.00  0.00     0.134 A 
ATOM     58  C   UNL A   1      38.273  31.820  36.793  1.00  0.00     0.134 A 
ATOM     59  F   UNL A   1      40.459  34.277  35.244  1.00  0.00    -0.206 F 
ATOM     60  C   UNL A   1      39.170  34.421  37.198  1.00  0.00     0.040 A 
ATOM     61  C   UNL A   1      37.823  32.547  37.895  1.00  0.00     0.040 A 
ATOM     62  F   UNL A   1      37.822  30.568  36.631  1.00  0.00    -0.206 F 
ATOM     63  C   UNL A   1      38.282  33.847  38.107  1.00  0.00     0.006 A 
ENDBRANCH  39  56
ENDBRANCH  13  14
ENDBRANCH   6   8
ENDBRANCH   5   6
ENDBRANCH   4   5
ENDBRANCH   3   4
ENDBRANCH   2   3
ENDBRANCH   1   2
BRANCH   1  64
ATOM     64  C   UNL A   1      40.191  22.250  26.493  1.00  0.00     0.261 C 
BRANCH  64  65
ATOM     65  O   UNL A   1      38.795  22.063  26.208  1.00  0.00    -0.460 OA
BRANCH  65  66
ATOM     66  C   UNL A   1      38.072  23.208  26.140  1.00  0.00     0.338 C 
ATOM     67  O   UNL A   1      38.479  24.353  26.240  1.00  0.00    -0.246 OA
BRANCH  66  68
ATOM     68  C   UNL A   1      36.698  22.864  25.710  1.00  0.00     0.063 A 
ATOM     69  C   UNL A   1      35.658  23.798  25.776  1.00  0.00     0.017 A 
ATOM     70  C   UNL A   1      36.442  21.555  25.276  1.00  0.00     0.056 A 
ATOM     71  C   UNL A   1      34.372  23.428  25.385  1.00  0.00     0.026 A 
ATOM     72  C   UNL A   1      35.153  21.193  24.889  1.00  0.00     0.144 A 
ATOM     73  C   UNL A   1      34.127  22.125  24.928  1.00  0.00     0.118 A 
ATOM     74  F   UNL A   1      34.932  19.930  24.501  1.00  0.00    -0.205 F 
BRANCH  73  75
ATOM     75  S   UNL A   1      32.524  21.734  24.321  1.00  0.00     0.243 S 
ATOM     76  O   UNL A   1      31.586  22.565  25.048  1.00  0.00    -0.207 OA
ATOM     77  O   UNL A   1      32.598  21.778  22.879  1.00  0.00    -0.207 OA
BRANCH  75  78
ATOM     78  N   UNL A   1      32.164  20.161  24.732  1.00  0.00    -0.205 NA
ATOM     79  H   UNL A   1      31.215  20.183  25.104  1.00  0.00     0.141 HD
BRANCH  78  80
ATOM     80  C   UNL A   1      32.194  19.054  23.794  1.00  0.00     0.154 C 
BRANCH  80  81
ATOM     81  C   UNL A   1      32.660  17.783  24.395  1.00  0.00     0.050 A 
ATOM     82  C   UNL A   1      32.718  17.378  25.714  1.00  0.00     0.046 A 
ATOM     83  N   UNL A   1      33.070  16.693  23.670  1.00  0.00    -0.281 N 
ATOM     84  C   UNL A   1      33.124  16.032  25.669  1.00  0.00     0.135 A 
ATOM     85  N   UNL A   1      33.333  15.611  24.423  1.00  0.00    -0.184 NA
ATOM     86  H   UNL A   1      33.163  16.703  22.690  1.00  0.00     0.190 HD
ENDBRANCH  80  81
ENDBRANCH  78  80
ENDBRANCH  75  78
ENDBRANCH  73  75
ENDBRANCH  66  68
ENDBRANCH  65  66
ENDBRANCH  64  65
ENDBRANCH   1  64
TORSDOF 18
ENDMDL
