MODEL 1
REMARK VINA RESULT:     -10.8      0.000      0.000
REMARK SMILES O=C(CCc1cccnc1)Nc1ccsc1C(=O)OCCOCCOC(=O)c1ccc(-c2c3nc(c(-c4c(F)cccc4F)c4ccc([nH]4)c(-c4c(F)cccc4F)c4nc(c(-c5c(F)cccc5F)c5ccc2[nH]5)C=C4)C=C3)cc1
REMARK SMILES IDX 21 1 20 2 19 3 17 4 18 5 16 6 12 7 13 8 14 9 15 10 11 11
REMARK SMILES IDX 1 12 2 13 3 15 4 16 5 17 6 18 10 19 7 20 9 21 8 22 22 23
REMARK SMILES IDX 23 24 24 25 25 26 26 27 27 28 28 29 29 30 81 31 30 32 80 33
REMARK SMILES IDX 31 34 32 35 33 36 74 37 34 38 79 39 73 40 75 41 35 42 78 43
REMARK SMILES IDX 72 44 71 45 36 47 62 48 45 49 61 50 46 51 49 52 60 53 76 54
REMARK SMILES IDX 47 55 48 56 59 58 77 59 50 60 37 61 38 62 43 63 39 64 40 65
REMARK SMILES IDX 42 66 44 67 41 68 63 69 64 70 69 71 65 72 66 73 68 74 70 75
REMARK SMILES IDX 67 76 51 77 52 78 57 79 53 80 54 81 56 82 58 83 55 84
REMARK H PARENT 11 14 75 46 49 57
REMARK Flexibility Score: inf
ROOT
ATOM      1  C   UNL A   1      33.299  35.903  30.528  1.00  0.00     0.202 C 
ENDROOT
BRANCH   1   2
ATOM      2  C   UNL A   1      32.929  35.729  29.054  1.00  0.00     0.261 C 
BRANCH   2   3
ATOM      3  O   UNL A   1      33.838  34.817  28.408  1.00  0.00    -0.459 OA
BRANCH   3   4
ATOM      4  C   UNL A   1      33.236  33.699  27.897  1.00  0.00     0.350 C 
ATOM      5  O   UNL A   1      32.083  33.684  27.480  1.00  0.00    -0.245 OA
BRANCH   4   6
ATOM      6  C   UNL A   1      34.180  32.595  27.820  1.00  0.00     0.136 A 
ATOM      7  C   UNL A   1      34.030  31.237  27.553  1.00  0.00     0.066 A 
ATOM      8  C   UNL A   1      35.292  30.559  27.628  1.00  0.00     0.039 A 
ATOM      9  C   UNL A   1      36.339  31.390  27.938  1.00  0.00     0.068 A 
ATOM     10  S   UNL A   1      35.828  32.996  28.139  1.00  0.00    -0.135 S 
BRANCH   7  11
ATOM     11  N   UNL A   1      32.814  30.649  27.189  1.00  0.00    -0.325 N 
ATOM     12  O   UNL A   1      33.478  29.514  25.277  1.00  0.00    -0.275 OA
ATOM     13  C   UNL A   1      32.594  29.951  26.016  1.00  0.00     0.224 C 
ATOM     14  H   UNL A   1      32.059  30.740  27.814  1.00  0.00     0.169 HD
BRANCH  13  15
ATOM     15  C   UNL A   1      31.145  29.827  25.564  1.00  0.00     0.105 C 
BRANCH  15  16
ATOM     16  C   UNL A   1      30.896  29.276  24.167  1.00  0.00     0.047 C 
BRANCH  16  17
ATOM     17  C   UNL A   1      29.908  29.995  23.285  1.00  0.00    -0.029 A 
ATOM     18  C   UNL A   1      29.146  31.031  23.832  1.00  0.00     0.007 A 
ATOM     19  C   UNL A   1      29.671  29.684  21.951  1.00  0.00     0.114 A 
ATOM     20  C   UNL A   1      28.206  31.701  23.058  1.00  0.00     0.020 A 
ATOM     21  N   UNL A   1      28.797  30.348  21.162  1.00  0.00    -0.264 NA
ATOM     22  C   UNL A   1      28.079  31.336  21.733  1.00  0.00     0.111 A 
ENDBRANCH  16  17
ENDBRANCH  15  16
ENDBRANCH  13  15
ENDBRANCH   7  11
ENDBRANCH   4   6
ENDBRANCH   3   4
ENDBRANCH   2   3
ENDBRANCH   1   2
BRANCH   1  23
ATOM     23  O   UNL A   1      33.369  34.679  31.260  1.00  0.00    -0.374 OA
BRANCH  23  24
ATOM     24  C   UNL A   1      34.406  34.569  32.234  1.00  0.00     0.202 C 
BRANCH  24  25
ATOM     25  C   UNL A   1      34.339  33.314  33.111  1.00  0.00     0.261 C 
BRANCH  25  26
ATOM     26  O   UNL A   1      35.257  32.289  32.683  1.00  0.00    -0.460 OA
BRANCH  26  27
ATOM     27  C   UNL A   1      36.423  32.228  33.374  1.00  0.00     0.338 C 
ATOM     28  O   UNL A   1      36.625  32.582  34.523  1.00  0.00    -0.246 OA
BRANCH  27  29
ATOM     29  C   UNL A   1      37.444  31.528  32.565  1.00  0.00     0.060 A 
ATOM     30  C   UNL A   1      38.256  30.572  33.193  1.00  0.00     0.016 A 
ATOM     31  C   UNL A   1      37.635  31.834  31.216  1.00  0.00     0.016 A 
ATOM     32  C   UNL A   1      39.268  29.928  32.474  1.00  0.00     0.010 A 
ATOM     33  C   UNL A   1      38.646  31.187  30.499  1.00  0.00     0.010 A 
ATOM     34  C   UNL A   1      39.482  30.245  31.127  1.00  0.00    -0.014 A 
BRANCH  34  35
ATOM     35  C   UNL A   1      40.663  29.724  30.394  1.00  0.00     0.031 A 
ATOM     36  C   UNL A   1      41.816  30.653  30.142  1.00  0.00     0.074 A 
ATOM     37  C   UNL A   1      40.699  28.469  29.911  1.00  0.00     0.049 A 
ATOM     38  N   UNL A   1      42.904  30.453  29.444  1.00  0.00    -0.248 NA
ATOM     39  C   UNL A   1      41.727  31.987  30.757  1.00  0.00     0.031 C 
ATOM     40  C   UNL A   1      39.667  27.458  30.108  1.00  0.00     0.029 A 
ATOM     41  N   UNL A   1      41.635  27.839  29.127  1.00  0.00    -0.354 N 
ATOM     42  C   UNL A   1      43.630  31.632  29.538  1.00  0.00     0.074 A 
ATOM     43  C   UNL A   1      42.841  32.556  30.325  1.00  0.00     0.031 C 
ATOM     44  C   UNL A   1      39.997  26.348  29.425  1.00  0.00     0.029 A 
ATOM     45  C   UNL A   1      41.263  26.576  28.735  1.00  0.00     0.049 A 
ATOM     46  H   UNL A   1      42.490  28.254  28.870  1.00  0.00     0.167 HD
ATOM     47  C   UNL A   1      44.851  31.915  29.028  1.00  0.00     0.037 A 
ATOM     48  C   UNL A   1      41.867  25.707  27.901  1.00  0.00     0.037 A 
ATOM     49  C   UNL A   1      45.635  31.004  28.241  1.00  0.00     0.049 A 
ATOM     50  C   UNL A   1      43.186  26.074  27.277  1.00  0.00     0.074 A 
ATOM     51  C   UNL A   1      46.898  31.190  27.708  1.00  0.00     0.029 A 
ATOM     52  N   UNL A   1      45.223  29.736  27.862  1.00  0.00    -0.354 N 
ATOM     53  N   UNL A   1      43.889  27.171  27.419  1.00  0.00    -0.248 NA
ATOM     54  C   UNL A   1      43.801  25.079  26.386  1.00  0.00     0.031 C 
ATOM     55  C   UNL A   1      47.233  30.050  26.972  1.00  0.00     0.029 A 
ATOM     56  C   UNL A   1      46.197  29.138  27.080  1.00  0.00     0.049 A 
ATOM     57  H   UNL A   1      44.365  29.322  28.112  1.00  0.00     0.167 HD
ATOM     58  C   UNL A   1      45.044  26.982  26.672  1.00  0.00     0.074 A 
ATOM     59  C   UNL A   1      44.947  25.667  26.074  1.00  0.00     0.031 C 
ATOM     60  C   UNL A   1      46.096  27.821  26.505  1.00  0.00     0.037 A 
BRANCH  47  61
ATOM     61  C   UNL A   1      45.404  33.279  29.307  1.00  0.00     0.057 A 
ATOM     62  C   UNL A   1      45.159  34.359  28.450  1.00  0.00     0.134 A 
ATOM     63  C   UNL A   1      46.183  33.516  30.445  1.00  0.00     0.134 A 
ATOM     64  F   UNL A   1      44.436  34.190  27.333  1.00  0.00    -0.206 F 
ATOM     65  C   UNL A   1      45.688  35.625  28.705  1.00  0.00     0.040 A 
ATOM     66  C   UNL A   1      46.699  34.783  30.722  1.00  0.00     0.040 A 
ATOM     67  F   UNL A   1      46.454  32.522  31.304  1.00  0.00    -0.206 F 
ATOM     68  C   UNL A   1      46.457  35.840  29.847  1.00  0.00     0.006 A 
ENDBRANCH  47  61
BRANCH  48  69
ATOM     69  C   UNL A   1      41.235  24.398  27.602  1.00  0.00     0.057 A 
ATOM     70  C   UNL A   1      40.183  24.296  26.685  1.00  0.00     0.134 A 
ATOM     71  C   UNL A   1      41.650  23.225  28.243  1.00  0.00     0.134 A 
ATOM     72  F   UNL A   1      39.729  25.390  26.056  1.00  0.00    -0.206 F 
ATOM     73  C   UNL A   1      39.551  23.077  26.431  1.00  0.00     0.040 A 
ATOM     74  C   UNL A   1      41.040  21.996  27.985  1.00  0.00     0.040 A 
ATOM     75  F   UNL A   1      42.653  23.259  29.133  1.00  0.00    -0.206 F 
ATOM     76  C   UNL A   1      39.982  21.922  27.080  1.00  0.00     0.006 A 
ENDBRANCH  48  69
BRANCH  60  77
ATOM     77  C   UNL A   1      47.250  27.330  25.684  1.00  0.00     0.057 A 
ATOM     78  C   UNL A   1      47.338  27.577  24.310  1.00  0.00     0.134 A 
ATOM     79  C   UNL A   1      48.317  26.656  26.292  1.00  0.00     0.134 A 
ATOM     80  F   UNL A   1      46.343  28.207  23.667  1.00  0.00    -0.206 F 
ATOM     81  C   UNL A   1      48.443  27.161  23.565  1.00  0.00     0.040 A 
ATOM     82  C   UNL A   1      49.436  26.254  25.564  1.00  0.00     0.040 A 
ATOM     83  F   UNL A   1      48.295  26.394  27.609  1.00  0.00    -0.206 F 
ATOM     84  C   UNL A   1      49.500  26.505  24.195  1.00  0.00     0.006 A 
ENDBRANCH  60  77
ENDBRANCH  34  35
ENDBRANCH  27  29
ENDBRANCH  26  27
ENDBRANCH  25  26
ENDBRANCH  24  25
ENDBRANCH  23  24
ENDBRANCH   1  23
TORSDOF 18
ENDMDL
MODEL 2
REMARK VINA RESULT:     -10.5      4.266      8.375
REMARK SMILES O=C(CCc1cccnc1)Nc1ccsc1C(=O)OCCOCCOC(=O)c1ccc(-c2c3nc(c(-c4c(F)cccc4F)c4ccc([nH]4)c(-c4c(F)cccc4F)c4nc(c(-c5c(F)cccc5F)c5ccc2[nH]5)C=C4)C=C3)cc1
REMARK SMILES IDX 21 1 20 2 19 3 17 4 18 5 16 6 12 7 13 8 14 9 15 10 11 11
REMARK SMILES IDX 1 12 2 13 3 15 4 16 5 17 6 18 10 19 7 20 9 21 8 22 22 23
REMARK SMILES IDX 23 24 24 25 25 26 26 27 27 28 28 29 29 30 81 31 30 32 80 33
REMARK SMILES IDX 31 34 32 35 33 36 74 37 34 38 79 39 73 40 75 41 35 42 78 43
REMARK SMILES IDX 72 44 71 45 36 47 62 48 45 49 61 50 46 51 49 52 60 53 76 54
REMARK SMILES IDX 47 55 48 56 59 58 77 59 50 60 37 61 38 62 43 63 39 64 40 65
REMARK SMILES IDX 42 66 44 67 41 68 63 69 64 70 69 71 65 72 66 73 68 74 70 75
REMARK SMILES IDX 67 76 51 77 52 78 57 79 53 80 54 81 56 82 58 83 55 84
REMARK H PARENT 11 14 75 46 49 57
REMARK Flexibility Score: inf
ROOT
ATOM      1  C   UNL A   1      32.952  29.102  25.842  1.00  0.00     0.202 C 
ENDROOT
BRANCH   1   2
ATOM      2  C   UNL A   1      32.272  28.135  26.813  1.00  0.00     0.261 C 
BRANCH   2   3
ATOM      3  O   UNL A   1      31.279  27.347  26.129  1.00  0.00    -0.459 OA
BRANCH   3   4
ATOM      4  C   UNL A   1      31.558  26.007  26.092  1.00  0.00     0.350 C 
ATOM      5  O   UNL A   1      31.136  25.207  26.920  1.00  0.00    -0.245 OA
BRANCH   4   6
ATOM      6  C   UNL A   1      32.314  25.671  24.895  1.00  0.00     0.136 A 
ATOM      7  C   UNL A   1      32.043  25.804  23.536  1.00  0.00     0.066 A 
ATOM      8  C   UNL A   1      33.122  25.282  22.747  1.00  0.00     0.039 A 
ATOM      9  C   UNL A   1      34.156  24.784  23.500  1.00  0.00     0.068 A 
ATOM     10  S   UNL A   1      33.853  24.937  25.163  1.00  0.00    -0.135 S 
BRANCH   7  11
ATOM     11  N   UNL A   1      30.900  26.431  23.031  1.00  0.00    -0.325 N 
ATOM     12  O   UNL A   1      31.759  28.547  22.616  1.00  0.00    -0.275 OA
ATOM     13  C   UNL A   1      30.803  27.779  22.740  1.00  0.00     0.224 C 
ATOM     14  H   UNL A   1      30.106  25.872  22.873  1.00  0.00     0.169 HD
BRANCH  13  15
ATOM     15  C   UNL A   1      29.396  28.361  22.690  1.00  0.00     0.105 C 
BRANCH  15  16
ATOM     16  C   UNL A   1      29.176  29.711  23.358  1.00  0.00     0.047 C 
BRANCH  16  17
ATOM     17  C   UNL A   1      28.706  30.859  22.504  1.00  0.00    -0.029 A 
ATOM     18  C   UNL A   1      28.238  30.592  21.214  1.00  0.00     0.007 A 
ATOM     19  C   UNL A   1      28.725  32.193  22.896  1.00  0.00     0.114 A 
ATOM     20  C   UNL A   1      27.821  31.626  20.385  1.00  0.00     0.020 A 
ATOM     21  N   UNL A   1      28.282  33.214  22.129  1.00  0.00    -0.264 NA
ATOM     22  C   UNL A   1      27.846  32.911  20.890  1.00  0.00     0.111 A 
ENDBRANCH  16  17
ENDBRANCH  15  16
ENDBRANCH  13  15
ENDBRANCH   7  11
ENDBRANCH   4   6
ENDBRANCH   3   4
ENDBRANCH   2   3
ENDBRANCH   1   2
BRANCH   1  23
ATOM     23  O   UNL A   1      32.285  30.356  25.704  1.00  0.00    -0.374 OA
BRANCH  23  24
ATOM     24  C   UNL A   1      31.789  30.958  26.900  1.00  0.00     0.202 C 
BRANCH  24  25
ATOM     25  C   UNL A   1      31.783  32.490  26.900  1.00  0.00     0.261 C 
BRANCH  25  26
ATOM     26  O   UNL A   1      33.104  33.049  27.043  1.00  0.00    -0.460 OA
BRANCH  26  27
ATOM     27  C   UNL A   1      33.263  33.900  28.088  1.00  0.00     0.338 C 
ATOM     28  O   UNL A   1      32.526  34.811  28.423  1.00  0.00    -0.246 OA
BRANCH  27  29
ATOM     29  C   UNL A   1      34.436  33.488  28.889  1.00  0.00     0.060 A 
ATOM     30  C   UNL A   1      35.701  33.967  28.518  1.00  0.00     0.016 A 
ATOM     31  C   UNL A   1      34.306  32.608  29.965  1.00  0.00     0.016 A 
ATOM     32  C   UNL A   1      36.841  33.556  29.218  1.00  0.00     0.010 A 
ATOM     33  C   UNL A   1      35.447  32.201  30.665  1.00  0.00     0.010 A 
ATOM     34  C   UNL A   1      36.723  32.656  30.284  1.00  0.00    -0.014 A 
BRANCH  34  35
ATOM     35  C   UNL A   1      37.923  32.056  30.918  1.00  0.00     0.031 A 
ATOM     36  C   UNL A   1      38.635  30.947  30.198  1.00  0.00     0.074 A 
ATOM     37  C   UNL A   1      38.350  32.445  32.134  1.00  0.00     0.049 A 
ATOM     38  N   UNL A   1      39.639  30.210  30.598  1.00  0.00    -0.248 NA
ATOM     39  C   UNL A   1      38.145  30.625  28.848  1.00  0.00     0.031 C 
ATOM     40  C   UNL A   1      37.774  33.524  32.927  1.00  0.00     0.029 A 
ATOM     41  N   UNL A   1      39.356  31.951  32.928  1.00  0.00    -0.354 N 
ATOM     42  C   UNL A   1      39.904  29.340  29.549  1.00  0.00     0.074 A 
ATOM     43  C   UNL A   1      38.929  29.613  28.514  1.00  0.00     0.031 C 
ATOM     44  C   UNL A   1      38.399  33.585  34.115  1.00  0.00     0.029 A 
ATOM     45  C   UNL A   1      39.417  32.540  34.168  1.00  0.00     0.049 A 
ATOM     46  H   UNL A   1      39.973  31.240  32.637  1.00  0.00     0.167 HD
ATOM     47  C   UNL A   1      40.880  28.408  29.451  1.00  0.00     0.037 A 
ATOM     48  C   UNL A   1      40.194  32.258  35.232  1.00  0.00     0.037 A 
ATOM     49  C   UNL A   1      41.844  28.129  30.479  1.00  0.00     0.049 A 
ATOM     50  C   UNL A   1      41.219  31.161  35.131  1.00  0.00     0.074 A 
ATOM     51  C   UNL A   1      42.891  27.225  30.456  1.00  0.00     0.029 A 
ATOM     52  N   UNL A   1      41.871  28.743  31.720  1.00  0.00    -0.354 N 
ATOM     53  N   UNL A   1      41.496  30.382  34.113  1.00  0.00    -0.248 NA
ATOM     54  C   UNL A   1      42.045  30.910  36.321  1.00  0.00     0.031 C 
ATOM     55  C   UNL A   1      43.527  27.263  31.701  1.00  0.00     0.029 A 
ATOM     56  C   UNL A   1      42.902  28.220  32.483  1.00  0.00     0.049 A 
ATOM     57  H   UNL A   1      41.250  29.448  32.016  1.00  0.00     0.167 HD
ATOM     58  C   UNL A   1      42.554  29.582  34.524  1.00  0.00     0.074 A 
ATOM     59  C   UNL A   1      42.865  29.963  35.886  1.00  0.00     0.031 C 
ATOM     60  C   UNL A   1      43.212  28.621  33.831  1.00  0.00     0.037 A 
BRANCH  47  61
ATOM     61  C   UNL A   1      40.939  27.617  28.180  1.00  0.00     0.057 A 
ATOM     62  C   UNL A   1      41.667  28.064  27.070  1.00  0.00     0.134 A 
ATOM     63  C   UNL A   1      40.268  26.394  28.067  1.00  0.00     0.134 A 
ATOM     64  F   UNL A   1      42.315  29.238  27.111  1.00  0.00    -0.206 F 
ATOM     65  C   UNL A   1      41.708  27.332  25.884  1.00  0.00     0.040 A 
ATOM     66  C   UNL A   1      40.319  25.642  26.892  1.00  0.00     0.040 A 
ATOM     67  F   UNL A   1      39.552  25.913  29.094  1.00  0.00    -0.206 F 
ATOM     68  C   UNL A   1      41.036  26.114  25.794  1.00  0.00     0.006 A 
ENDBRANCH  47  61
BRANCH  48  69
ATOM     69  C   UNL A   1      40.040  33.026  36.492  1.00  0.00     0.057 A 
ATOM     70  C   UNL A   1      39.067  32.679  37.436  1.00  0.00     0.134 A 
ATOM     71  C   UNL A   1      40.844  34.137  36.772  1.00  0.00     0.134 A 
ATOM     72  F   UNL A   1      38.253  31.636  37.213  1.00  0.00    -0.206 F 
ATOM     73  C   UNL A   1      38.883  33.422  38.603  1.00  0.00     0.040 A 
ATOM     74  C   UNL A   1      40.685  34.878  37.944  1.00  0.00     0.040 A 
ATOM     75  F   UNL A   1      41.795  34.520  35.906  1.00  0.00    -0.206 F 
ATOM     76  C   UNL A   1      39.696  34.524  38.861  1.00  0.00     0.006 A 
ENDBRANCH  48  69
BRANCH  60  77
ATOM     77  C   UNL A   1      44.368  27.947  34.509  1.00  0.00     0.057 A 
ATOM     78  C   UNL A   1      44.215  26.746  35.209  1.00  0.00     0.134 A 
ATOM     79  C   UNL A   1      45.660  28.478  34.402  1.00  0.00     0.134 A 
ATOM     80  F   UNL A   1      43.001  26.194  35.358  1.00  0.00    -0.206 F 
ATOM     81  C   UNL A   1      45.307  26.100  35.792  1.00  0.00     0.040 A 
ATOM     82  C   UNL A   1      46.762  27.831  34.960  1.00  0.00     0.040 A 
ATOM     83  F   UNL A   1      45.873  29.624  33.737  1.00  0.00    -0.206 F 
ATOM     84  C   UNL A   1      46.587  26.638  35.660  1.00  0.00     0.006 A 
ENDBRANCH  60  77
ENDBRANCH  34  35
ENDBRANCH  27  29
ENDBRANCH  26  27
ENDBRANCH  25  26
ENDBRANCH  24  25
ENDBRANCH  23  24
ENDBRANCH   1  23
TORSDOF 18
ENDMDL
MODEL 3
REMARK VINA RESULT:     -10.5      4.770      9.425
REMARK SMILES O=C(CCc1cccnc1)Nc1ccsc1C(=O)OCCOCCOC(=O)c1ccc(-c2c3nc(c(-c4c(F)cccc4F)c4ccc([nH]4)c(-c4c(F)cccc4F)c4nc(c(-c5c(F)cccc5F)c5ccc2[nH]5)C=C4)C=C3)cc1
REMARK SMILES IDX 21 1 20 2 19 3 17 4 18 5 16 6 12 7 13 8 14 9 15 10 11 11
REMARK SMILES IDX 1 12 2 13 3 15 4 16 5 17 6 18 10 19 7 20 9 21 8 22 22 23
REMARK SMILES IDX 23 24 24 25 25 26 26 27 27 28 28 29 29 30 81 31 30 32 80 33
REMARK SMILES IDX 31 34 32 35 33 36 74 37 34 38 79 39 73 40 75 41 35 42 78 43
REMARK SMILES IDX 72 44 71 45 36 47 62 48 45 49 61 50 46 51 49 52 60 53 76 54
REMARK SMILES IDX 47 55 48 56 59 58 77 59 50 60 37 61 38 62 43 63 39 64 40 65
REMARK SMILES IDX 42 66 44 67 41 68 63 69 64 70 69 71 65 72 66 73 68 74 70 75
REMARK SMILES IDX 67 76 51 77 52 78 57 79 53 80 54 81 56 82 58 83 55 84
REMARK H PARENT 11 14 75 46 49 57
REMARK Flexibility Score: inf
ROOT
ATOM      1  C   UNL A   1      36.916  22.971  23.926  1.00  0.00     0.202 C 
ENDROOT
BRANCH   1   2
ATOM      2  C   UNL A   1      35.733  23.604  24.661  1.00  0.00     0.261 C 
BRANCH   2   3
ATOM      3  O   UNL A   1      34.532  23.499  23.873  1.00  0.00    -0.459 OA
BRANCH   3   4
ATOM      4  C   UNL A   1      33.994  24.705  23.512  1.00  0.00     0.350 C 
ATOM      5  O   UNL A   1      34.072  25.166  22.378  1.00  0.00    -0.245 OA
BRANCH   4   6
ATOM      6  C   UNL A   1      33.243  25.285  24.614  1.00  0.00     0.136 A 
ATOM      7  C   UNL A   1      32.207  24.806  25.410  1.00  0.00     0.066 A 
ATOM      8  C   UNL A   1      31.786  25.799  26.355  1.00  0.00     0.039 A 
ATOM      9  C   UNL A   1      32.492  26.973  26.262  1.00  0.00     0.068 A 
ATOM     10  S   UNL A   1      33.671  26.901  25.044  1.00  0.00    -0.135 S 
BRANCH   7  11
ATOM     11  N   UNL A   1      31.709  23.501  25.330  1.00  0.00    -0.325 N 
ATOM     12  O   UNL A   1      33.064  22.462  26.902  1.00  0.00    -0.275 OA
ATOM     13  C   UNL A   1      32.258  22.406  25.972  1.00  0.00     0.224 C 
ATOM     14  H   UNL A   1      30.910  23.351  24.776  1.00  0.00     0.169 HD
BRANCH  13  15
ATOM     15  C   UNL A   1      31.915  21.040  25.392  1.00  0.00     0.105 C 
BRANCH  15  16
ATOM     16  C   UNL A   1      32.480  20.704  24.020  1.00  0.00     0.047 C 
BRANCH  16  17
ATOM     17  C   UNL A   1      33.006  19.311  23.789  1.00  0.00    -0.029 A 
ATOM     18  C   UNL A   1      34.130  18.887  24.505  1.00  0.00     0.007 A 
ATOM     19  C   UNL A   1      32.466  18.405  22.883  1.00  0.00     0.114 A 
ATOM     20  C   UNL A   1      34.661  17.619  24.301  1.00  0.00     0.020 A 
ATOM     21  N   UNL A   1      32.933  17.150  22.698  1.00  0.00    -0.264 NA
ATOM     22  C   UNL A   1      34.023  16.786  23.405  1.00  0.00     0.111 A 
ENDBRANCH  16  17
ENDBRANCH  15  16
ENDBRANCH  13  15
ENDBRANCH   7  11
ENDBRANCH   4   6
ENDBRANCH   3   4
ENDBRANCH   2   3
ENDBRANCH   1   2
BRANCH   1  23
ATOM     23  O   UNL A   1      37.110  21.587  24.215  1.00  0.00    -0.374 OA
BRANCH  23  24
ATOM     24  C   UNL A   1      38.025  21.270  25.264  1.00  0.00     0.202 C 
BRANCH  24  25
ATOM     25  C   UNL A   1      38.873  20.016  25.026  1.00  0.00     0.261 C 
BRANCH  25  26
ATOM     26  O   UNL A   1      39.583  19.594  26.208  1.00  0.00    -0.460 OA
BRANCH  26  27
ATOM     27  C   UNL A   1      40.936  19.619  26.112  1.00  0.00     0.338 C 
ATOM     28  O   UNL A   1      41.660  18.775  25.612  1.00  0.00    -0.246 OA
BRANCH  27  29
ATOM     29  C   UNL A   1      41.446  20.918  26.599  1.00  0.00     0.060 A 
ATOM     30  C   UNL A   1      41.249  21.251  27.947  1.00  0.00     0.016 A 
ATOM     31  C   UNL A   1      42.070  21.822  25.736  1.00  0.00     0.016 A 
ATOM     32  C   UNL A   1      41.669  22.494  28.432  1.00  0.00     0.010 A 
ATOM     33  C   UNL A   1      42.491  23.063  26.224  1.00  0.00     0.010 A 
ATOM     34  C   UNL A   1      42.276  23.416  27.570  1.00  0.00    -0.014 A 
BRANCH  34  35
ATOM     35  C   UNL A   1      42.555  24.807  28.006  1.00  0.00     0.031 A 
ATOM     36  C   UNL A   1      43.952  25.158  28.429  1.00  0.00     0.074 A 
ATOM     37  C   UNL A   1      41.582  25.734  28.080  1.00  0.00     0.049 A 
ATOM     38  N   UNL A   1      44.409  26.273  28.938  1.00  0.00    -0.248 NA
ATOM     39  C   UNL A   1      44.969  24.107  28.258  1.00  0.00     0.031 C 
ATOM     40  C   UNL A   1      40.196  25.538  27.675  1.00  0.00     0.029 A 
ATOM     41  N   UNL A   1      41.611  27.023  28.554  1.00  0.00    -0.354 N 
ATOM     42  C   UNL A   1      45.765  26.061  29.145  1.00  0.00     0.074 A 
ATOM     43  C   UNL A   1      46.049  24.699  28.746  1.00  0.00     0.031 C 
ATOM     44  C   UNL A   1      39.490  26.646  27.958  1.00  0.00     0.029 A 
ATOM     45  C   UNL A   1      40.377  27.629  28.574  1.00  0.00     0.049 A 
ATOM     46  H   UNL A   1      42.436  27.470  28.851  1.00  0.00     0.167 HD
ATOM     47  C   UNL A   1      46.694  26.928  29.610  1.00  0.00     0.037 A 
ATOM     48  C   UNL A   1      40.002  28.831  29.051  1.00  0.00     0.037 A 
ATOM     49  C   UNL A   1      46.416  28.278  30.015  1.00  0.00     0.049 A 
ATOM     50  C   UNL A   1      41.037  29.750  29.642  1.00  0.00     0.074 A 
ATOM     51  C   UNL A   1      47.299  29.242  30.469  1.00  0.00     0.029 A 
ATOM     52  N   UNL A   1      45.155  28.853  30.024  1.00  0.00    -0.354 N 
ATOM     53  N   UNL A   1      42.327  29.558  29.780  1.00  0.00    -0.248 NA
ATOM     54  C   UNL A   1      40.568  31.053  30.133  1.00  0.00     0.031 C 
ATOM     55  C   UNL A   1      46.565  30.387  30.793  1.00  0.00     0.029 A 
ATOM     56  C   UNL A   1      45.232  30.151  30.502  1.00  0.00     0.049 A 
ATOM     57  H   UNL A   1      44.327  28.405  29.735  1.00  0.00     0.167 HD
ATOM     58  C   UNL A   1      42.828  30.730  30.332  1.00  0.00     0.074 A 
ATOM     59  C   UNL A   1      41.704  31.625  30.510  1.00  0.00     0.031 C 
ATOM     60  C   UNL A   1      44.108  31.038  30.656  1.00  0.00     0.037 A 
BRANCH  47  61
ATOM     61  C   UNL A   1      48.101  26.425  29.713  1.00  0.00     0.057 A 
ATOM     62  C   UNL A   1      48.566  25.775  30.863  1.00  0.00     0.134 A 
ATOM     63  C   UNL A   1      48.998  26.586  28.650  1.00  0.00     0.134 A 
ATOM     64  F   UNL A   1      47.760  25.608  31.922  1.00  0.00    -0.206 F 
ATOM     65  C   UNL A   1      49.882  25.321  30.961  1.00  0.00     0.040 A 
ATOM     66  C   UNL A   1      50.310  26.117  28.728  1.00  0.00     0.040 A 
ATOM     67  F   UNL A   1      48.613  27.202  27.523  1.00  0.00    -0.206 F 
ATOM     68  C   UNL A   1      50.757  25.488  29.888  1.00  0.00     0.006 A 
ENDBRANCH  47  61
BRANCH  48  69
ATOM     69  C   UNL A   1      38.579  29.247  28.991  1.00  0.00     0.057 A 
ATOM     70  C   UNL A   1      37.748  29.145  30.112  1.00  0.00     0.134 A 
ATOM     71  C   UNL A   1      38.010  29.731  27.807  1.00  0.00     0.134 A 
ATOM     72  F   UNL A   1      38.233  28.667  31.269  1.00  0.00    -0.206 F 
ATOM     73  C   UNL A   1      36.397  29.490  30.054  1.00  0.00     0.040 A 
ATOM     74  C   UNL A   1      36.665  30.098  27.739  1.00  0.00     0.040 A 
ATOM     75  F   UNL A   1      38.755  29.852  26.698  1.00  0.00    -0.206 F 
ATOM     76  C   UNL A   1      35.853  29.971  28.865  1.00  0.00     0.006 A 
ENDBRANCH  48  69
BRANCH  60  77
ATOM     77  C   UNL A   1      44.375  32.414  31.188  1.00  0.00     0.057 A 
ATOM     78  C   UNL A   1      44.628  33.498  30.340  1.00  0.00     0.134 A 
ATOM     79  C   UNL A   1      44.316  32.666  32.564  1.00  0.00     0.134 A 
ATOM     80  F   UNL A   1      44.711  33.319  29.013  1.00  0.00    -0.206 F 
ATOM     81  C   UNL A   1      44.824  34.785  30.843  1.00  0.00     0.040 A 
ATOM     82  C   UNL A   1      44.487  33.951  33.078  1.00  0.00     0.040 A 
ATOM     83  F   UNL A   1      44.070  31.670  33.429  1.00  0.00    -0.206 F 
ATOM     84  C   UNL A   1      44.745  35.015  32.217  1.00  0.00     0.006 A 
ENDBRANCH  60  77
ENDBRANCH  34  35
ENDBRANCH  27  29
ENDBRANCH  26  27
ENDBRANCH  25  26
ENDBRANCH  24  25
ENDBRANCH  23  24
ENDBRANCH   1  23
TORSDOF 18
ENDMDL
