MODEL 1
REMARK VINA RESULT:     -11.6      0.000      0.000
REMARK SMILES Cc1ccc(S(=O)(=O)Nc2cc(C(=O)OCCOCCOC(=O)c3ccc(-c4c5nc(c(-c6c(F)cccc6F)c6ccc([nH]6)c(-c6c(F)cccc6F)c6nc(c(-c7c(F)cccc7F)c7ccc4[nH]7)C=C6)C=C5)cc3)cnc2N2CCCC2)c(C)c1
REMARK SMILES IDX 17 1 16 2 15 3 13 4 14 5 12 6 10 7 11 8 80 9 79 10 78 11
REMARK SMILES IDX 9 12 6 14 7 15 8 16 5 17 1 18 2 19 3 20 88 21 4 22 86 23
REMARK SMILES IDX 87 24 81 25 82 26 85 27 83 28 84 29 18 30 19 31 20 32 21 33
REMARK SMILES IDX 22 34 23 35 24 36 25 37 77 38 26 39 76 40 27 41 28 42 29 43
REMARK SMILES IDX 70 44 30 45 75 46 69 47 71 48 31 49 74 50 68 51 67 52 32 54
REMARK SMILES IDX 58 55 41 56 57 57 42 58 45 59 56 60 72 61 43 62 44 63 55 65
REMARK SMILES IDX 73 66 46 67 33 68 34 69 39 70 35 71 36 72 38 73 40 74 37 75
REMARK SMILES IDX 59 76 60 77 65 78 61 79 62 80 64 81 66 82 63 83 47 84 48 85
REMARK SMILES IDX 53 86 49 87 50 88 52 89 54 90 51 91
REMARK H PARENT 9 13 71 53 45 64
REMARK Flexibility Score: inf
ROOT
ATOM      1  C   UNL A   1      39.323  21.045  25.815  1.00  0.00     0.202 C 
ENDROOT
BRANCH   1   2
ATOM      2  C   UNL A   1      38.018  21.835  25.688  1.00  0.00     0.261 C 
BRANCH   2   3
ATOM      3  O   UNL A   1      37.221  21.350  24.596  1.00  0.00    -0.460 OA
BRANCH   3   4
ATOM      4  C   UNL A   1      35.895  21.255  24.841  1.00  0.00     0.339 C 
ATOM      5  O   UNL A   1      35.241  20.227  24.956  1.00  0.00    -0.246 OA
BRANCH   4   6
ATOM      6  C   UNL A   1      35.305  22.588  25.040  1.00  0.00     0.080 A 
ATOM      7  C   UNL A   1      34.448  24.667  24.235  1.00  0.00     0.092 A 
ATOM      8  C   UNL A   1      35.271  23.560  24.044  1.00  0.00     0.048 A 
ATOM      9  C   UNL A   1      33.823  24.872  25.489  1.00  0.00     0.153 A 
ATOM     10  N   UNL A   1      33.952  23.978  26.492  1.00  0.00    -0.236 NA
ATOM     11  C   UNL A   1      34.655  22.847  26.238  1.00  0.00     0.129 A 
BRANCH   7  12
ATOM     12  N   UNL A   1      34.244  25.593  23.156  1.00  0.00    -0.276 N 
ATOM     13  H   UNL A   1      34.946  26.252  22.955  1.00  0.00     0.180 HD
BRANCH  12  14
ATOM     14  S   UNL A   1      32.819  25.587  22.210  1.00  0.00     0.262 S 
ATOM     15  O   UNL A   1      32.253  24.279  22.479  1.00  0.00    -0.201 OA
ATOM     16  O   UNL A   1      33.195  25.946  20.860  1.00  0.00    -0.201 OA
BRANCH  14  17
ATOM     17  C   UNL A   1      31.641  26.828  22.747  1.00  0.00     0.090 A 
ATOM     18  C   UNL A   1      28.497  29.760  23.057  1.00  0.00     0.044 C 
ATOM     19  C   UNL A   1      29.599  28.742  23.033  1.00  0.00    -0.051 A 
ATOM     20  C   UNL A   1      29.334  27.393  23.264  1.00  0.00     0.005 A 
ATOM     21  C   UNL A   1      30.928  29.139  22.861  1.00  0.00     0.008 A 
ATOM     22  C   UNL A   1      30.359  26.446  23.159  1.00  0.00     0.023 A 
ATOM     23  C   UNL A   1      31.969  28.195  22.761  1.00  0.00    -0.030 A 
ATOM     24  C   UNL A   1      33.373  28.734  22.785  1.00  0.00     0.046 C 
ENDBRANCH  14  17
ENDBRANCH  12  14
ENDBRANCH   7  12
BRANCH   9  25
ATOM     25  N   UNL A   1      33.061  26.013  25.698  1.00  0.00    -0.355 N 
ATOM     26  C   UNL A   1      31.832  25.861  26.468  1.00  0.00     0.118 C 
ATOM     27  C   UNL A   1      33.743  27.219  26.178  1.00  0.00     0.118 C 
ATOM     28  C   UNL A   1      31.334  27.296  26.518  1.00  0.00     0.023 C 
ATOM     29  C   UNL A   1      32.612  28.097  26.739  1.00  0.00     0.023 C 
ENDBRANCH   9  25
ENDBRANCH   4   6
ENDBRANCH   3   4
ENDBRANCH   2   3
ENDBRANCH   1   2
BRANCH   1  30
ATOM     30  O   UNL A   1      40.447  21.728  26.366  1.00  0.00    -0.374 OA
BRANCH  30  31
ATOM     31  C   UNL A   1      41.699  21.046  26.411  1.00  0.00     0.202 C 
BRANCH  31  32
ATOM     32  C   UNL A   1      42.900  21.702  25.720  1.00  0.00     0.261 C 
BRANCH  32  33
ATOM     33  O   UNL A   1      42.635  23.032  25.252  1.00  0.00    -0.460 OA
BRANCH  33  34
ATOM     34  C   UNL A   1      43.530  23.953  25.684  1.00  0.00     0.338 C 
ATOM     35  O   UNL A   1      44.693  24.078  25.329  1.00  0.00    -0.246 OA
BRANCH  34  36
ATOM     36  C   UNL A   1      42.879  24.937  26.564  1.00  0.00     0.060 A 
ATOM     37  C   UNL A   1      43.400  26.237  26.553  1.00  0.00     0.016 A 
ATOM     38  C   UNL A   1      41.856  24.587  27.450  1.00  0.00     0.016 A 
ATOM     39  C   UNL A   1      42.944  27.175  27.474  1.00  0.00     0.010 A 
ATOM     40  C   UNL A   1      41.402  25.533  28.378  1.00  0.00     0.010 A 
ATOM     41  C   UNL A   1      41.975  26.815  28.421  1.00  0.00    -0.014 A 
BRANCH  41  42
ATOM     42  C   UNL A   1      41.683  27.765  29.520  1.00  0.00     0.031 A 
ATOM     43  C   UNL A   1      40.497  28.682  29.411  1.00  0.00     0.074 A 
ATOM     44  C   UNL A   1      42.416  27.745  30.646  1.00  0.00     0.049 A 
ATOM     45  N   UNL A   1      39.984  29.485  30.307  1.00  0.00    -0.248 NA
ATOM     46  C   UNL A   1      39.794  28.693  28.118  1.00  0.00     0.031 C 
ATOM     47  C   UNL A   1      43.586  26.900  30.875  1.00  0.00     0.029 A 
ATOM     48  N   UNL A   1      42.271  28.450  31.814  1.00  0.00    -0.354 N 
ATOM     49  C   UNL A   1      38.892  30.085  29.695  1.00  0.00     0.074 A 
ATOM     50  C   UNL A   1      38.845  29.590  28.335  1.00  0.00     0.031 C 
ATOM     51  C   UNL A   1      44.052  27.131  32.113  1.00  0.00     0.029 A 
ATOM     52  C   UNL A   1      43.218  28.143  32.759  1.00  0.00     0.049 A 
ATOM     53  H   UNL A   1      41.557  29.112  31.961  1.00  0.00     0.167 HD
ATOM     54  C   UNL A   1      37.998  30.957  30.221  1.00  0.00     0.037 A 
ATOM     55  C   UNL A   1      43.387  28.620  34.007  1.00  0.00     0.037 A 
ATOM     56  C   UNL A   1      38.052  31.462  31.567  1.00  0.00     0.049 A 
ATOM     57  C   UNL A   1      42.399  29.607  34.564  1.00  0.00     0.074 A 
ATOM     58  C   UNL A   1      37.185  32.338  32.199  1.00  0.00     0.029 A 
ATOM     59  N   UNL A   1      39.039  31.145  32.489  1.00  0.00    -0.354 N 
ATOM     60  N   UNL A   1      41.339  30.126  33.995  1.00  0.00    -0.248 NA
ATOM     61  C   UNL A   1      42.621  30.055  35.945  1.00  0.00     0.031 C 
ATOM     62  C   UNL A   1      37.673  32.583  33.488  1.00  0.00     0.029 A 
ATOM     63  C   UNL A   1      38.816  31.823  33.677  1.00  0.00     0.049 A 
ATOM     64  H   UNL A   1      39.789  30.530  32.323  1.00  0.00     0.167 HD
ATOM     65  C   UNL A   1      40.755  30.947  34.952  1.00  0.00     0.074 A 
ATOM     66  C   UNL A   1      41.572  30.842  36.145  1.00  0.00     0.031 C 
ATOM     67  C   UNL A   1      39.642  31.717  34.853  1.00  0.00     0.037 A 
BRANCH  54  68
ATOM     68  C   UNL A   1      36.894  31.429  29.318  1.00  0.00     0.057 A 
ATOM     69  C   UNL A   1      36.891  32.717  28.767  1.00  0.00     0.134 A 
ATOM     70  C   UNL A   1      35.823  30.586  28.996  1.00  0.00     0.134 A 
ATOM     71  F   UNL A   1      37.881  33.579  29.047  1.00  0.00    -0.206 F 
ATOM     72  C   UNL A   1      35.846  33.162  27.955  1.00  0.00     0.040 A 
ATOM     73  C   UNL A   1      34.785  31.011  28.166  1.00  0.00     0.040 A 
ATOM     74  F   UNL A   1      35.766  29.339  29.486  1.00  0.00    -0.206 F 
ATOM     75  C   UNL A   1      34.790  32.305  27.650  1.00  0.00     0.006 A 
ENDBRANCH  54  68
BRANCH  55  76
ATOM     76  C   UNL A   1      44.535  28.146  34.817  1.00  0.00     0.057 A 
ATOM     77  C   UNL A   1      44.446  26.992  35.603  1.00  0.00     0.134 A 
ATOM     78  C   UNL A   1      45.757  28.827  34.802  1.00  0.00     0.134 A 
ATOM     79  F   UNL A   1      43.294  26.308  35.669  1.00  0.00    -0.206 F 
ATOM     80  C   UNL A   1      45.531  26.535  36.353  1.00  0.00     0.040 A 
ATOM     81  C   UNL A   1      46.857  28.371  35.531  1.00  0.00     0.040 A 
ATOM     82  F   UNL A   1      45.905  29.937  34.064  1.00  0.00    -0.206 F 
ATOM     83  C   UNL A   1      46.743  27.222  36.312  1.00  0.00     0.006 A 
ENDBRANCH  55  76
BRANCH  67  84
ATOM     84  C   UNL A   1      39.236  32.489  36.075  1.00  0.00     0.057 A 
ATOM     85  C   UNL A   1      38.345  31.962  37.021  1.00  0.00     0.134 A 
ATOM     86  C   UNL A   1      39.757  33.765  36.319  1.00  0.00     0.134 A 
ATOM     87  F   UNL A   1      37.801  30.749  36.840  1.00  0.00    -0.206 F 
ATOM     88  C   UNL A   1      37.964  32.691  38.149  1.00  0.00     0.040 A 
ATOM     89  C   UNL A   1      39.403  34.493  37.456  1.00  0.00     0.040 A 
ATOM     90  F   UNL A   1      40.621  34.324  35.459  1.00  0.00    -0.206 F 
ATOM     91  C   UNL A   1      38.498  33.959  38.371  1.00  0.00     0.006 A 
ENDBRANCH  67  84
ENDBRANCH  41  42
ENDBRANCH  34  36
ENDBRANCH  33  34
ENDBRANCH  32  33
ENDBRANCH  31  32
ENDBRANCH  30  31
ENDBRANCH   1  30
TORSDOF 18
ENDMDL
MODEL 2
REMARK VINA RESULT:     -11.1      3.761      7.602
REMARK SMILES Cc1ccc(S(=O)(=O)Nc2cc(C(=O)OCCOCCOC(=O)c3ccc(-c4c5nc(c(-c6c(F)cccc6F)c6ccc([nH]6)c(-c6c(F)cccc6F)c6nc(c(-c7c(F)cccc7F)c7ccc4[nH]7)C=C6)C=C5)cc3)cnc2N2CCCC2)c(C)c1
REMARK SMILES IDX 17 1 16 2 15 3 13 4 14 5 12 6 10 7 11 8 80 9 79 10 78 11
REMARK SMILES IDX 9 12 6 14 7 15 8 16 5 17 1 18 2 19 3 20 88 21 4 22 86 23
REMARK SMILES IDX 87 24 81 25 82 26 85 27 83 28 84 29 18 30 19 31 20 32 21 33
REMARK SMILES IDX 22 34 23 35 24 36 25 37 77 38 26 39 76 40 27 41 28 42 29 43
REMARK SMILES IDX 70 44 30 45 75 46 69 47 71 48 31 49 74 50 68 51 67 52 32 54
REMARK SMILES IDX 58 55 41 56 57 57 42 58 45 59 56 60 72 61 43 62 44 63 55 65
REMARK SMILES IDX 73 66 46 67 33 68 34 69 39 70 35 71 36 72 38 73 40 74 37 75
REMARK SMILES IDX 59 76 60 77 65 78 61 79 62 80 64 81 66 82 63 83 47 84 48 85
REMARK SMILES IDX 53 86 49 87 50 88 52 89 54 90 51 91
REMARK H PARENT 9 13 71 53 45 64
REMARK Flexibility Score: inf
ROOT
ATOM      1  C   UNL A   1      34.498  21.611  24.640  1.00  0.00     0.202 C 
ENDROOT
BRANCH   1   2
ATOM      2  C   UNL A   1      34.155  23.089  24.837  1.00  0.00     0.261 C 
BRANCH   2   3
ATOM      3  O   UNL A   1      33.230  23.267  25.921  1.00  0.00    -0.460 OA
BRANCH   3   4
ATOM      4  C   UNL A   1      31.924  23.126  25.601  1.00  0.00     0.339 C 
ATOM      5  O   UNL A   1      31.257  22.102  25.671  1.00  0.00    -0.246 OA
BRANCH   4   6
ATOM      6  C   UNL A   1      31.341  24.418  25.206  1.00  0.00     0.080 A 
ATOM      7  C   UNL A   1      31.187  26.797  25.327  1.00  0.00     0.092 A 
ATOM      8  C   UNL A   1      31.536  25.591  25.929  1.00  0.00     0.048 A 
ATOM      9  C   UNL A   1      30.483  26.795  24.098  1.00  0.00     0.153 A 
ATOM     10  N   UNL A   1      30.198  25.642  23.456  1.00  0.00    -0.236 NA
ATOM     11  C   UNL A   1      30.659  24.490  24.000  1.00  0.00     0.129 A 
BRANCH   7  12
ATOM     12  N   UNL A   1      31.543  28.036  25.962  1.00  0.00    -0.276 N 
ATOM     13  H   UNL A   1      30.848  28.543  26.441  1.00  0.00     0.180 HD
BRANCH  12  14
ATOM     14  S   UNL A   1      33.136  28.657  25.914  1.00  0.00     0.262 S 
ATOM     15  O   UNL A   1      33.322  28.972  24.511  1.00  0.00    -0.201 OA
ATOM     16  O   UNL A   1      33.997  27.688  26.556  1.00  0.00    -0.201 OA
BRANCH  14  17
ATOM     17  C   UNL A   1      33.304  30.174  26.855  1.00  0.00     0.090 A 
ATOM     18  C   UNL A   1      33.960  34.214  28.203  1.00  0.00     0.044 C 
ATOM     19  C   UNL A   1      33.700  32.791  27.809  1.00  0.00    -0.051 A 
ATOM     20  C   UNL A   1      32.440  32.386  27.371  1.00  0.00     0.005 A 
ATOM     21  C   UNL A   1      34.695  31.820  27.957  1.00  0.00     0.008 A 
ATOM     22  C   UNL A   1      32.235  31.074  26.932  1.00  0.00     0.023 A 
ATOM     23  C   UNL A   1      34.497  30.494  27.525  1.00  0.00    -0.030 A 
ATOM     24  C   UNL A   1      35.550  29.493  27.918  1.00  0.00     0.046 C 
ENDBRANCH  14  17
ENDBRANCH  12  14
ENDBRANCH   7  12
BRANCH   9  25
ATOM     25  N   UNL A   1      30.076  27.997  23.537  1.00  0.00    -0.355 N 
ATOM     26  C   UNL A   1      30.764  28.435  22.329  1.00  0.00     0.118 C 
ATOM     27  C   UNL A   1      28.639  28.212  23.336  1.00  0.00     0.118 C 
ATOM     28  C   UNL A   1      30.016  29.719  22.010  1.00  0.00     0.023 C 
ATOM     29  C   UNL A   1      28.566  29.357  22.313  1.00  0.00     0.023 C 
ENDBRANCH   9  25
ENDBRANCH   4   6
ENDBRANCH   3   4
ENDBRANCH   2   3
ENDBRANCH   1   2
BRANCH   1  30
ATOM     30  O   UNL A   1      35.547  21.073  25.444  1.00  0.00    -0.374 OA
BRANCH  30  31
ATOM     31  C   UNL A   1      36.233  19.913  24.976  1.00  0.00     0.202 C 
BRANCH  31  32
ATOM     32  C   UNL A   1      37.762  19.973  24.879  1.00  0.00     0.261 C 
BRANCH  32  33
ATOM     33  O   UNL A   1      38.325  21.167  25.442  1.00  0.00    -0.460 OA
BRANCH  33  34
ATOM     34  C   UNL A   1      39.482  20.961  26.115  1.00  0.00     0.338 C 
ATOM     35  O   UNL A   1      40.190  19.965  26.084  1.00  0.00    -0.246 OA
BRANCH  34  36
ATOM     36  C   UNL A   1      39.902  22.188  26.813  1.00  0.00     0.060 A 
ATOM     37  C   UNL A   1      39.330  23.389  26.377  1.00  0.00     0.016 A 
ATOM     38  C   UNL A   1      40.897  22.187  27.793  1.00  0.00     0.016 A 
ATOM     39  C   UNL A   1      39.797  24.601  26.875  1.00  0.00     0.010 A 
ATOM     40  C   UNL A   1      41.368  23.409  28.291  1.00  0.00     0.010 A 
ATOM     41  C   UNL A   1      40.850  24.620  27.801  1.00  0.00    -0.014 A 
BRANCH  41  42
ATOM     42  C   UNL A   1      41.468  25.925  28.133  1.00  0.00     0.031 A 
ATOM     43  C   UNL A   1      42.850  26.238  27.635  1.00  0.00     0.074 A 
ATOM     44  C   UNL A   1      40.765  26.859  28.797  1.00  0.00     0.049 A 
ATOM     45  N   UNL A   1      43.518  27.363  27.692  1.00  0.00    -0.248 NA
ATOM     46  C   UNL A   1      43.577  25.138  26.983  1.00  0.00     0.031 C 
ATOM     47  C   UNL A   1      39.415  26.678  29.327  1.00  0.00     0.029 A 
ATOM     48  N   UNL A   1      41.089  28.151  29.123  1.00  0.00    -0.354 N 
ATOM     49  C   UNL A   1      44.735  27.110  27.072  1.00  0.00     0.074 A 
ATOM     50  C   UNL A   1      44.733  25.714  26.690  1.00  0.00     0.031 C 
ATOM     51  C   UNL A   1      39.022  27.822  29.910  1.00  0.00     0.029 A 
ATOM     52  C   UNL A   1      40.093  28.811  29.799  1.00  0.00     0.049 A 
ATOM     53  H   UNL A   1      41.952  28.566  28.894  1.00  0.00     0.167 HD
ATOM     54  C   UNL A   1      45.756  27.966  26.828  1.00  0.00     0.037 A 
ATOM     55  C   UNL A   1      40.049  30.072  30.269  1.00  0.00     0.037 A 
ATOM     56  C   UNL A   1      45.766  29.351  27.222  1.00  0.00     0.049 A 
ATOM     57  C   UNL A   1      41.202  31.001  30.010  1.00  0.00     0.074 A 
ATOM     58  C   UNL A   1      46.748  30.304  27.009  1.00  0.00     0.029 A 
ATOM     59  N   UNL A   1      44.748  29.978  27.925  1.00  0.00    -0.354 N 
ATOM     60  N   UNL A   1      42.326  30.767  29.375  1.00  0.00    -0.248 NA
ATOM     61  C   UNL A   1      41.071  32.374  30.515  1.00  0.00     0.031 C 
ATOM     62  C   UNL A   1      46.340  31.496  27.620  1.00  0.00     0.029 A 
ATOM     63  C   UNL A   1      45.085  31.299  28.172  1.00  0.00     0.049 A 
ATOM     64  H   UNL A   1      43.909  29.547  28.208  1.00  0.00     0.167 HD
ATOM     65  C   UNL A   1      43.027  31.966  29.386  1.00  0.00     0.074 A 
ATOM     66  C   UNL A   1      42.193  32.930  30.077  1.00  0.00     0.031 C 
ATOM     67  C   UNL A   1      44.250  32.245  28.869  1.00  0.00     0.037 A 
BRANCH  54  68
ATOM     68  C   UNL A   1      46.954  27.412  26.114  1.00  0.00     0.057 A 
ATOM     69  C   UNL A   1      48.035  26.852  26.809  1.00  0.00     0.134 A 
ATOM     70  C   UNL A   1      47.029  27.437  24.715  1.00  0.00     0.134 A 
ATOM     71  F   UNL A   1      48.032  26.810  28.149  1.00  0.00    -0.206 F 
ATOM     72  C   UNL A   1      49.161  26.368  26.140  1.00  0.00     0.040 A 
ATOM     73  C   UNL A   1      48.139  26.933  24.035  1.00  0.00     0.040 A 
ATOM     74  F   UNL A   1      46.028  27.955  23.988  1.00  0.00    -0.206 F 
ATOM     75  C   UNL A   1      49.213  26.405  24.748  1.00  0.00     0.006 A 
ENDBRANCH  54  68
BRANCH  55  76
ATOM     76  C   UNL A   1      38.851  30.529  31.014  1.00  0.00     0.057 A 
ATOM     77  C   UNL A   1      38.718  30.305  32.388  1.00  0.00     0.134 A 
ATOM     78  C   UNL A   1      37.822  31.223  30.367  1.00  0.00     0.134 A 
ATOM     79  F   UNL A   1      39.664  29.631  33.058  1.00  0.00    -0.206 F 
ATOM     80  C   UNL A   1      37.598  30.749  33.094  1.00  0.00     0.040 A 
ATOM     81  C   UNL A   1      36.707  31.691  31.064  1.00  0.00     0.040 A 
ATOM     82  F   UNL A   1      37.896  31.473  29.052  1.00  0.00    -0.206 F 
ATOM     83  C   UNL A   1      36.592  31.452  32.432  1.00  0.00     0.006 A 
ENDBRANCH  55  76
BRANCH  67  84
ATOM     84  C   UNL A   1      44.747  33.654  29.016  1.00  0.00     0.057 A 
ATOM     85  C   UNL A   1      44.454  34.645  28.070  1.00  0.00     0.134 A 
ATOM     86  C   UNL A   1      45.512  34.028  30.128  1.00  0.00     0.134 A 
ATOM     87  F   UNL A   1      43.736  34.348  26.976  1.00  0.00    -0.206 F 
ATOM     88  C   UNL A   1      44.929  35.950  28.208  1.00  0.00     0.040 A 
ATOM     89  C   UNL A   1      45.972  35.336  30.290  1.00  0.00     0.040 A 
ATOM     90  F   UNL A   1      45.821  33.132  31.076  1.00  0.00    -0.206 F 
ATOM     91  C   UNL A   1      45.687  36.300  29.325  1.00  0.00     0.006 A 
ENDBRANCH  67  84
ENDBRANCH  41  42
ENDBRANCH  34  36
ENDBRANCH  33  34
ENDBRANCH  32  33
ENDBRANCH  31  32
ENDBRANCH  30  31
ENDBRANCH   1  30
TORSDOF 18
ENDMDL
MODEL 3
REMARK VINA RESULT:     -11.0      1.768      6.806
REMARK SMILES Cc1ccc(S(=O)(=O)Nc2cc(C(=O)OCCOCCOC(=O)c3ccc(-c4c5nc(c(-c6c(F)cccc6F)c6ccc([nH]6)c(-c6c(F)cccc6F)c6nc(c(-c7c(F)cccc7F)c7ccc4[nH]7)C=C6)C=C5)cc3)cnc2N2CCCC2)c(C)c1
REMARK SMILES IDX 17 1 16 2 15 3 13 4 14 5 12 6 10 7 11 8 80 9 79 10 78 11
REMARK SMILES IDX 9 12 6 14 7 15 8 16 5 17 1 18 2 19 3 20 88 21 4 22 86 23
REMARK SMILES IDX 87 24 81 25 82 26 85 27 83 28 84 29 18 30 19 31 20 32 21 33
REMARK SMILES IDX 22 34 23 35 24 36 25 37 77 38 26 39 76 40 27 41 28 42 29 43
REMARK SMILES IDX 70 44 30 45 75 46 69 47 71 48 31 49 74 50 68 51 67 52 32 54
REMARK SMILES IDX 58 55 41 56 57 57 42 58 45 59 56 60 72 61 43 62 44 63 55 65
REMARK SMILES IDX 73 66 46 67 33 68 34 69 39 70 35 71 36 72 38 73 40 74 37 75
REMARK SMILES IDX 59 76 60 77 65 78 61 79 62 80 64 81 66 82 63 83 47 84 48 85
REMARK SMILES IDX 53 86 49 87 50 88 52 89 54 90 51 91
REMARK H PARENT 9 13 71 53 45 64
REMARK Flexibility Score: inf
ROOT
ATOM      1  C   UNL A   1      41.594  21.105  26.475  1.00  0.00     0.202 C 
ENDROOT
BRANCH   1   2
ATOM      2  C   UNL A   1      40.217  20.484  26.234  1.00  0.00     0.261 C 
BRANCH   2   3
ATOM      3  O   UNL A   1      39.231  21.492  25.961  1.00  0.00    -0.460 OA
BRANCH   3   4
ATOM      4  C   UNL A   1      38.112  21.058  25.339  1.00  0.00     0.339 C 
ATOM      5  O   UNL A   1      37.861  19.911  24.993  1.00  0.00    -0.246 OA
BRANCH   4   6
ATOM      6  C   UNL A   1      37.145  22.156  25.181  1.00  0.00     0.080 A 
ATOM      7  C   UNL A   1      34.938  23.004  24.845  1.00  0.00     0.092 A 
ATOM      8  C   UNL A   1      35.856  21.969  24.690  1.00  0.00     0.048 A 
ATOM      9  C   UNL A   1      35.372  24.267  25.318  1.00  0.00     0.153 A 
ATOM     10  N   UNL A   1      36.654  24.474  25.688  1.00  0.00    -0.236 NA
ATOM     11  C   UNL A   1      37.499  23.415  25.646  1.00  0.00     0.129 A 
BRANCH   7  12
ATOM     12  N   UNL A   1      33.556  22.781  24.522  1.00  0.00    -0.276 N 
ATOM     13  H   UNL A   1      33.169  23.242  23.744  1.00  0.00     0.180 HD
BRANCH  12  14
ATOM     14  S   UNL A   1      32.564  21.738  25.445  1.00  0.00     0.262 S 
ATOM     15  O   UNL A   1      31.228  22.240  25.183  1.00  0.00    -0.201 OA
ATOM     16  O   UNL A   1      33.081  21.734  26.797  1.00  0.00    -0.201 OA
BRANCH  14  17
ATOM     17  C   UNL A   1      32.645  20.040  24.876  1.00  0.00     0.090 A 
ATOM     18  C   UNL A   1      33.856  16.116  23.568  1.00  0.00     0.044 C 
ATOM     19  C   UNL A   1      33.355  17.453  24.028  1.00  0.00    -0.051 A 
ATOM     20  C   UNL A   1      33.156  17.718  25.382  1.00  0.00     0.005 A 
ATOM     21  C   UNL A   1      32.997  18.434  23.099  1.00  0.00     0.008 A 
ATOM     22  C   UNL A   1      32.766  18.996  25.799  1.00  0.00     0.023 A 
ATOM     23  C   UNL A   1      32.595  19.721  23.508  1.00  0.00    -0.030 A 
ATOM     24  C   UNL A   1      32.038  20.624  22.441  1.00  0.00     0.046 C 
ENDBRANCH  14  17
ENDBRANCH  12  14
ENDBRANCH   7  12
BRANCH   9  25
ATOM     25  N   UNL A   1      34.468  25.316  25.405  1.00  0.00    -0.355 N 
ATOM     26  C   UNL A   1      34.009  25.904  24.153  1.00  0.00     0.118 C 
ATOM     27  C   UNL A   1      33.299  25.148  26.275  1.00  0.00     0.118 C 
ATOM     28  C   UNL A   1      33.026  26.947  24.658  1.00  0.00     0.023 C 
ATOM     29  C   UNL A   1      32.312  26.224  25.795  1.00  0.00     0.023 C 
ENDBRANCH   9  25
ENDBRANCH   4   6
ENDBRANCH   3   4
ENDBRANCH   2   3
ENDBRANCH   1   2
BRANCH   1  30
ATOM     30  O   UNL A   1      42.490  21.155  25.366  1.00  0.00    -0.374 OA
BRANCH  30  31
ATOM     31  C   UNL A   1      43.891  21.101  25.624  1.00  0.00     0.202 C 
BRANCH  31  32
ATOM     32  C   UNL A   1      44.734  22.335  25.278  1.00  0.00     0.261 C 
BRANCH  32  33
ATOM     33  O   UNL A   1      43.954  23.451  24.825  1.00  0.00    -0.460 OA
BRANCH  33  34
ATOM     34  C   UNL A   1      44.511  24.655  25.101  1.00  0.00     0.338 C 
ATOM     35  O   UNL A   1      45.519  25.135  24.605  1.00  0.00    -0.246 OA
BRANCH  34  36
ATOM     36  C   UNL A   1      43.644  25.433  26.002  1.00  0.00     0.060 A 
ATOM     37  C   UNL A   1      44.091  26.710  26.362  1.00  0.00     0.016 A 
ATOM     38  C   UNL A   1      42.479  24.902  26.563  1.00  0.00     0.016 A 
ATOM     39  C   UNL A   1      43.410  27.436  27.333  1.00  0.00     0.010 A 
ATOM     40  C   UNL A   1      41.797  25.634  27.543  1.00  0.00     0.010 A 
ATOM     41  C   UNL A   1      42.285  26.884  27.962  1.00  0.00    -0.014 A 
BRANCH  41  42
ATOM     42  C   UNL A   1      41.726  27.585  29.141  1.00  0.00     0.031 A 
ATOM     43  C   UNL A   1      42.423  27.474  30.468  1.00  0.00     0.074 A 
ATOM     44  C   UNL A   1      40.657  28.388  29.008  1.00  0.00     0.049 A 
ATOM     45  N   UNL A   1      42.184  28.111  31.586  1.00  0.00    -0.248 NA
ATOM     46  C   UNL A   1      43.538  26.518  30.544  1.00  0.00     0.031 C 
ATOM     47  C   UNL A   1      39.898  28.583  27.775  1.00  0.00     0.029 A 
ATOM     48  N   UNL A   1      40.036  29.201  29.922  1.00  0.00    -0.354 N 
ATOM     49  C   UNL A   1      43.127  27.645  32.493  1.00  0.00     0.074 A 
ATOM     50  C   UNL A   1      43.910  26.638  31.810  1.00  0.00     0.031 C 
ATOM     51  C   UNL A   1      38.913  29.466  28.007  1.00  0.00     0.029 A 
ATOM     52  C   UNL A   1      38.969  29.892  29.404  1.00  0.00     0.049 A 
ATOM     53  H   UNL A   1      40.328  29.282  30.859  1.00  0.00     0.167 HD
ATOM     54  C   UNL A   1      43.335  28.033  33.775  1.00  0.00     0.037 A 
ATOM     55  C   UNL A   1      38.137  30.774  29.990  1.00  0.00     0.037 A 
ATOM     56  C   UNL A   1      42.547  29.024  34.461  1.00  0.00     0.049 A 
ATOM     57  C   UNL A   1      38.368  31.173  31.421  1.00  0.00     0.074 A 
ATOM     58  C   UNL A   1      42.686  29.497  35.755  1.00  0.00     0.029 A 
ATOM     59  N   UNL A   1      41.460  29.687  33.910  1.00  0.00    -0.354 N 
ATOM     60  N   UNL A   1      39.296  30.767  32.254  1.00  0.00    -0.248 NA
ATOM     61  C   UNL A   1      37.448  32.169  31.986  1.00  0.00     0.031 C 
ATOM     62  C   UNL A   1      41.658  30.414  35.999  1.00  0.00     0.029 A 
ATOM     63  C   UNL A   1      40.906  30.549  34.843  1.00  0.00     0.049 A 
ATOM     64  H   UNL A   1      41.130  29.562  32.991  1.00  0.00     0.167 HD
ATOM     65  C   UNL A   1      39.086  31.471  33.433  1.00  0.00     0.074 A 
ATOM     66  C   UNL A   1      37.951  32.342  33.201  1.00  0.00     0.031 C 
ATOM     67  C   UNL A   1      39.771  31.403  34.602  1.00  0.00     0.037 A 
BRANCH  54  68
ATOM     68  C   UNL A   1      44.454  27.362  34.517  1.00  0.00     0.057 A 
ATOM     69  C   UNL A   1      45.700  27.979  34.690  1.00  0.00     0.134 A 
ATOM     70  C   UNL A   1      44.283  26.084  35.066  1.00  0.00     0.134 A 
ATOM     71  F   UNL A   1      45.933  29.196  34.177  1.00  0.00    -0.206 F 
ATOM     72  C   UNL A   1      46.747  27.335  35.353  1.00  0.00     0.040 A 
ATOM     73  C   UNL A   1      45.315  25.442  35.752  1.00  0.00     0.040 A 
ATOM     74  F   UNL A   1      43.115  25.439  34.941  1.00  0.00    -0.206 F 
ATOM     75  C   UNL A   1      46.555  26.064  35.889  1.00  0.00     0.006 A 
ENDBRANCH  54  68
BRANCH  55  76
ATOM     76  C   UNL A   1      37.021  31.352  29.205  1.00  0.00     0.057 A 
ATOM     77  C   UNL A   1      35.861  30.618  28.935  1.00  0.00     0.134 A 
ATOM     78  C   UNL A   1      37.081  32.666  28.728  1.00  0.00     0.134 A 
ATOM     79  F   UNL A   1      35.754  29.348  29.353  1.00  0.00    -0.206 F 
ATOM     80  C   UNL A   1      34.802  31.167  28.210  1.00  0.00     0.040 A 
ATOM     81  C   UNL A   1      36.022  33.236  28.019  1.00  0.00     0.040 A 
ATOM     82  F   UNL A   1      38.164  33.422  28.960  1.00  0.00    -0.206 F 
ATOM     83  C   UNL A   1      34.879  32.483  27.756  1.00  0.00     0.006 A 
ENDBRANCH  55  76
BRANCH  67  84
ATOM     84  C   UNL A   1      39.321  32.312  35.710  1.00  0.00     0.057 A 
ATOM     85  C   UNL A   1      38.413  31.889  36.690  1.00  0.00     0.134 A 
ATOM     86  C   UNL A   1      39.818  33.617  35.809  1.00  0.00     0.134 A 
ATOM     87  F   UNL A   1      37.890  30.655  36.645  1.00  0.00    -0.206 F 
ATOM     88  C   UNL A   1      37.992  32.743  37.711  1.00  0.00     0.040 A 
ATOM     89  C   UNL A   1      39.424  34.472  36.839  1.00  0.00     0.040 A 
ATOM     90  F   UNL A   1      40.698  34.082  34.910  1.00  0.00    -0.206 F 
ATOM     91  C   UNL A   1      38.502  34.038  37.790  1.00  0.00     0.006 A 
ENDBRANCH  67  84
ENDBRANCH  41  42
ENDBRANCH  34  36
ENDBRANCH  33  34
ENDBRANCH  32  33
ENDBRANCH  31  32
ENDBRANCH  30  31
ENDBRANCH   1  30
TORSDOF 18
ENDMDL
