MODEL 1
REMARK VINA RESULT:     -10.4      0.000      0.000
REMARK SMILES Cc1ccc(CNC(=O)NC[C@@H](CC(C)C)C(=O)OCCOCCOC(=O)c2ccc(-c3c4nc(c(-c5c(F)cccc5F)c5ccc([nH]5)c(-c5c(F)cccc5F)c5nc(c(-c6c(F)cccc6F)c6ccc3[nH]6)C=C5)C=C4)cc2)s1
REMARK SMILES IDX 21 1 20 2 19 3 17 4 18 5 12 6 11 7 10 8 7 9 8 10 9 12 6 14
REMARK SMILES IDX 5 15 1 16 2 17 3 18 82 19 4 20 13 21 14 22 15 23 16 24 22 25
REMARK SMILES IDX 23 26 24 27 25 28 26 29 27 30 28 31 29 32 81 33 30 34 80 35
REMARK SMILES IDX 31 36 32 37 33 38 74 39 34 40 79 41 73 42 75 43 35 44 78 45
REMARK SMILES IDX 72 46 71 47 36 49 62 50 45 51 61 52 46 53 49 54 60 55 76 56
REMARK SMILES IDX 47 57 48 58 59 60 77 61 50 62 37 63 38 64 43 65 39 66 40 67
REMARK SMILES IDX 42 68 44 69 41 70 63 71 64 72 69 73 65 74 66 75 68 76 70 77
REMARK SMILES IDX 67 78 51 79 52 80 57 81 53 82 54 83 56 84 58 85 55 86
REMARK H PARENT 7 11 10 13 75 48 49 59
REMARK Flexibility Score: inf
ROOT
ATOM      1  C   UNL A   1      37.562  21.698  24.923  1.00  0.00     0.202 C 
ENDROOT
BRANCH   1   2
ATOM      2  C   UNL A   1      36.476  21.655  25.998  1.00  0.00     0.261 C 
BRANCH   2   3
ATOM      3  O   UNL A   1      35.290  20.961  25.567  1.00  0.00    -0.463 OA
BRANCH   3   4
ATOM      4  C   UNL A   1      34.129  21.393  26.124  1.00  0.00     0.310 C 
ATOM      5  O   UNL A   1      34.054  22.051  27.157  1.00  0.00    -0.252 OA
BRANCH   4   6
ATOM      6  C   UNL A   1      32.886  20.916  25.396  1.00  0.00     0.119 C 
BRANCH   6   7
ATOM      7  C   UNL A   1      31.822  21.982  25.103  1.00  0.00     0.133 C 
BRANCH   7   8
ATOM      8  N   UNL A   1      30.938  22.152  26.255  1.00  0.00    -0.337 N 
ATOM      9  N   UNL A   1      30.358  24.434  26.545  1.00  0.00    -0.333 N 
ATOM     10  C   UNL A   1      30.308  23.148  26.878  1.00  0.00     0.315 C 
ATOM     11  H   UNL A   1      29.785  24.989  27.123  1.00  0.00     0.165 HD
ATOM     12  O   UNL A   1      29.611  22.844  27.852  1.00  0.00    -0.249 OA
ATOM     13  H   UNL A   1      30.760  21.289  26.695  1.00  0.00     0.165 HD
BRANCH   9  14
ATOM     14  C   UNL A   1      31.042  25.217  25.548  1.00  0.00     0.164 C 
BRANCH  14  15
ATOM     15  C   UNL A   1      31.749  26.399  26.150  1.00  0.00     0.024 A 
ATOM     16  C   UNL A   1      34.609  28.969  26.974  1.00  0.00     0.056 C 
ATOM     17  C   UNL A   1      33.384  28.129  26.842  1.00  0.00     0.002 A 
ATOM     18  C   UNL A   1      32.139  28.345  27.389  1.00  0.00     0.015 A 
ATOM     19  S   UNL A   1      33.422  26.695  25.912  1.00  0.00    -0.144 S 
ATOM     20  C   UNL A   1      31.196  27.359  26.979  1.00  0.00     0.017 A 
ENDBRANCH  14  15
ENDBRANCH   9  14
ENDBRANCH   7   8
ENDBRANCH   6   7
BRANCH   6  21
ATOM     21  C   UNL A   1      33.302  20.043  24.190  1.00  0.00     0.020 C 
BRANCH  21  22
ATOM     22  C   UNL A   1      33.038  18.522  24.244  1.00  0.00    -0.017 C 
ATOM     23  C   UNL A   1      34.232  17.661  23.835  1.00  0.00     0.007 C 
ATOM     24  C   UNL A   1      32.615  18.140  25.668  1.00  0.00     0.007 C 
ENDBRANCH  21  22
ENDBRANCH   6  21
ENDBRANCH   4   6
ENDBRANCH   3   4
ENDBRANCH   2   3
ENDBRANCH   1   2
BRANCH   1  25
ATOM     25  O   UNL A   1      38.838  21.207  25.327  1.00  0.00    -0.374 OA
BRANCH  25  26
ATOM     26  C   UNL A   1      39.507  21.914  26.372  1.00  0.00     0.202 C 
BRANCH  26  27
ATOM     27  C   UNL A   1      41.020  22.049  26.195  1.00  0.00     0.261 C 
BRANCH  27  28
ATOM     28  O   UNL A   1      41.565  23.058  27.068  1.00  0.00    -0.460 OA
BRANCH  28  29
ATOM     29  C   UNL A   1      41.891  24.206  26.435  1.00  0.00     0.338 C 
ATOM     30  O   UNL A   1      42.462  24.323  25.354  1.00  0.00    -0.246 OA
BRANCH  29  31
ATOM     31  C   UNL A   1      41.338  25.370  27.140  1.00  0.00     0.060 A 
ATOM     32  C   UNL A   1      42.003  26.596  27.009  1.00  0.00     0.016 A 
ATOM     33  C   UNL A   1      40.304  25.217  28.065  1.00  0.00     0.016 A 
ATOM     34  C   UNL A   1      41.678  27.659  27.851  1.00  0.00     0.010 A 
ATOM     35  C   UNL A   1      39.982  26.285  28.912  1.00  0.00     0.010 A 
ATOM     36  C   UNL A   1      40.698  27.494  28.841  1.00  0.00    -0.014 A 
BRANCH  36  37
ATOM     37  C   UNL A   1      40.547  28.523  29.902  1.00  0.00     0.031 A 
ATOM     38  C   UNL A   1      41.491  28.513  31.075  1.00  0.00     0.074 A 
ATOM     39  C   UNL A   1      39.608  29.481  29.810  1.00  0.00     0.049 A 
ATOM     40  N   UNL A   1      41.526  29.300  32.121  1.00  0.00    -0.248 NA
ATOM     41  C   UNL A   1      42.538  27.479  31.066  1.00  0.00     0.031 C 
ATOM     42  C   UNL A   1      38.664  29.635  28.705  1.00  0.00     0.029 A 
ATOM     43  N   UNL A   1      39.298  30.508  30.666  1.00  0.00    -0.354 N 
ATOM     44  C   UNL A   1      42.594  28.859  32.891  1.00  0.00     0.074 A 
ATOM     45  C   UNL A   1      43.166  27.719  32.208  1.00  0.00     0.031 C 
ATOM     46  C   UNL A   1      37.875  30.696  28.954  1.00  0.00     0.029 A 
ATOM     47  C   UNL A   1      38.240  31.275  30.246  1.00  0.00     0.049 A 
ATOM     48  H   UNL A   1      39.789  30.678  31.503  1.00  0.00     0.167 HD
ATOM     49  C   UNL A   1      43.064  29.362  34.059  1.00  0.00     0.037 A 
ATOM     50  C   UNL A   1      37.627  32.315  30.843  1.00  0.00     0.037 A 
ATOM     51  C   UNL A   1      42.503  30.494  34.745  1.00  0.00     0.049 A 
ATOM     52  C   UNL A   1      38.115  32.804  32.180  1.00  0.00     0.074 A 
ATOM     53  C   UNL A   1      42.916  31.077  35.931  1.00  0.00     0.029 A 
ATOM     54  N   UNL A   1      41.402  31.213  34.309  1.00  0.00    -0.354 N 
ATOM     55  N   UNL A   1      39.130  32.382  32.894  1.00  0.00    -0.248 NA
ATOM     56  C   UNL A   1      37.369  33.912  32.794  1.00  0.00     0.031 C 
ATOM     57  C   UNL A   1      42.043  32.129  36.230  1.00  0.00     0.029 A 
ATOM     58  C   UNL A   1      41.108  32.221  35.212  1.00  0.00     0.049 A 
ATOM     59  H   UNL A   1      40.901  31.033  33.480  1.00  0.00     0.167 HD
ATOM     60  C   UNL A   1      39.160  33.189  34.026  1.00  0.00     0.074 A 
ATOM     61  C   UNL A   1      38.066  34.127  33.903  1.00  0.00     0.031 C 
ATOM     62  C   UNL A   1      40.021  33.155  35.072  1.00  0.00     0.037 A 
BRANCH  49  63
ATOM     63  C   UNL A   1      44.242  28.671  34.678  1.00  0.00     0.057 A 
ATOM     64  C   UNL A   1      45.554  29.101  34.442  1.00  0.00     0.134 A 
ATOM     65  C   UNL A   1      44.060  27.583  35.540  1.00  0.00     0.134 A 
ATOM     66  F   UNL A   1      45.794  30.130  33.616  1.00  0.00    -0.206 F 
ATOM     67  C   UNL A   1      46.647  28.459  35.029  1.00  0.00     0.040 A 
ATOM     68  C   UNL A   1      45.143  26.946  36.147  1.00  0.00     0.040 A 
ATOM     69  F   UNL A   1      42.829  27.125  35.808  1.00  0.00    -0.206 F 
ATOM     70  C   UNL A   1      46.442  27.381  35.888  1.00  0.00     0.006 A 
ENDBRANCH  49  63
BRANCH  50  71
ATOM     71  C   UNL A   1      36.469  32.966  30.186  1.00  0.00     0.057 A 
ATOM     72  C   UNL A   1      36.649  33.881  29.143  1.00  0.00     0.134 A 
ATOM     73  C   UNL A   1      35.157  32.701  30.595  1.00  0.00     0.134 A 
ATOM     74  F   UNL A   1      37.885  34.194  28.726  1.00  0.00    -0.206 F 
ATOM     75  C   UNL A   1      35.566  34.518  28.536  1.00  0.00     0.040 A 
ATOM     76  C   UNL A   1      34.063  33.315  29.983  1.00  0.00     0.040 A 
ATOM     77  F   UNL A   1      34.920  31.835  31.591  1.00  0.00    -0.206 F 
ATOM     78  C   UNL A   1      34.267  34.231  28.954  1.00  0.00     0.006 A 
ENDBRANCH  50  71
BRANCH  62  79
ATOM     79  C   UNL A   1      39.837  34.181  36.149  1.00  0.00     0.057 A 
ATOM     80  C   UNL A   1      39.174  33.883  37.345  1.00  0.00     0.134 A 
ATOM     81  C   UNL A   1      40.370  35.469  36.006  1.00  0.00     0.134 A 
ATOM     82  F   UNL A   1      38.631  32.671  37.537  1.00  0.00    -0.206 F 
ATOM     83  C   UNL A   1      39.035  34.834  38.357  1.00  0.00     0.040 A 
ATOM     84  C   UNL A   1      40.254  36.422  37.018  1.00  0.00     0.040 A 
ATOM     85  F   UNL A   1      41.023  35.814  34.886  1.00  0.00    -0.206 F 
ATOM     86  C   UNL A   1      39.581  36.107  38.197  1.00  0.00     0.006 A 
ENDBRANCH  62  79
ENDBRANCH  36  37
ENDBRANCH  29  31
ENDBRANCH  28  29
ENDBRANCH  27  28
ENDBRANCH  26  27
ENDBRANCH  25  26
ENDBRANCH   1  25
TORSDOF 20
ENDMDL
MODEL 2
REMARK VINA RESULT:     -10.3      3.021      8.022
REMARK SMILES Cc1ccc(CNC(=O)NC[C@@H](CC(C)C)C(=O)OCCOCCOC(=O)c2ccc(-c3c4nc(c(-c5c(F)cccc5F)c5ccc([nH]5)c(-c5c(F)cccc5F)c5nc(c(-c6c(F)cccc6F)c6ccc3[nH]6)C=C5)C=C4)cc2)s1
REMARK SMILES IDX 21 1 20 2 19 3 17 4 18 5 12 6 11 7 10 8 7 9 8 10 9 12 6 14
REMARK SMILES IDX 5 15 1 16 2 17 3 18 82 19 4 20 13 21 14 22 15 23 16 24 22 25
REMARK SMILES IDX 23 26 24 27 25 28 26 29 27 30 28 31 29 32 81 33 30 34 80 35
REMARK SMILES IDX 31 36 32 37 33 38 74 39 34 40 79 41 73 42 75 43 35 44 78 45
REMARK SMILES IDX 72 46 71 47 36 49 62 50 45 51 61 52 46 53 49 54 60 55 76 56
REMARK SMILES IDX 47 57 48 58 59 60 77 61 50 62 37 63 38 64 43 65 39 66 40 67
REMARK SMILES IDX 42 68 44 69 41 70 63 71 64 72 69 73 65 74 66 75 68 76 70 77
REMARK SMILES IDX 67 78 51 79 52 80 57 81 53 82 54 83 56 84 58 85 55 86
REMARK H PARENT 7 11 10 13 75 48 49 59
REMARK Flexibility Score: inf
ROOT
ATOM      1  C   UNL A   1      32.188  29.346  26.721  1.00  0.00     0.202 C 
ENDROOT
BRANCH   1   2
ATOM      2  C   UNL A   1      31.771  28.044  27.403  1.00  0.00     0.261 C 
BRANCH   2   3
ATOM      3  O   UNL A   1      31.055  27.156  26.523  1.00  0.00    -0.463 OA
BRANCH   3   4
ATOM      4  C   UNL A   1      31.827  26.288  25.818  1.00  0.00     0.310 C 
ATOM      5  O   UNL A   1      32.933  25.893  26.173  1.00  0.00    -0.252 OA
BRANCH   4   6
ATOM      6  C   UNL A   1      31.237  25.894  24.477  1.00  0.00     0.119 C 
BRANCH   6   7
ATOM      7  C   UNL A   1      30.575  24.512  24.409  1.00  0.00     0.133 C 
BRANCH   7   8
ATOM      8  N   UNL A   1      30.246  24.037  25.752  1.00  0.00    -0.337 N 
ATOM      9  N   UNL A   1      31.336  21.980  26.211  1.00  0.00    -0.333 N 
ATOM     10  C   UNL A   1      30.546  22.999  26.534  1.00  0.00     0.315 C 
ATOM     11  H   UNL A   1      31.445  21.345  26.956  1.00  0.00     0.165 HD
ATOM     12  O   UNL A   1      30.044  22.988  27.662  1.00  0.00    -0.249 OA
ATOM     13  H   UNL A   1      29.629  24.656  26.205  1.00  0.00     0.165 HD
BRANCH   9  14
ATOM     14  C   UNL A   1      32.074  21.575  25.042  1.00  0.00     0.164 C 
BRANCH  14  15
ATOM     15  C   UNL A   1      33.391  22.289  24.933  1.00  0.00     0.024 A 
ATOM     16  C   UNL A   1      36.876  23.792  25.964  1.00  0.00     0.056 C 
ATOM     17  C   UNL A   1      35.598  23.341  25.340  1.00  0.00     0.002 A 
ATOM     18  C   UNL A   1      35.202  23.459  24.027  1.00  0.00     0.015 A 
ATOM     19  S   UNL A   1      34.408  22.563  26.288  1.00  0.00    -0.144 S 
ATOM     20  C   UNL A   1      33.941  22.841  23.790  1.00  0.00     0.017 A 
ENDBRANCH  14  15
ENDBRANCH   9  14
ENDBRANCH   7   8
ENDBRANCH   6   7
BRANCH   6  21
ATOM     21  C   UNL A   1      30.391  27.064  23.926  1.00  0.00     0.020 C 
BRANCH  21  22
ATOM     22  C   UNL A   1      30.850  27.772  22.632  1.00  0.00    -0.017 C 
ATOM     23  C   UNL A   1      30.658  29.288  22.641  1.00  0.00     0.007 C 
ATOM     24  C   UNL A   1      32.333  27.460  22.393  1.00  0.00     0.007 C 
ENDBRANCH  21  22
ENDBRANCH   6  21
ENDBRANCH   4   6
ENDBRANCH   3   4
ENDBRANCH   2   3
ENDBRANCH   1   2
BRANCH   1  25
ATOM     25  O   UNL A   1      31.420  30.493  27.077  1.00  0.00    -0.374 OA
BRANCH  25  26
ATOM     26  C   UNL A   1      31.384  31.570  26.140  1.00  0.00     0.202 C 
BRANCH  26  27
ATOM     27  C   UNL A   1      31.748  32.939  26.715  1.00  0.00     0.261 C 
BRANCH  27  28
ATOM     28  O   UNL A   1      32.526  32.815  27.921  1.00  0.00    -0.460 OA
BRANCH  28  29
ATOM     29  C   UNL A   1      33.588  33.648  27.973  1.00  0.00     0.338 C 
ATOM     30  O   UNL A   1      33.569  34.875  27.993  1.00  0.00    -0.246 OA
BRANCH  29  31
ATOM     31  C   UNL A   1      34.838  32.897  28.157  1.00  0.00     0.060 A 
ATOM     32  C   UNL A   1      34.748  31.526  28.431  1.00  0.00     0.016 A 
ATOM     33  C   UNL A   1      36.060  33.564  28.254  1.00  0.00     0.016 A 
ATOM     34  C   UNL A   1      35.874  30.828  28.867  1.00  0.00     0.010 A 
ATOM     35  C   UNL A   1      37.188  32.861  28.695  1.00  0.00     0.010 A 
ATOM     36  C   UNL A   1      37.090  31.503  29.049  1.00  0.00    -0.014 A 
BRANCH  36  37
ATOM     37  C   UNL A   1      38.203  30.828  29.765  1.00  0.00     0.031 A 
ATOM     38  C   UNL A   1      38.451  31.156  31.213  1.00  0.00     0.074 A 
ATOM     39  C   UNL A   1      38.963  29.904  29.151  1.00  0.00     0.049 A 
ATOM     40  N   UNL A   1      39.377  30.704  32.021  1.00  0.00    -0.248 NA
ATOM     41  C   UNL A   1      37.529  32.120  31.834  1.00  0.00     0.031 C 
ATOM     42  C   UNL A   1      38.799  29.458  27.769  1.00  0.00     0.029 A 
ATOM     43  N   UNL A   1      40.029  29.176  29.618  1.00  0.00    -0.354 N 
ATOM     44  C   UNL A   1      39.150  31.326  33.242  1.00  0.00     0.074 A 
ATOM     45  C   UNL A   1      38.016  32.207  33.064  1.00  0.00     0.031 C 
ATOM     46  C   UNL A   1      39.737  28.532  27.499  1.00  0.00     0.029 A 
ATOM     47  C   UNL A   1      40.581  28.344  28.677  1.00  0.00     0.049 A 
ATOM     48  H   UNL A   1      40.365  29.244  30.541  1.00  0.00     0.167 HD
ATOM     49  C   UNL A   1      39.818  31.172  34.411  1.00  0.00     0.037 A 
ATOM     50  C   UNL A   1      41.655  27.534  28.754  1.00  0.00     0.037 A 
ATOM     51  C   UNL A   1      40.946  30.299  34.599  1.00  0.00     0.049 A 
ATOM     52  C   UNL A   1      42.432  27.442  30.039  1.00  0.00     0.074 A 
ATOM     53  C   UNL A   1      41.683  30.075  35.749  1.00  0.00     0.029 A 
ATOM     54  N   UNL A   1      41.503  29.509  33.606  1.00  0.00    -0.354 N 
ATOM     55  N   UNL A   1      42.204  28.030  31.187  1.00  0.00    -0.248 NA
ATOM     56  C   UNL A   1      43.621  26.575  30.035  1.00  0.00     0.031 C 
ATOM     57  C   UNL A   1      42.708  29.174  35.443  1.00  0.00     0.029 A 
ATOM     58  C   UNL A   1      42.587  28.811  34.112  1.00  0.00     0.049 A 
ATOM     59  H   UNL A   1      41.176  29.452  32.679  1.00  0.00     0.167 HD
ATOM     60  C   UNL A   1      43.199  27.584  32.048  1.00  0.00     0.074 A 
ATOM     61  C   UNL A   1      44.033  26.674  31.293  1.00  0.00     0.031 C 
ATOM     62  C   UNL A   1      43.402  27.900  33.351  1.00  0.00     0.037 A 
BRANCH  49  63
ATOM     63  C   UNL A   1      39.351  31.987  35.580  1.00  0.00     0.057 A 
ATOM     64  C   UNL A   1      39.817  33.289  35.801  1.00  0.00     0.134 A 
ATOM     65  C   UNL A   1      38.407  31.474  36.478  1.00  0.00     0.134 A 
ATOM     66  F   UNL A   1      40.732  33.832  34.983  1.00  0.00    -0.206 F 
ATOM     67  C   UNL A   1      39.372  34.048  36.886  1.00  0.00     0.040 A 
ATOM     68  C   UNL A   1      37.940  32.229  37.554  1.00  0.00     0.040 A 
ATOM     69  F   UNL A   1      37.921  30.234  36.320  1.00  0.00    -0.206 F 
ATOM     70  C   UNL A   1      38.427  33.519  37.763  1.00  0.00     0.006 A 
ENDBRANCH  49  63
BRANCH  50  71
ATOM     71  C   UNL A   1      42.072  26.746  27.569  1.00  0.00     0.057 A 
ATOM     72  C   UNL A   1      41.661  25.419  27.401  1.00  0.00     0.134 A 
ATOM     73  C   UNL A   1      42.904  27.295  26.586  1.00  0.00     0.134 A 
ATOM     74  F   UNL A   1      40.884  24.832  28.324  1.00  0.00    -0.206 F 
ATOM     75  C   UNL A   1      42.069  24.662  26.303  1.00  0.00     0.040 A 
ATOM     76  C   UNL A   1      43.304  26.555  25.473  1.00  0.00     0.040 A 
ATOM     77  F   UNL A   1      43.334  28.560  26.692  1.00  0.00    -0.206 F 
ATOM     78  C   UNL A   1      42.890  25.233  25.331  1.00  0.00     0.006 A 
ENDBRANCH  50  71
BRANCH  62  79
ATOM     79  C   UNL A   1      44.548  27.234  34.051  1.00  0.00     0.057 A 
ATOM     80  C   UNL A   1      44.410  25.985  34.667  1.00  0.00     0.134 A 
ATOM     81  C   UNL A   1      45.816  27.831  34.068  1.00  0.00     0.134 A 
ATOM     82  F   UNL A   1      43.219  25.369  34.694  1.00  0.00    -0.206 F 
ATOM     83  C   UNL A   1      45.490  25.357  35.288  1.00  0.00     0.040 A 
ATOM     84  C   UNL A   1      46.907  27.204  34.671  1.00  0.00     0.040 A 
ATOM     85  F   UNL A   1      46.014  29.025  33.490  1.00  0.00    -0.206 F 
ATOM     86  C   UNL A   1      46.746  25.964  35.286  1.00  0.00     0.006 A 
ENDBRANCH  62  79
ENDBRANCH  36  37
ENDBRANCH  29  31
ENDBRANCH  28  29
ENDBRANCH  27  28
ENDBRANCH  26  27
ENDBRANCH  25  26
ENDBRANCH   1  25
TORSDOF 20
ENDMDL
MODEL 3
REMARK VINA RESULT:     -10.0      0.983      6.273
REMARK SMILES Cc1ccc(CNC(=O)NC[C@@H](CC(C)C)C(=O)OCCOCCOC(=O)c2ccc(-c3c4nc(c(-c5c(F)cccc5F)c5ccc([nH]5)c(-c5c(F)cccc5F)c5nc(c(-c6c(F)cccc6F)c6ccc3[nH]6)C=C5)C=C4)cc2)s1
REMARK SMILES IDX 21 1 20 2 19 3 17 4 18 5 12 6 11 7 10 8 7 9 8 10 9 12 6 14
REMARK SMILES IDX 5 15 1 16 2 17 3 18 82 19 4 20 13 21 14 22 15 23 16 24 22 25
REMARK SMILES IDX 23 26 24 27 25 28 26 29 27 30 28 31 29 32 81 33 30 34 80 35
REMARK SMILES IDX 31 36 32 37 33 38 74 39 34 40 79 41 73 42 75 43 35 44 78 45
REMARK SMILES IDX 72 46 71 47 36 49 62 50 45 51 61 52 46 53 49 54 60 55 76 56
REMARK SMILES IDX 47 57 48 58 59 60 77 61 50 62 37 63 38 64 43 65 39 66 40 67
REMARK SMILES IDX 42 68 44 69 41 70 63 71 64 72 69 73 65 74 66 75 68 76 70 77
REMARK SMILES IDX 67 78 51 79 52 80 57 81 53 82 54 83 56 84 58 85 55 86
REMARK H PARENT 7 11 10 13 75 48 49 59
REMARK Flexibility Score: inf
ROOT
ATOM      1  C   UNL A   1      37.391  21.824  24.485  1.00  0.00     0.202 C 
ENDROOT
BRANCH   1   2
ATOM      2  C   UNL A   1      35.950  22.287  24.695  1.00  0.00     0.261 C 
BRANCH   2   3
ATOM      3  O   UNL A   1      35.178  22.278  23.478  1.00  0.00    -0.463 OA
BRANCH   3   4
ATOM      4  C   UNL A   1      34.048  23.034  23.502  1.00  0.00     0.310 C 
ATOM      5  O   UNL A   1      33.978  24.195  23.114  1.00  0.00    -0.252 OA
BRANCH   4   6
ATOM      6  C   UNL A   1      32.860  22.338  24.140  1.00  0.00     0.119 C 
BRANCH   6   7
ATOM      7  C   UNL A   1      31.595  23.186  24.318  1.00  0.00     0.133 C 
BRANCH   7   8
ATOM      8  N   UNL A   1      30.997  22.943  25.631  1.00  0.00    -0.337 N 
ATOM      9  N   UNL A   1      29.985  24.915  26.477  1.00  0.00    -0.333 N 
ATOM     10  C   UNL A   1      30.319  23.629  26.550  1.00  0.00     0.315 C 
ATOM     11  H   UNL A   1      29.454  25.204  27.253  1.00  0.00     0.165 HD
ATOM     12  O   UNL A   1      29.967  23.012  27.560  1.00  0.00    -0.249 OA
ATOM     13  H   UNL A   1      31.137  22.011  25.915  1.00  0.00     0.165 HD
BRANCH   9  14
ATOM     14  C   UNL A   1      30.208  25.988  25.543  1.00  0.00     0.164 C 
BRANCH  14  15
ATOM     15  C   UNL A   1      31.510  26.694  25.799  1.00  0.00     0.024 A 
ATOM     16  C   UNL A   1      34.172  29.035  27.500  1.00  0.00     0.056 C 
ATOM     17  C   UNL A   1      33.348  28.110  26.670  1.00  0.00     0.002 A 
ATOM     18  C   UNL A   1      33.740  27.364  25.581  1.00  0.00     0.015 A 
ATOM     19  S   UNL A   1      31.695  27.872  27.033  1.00  0.00    -0.144 S 
ATOM     20  C   UNL A   1      32.688  26.539  25.090  1.00  0.00     0.017 A 
ENDBRANCH  14  15
ENDBRANCH   9  14
ENDBRANCH   7   8
ENDBRANCH   6   7
BRANCH   6  21
ATOM     21  C   UNL A   1      32.649  20.963  23.465  1.00  0.00     0.020 C 
BRANCH  21  22
ATOM     22  C   UNL A   1      33.145  19.693  24.191  1.00  0.00    -0.017 C 
ATOM     23  C   UNL A   1      33.031  19.752  25.713  1.00  0.00     0.007 C 
ATOM     24  C   UNL A   1      32.349  18.485  23.680  1.00  0.00     0.007 C 
ENDBRANCH  21  22
ENDBRANCH   6  21
ENDBRANCH   4   6
ENDBRANCH   3   4
ENDBRANCH   2   3
ENDBRANCH   1   2
BRANCH   1  25
ATOM     25  O   UNL A   1      38.094  21.465  25.672  1.00  0.00    -0.374 OA
BRANCH  25  26
ATOM     26  C   UNL A   1      38.834  22.495  26.328  1.00  0.00     0.202 C 
BRANCH  26  27
ATOM     27  C   UNL A   1      40.348  22.284  26.359  1.00  0.00     0.261 C 
BRANCH  27  28
ATOM     28  O   UNL A   1      40.983  23.160  27.311  1.00  0.00    -0.460 OA
BRANCH  28  29
ATOM     29  C   UNL A   1      41.504  24.277  26.760  1.00  0.00     0.338 C 
ATOM     30  O   UNL A   1      42.157  24.359  25.723  1.00  0.00    -0.246 OA
BRANCH  29  31
ATOM     31  C   UNL A   1      41.068  25.477  27.488  1.00  0.00     0.060 A 
ATOM     32  C   UNL A   1      41.930  26.581  27.513  1.00  0.00     0.016 A 
ATOM     33  C   UNL A   1      39.928  25.446  28.292  1.00  0.00     0.016 A 
ATOM     34  C   UNL A   1      41.687  27.634  28.394  1.00  0.00     0.010 A 
ATOM     35  C   UNL A   1      39.689  26.504  29.178  1.00  0.00     0.010 A 
ATOM     36  C   UNL A   1      40.591  27.579  29.267  1.00  0.00    -0.014 A 
BRANCH  36  37
ATOM     37  C   UNL A   1      40.489  28.558  30.379  1.00  0.00     0.031 A 
ATOM     38  C   UNL A   1      39.463  29.657  30.299  1.00  0.00     0.074 A 
ATOM     39  C   UNL A   1      41.270  28.454  31.469  1.00  0.00     0.049 A 
ATOM     40  N   UNL A   1      39.217  30.629  31.142  1.00  0.00    -0.248 NA
ATOM     41  C   UNL A   1      38.596  29.659  29.110  1.00  0.00     0.031 C 
ATOM     42  C   UNL A   1      42.268  27.411  31.696  1.00  0.00     0.029 A 
ATOM     43  N   UNL A   1      41.342  29.242  32.591  1.00  0.00    -0.354 N 
ATOM     44  C   UNL A   1      38.170  31.354  30.589  1.00  0.00     0.074 A 
ATOM     45  C   UNL A   1      37.844  30.729  29.325  1.00  0.00     0.031 C 
ATOM     46  C   UNL A   1      42.857  27.627  32.886  1.00  0.00     0.029 A 
ATOM     47  C   UNL A   1      42.298  28.836  33.488  1.00  0.00     0.049 A 
ATOM     48  H   UNL A   1      40.763  30.024  32.738  1.00  0.00     0.167 HD
ATOM     49  C   UNL A   1      37.531  32.439  31.090  1.00  0.00     0.037 A 
ATOM     50  C   UNL A   1      42.688  29.387  34.654  1.00  0.00     0.037 A 
ATOM     51  C   UNL A   1      37.848  33.068  32.344  1.00  0.00     0.049 A 
ATOM     52  C   UNL A   1      42.019  30.640  35.150  1.00  0.00     0.074 A 
ATOM     53  C   UNL A   1      37.250  34.168  32.934  1.00  0.00     0.029 A 
ATOM     54  N   UNL A   1      38.855  32.653  33.199  1.00  0.00    -0.354 N 
ATOM     55  N   UNL A   1      41.026  31.312  34.621  1.00  0.00    -0.248 NA
ATOM     56  C   UNL A   1      42.528  31.211  36.406  1.00  0.00     0.031 C 
ATOM     57  C   UNL A   1      37.919  34.440  34.133  1.00  0.00     0.029 A 
ATOM     58  C   UNL A   1      38.910  33.487  34.304  1.00  0.00     0.049 A 
ATOM     59  H   UNL A   1      39.445  31.879  33.045  1.00  0.00     0.167 HD
ATOM     60  C   UNL A   1      40.775  32.367  35.490  1.00  0.00     0.074 A 
ATOM     61  C   UNL A   1      41.715  32.245  36.582  1.00  0.00     0.031 C 
ATOM     62  C   UNL A   1      39.845  33.348  35.390  1.00  0.00     0.037 A 
BRANCH  49  63
ATOM     63  C   UNL A   1      36.428  33.028  30.262  1.00  0.00     0.057 A 
ATOM     64  C   UNL A   1      36.695  33.846  29.157  1.00  0.00     0.134 A 
ATOM     65  C   UNL A   1      35.087  32.751  30.555  1.00  0.00     0.134 A 
ATOM     66  F   UNL A   1      37.959  34.159  28.832  1.00  0.00    -0.206 F 
ATOM     67  C   UNL A   1      35.665  34.385  28.383  1.00  0.00     0.040 A 
ATOM     68  C   UNL A   1      34.050  33.266  29.778  1.00  0.00     0.040 A 
ATOM     69  F   UNL A   1      34.766  31.972  31.599  1.00  0.00    -0.206 F 
ATOM     70  C   UNL A   1      34.337  34.090  28.691  1.00  0.00     0.006 A 
ENDBRANCH  49  63
BRANCH  50  71
ATOM     71  C   UNL A   1      43.781  28.762  35.436  1.00  0.00     0.057 A 
ATOM     72  C   UNL A   1      43.509  27.827  36.442  1.00  0.00     0.134 A 
ATOM     73  C   UNL A   1      45.122  29.097  35.210  1.00  0.00     0.134 A 
ATOM     74  F   UNL A   1      42.242  27.488  36.721  1.00  0.00    -0.206 F 
ATOM     75  C   UNL A   1      44.529  27.254  37.201  1.00  0.00     0.040 A 
ATOM     76  C   UNL A   1      46.154  28.516  35.948  1.00  0.00     0.040 A 
ATOM     77  F   UNL A   1      45.446  29.988  34.262  1.00  0.00    -0.206 F 
ATOM     78  C   UNL A   1      45.858  27.595  36.950  1.00  0.00     0.006 A 
ENDBRANCH  50  71
BRANCH  62  79
ATOM     79  C   UNL A   1      39.775  34.347  36.506  1.00  0.00     0.057 A 
ATOM     80  C   UNL A   1      40.399  35.596  36.417  1.00  0.00     0.134 A 
ATOM     81  C   UNL A   1      39.034  34.071  37.663  1.00  0.00     0.134 A 
ATOM     82  F   UNL A   1      41.132  35.914  35.339  1.00  0.00    -0.206 F 
ATOM     83  C   UNL A   1      40.302  36.533  37.447  1.00  0.00     0.040 A 
ATOM     84  C   UNL A   1      38.915  35.007  38.691  1.00  0.00     0.040 A 
ATOM     85  F   UNL A   1      38.407  32.894  37.806  1.00  0.00    -0.206 F 
ATOM     86  C   UNL A   1      39.553  36.242  38.586  1.00  0.00     0.006 A 
ENDBRANCH  62  79
ENDBRANCH  36  37
ENDBRANCH  29  31
ENDBRANCH  28  29
ENDBRANCH  27  28
ENDBRANCH  26  27
ENDBRANCH  25  26
ENDBRANCH   1  25
TORSDOF 20
ENDMDL
