MODEL 1
REMARK VINA RESULT:     -10.6      0.000      0.000
REMARK SMILES COc1cc2c(cc1OC)C1=C(C#N)C[N@H+](CC(=O)OCCOCCOC(=O)c3ccc(-c4c5nc(c(-c6c(F)cccc6F)c6ccc([nH]6)c(-c6c(F)cccc6F)c6nc(c(-c7c(F)cccc7F)c7ccc4[nH]7)C=C6)C=C5)cc3)CN1CC2
REMARK SMILES IDX 23 1 22 2 21 3 20 4 18 5 19 6 17 7 16 8 3 9 4 10 8 11 5 12
REMARK SMILES IDX 7 13 6 14 86 15 11 16 85 17 12 18 84 19 15 20 83 21 2 23
REMARK SMILES IDX 1 24 9 25 10 26 13 27 14 28 24 29 25 30 26 31 27 32 28 33
REMARK SMILES IDX 29 34 30 35 82 36 31 37 81 38 32 39 33 40 34 41 75 42 35 43
REMARK SMILES IDX 80 44 74 45 76 46 36 47 79 48 73 49 72 50 37 52 63 53 46 54
REMARK SMILES IDX 62 55 47 56 50 57 61 58 77 59 48 60 49 61 60 63 78 64 51 65
REMARK SMILES IDX 38 66 39 67 44 68 40 69 41 70 43 71 45 72 42 73 64 74 65 75
REMARK SMILES IDX 70 76 66 77 67 78 69 79 71 80 68 81 52 82 53 83 58 84 54 85
REMARK SMILES IDX 55 86 57 87 59 88 56 89
REMARK H PARENT 16 22 76 51 50 62
REMARK Flexibility Score: inf
ROOT
ATOM      1  O   UNL A   1      38.394  21.288  25.372  1.00  0.00    -0.374 OA
ENDROOT
BRANCH   1   2
ATOM      2  C   UNL A   1      37.027  21.703  25.382  1.00  0.00     0.202 C 
BRANCH   2   3
ATOM      3  C   UNL A   1      36.006  20.632  24.974  1.00  0.00     0.261 C 
BRANCH   3   4
ATOM      4  O   UNL A   1      34.805  20.748  25.745  1.00  0.00    -0.459 OA
BRANCH   4   5
ATOM      5  C   UNL A   1      33.667  20.184  25.247  1.00  0.00     0.361 C 
ATOM      6  O   UNL A   1      32.973  19.368  25.841  1.00  0.00    -0.245 OA
BRANCH   5   7
ATOM      7  C   UNL A   1      33.298  20.732  23.853  1.00  0.00     0.388 C 
BRANCH   7   8
ATOM      8  N   UNL A   1      32.831  22.112  23.938  1.00  0.00    -0.304 N 
ATOM      9  C   UNL A   1      31.464  28.886  24.861  1.00  0.00     0.161 A 
ATOM     10  C   UNL A   1      31.387  27.909  25.855  1.00  0.00     0.055 A 
ATOM     11  C   UNL A   1      31.273  28.517  23.529  1.00  0.00     0.161 A 
ATOM     12  C   UNL A   1      31.289  26.548  25.519  1.00  0.00    -0.033 A 
ATOM     13  C   UNL A   1      31.192  27.145  23.207  1.00  0.00     0.061 A 
ATOM     14  C   UNL A   1      31.348  26.137  24.172  1.00  0.00     0.006 A 
ATOM     15  C   UNL A   1      31.166  25.530  26.622  1.00  0.00     0.058 C 
ATOM     16  C   UNL A   1      31.675  24.689  23.879  1.00  0.00     0.068 C 
ATOM     17  C   UNL A   1      30.600  24.209  26.097  1.00  0.00     0.127 C 
ATOM     18  C   UNL A   1      32.364  24.218  22.797  1.00  0.00     0.108 C 
ATOM     19  N   UNL A   1      31.331  23.784  24.904  1.00  0.00    -0.323 N 
ATOM     20  C   UNL A   1      32.664  22.757  22.640  1.00  0.00     0.314 C 
ATOM     21  C   UNL A   1      31.670  22.367  24.769  1.00  0.00     0.390 C 
ATOM     22  H   UNL A   1      33.613  22.542  24.432  1.00  0.00     0.350 HD
BRANCH   9  23
ATOM     23  O   UNL A   1      31.666  30.187  25.239  1.00  0.00    -0.493 OA
ATOM     24  C   UNL A   1      32.788  30.299  26.122  1.00  0.00     0.278 C 
ENDBRANCH   9  23
BRANCH  11  25
ATOM     25  O   UNL A   1      31.208  29.321  22.424  1.00  0.00    -0.493 OA
ATOM     26  C   UNL A   1      29.948  29.836  22.023  1.00  0.00     0.278 C 
ENDBRANCH  11  25
BRANCH  18  27
ATOM     27  C   UNL A   1      32.724  25.112  21.621  1.00  0.00     0.103 C 
ATOM     28  N   UNL A   1      33.024  25.852  20.645  1.00  0.00    -0.192 NA
ENDBRANCH  18  27
ENDBRANCH   7   8
ENDBRANCH   5   7
ENDBRANCH   4   5
ENDBRANCH   3   4
ENDBRANCH   2   3
ENDBRANCH   1   2
BRANCH   1  29
ATOM     29  C   UNL A   1      38.643  19.887  25.262  1.00  0.00     0.202 C 
BRANCH  29  30
ATOM     30  C   UNL A   1      39.797  19.337  26.103  1.00  0.00     0.261 C 
BRANCH  30  31
ATOM     31  O   UNL A   1      41.040  19.257  25.381  1.00  0.00    -0.460 OA
BRANCH  31  32
ATOM     32  C   UNL A   1      42.162  19.402  26.126  1.00  0.00     0.338 C 
ATOM     33  O   UNL A   1      43.002  18.546  26.376  1.00  0.00    -0.246 OA
BRANCH  32  34
ATOM     34  C   UNL A   1      42.311  20.803  26.565  1.00  0.00     0.060 A 
ATOM     35  C   UNL A   1      42.273  21.115  27.918  1.00  0.00     0.016 A 
ATOM     36  C   UNL A   1      42.573  21.808  25.633  1.00  0.00     0.016 A 
ATOM     37  C   UNL A   1      42.487  22.424  28.354  1.00  0.00     0.010 A 
ATOM     38  C   UNL A   1      42.794  23.123  26.067  1.00  0.00     0.010 A 
ATOM     39  C   UNL A   1      42.758  23.442  27.434  1.00  0.00    -0.014 A 
BRANCH  39  40
ATOM     40  C   UNL A   1      43.017  24.826  27.911  1.00  0.00     0.031 A 
ATOM     41  C   UNL A   1      44.423  25.308  28.121  1.00  0.00     0.074 A 
ATOM     42  C   UNL A   1      41.989  25.668  28.132  1.00  0.00     0.049 A 
ATOM     43  N   UNL A   1      44.847  26.431  28.645  1.00  0.00    -0.248 NA
ATOM     44  C   UNL A   1      45.496  24.400  27.690  1.00  0.00     0.031 C 
ATOM     45  C   UNL A   1      40.579  25.355  27.901  1.00  0.00     0.029 A 
ATOM     46  N   UNL A   1      41.972  26.965  28.581  1.00  0.00    -0.354 N 
ATOM     47  C   UNL A   1      46.233  26.351  28.642  1.00  0.00     0.074 A 
ATOM     48  C   UNL A   1      46.578  25.067  28.066  1.00  0.00     0.031 C 
ATOM     49  C   UNL A   1      39.839  26.445  28.161  1.00  0.00     0.029 A 
ATOM     50  C   UNL A   1      40.712  27.511  28.644  1.00  0.00     0.049 A 
ATOM     51  H   UNL A   1      42.785  27.459  28.834  1.00  0.00     0.167 HD
ATOM     52  C   UNL A   1      47.135  27.262  29.086  1.00  0.00     0.037 A 
ATOM     53  C   UNL A   1      40.308  28.724  29.064  1.00  0.00     0.037 A 
ATOM     54  C   UNL A   1      46.793  28.553  29.626  1.00  0.00     0.049 A 
ATOM     55  C   UNL A   1      41.323  29.689  29.615  1.00  0.00     0.074 A 
ATOM     56  C   UNL A   1      47.636  29.539  30.112  1.00  0.00     0.029 A 
ATOM     57  N   UNL A   1      45.501  29.042  29.741  1.00  0.00    -0.354 N 
ATOM     58  N   UNL A   1      42.628  29.580  29.666  1.00  0.00    -0.248 NA
ATOM     59  C   UNL A   1      40.801  30.934  30.198  1.00  0.00     0.031 C 
ATOM     60  C   UNL A   1      46.850  30.609  30.558  1.00  0.00     0.029 A 
ATOM     61  C   UNL A   1      45.521  30.305  30.314  1.00  0.00     0.049 A 
ATOM     62  H   UNL A   1      44.688  28.564  29.459  1.00  0.00     0.167 HD
ATOM     63  C   UNL A   1      43.083  30.744  30.273  1.00  0.00     0.074 A 
ATOM     64  C   UNL A   1      41.916  31.556  30.551  1.00  0.00     0.031 C 
ATOM     65  C   UNL A   1      44.352  31.102  30.585  1.00  0.00     0.037 A 
BRANCH  52  66
ATOM     66  C   UNL A   1      48.580  26.861  29.055  1.00  0.00     0.057 A 
ATOM     67  C   UNL A   1      49.379  27.195  27.954  1.00  0.00     0.134 A 
ATOM     68  C   UNL A   1      49.182  26.153  30.100  1.00  0.00     0.134 A 
ATOM     69  F   UNL A   1      48.862  27.868  26.915  1.00  0.00    -0.206 F 
ATOM     70  C   UNL A   1      50.729  26.844  27.898  1.00  0.00     0.040 A 
ATOM     71  C   UNL A   1      50.538  25.817  30.067  1.00  0.00     0.040 A 
ATOM     72  F   UNL A   1      48.476  25.814  31.189  1.00  0.00    -0.206 F 
ATOM     73  C   UNL A   1      51.314  26.161  28.961  1.00  0.00     0.006 A 
ENDBRANCH  52  66
BRANCH  53  74
ATOM     74  C   UNL A   1      38.872  29.103  29.015  1.00  0.00     0.057 A 
ATOM     75  C   UNL A   1      38.267  29.556  27.837  1.00  0.00     0.134 A 
ATOM     76  C   UNL A   1      38.060  28.976  30.149  1.00  0.00     0.134 A 
ATOM     77  F   UNL A   1      38.989  29.695  26.715  1.00  0.00    -0.206 F 
ATOM     78  C   UNL A   1      36.910  29.877  27.788  1.00  0.00     0.040 A 
ATOM     79  C   UNL A   1      36.695  29.268  30.108  1.00  0.00     0.040 A 
ATOM     80  F   UNL A   1      38.574  28.519  31.300  1.00  0.00    -0.206 F 
ATOM     81  C   UNL A   1      36.117  29.725  28.925  1.00  0.00     0.006 A 
ENDBRANCH  53  74
BRANCH  65  82
ATOM     82  C   UNL A   1      44.538  32.436  31.245  1.00  0.00     0.057 A 
ATOM     83  C   UNL A   1      44.539  32.552  32.640  1.00  0.00     0.134 A 
ATOM     84  C   UNL A   1      44.708  33.609  30.497  1.00  0.00     0.134 A 
ATOM     85  F   UNL A   1      44.379  31.467  33.414  1.00  0.00    -0.206 F 
ATOM     86  C   UNL A   1      44.702  33.787  33.269  1.00  0.00     0.040 A 
ATOM     87  C   UNL A   1      44.895  34.846  31.115  1.00  0.00     0.040 A 
ATOM     88  F   UNL A   1      44.734  33.563  29.157  1.00  0.00    -0.206 F 
ATOM     89  C   UNL A   1      44.888  34.938  32.506  1.00  0.00     0.006 A 
ENDBRANCH  65  82
ENDBRANCH  39  40
ENDBRANCH  32  34
ENDBRANCH  31  32
ENDBRANCH  30  31
ENDBRANCH  29  30
ENDBRANCH   1  29
TORSDOF 18
ENDMDL
MODEL 2
REMARK VINA RESULT:     -10.4      0.740      6.142
REMARK SMILES COc1cc2c(cc1OC)C1=C(C#N)C[N@H+](CC(=O)OCCOCCOC(=O)c3ccc(-c4c5nc(c(-c6c(F)cccc6F)c6ccc([nH]6)c(-c6c(F)cccc6F)c6nc(c(-c7c(F)cccc7F)c7ccc4[nH]7)C=C6)C=C5)cc3)CN1CC2
REMARK SMILES IDX 23 1 22 2 21 3 20 4 18 5 19 6 17 7 16 8 3 9 4 10 8 11 5 12
REMARK SMILES IDX 7 13 6 14 86 15 11 16 85 17 12 18 84 19 15 20 83 21 2 23
REMARK SMILES IDX 1 24 9 25 10 26 13 27 14 28 24 29 25 30 26 31 27 32 28 33
REMARK SMILES IDX 29 34 30 35 82 36 31 37 81 38 32 39 33 40 34 41 75 42 35 43
REMARK SMILES IDX 80 44 74 45 76 46 36 47 79 48 73 49 72 50 37 52 63 53 46 54
REMARK SMILES IDX 62 55 47 56 50 57 61 58 77 59 48 60 49 61 60 63 78 64 51 65
REMARK SMILES IDX 38 66 39 67 44 68 40 69 41 70 43 71 45 72 42 73 64 74 65 75
REMARK SMILES IDX 70 76 66 77 67 78 69 79 71 80 68 81 52 82 53 83 58 84 54 85
REMARK SMILES IDX 55 86 57 87 59 88 56 89
REMARK H PARENT 16 22 76 51 50 62
REMARK Flexibility Score: inf
ROOT
ATOM      1  O   UNL A   1      38.124  21.483  25.007  1.00  0.00    -0.374 OA
ENDROOT
BRANCH   1   2
ATOM      2  C   UNL A   1      36.740  21.477  25.356  1.00  0.00     0.202 C 
BRANCH   2   3
ATOM      3  C   UNL A   1      35.965  20.209  24.973  1.00  0.00     0.261 C 
BRANCH   3   4
ATOM      4  O   UNL A   1      34.552  20.412  25.100  1.00  0.00    -0.459 OA
BRANCH   4   5
ATOM      5  C   UNL A   1      33.721  19.444  24.617  1.00  0.00     0.361 C 
ATOM      6  O   UNL A   1      33.789  18.256  24.907  1.00  0.00    -0.245 OA
BRANCH   5   7
ATOM      7  C   UNL A   1      32.622  20.015  23.698  1.00  0.00     0.388 C 
BRANCH   7   8
ATOM      8  N   UNL A   1      32.464  21.452  23.898  1.00  0.00    -0.304 N 
ATOM      9  C   UNL A   1      32.637  28.283  25.283  1.00  0.00     0.161 A 
ATOM     10  C   UNL A   1      32.452  27.276  26.232  1.00  0.00     0.055 A 
ATOM     11  C   UNL A   1      32.248  28.053  23.963  1.00  0.00     0.161 A 
ATOM     12  C   UNL A   1      32.041  25.990  25.844  1.00  0.00    -0.033 A 
ATOM     13  C   UNL A   1      31.852  26.752  23.586  1.00  0.00     0.061 A 
ATOM     14  C   UNL A   1      31.885  25.669  24.480  1.00  0.00     0.006 A 
ATOM     15  C   UNL A   1      31.812  24.945  26.904  1.00  0.00     0.058 C 
ATOM     16  C   UNL A   1      31.873  24.208  24.085  1.00  0.00     0.068 C 
ATOM     17  C   UNL A   1      30.935  23.805  26.380  1.00  0.00     0.127 C 
ATOM     18  C   UNL A   1      32.342  23.683  22.915  1.00  0.00     0.108 C 
ATOM     19  N   UNL A   1      31.445  23.324  25.097  1.00  0.00    -0.323 N 
ATOM     20  C   UNL A   1      32.313  22.205  22.657  1.00  0.00     0.314 C 
ATOM     21  C   UNL A   1      31.466  21.881  24.860  1.00  0.00     0.390 C 
ATOM     22  H   UNL A   1      33.362  21.680  24.326  1.00  0.00     0.350 HD
BRANCH   9  23
ATOM     23  O   UNL A   1      33.142  29.487  25.698  1.00  0.00    -0.493 OA
ATOM     24  C   UNL A   1      32.848  29.720  27.081  1.00  0.00     0.278 C 
ENDBRANCH   9  23
BRANCH  11  25
ATOM     25  O   UNL A   1      32.249  28.927  22.910  1.00  0.00    -0.493 OA
ATOM     26  C   UNL A   1      31.011  29.286  22.316  1.00  0.00     0.278 C 
ENDBRANCH  11  25
BRANCH  18  27
ATOM     27  C   UNL A   1      32.768  24.563  21.751  1.00  0.00     0.103 C 
ATOM     28  N   UNL A   1      33.122  25.293  20.786  1.00  0.00    -0.192 NA
ENDBRANCH  18  27
ENDBRANCH   7   8
ENDBRANCH   5   7
ENDBRANCH   4   5
ENDBRANCH   3   4
ENDBRANCH   2   3
ENDBRANCH   1   2
BRANCH   1  29
ATOM     29  C   UNL A   1      39.033  20.932  25.959  1.00  0.00     0.202 C 
BRANCH  29  30
ATOM     30  C   UNL A   1      39.649  19.578  25.602  1.00  0.00     0.261 C 
BRANCH  30  31
ATOM     31  O   UNL A   1      40.821  19.264  26.378  1.00  0.00    -0.460 OA
BRANCH  31  32
ATOM     32  C   UNL A   1      41.985  19.784  25.921  1.00  0.00     0.338 C 
ATOM     33  O   UNL A   1      42.756  19.281  25.113  1.00  0.00    -0.246 OA
BRANCH  32  34
ATOM     34  C   UNL A   1      42.198  21.135  26.477  1.00  0.00     0.060 A 
ATOM     35  C   UNL A   1      42.109  21.345  27.847  1.00  0.00     0.016 A 
ATOM     36  C   UNL A   1      42.569  22.189  25.641  1.00  0.00     0.016 A 
ATOM     37  C   UNL A   1      42.382  22.599  28.396  1.00  0.00     0.010 A 
ATOM     38  C   UNL A   1      42.850  23.449  26.188  1.00  0.00     0.010 A 
ATOM     39  C   UNL A   1      42.763  23.664  27.574  1.00  0.00    -0.014 A 
BRANCH  39  40
ATOM     40  C   UNL A   1      43.082  24.988  28.171  1.00  0.00     0.031 A 
ATOM     41  C   UNL A   1      41.990  25.977  28.458  1.00  0.00     0.074 A 
ATOM     42  C   UNL A   1      44.356  25.297  28.487  1.00  0.00     0.049 A 
ATOM     43  N   UNL A   1      42.080  27.220  28.860  1.00  0.00    -0.248 NA
ATOM     44  C   UNL A   1      40.612  25.505  28.258  1.00  0.00     0.031 C 
ATOM     45  C   UNL A   1      45.503  24.405  28.328  1.00  0.00     0.029 A 
ATOM     46  N   UNL A   1      44.894  26.439  29.023  1.00  0.00    -0.354 N 
ATOM     47  C   UNL A   1      40.776  27.692  28.925  1.00  0.00     0.074 A 
ATOM     48  C   UNL A   1      39.914  26.601  28.519  1.00  0.00     0.031 C 
ATOM     49  C   UNL A   1      46.602  25.013  28.804  1.00  0.00     0.029 A 
ATOM     50  C   UNL A   1      46.250  26.363  29.236  1.00  0.00     0.049 A 
ATOM     51  H   UNL A   1      44.361  27.239  29.236  1.00  0.00     0.167 HD
ATOM     52  C   UNL A   1      40.339  28.925  29.285  1.00  0.00     0.037 A 
ATOM     53  C   UNL A   1      47.112  27.284  29.704  1.00  0.00     0.037 A 
ATOM     54  C   UNL A   1      41.193  29.999  29.722  1.00  0.00     0.049 A 
ATOM     55  C   UNL A   1      46.610  28.665  30.031  1.00  0.00     0.074 A 
ATOM     56  C   UNL A   1      40.844  31.286  30.095  1.00  0.00     0.029 A 
ATOM     57  N   UNL A   1      42.570  29.906  29.856  1.00  0.00    -0.354 N 
ATOM     58  N   UNL A   1      45.381  29.122  30.030  1.00  0.00    -0.248 NA
ATOM     59  C   UNL A   1      47.624  29.667  30.391  1.00  0.00     0.031 C 
ATOM     60  C   UNL A   1      42.015  31.984  30.417  1.00  0.00     0.029 A 
ATOM     61  C   UNL A   1      43.089  31.120  30.281  1.00  0.00     0.049 A 
ATOM     62  H   UNL A   1      43.103  29.098  29.675  1.00  0.00     0.167 HD
ATOM     63  C   UNL A   1      45.473  30.457  30.400  1.00  0.00     0.074 A 
ATOM     64  C   UNL A   1      46.875  30.731  30.641  1.00  0.00     0.031 C 
ATOM     65  C   UNL A   1      44.486  31.378  30.517  1.00  0.00     0.037 A 
BRANCH  52  66
ATOM     66  C   UNL A   1      38.868  29.188  29.160  1.00  0.00     0.057 A 
ATOM     67  C   UNL A   1      38.037  29.087  30.284  1.00  0.00     0.134 A 
ATOM     68  C   UNL A   1      38.271  29.541  27.945  1.00  0.00     0.134 A 
ATOM     69  F   UNL A   1      38.546  28.747  31.479  1.00  0.00    -0.206 F 
ATOM     70  C   UNL A   1      36.666  29.334  30.204  1.00  0.00     0.040 A 
ATOM     71  C   UNL A   1      36.903  29.814  27.857  1.00  0.00     0.040 A 
ATOM     72  F   UNL A   1      39.012  29.667  26.834  1.00  0.00    -0.206 F 
ATOM     73  C   UNL A   1      36.097  29.709  28.989  1.00  0.00     0.006 A 
ENDBRANCH  52  66
BRANCH  53  74
ATOM     74  C   UNL A   1      48.552  26.958  29.874  1.00  0.00     0.057 A 
ATOM     75  C   UNL A   1      49.052  26.415  31.063  1.00  0.00     0.134 A 
ATOM     76  C   UNL A   1      49.456  27.144  28.821  1.00  0.00     0.134 A 
ATOM     77  F   UNL A   1      48.237  26.206  32.108  1.00  0.00    -0.206 F 
ATOM     78  C   UNL A   1      50.399  26.077  31.204  1.00  0.00     0.040 A 
ATOM     79  C   UNL A   1      50.800  26.787  28.938  1.00  0.00     0.040 A 
ATOM     80  F   UNL A   1      49.033  27.633  27.645  1.00  0.00    -0.206 F 
ATOM     81  C   UNL A   1      51.276  26.255  30.136  1.00  0.00     0.006 A 
ENDBRANCH  53  74
BRANCH  65  82
ATOM     82  C   UNL A   1      44.892  32.759  30.940  1.00  0.00     0.057 A 
ATOM     83  C   UNL A   1      45.191  33.741  29.988  1.00  0.00     0.134 A 
ATOM     84  C   UNL A   1      44.996  33.113  32.292  1.00  0.00     0.134 A 
ATOM     85  F   UNL A   1      45.113  33.466  28.677  1.00  0.00    -0.206 F 
ATOM     86  C   UNL A   1      45.579  35.028  30.365  1.00  0.00     0.040 A 
ATOM     87  C   UNL A   1      45.361  34.403  32.681  1.00  0.00     0.040 A 
ATOM     88  F   UNL A   1      44.706  32.223  33.252  1.00  0.00    -0.206 F 
ATOM     89  C   UNL A   1      45.659  35.363  31.716  1.00  0.00     0.006 A 
ENDBRANCH  65  82
ENDBRANCH  39  40
ENDBRANCH  32  34
ENDBRANCH  31  32
ENDBRANCH  30  31
ENDBRANCH  29  30
ENDBRANCH   1  29
TORSDOF 18
ENDMDL
MODEL 3
REMARK VINA RESULT:     -10.3      3.989      7.773
REMARK SMILES COc1cc2c(cc1OC)C1=C(C#N)C[N@H+](CC(=O)OCCOCCOC(=O)c3ccc(-c4c5nc(c(-c6c(F)cccc6F)c6ccc([nH]6)c(-c6c(F)cccc6F)c6nc(c(-c7c(F)cccc7F)c7ccc4[nH]7)C=C6)C=C5)cc3)CN1CC2
REMARK SMILES IDX 23 1 22 2 21 3 20 4 18 5 19 6 17 7 16 8 3 9 4 10 8 11 5 12
REMARK SMILES IDX 7 13 6 14 86 15 11 16 85 17 12 18 84 19 15 20 83 21 2 23
REMARK SMILES IDX 1 24 9 25 10 26 13 27 14 28 24 29 25 30 26 31 27 32 28 33
REMARK SMILES IDX 29 34 30 35 82 36 31 37 81 38 32 39 33 40 34 41 75 42 35 43
REMARK SMILES IDX 80 44 74 45 76 46 36 47 79 48 73 49 72 50 37 52 63 53 46 54
REMARK SMILES IDX 62 55 47 56 50 57 61 58 77 59 48 60 49 61 60 63 78 64 51 65
REMARK SMILES IDX 38 66 39 67 44 68 40 69 41 70 43 71 45 72 42 73 64 74 65 75
REMARK SMILES IDX 70 76 66 77 67 78 69 79 71 80 68 81 52 82 53 83 58 84 54 85
REMARK SMILES IDX 55 86 57 87 59 88 56 89
REMARK H PARENT 16 22 76 51 50 62
REMARK Flexibility Score: inf
ROOT
ATOM      1  O   UNL A   1      38.452  23.275  26.520  1.00  0.00    -0.374 OA
ENDROOT
BRANCH   1   2
ATOM      2  C   UNL A   1      37.517  23.339  25.443  1.00  0.00     0.202 C 
BRANCH   2   3
ATOM      3  C   UNL A   1      37.062  21.987  24.878  1.00  0.00     0.261 C 
BRANCH   3   4
ATOM      4  O   UNL A   1      35.641  21.838  24.985  1.00  0.00    -0.459 OA
BRANCH   4   5
ATOM      5  C   UNL A   1      35.110  20.601  24.768  1.00  0.00     0.361 C 
ATOM      6  O   UNL A   1      35.682  19.543  25.001  1.00  0.00    -0.245 OA
BRANCH   5   7
ATOM      7  C   UNL A   1      33.660  20.664  24.246  1.00  0.00     0.388 C 
BRANCH   7   8
ATOM      8  N   UNL A   1      33.148  22.031  24.283  1.00  0.00    -0.304 N 
ATOM      9  C   UNL A   1      31.556  28.783  24.978  1.00  0.00     0.161 A 
ATOM     10  C   UNL A   1      31.501  27.836  26.002  1.00  0.00     0.055 A 
ATOM     11  C   UNL A   1      31.390  28.366  23.657  1.00  0.00     0.161 A 
ATOM     12  C   UNL A   1      31.450  26.463  25.709  1.00  0.00    -0.033 A 
ATOM     13  C   UNL A   1      31.356  26.983  23.377  1.00  0.00     0.061 A 
ATOM     14  C   UNL A   1      31.535  26.012  24.376  1.00  0.00     0.006 A 
ATOM     15  C   UNL A   1      31.349  25.477  26.842  1.00  0.00     0.058 C 
ATOM     16  C   UNL A   1      31.911  24.567  24.132  1.00  0.00     0.068 C 
ATOM     17  C   UNL A   1      30.830  24.122  26.355  1.00  0.00     0.127 C 
ATOM     18  C   UNL A   1      32.625  24.084  23.072  1.00  0.00     0.108 C 
ATOM     19  N   UNL A   1      31.586  23.684  25.183  1.00  0.00    -0.323 N 
ATOM     20  C   UNL A   1      32.973  22.629  22.963  1.00  0.00     0.314 C 
ATOM     21  C   UNL A   1      31.971  22.275  25.096  1.00  0.00     0.390 C 
ATOM     22  H   UNL A   1      33.911  22.502  24.770  1.00  0.00     0.350 HD
BRANCH   9  23
ATOM     23  O   UNL A   1      31.713  30.101  25.315  1.00  0.00    -0.493 OA
ATOM     24  C   UNL A   1      32.104  30.239  26.687  1.00  0.00     0.278 C 
ENDBRANCH   9  23
BRANCH  11  25
ATOM     25  O   UNL A   1      31.310  29.133  22.526  1.00  0.00    -0.493 OA
ATOM     26  C   UNL A   1      30.031  29.513  22.044  1.00  0.00     0.278 C 
ENDBRANCH  11  25
BRANCH  18  27
ATOM     27  C   UNL A   1      32.967  24.951  21.870  1.00  0.00     0.103 C 
ATOM     28  N   UNL A   1      33.252  25.669  20.874  1.00  0.00    -0.192 NA
ENDBRANCH  18  27
ENDBRANCH   7   8
ENDBRANCH   5   7
ENDBRANCH   4   5
ENDBRANCH   3   4
ENDBRANCH   2   3
ENDBRANCH   1   2
BRANCH   1  29
ATOM     29  C   UNL A   1      39.505  22.318  26.406  1.00  0.00     0.202 C 
BRANCH  29  30
ATOM     30  C   UNL A   1      40.800  22.809  25.755  1.00  0.00     0.261 C 
BRANCH  30  31
ATOM     31  O   UNL A   1      41.515  23.763  26.562  1.00  0.00    -0.460 OA
BRANCH  31  32
ATOM     32  C   UNL A   1      41.379  25.061  26.196  1.00  0.00     0.338 C 
ATOM     33  O   UNL A   1      41.327  25.509  25.058  1.00  0.00    -0.246 OA
BRANCH  32  34
ATOM     34  C   UNL A   1      41.212  25.915  27.388  1.00  0.00     0.060 A 
ATOM     35  C   UNL A   1      42.044  27.011  27.580  1.00  0.00     0.016 A 
ATOM     36  C   UNL A   1      40.168  25.677  28.284  1.00  0.00     0.016 A 
ATOM     37  C   UNL A   1      41.851  27.873  28.661  1.00  0.00     0.010 A 
ATOM     38  C   UNL A   1      39.967  26.543  29.368  1.00  0.00     0.010 A 
ATOM     39  C   UNL A   1      40.805  27.654  29.564  1.00  0.00    -0.014 A 
BRANCH  39  40
ATOM     40  C   UNL A   1      40.589  28.595  30.694  1.00  0.00     0.031 A 
ATOM     41  C   UNL A   1      39.512  29.638  30.619  1.00  0.00     0.074 A 
ATOM     42  C   UNL A   1      41.342  28.499  31.807  1.00  0.00     0.049 A 
ATOM     43  N   UNL A   1      39.249  30.622  31.443  1.00  0.00    -0.248 NA
ATOM     44  C   UNL A   1      38.614  29.568  29.456  1.00  0.00     0.031 C 
ATOM     45  C   UNL A   1      42.373  27.490  32.042  1.00  0.00     0.029 A 
ATOM     46  N   UNL A   1      41.342  29.250  32.956  1.00  0.00    -0.354 N 
ATOM     47  C   UNL A   1      38.182  31.311  30.882  1.00  0.00     0.074 A 
ATOM     48  C   UNL A   1      37.847  30.633  29.646  1.00  0.00     0.031 C 
ATOM     49  C   UNL A   1      42.872  27.652  33.279  1.00  0.00     0.029 A 
ATOM     50  C   UNL A   1      42.247  28.818  33.897  1.00  0.00     0.049 A 
ATOM     51  H   UNL A   1      40.751  30.024  33.095  1.00  0.00     0.167 HD
ATOM     52  C   UNL A   1      37.545  32.412  31.352  1.00  0.00     0.037 A 
ATOM     53  C   UNL A   1      42.551  29.318  35.109  1.00  0.00     0.037 A 
ATOM     54  C   UNL A   1      37.854  33.065  32.598  1.00  0.00     0.049 A 
ATOM     55  C   UNL A   1      41.876  30.580  35.575  1.00  0.00     0.074 A 
ATOM     56  C   UNL A   1      37.272  34.193  33.152  1.00  0.00     0.029 A 
ATOM     57  N   UNL A   1      38.827  32.640  33.491  1.00  0.00    -0.354 N 
ATOM     58  N   UNL A   1      40.911  31.262  35.008  1.00  0.00    -0.248 NA
ATOM     59  C   UNL A   1      42.361  31.160  36.836  1.00  0.00     0.031 C 
ATOM     60  C   UNL A   1      37.919  34.473  34.362  1.00  0.00     0.029 A 
ATOM     61  C   UNL A   1      38.878  33.497  34.579  1.00  0.00     0.049 A 
ATOM     62  H   UNL A   1      39.397  31.847  33.369  1.00  0.00     0.167 HD
ATOM     63  C   UNL A   1      40.665  32.340  35.848  1.00  0.00     0.074 A 
ATOM     64  C   UNL A   1      41.566  32.210  36.974  1.00  0.00     0.031 C 
ATOM     65  C   UNL A   1      39.780  33.356  35.694  1.00  0.00     0.037 A 
BRANCH  52  66
ATOM     66  C   UNL A   1      36.484  33.010  30.477  1.00  0.00     0.057 A 
ATOM     67  C   UNL A   1      35.131  32.749  30.732  1.00  0.00     0.134 A 
ATOM     68  C   UNL A   1      36.789  33.839  29.391  1.00  0.00     0.134 A 
ATOM     69  F   UNL A   1      34.771  31.957  31.753  1.00  0.00    -0.206 F 
ATOM     70  C   UNL A   1      34.120  33.297  29.942  1.00  0.00     0.040 A 
ATOM     71  C   UNL A   1      35.785  34.412  28.607  1.00  0.00     0.040 A 
ATOM     72  F   UNL A   1      38.064  34.139  29.101  1.00  0.00    -0.206 F 
ATOM     73  C   UNL A   1      34.445  34.140  28.881  1.00  0.00     0.006 A 
ENDBRANCH  52  66
BRANCH  53  74
ATOM     74  C   UNL A   1      43.562  28.654  35.971  1.00  0.00     0.057 A 
ATOM     75  C   UNL A   1      44.888  29.098  36.030  1.00  0.00     0.134 A 
ATOM     76  C   UNL A   1      43.206  27.579  36.793  1.00  0.00     0.134 A 
ATOM     77  F   UNL A   1      45.294  30.128  35.272  1.00  0.00    -0.206 F 
ATOM     78  C   UNL A   1      45.826  28.492  36.869  1.00  0.00     0.040 A 
ATOM     79  C   UNL A   1      44.125  26.980  37.656  1.00  0.00     0.040 A 
ATOM     80  F   UNL A   1      41.943  27.126  36.803  1.00  0.00    -0.206 F 
ATOM     81  C   UNL A   1      45.443  27.435  37.692  1.00  0.00     0.006 A 
ENDBRANCH  53  74
BRANCH  65  82
ATOM     82  C   UNL A   1      39.738  34.391  36.779  1.00  0.00     0.057 A 
ATOM     83  C   UNL A   1      38.959  34.196  37.925  1.00  0.00     0.134 A 
ATOM     84  C   UNL A   1      40.465  35.585  36.683  1.00  0.00     0.134 A 
ATOM     85  F   UNL A   1      38.237  33.075  38.077  1.00  0.00    -0.206 F 
ATOM     86  C   UNL A   1      38.902  35.153  38.939  1.00  0.00     0.040 A 
ATOM     87  C   UNL A   1      40.434  36.539  37.702  1.00  0.00     0.040 A 
ATOM     88  F   UNL A   1      41.246  35.823  35.619  1.00  0.00    -0.206 F 
ATOM     89  C   UNL A   1      39.647  36.327  38.832  1.00  0.00     0.006 A 
ENDBRANCH  65  82
ENDBRANCH  39  40
ENDBRANCH  32  34
ENDBRANCH  31  32
ENDBRANCH  30  31
ENDBRANCH  29  30
ENDBRANCH   1  29
TORSDOF 18
ENDMDL
