MODEL 1
REMARK VINA RESULT:     -12.8      0.000      0.000
REMARK SMILES O=C(OCCOCCOC(=O)c1ccc(-c2c3nc(c(-c4c(F)cccc4F)c4ccc([nH]4)c(-c4c(F)cccc4F)c4nc(c(-c5c(F)cccc5F)c5ccc2[nH]5)C=C4)C=C3)cc1)C1=Cc2cc(C(F)(F)F)ccc2O[C@@H]1C(F)(F)F
REMARK SMILES IDX 7 1 6 2 5 3 4 4 3 5 2 6 1 7 66 8 67 9 79 10 68 11 78 12
REMARK SMILES IDX 69 13 77 14 70 15 76 16 75 17 80 18 81 19 82 20 83 21 71 22
REMARK SMILES IDX 72 23 73 24 74 25 8 26 9 27 10 28 11 29 12 30 13 31 65 32
REMARK SMILES IDX 14 33 64 34 15 35 16 36 17 37 58 38 18 39 63 40 57 41 59 42
REMARK SMILES IDX 19 43 62 44 56 45 55 46 20 48 46 49 29 50 45 51 30 52 33 53
REMARK SMILES IDX 44 54 60 55 31 56 32 57 43 59 61 60 34 61 21 62 22 63 27 64
REMARK SMILES IDX 23 65 24 66 26 67 28 68 25 69 47 70 48 71 53 72 49 73 50 74
REMARK SMILES IDX 52 75 54 76 51 77 35 78 36 79 41 80 37 81 38 82 40 83 42 84
REMARK SMILES IDX 39 85
REMARK H PARENT 59 47 33 58
REMARK Flexibility Score: inf
ROOT
ATOM      1  C   UNL A   1      42.467  20.290  26.124  1.00  0.00     0.202 C 
ENDROOT
BRANCH   1   2
ATOM      2  O   UNL A   1      41.072  20.398  25.785  1.00  0.00    -0.374 OA
BRANCH   2   3
ATOM      3  C   UNL A   1      39.874  21.367  26.309  1.00  0.00     0.202 C 
BRANCH   3   4
ATOM      4  C   UNL A   1      37.924  21.817  25.467  1.00  0.00     0.261 C 
BRANCH   4   5
ATOM      5  O   UNL A   1      37.421  23.187  24.993  1.00  0.00    -0.460 OA
BRANCH   5   6
ATOM      6  C   UNL A   1      36.465  23.086  24.067  1.00  0.00     0.338 C 
ATOM      7  O   UNL A   1      36.544  23.202  22.871  1.00  0.00    -0.246 OA
BRANCH   6   8
ATOM      8  C   UNL A   1      35.348  23.173  24.984  1.00  0.00     0.087 C 
ATOM      9  C   UNL A   1      34.969  24.577  25.246  1.00  0.00     0.027 C 
ATOM     10  C   UNL A   1      34.236  21.885  24.068  1.00  0.00     0.316 C 
ATOM     11  C   UNL A   1      33.512  25.368  24.535  1.00  0.00     0.018 A 
ATOM     12  O   UNL A   1      32.700  22.723  23.241  1.00  0.00    -0.475 OA
ATOM     13  C   UNL A   1      33.344  26.714  24.701  1.00  0.00     0.025 A 
ATOM     14  C   UNL A   1      32.434  24.517  23.477  1.00  0.00     0.128 A 
ATOM     15  C   UNL A   1      32.311  27.306  23.937  1.00  0.00     0.056 A 
ATOM     16  C   UNL A   1      31.545  25.171  22.678  1.00  0.00     0.048 A 
ATOM     17  C   UNL A   1      31.502  26.571  22.949  1.00  0.00     0.017 A 
BRANCH  10  18
ATOM     18  C   UNL A   1      34.358  20.730  25.166  1.00  0.00     0.430 C 
ATOM     19  F   UNL A   1      34.600  21.139  26.423  1.00  0.00    -0.167 F 
ATOM     20  F   UNL A   1      33.137  20.115  25.234  1.00  0.00    -0.167 F 
ATOM     21  F   UNL A   1      35.220  19.733  24.858  1.00  0.00    -0.167 F 
ENDBRANCH  10  18
BRANCH  15  22
ATOM     22  C   UNL A   1      32.083  28.795  24.178  1.00  0.00     0.416 C 
ATOM     23  F   UNL A   1      31.377  29.372  23.163  1.00  0.00    -0.166 F 
ATOM     24  F   UNL A   1      31.358  29.028  25.307  1.00  0.00    -0.166 F 
ATOM     25  F   UNL A   1      33.225  29.521  24.299  1.00  0.00    -0.166 F 
ENDBRANCH  15  22
ENDBRANCH   6   8
ENDBRANCH   5   6
ENDBRANCH   4   5
ENDBRANCH   3   4
ENDBRANCH   2   3
ENDBRANCH   1   2
BRANCH   1  26
ATOM     26  C   UNL A   1      43.379  21.435  25.701  1.00  0.00     0.261 C 
BRANCH  26  27
ATOM     27  O   UNL A   1      42.663  22.613  25.374  1.00  0.00    -0.460 OA
BRANCH  27  28
ATOM     28  C   UNL A   1      43.443  23.708  25.238  1.00  0.00     0.338 C 
ATOM     29  O   UNL A   1      44.308  23.919  24.409  1.00  0.00    -0.246 OA
BRANCH  28  30
ATOM     30  C   UNL A   1      43.054  24.659  26.291  1.00  0.00     0.060 A 
ATOM     31  C   UNL A   1      43.694  25.902  26.324  1.00  0.00     0.016 A 
ATOM     32  C   UNL A   1      42.028  24.352  27.195  1.00  0.00     0.016 A 
ATOM     33  C   UNL A   1      43.249  26.875  27.213  1.00  0.00     0.010 A 
ATOM     34  C   UNL A   1      41.605  25.314  28.100  1.00  0.00     0.010 A 
ATOM     35  C   UNL A   1      42.204  26.581  28.098  1.00  0.00    -0.014 A 
BRANCH  35  36
ATOM     36  C   UNL A   1      41.821  27.549  29.138  1.00  0.00     0.031 A 
ATOM     37  C   UNL A   1      42.546  27.484  30.444  1.00  0.00     0.074 A 
ATOM     38  C   UNL A   1      40.819  28.418  28.927  1.00  0.00     0.049 A 
ATOM     39  N   UNL A   1      42.325  28.154  31.541  1.00  0.00    -0.248 NA
ATOM     40  C   UNL A   1      43.666  26.531  30.527  1.00  0.00     0.031 C 
ATOM     41  C   UNL A   1      40.072  28.565  27.678  1.00  0.00     0.029 A 
ATOM     42  N   UNL A   1      40.239  29.325  29.775  1.00  0.00    -0.354 N 
ATOM     43  C   UNL A   1      43.274  27.702  32.446  1.00  0.00     0.074 A 
ATOM     44  C   UNL A   1      44.065  26.692  31.779  1.00  0.00     0.031 C 
ATOM     45  C   UNL A   1      39.111  29.492  27.852  1.00  0.00     0.029 A 
ATOM     46  C   UNL A   1      39.152  29.968  29.232  1.00  0.00     0.049 A 
ATOM     47  H   UNL A   1      40.569  29.500  30.686  1.00  0.00     0.167 HD
ATOM     48  C   UNL A   1      43.458  28.097  33.723  1.00  0.00     0.037 A 
ATOM     49  C   UNL A   1      38.271  30.808  29.810  1.00  0.00     0.037 A 
ATOM     50  C   UNL A   1      42.647  29.088  34.376  1.00  0.00     0.049 A 
ATOM     51  C   UNL A   1      38.456  31.163  31.267  1.00  0.00     0.074 A 
ATOM     52  C   UNL A   1      42.771  29.585  35.659  1.00  0.00     0.029 A 
ATOM     53  N   UNL A   1      41.546  29.708  33.806  1.00  0.00    -0.354 N 
ATOM     54  N   UNL A   1      39.400  30.791  32.098  1.00  0.00    -0.248 NA
ATOM     55  C   UNL A   1      37.449  32.050  31.870  1.00  0.00     0.031 C 
ATOM     56  C   UNL A   1      41.698  30.446  35.895  1.00  0.00     0.029 A 
ATOM     57  C   UNL A   1      40.951  30.546  34.731  1.00  0.00     0.049 A 
ATOM     58  H   UNL A   1      41.236  29.573  32.881  1.00  0.00     0.167 HD
ATOM     59  C   UNL A   1      39.118  31.418  33.306  1.00  0.00     0.074 A 
ATOM     60  C   UNL A   1      37.930  32.216  33.093  1.00  0.00     0.031 C 
ATOM     61  C   UNL A   1      39.773  31.339  34.489  1.00  0.00     0.037 A 
BRANCH  48  62
ATOM     62  C   UNL A   1      44.540  27.433  34.515  1.00  0.00     0.057 A 
ATOM     63  C   UNL A   1      45.827  27.972  34.613  1.00  0.00     0.134 A 
ATOM     64  C   UNL A   1      44.264  26.271  35.246  1.00  0.00     0.134 A 
ATOM     65  F   UNL A   1      46.161  29.071  33.918  1.00  0.00    -0.206 F 
ATOM     66  C   UNL A   1      46.805  27.378  35.412  1.00  0.00     0.040 A 
ATOM     67  C   UNL A   1      45.223  25.684  36.070  1.00  0.00     0.040 A 
ATOM     68  F   UNL A   1      43.050  25.701  35.187  1.00  0.00    -0.206 F 
ATOM     69  C   UNL A   1      46.498  26.239  36.155  1.00  0.00     0.006 A 
ENDBRANCH  48  62
BRANCH  49  70
ATOM     70  C   UNL A   1      37.100  31.332  29.053  1.00  0.00     0.057 A 
ATOM     71  C   UNL A   1      37.068  32.648  28.574  1.00  0.00     0.134 A 
ATOM     72  C   UNL A   1      35.949  30.556  28.866  1.00  0.00     0.134 A 
ATOM     73  F   UNL A   1      38.130  33.452  28.739  1.00  0.00    -0.206 F 
ATOM     74  C   UNL A   1      35.923  33.187  27.985  1.00  0.00     0.040 A 
ATOM     75  C   UNL A   1      34.810  31.071  28.244  1.00  0.00     0.040 A 
ATOM     76  F   UNL A   1      35.907  29.286  29.294  1.00  0.00    -0.206 F 
ATOM     77  C   UNL A   1      34.788  32.397  27.818  1.00  0.00     0.006 A 
ENDBRANCH  49  70
BRANCH  61  78
ATOM     78  C   UNL A   1      39.243  32.152  35.636  1.00  0.00     0.057 A 
ATOM     79  C   UNL A   1      39.603  33.492  35.822  1.00  0.00     0.134 A 
ATOM     80  C   UNL A   1      38.307  31.605  36.524  1.00  0.00     0.134 A 
ATOM     81  F   UNL A   1      40.502  34.074  35.013  1.00  0.00    -0.206 F 
ATOM     82  C   UNL A   1      39.066  34.254  36.861  1.00  0.00     0.040 A 
ATOM     83  C   UNL A   1      37.736  32.367  37.543  1.00  0.00     0.040 A 
ATOM     84  F   UNL A   1      37.906  30.331  36.394  1.00  0.00    -0.206 F 
ATOM     85  C   UNL A   1      38.121  33.694  37.717  1.00  0.00     0.006 A 
ENDBRANCH  61  78
ENDBRANCH  35  36
ENDBRANCH  28  30
ENDBRANCH  27  28
ENDBRANCH  26  27
ENDBRANCH   1  26
TORSDOF 16
ENDMDL
MODEL 2
REMARK VINA RESULT:     -12.8      4.611      9.650
REMARK SMILES O=C(OCCOCCOC(=O)c1ccc(-c2c3nc(c(-c4c(F)cccc4F)c4ccc([nH]4)c(-c4c(F)cccc4F)c4nc(c(-c5c(F)cccc5F)c5ccc2[nH]5)C=C4)C=C3)cc1)C1=Cc2cc(C(F)(F)F)ccc2O[C@@H]1C(F)(F)F
REMARK SMILES IDX 7 1 6 2 5 3 4 4 3 5 2 6 1 7 66 8 67 9 79 10 68 11 78 12
REMARK SMILES IDX 69 13 77 14 70 15 76 16 75 17 80 18 81 19 82 20 83 21 71 22
REMARK SMILES IDX 72 23 73 24 74 25 8 26 9 27 10 28 11 29 12 30 13 31 65 32
REMARK SMILES IDX 14 33 64 34 15 35 16 36 17 37 58 38 18 39 63 40 57 41 59 42
REMARK SMILES IDX 19 43 62 44 56 45 55 46 20 48 46 49 29 50 45 51 30 52 33 53
REMARK SMILES IDX 44 54 60 55 31 56 32 57 43 59 61 60 34 61 21 62 22 63 27 64
REMARK SMILES IDX 23 65 24 66 26 67 28 68 25 69 47 70 48 71 53 72 49 73 50 74
REMARK SMILES IDX 52 75 54 76 51 77 35 78 36 79 41 80 37 81 38 82 40 83 42 84
REMARK SMILES IDX 39 85
REMARK H PARENT 59 47 33 58
REMARK Flexibility Score: inf
ROOT
ATOM      1  C   UNL A   1      34.202  34.006  28.852  1.00  0.00     0.202 C 
ENDROOT
BRANCH   1   2
ATOM      2  O   UNL A   1      33.456  33.030  28.101  1.00  0.00    -0.374 OA
BRANCH   2   3
ATOM      3  C   UNL A   1      33.826  31.557  27.518  1.00  0.00     0.202 C 
BRANCH   3   4
ATOM      4  C   UNL A   1      32.614  29.774  27.254  1.00  0.00     0.261 C 
BRANCH   4   5
ATOM      5  O   UNL A   1      31.916  29.320  25.965  1.00  0.00    -0.460 OA
BRANCH   5   6
ATOM      6  C   UNL A   1      31.650  28.012  25.965  1.00  0.00     0.338 C 
ATOM      7  O   UNL A   1      31.520  27.258  26.896  1.00  0.00    -0.246 OA
BRANCH   6   8
ATOM      8  C   UNL A   1      31.947  27.791  24.565  1.00  0.00     0.087 C 
ATOM      9  C   UNL A   1      33.259  27.138  24.384  1.00  0.00     0.027 C 
ATOM     10  C   UNL A   1      30.245  26.984  24.126  1.00  0.00     0.316 C 
ATOM     11  C   UNL A   1      33.459  25.397  23.955  1.00  0.00     0.018 A 
ATOM     12  O   UNL A   1      30.428  25.100  23.726  1.00  0.00    -0.475 OA
ATOM     13  C   UNL A   1      34.712  24.851  23.978  1.00  0.00     0.025 A 
ATOM     14  C   UNL A   1      32.096  24.352  23.717  1.00  0.00     0.128 A 
ATOM     15  C   UNL A   1      34.772  23.443  23.853  1.00  0.00     0.056 A 
ATOM     16  C   UNL A   1      32.220  22.996  23.731  1.00  0.00     0.048 A 
ATOM     17  C   UNL A   1      33.583  22.577  23.786  1.00  0.00     0.017 A 
BRANCH  10  18
ATOM     18  C   UNL A   1      29.684  28.208  23.265  1.00  0.00     0.430 C 
ATOM     19  F   UNL A   1      30.165  28.315  22.014  1.00  0.00    -0.167 F 
ATOM     20  F   UNL A   1      28.342  27.995  23.098  1.00  0.00    -0.167 F 
ATOM     21  F   UNL A   1      29.760  29.417  23.867  1.00  0.00    -0.167 F 
ENDBRANCH  10  18
BRANCH  15  22
ATOM     22  C   UNL A   1      36.176  22.845  23.811  1.00  0.00     0.416 C 
ATOM     23  F   UNL A   1      37.092  23.657  24.414  1.00  0.00    -0.166 F 
ATOM     24  F   UNL A   1      36.248  21.657  24.472  1.00  0.00    -0.166 F 
ATOM     25  F   UNL A   1      36.646  22.617  22.557  1.00  0.00    -0.166 F 
ENDBRANCH  15  22
ENDBRANCH   6   8
ENDBRANCH   5   6
ENDBRANCH   4   5
ENDBRANCH   3   4
ENDBRANCH   2   3
ENDBRANCH   1   2
BRANCH   1  26
ATOM     26  C   UNL A   1      34.310  33.795  30.357  1.00  0.00     0.261 C 
BRANCH  26  27
ATOM     27  O   UNL A   1      34.530  32.439  30.706  1.00  0.00    -0.460 OA
BRANCH  27  28
ATOM     28  C   UNL A   1      35.353  32.272  31.765  1.00  0.00     0.338 C 
ATOM     29  O   UNL A   1      35.132  32.518  32.937  1.00  0.00    -0.246 OA
BRANCH  28  30
ATOM     30  C   UNL A   1      36.613  31.708  31.260  1.00  0.00     0.060 A 
ATOM     31  C   UNL A   1      37.537  31.223  32.190  1.00  0.00     0.016 A 
ATOM     32  C   UNL A   1      36.853  31.602  29.883  1.00  0.00     0.016 A 
ATOM     33  C   UNL A   1      38.671  30.553  31.741  1.00  0.00     0.010 A 
ATOM     34  C   UNL A   1      37.999  30.959  29.436  1.00  0.00     0.010 A 
ATOM     35  C   UNL A   1      38.899  30.420  30.366  1.00  0.00    -0.014 A 
BRANCH  35  36
ATOM     36  C   UNL A   1      40.161  29.843  29.877  1.00  0.00     0.031 A 
ATOM     37  C   UNL A   1      41.326  30.766  29.710  1.00  0.00     0.074 A 
ATOM     38  C   UNL A   1      40.235  28.543  29.547  1.00  0.00     0.049 A 
ATOM     39  N   UNL A   1      42.503  30.521  29.205  1.00  0.00    -0.248 NA
ATOM     40  C   UNL A   1      41.134  32.153  30.168  1.00  0.00     0.031 C 
ATOM     41  C   UNL A   1      39.157  27.566  29.697  1.00  0.00     0.029 A 
ATOM     42  N   UNL A   1      41.262  27.827  28.988  1.00  0.00    -0.354 N 
ATOM     43  C   UNL A   1      43.192  31.722  29.280  1.00  0.00     0.074 A 
ATOM     44  C   UNL A   1      42.302  32.699  29.864  1.00  0.00     0.031 C 
ATOM     45  C   UNL A   1      39.573  26.380  29.215  1.00  0.00     0.029 A 
ATOM     46  C   UNL A   1      40.927  26.529  28.687  1.00  0.00     0.049 A 
ATOM     47  H   UNL A   1      42.155  28.207  28.820  1.00  0.00     0.167 HD
ATOM     48  C   UNL A   1      44.457  31.979  28.886  1.00  0.00     0.037 A 
ATOM     49  C   UNL A   1      41.628  25.592  28.018  1.00  0.00     0.037 A 
ATOM     50  C   UNL A   1      45.320  31.000  28.287  1.00  0.00     0.049 A 
ATOM     51  C   UNL A   1      43.008  25.940  27.514  1.00  0.00     0.074 A 
ATOM     52  C   UNL A   1      46.633  31.149  27.882  1.00  0.00     0.029 A 
ATOM     53  N   UNL A   1      44.948  29.700  27.980  1.00  0.00    -0.354 N 
ATOM     54  N   UNL A   1      43.686  27.055  27.654  1.00  0.00    -0.248 NA
ATOM     55  C   UNL A   1      43.722  24.903  26.754  1.00  0.00     0.031 C 
ATOM     56  C   UNL A   1      47.030  29.966  27.257  1.00  0.00     0.029 A 
ATOM     57  C   UNL A   1      45.990  29.053  27.344  1.00  0.00     0.049 A 
ATOM     58  H   UNL A   1      44.072  29.299  28.187  1.00  0.00     0.167 HD
ATOM     59  C   UNL A   1      44.908  26.843  27.027  1.00  0.00     0.074 A 
ATOM     60  C   UNL A   1      44.891  25.485  26.530  1.00  0.00     0.031 C 
ATOM     61  C   UNL A   1      45.951  27.694  26.868  1.00  0.00     0.037 A 
BRANCH  48  62
ATOM     62  C   UNL A   1      44.971  33.376  29.044  1.00  0.00     0.057 A 
ATOM     63  C   UNL A   1      44.769  34.358  28.069  1.00  0.00     0.134 A 
ATOM     64  C   UNL A   1      45.616  33.757  30.227  1.00  0.00     0.134 A 
ATOM     65  F   UNL A   1      44.177  34.050  26.903  1.00  0.00    -0.206 F 
ATOM     66  C   UNL A   1      45.192  35.673  28.263  1.00  0.00     0.040 A 
ATOM     67  C   UNL A   1      46.018  35.074  30.446  1.00  0.00     0.040 A 
ATOM     68  F   UNL A   1      45.846  32.860  31.198  1.00  0.00    -0.206 F 
ATOM     69  C   UNL A   1      45.805  36.037  29.461  1.00  0.00     0.006 A 
ENDBRANCH  48  62
BRANCH  49  70
ATOM     70  C   UNL A   1      41.035  24.257  27.722  1.00  0.00     0.057 A 
ATOM     71  C   UNL A   1      41.498  23.096  28.354  1.00  0.00     0.134 A 
ATOM     72  C   UNL A   1      40.053  24.099  26.736  1.00  0.00     0.134 A 
ATOM     73  F   UNL A   1      42.454  23.174  29.293  1.00  0.00    -0.206 F 
ATOM     74  C   UNL A   1      41.045  21.828  27.984  1.00  0.00     0.040 A 
ATOM     75  C   UNL A   1      39.563  22.841  26.383  1.00  0.00     0.040 A 
ATOM     76  F   UNL A   1      39.559  25.167  26.092  1.00  0.00    -0.206 F 
ATOM     77  C   UNL A   1      40.073  21.698  26.995  1.00  0.00     0.006 A 
ENDBRANCH  49  70
BRANCH  61  78
ATOM     78  C   UNL A   1      47.168  27.179  26.154  1.00  0.00     0.057 A 
ATOM     79  C   UNL A   1      48.181  26.483  26.825  1.00  0.00     0.134 A 
ATOM     80  C   UNL A   1      47.293  27.322  24.765  1.00  0.00     0.134 A 
ATOM     81  F   UNL A   1      48.127  26.319  28.156  1.00  0.00    -0.206 F 
ATOM     82  C   UNL A   1      49.283  25.964  26.144  1.00  0.00     0.040 A 
ATOM     83  C   UNL A   1      48.371  26.776  24.069  1.00  0.00     0.040 A 
ATOM     84  F   UNL A   1      46.351  27.965  24.058  1.00  0.00    -0.206 F 
ATOM     85  C   UNL A   1      49.374  26.100  24.761  1.00  0.00     0.006 A 
ENDBRANCH  61  78
ENDBRANCH  35  36
ENDBRANCH  28  30
ENDBRANCH  27  28
ENDBRANCH  26  27
ENDBRANCH   1  26
TORSDOF 16
ENDMDL
MODEL 3
REMARK VINA RESULT:     -12.5      4.583      9.781
REMARK SMILES O=C(OCCOCCOC(=O)c1ccc(-c2c3nc(c(-c4c(F)cccc4F)c4ccc([nH]4)c(-c4c(F)cccc4F)c4nc(c(-c5c(F)cccc5F)c5ccc2[nH]5)C=C4)C=C3)cc1)C1=Cc2cc(C(F)(F)F)ccc2O[C@@H]1C(F)(F)F
REMARK SMILES IDX 7 1 6 2 5 3 4 4 3 5 2 6 1 7 66 8 67 9 79 10 68 11 78 12
REMARK SMILES IDX 69 13 77 14 70 15 76 16 75 17 80 18 81 19 82 20 83 21 71 22
REMARK SMILES IDX 72 23 73 24 74 25 8 26 9 27 10 28 11 29 12 30 13 31 65 32
REMARK SMILES IDX 14 33 64 34 15 35 16 36 17 37 58 38 18 39 63 40 57 41 59 42
REMARK SMILES IDX 19 43 62 44 56 45 55 46 20 48 46 49 29 50 45 51 30 52 33 53
REMARK SMILES IDX 44 54 60 55 31 56 32 57 43 59 61 60 34 61 21 62 22 63 27 64
REMARK SMILES IDX 23 65 24 66 26 67 28 68 25 69 47 70 48 71 53 72 49 73 50 74
REMARK SMILES IDX 52 75 54 76 51 77 35 78 36 79 41 80 37 81 38 82 40 83 42 84
REMARK SMILES IDX 39 85
REMARK H PARENT 59 47 33 58
REMARK Flexibility Score: inf
ROOT
ATOM      1  C   UNL A   1      33.943  33.957  29.360  1.00  0.00     0.202 C 
ENDROOT
BRANCH   1   2
ATOM      2  O   UNL A   1      34.665  33.395  28.248  1.00  0.00    -0.374 OA
BRANCH   2   3
ATOM      3  C   UNL A   1      34.770  31.890  27.639  1.00  0.00     0.202 C 
BRANCH   3   4
ATOM      4  C   UNL A   1      33.247  30.391  27.252  1.00  0.00     0.261 C 
BRANCH   4   5
ATOM      5  O   UNL A   1      33.308  28.903  27.620  1.00  0.00    -0.460 OA
BRANCH   5   6
ATOM      6  C   UNL A   1      32.195  28.250  27.281  1.00  0.00     0.338 C 
ATOM      7  O   UNL A   1      31.284  27.878  27.978  1.00  0.00    -0.246 OA
BRANCH   6   8
ATOM      8  C   UNL A   1      32.641  27.848  25.964  1.00  0.00     0.087 C 
ATOM      9  C   UNL A   1      33.563  26.696  26.031  1.00  0.00     0.027 C 
ATOM     10  C   UNL A   1      30.883  27.806  25.161  1.00  0.00     0.316 C 
ATOM     11  C   UNL A   1      33.091  25.011  25.592  1.00  0.00     0.018 A 
ATOM     12  O   UNL A   1      30.330  26.000  24.742  1.00  0.00    -0.475 OA
ATOM     13  C   UNL A   1      33.964  23.992  25.851  1.00  0.00     0.025 A 
ATOM     14  C   UNL A   1      31.492  24.621  25.047  1.00  0.00     0.128 A 
ATOM     15  C   UNL A   1      33.450  22.684  25.692  1.00  0.00     0.056 A 
ATOM     16  C   UNL A   1      31.027  23.342  25.038  1.00  0.00     0.048 A 
ATOM     17  C   UNL A   1      32.045  22.394  25.355  1.00  0.00     0.017 A 
BRANCH  10  18
ATOM     18  C   UNL A   1      31.073  29.103  24.246  1.00  0.00     0.430 C 
ATOM     19  F   UNL A   1      32.202  29.147  23.518  1.00  0.00    -0.167 F 
ATOM     20  F   UNL A   1      30.067  29.087  23.318  1.00  0.00    -0.167 F 
ATOM     21  F   UNL A   1      30.921  30.285  24.886  1.00  0.00    -0.167 F 
ENDBRANCH  10  18
BRANCH  15  22
ATOM     22  C   UNL A   1      34.447  21.551  25.915  1.00  0.00     0.416 C 
ATOM     23  F   UNL A   1      34.074  20.742  26.948  1.00  0.00    -0.166 F 
ATOM     24  F   UNL A   1      34.550  20.735  24.830  1.00  0.00    -0.166 F 
ATOM     25  F   UNL A   1      35.708  21.968  26.203  1.00  0.00    -0.166 F 
ENDBRANCH  15  22
ENDBRANCH   6   8
ENDBRANCH   5   6
ENDBRANCH   4   5
ENDBRANCH   3   4
ENDBRANCH   2   3
ENDBRANCH   1   2
BRANCH   1  26
ATOM     26  C   UNL A   1      34.514  33.725  30.753  1.00  0.00     0.261 C 
BRANCH  26  27
ATOM     27  O   UNL A   1      34.877  32.374  30.979  1.00  0.00    -0.460 OA
BRANCH  27  28
ATOM     28  C   UNL A   1      35.749  32.203  31.997  1.00  0.00     0.338 C 
ATOM     29  O   UNL A   1      35.579  32.428  33.180  1.00  0.00    -0.246 OA
BRANCH  28  30
ATOM     30  C   UNL A   1      36.993  31.664  31.425  1.00  0.00     0.060 A 
ATOM     31  C   UNL A   1      37.922  31.088  32.296  1.00  0.00     0.016 A 
ATOM     32  C   UNL A   1      37.210  31.670  30.041  1.00  0.00     0.016 A 
ATOM     33  C   UNL A   1      39.038  30.441  31.775  1.00  0.00     0.010 A 
ATOM     34  C   UNL A   1      38.338  31.050  29.524  1.00  0.00     0.010 A 
ATOM     35  C   UNL A   1      39.243  30.420  30.390  1.00  0.00    -0.014 A 
BRANCH  35  36
ATOM     36  C   UNL A   1      40.488  29.867  29.834  1.00  0.00     0.031 A 
ATOM     37  C   UNL A   1      41.634  30.806  29.633  1.00  0.00     0.074 A 
ATOM     38  C   UNL A   1      40.560  28.574  29.476  1.00  0.00     0.049 A 
ATOM     39  N   UNL A   1      42.790  30.584  29.071  1.00  0.00    -0.248 NA
ATOM     40  C   UNL A   1      41.449  32.183  30.125  1.00  0.00     0.031 C 
ATOM     41  C   UNL A   1      39.501  27.582  29.656  1.00  0.00     0.029 A 
ATOM     42  N   UNL A   1      41.569  27.881  28.859  1.00  0.00    -0.354 N 
ATOM     43  C   UNL A   1      43.469  31.792  29.138  1.00  0.00     0.074 A 
ATOM     44  C   UNL A   1      42.595  32.748  29.780  1.00  0.00     0.031 C 
ATOM     45  C   UNL A   1      39.907  26.411  29.133  1.00  0.00     0.029 A 
ATOM     46  C   UNL A   1      41.235  26.585  28.548  1.00  0.00     0.049 A 
ATOM     47  H   UNL A   1      42.450  28.274  28.658  1.00  0.00     0.167 HD
ATOM     48  C   UNL A   1      44.712  32.071  28.693  1.00  0.00     0.037 A 
ATOM     49  C   UNL A   1      41.914  25.668  27.831  1.00  0.00     0.037 A 
ATOM     50  C   UNL A   1      45.558  31.113  28.037  1.00  0.00     0.049 A 
ATOM     51  C   UNL A   1      43.267  26.042  27.272  1.00  0.00     0.074 A 
ATOM     52  C   UNL A   1      46.849  31.285  27.576  1.00  0.00     0.029 A 
ATOM     53  N   UNL A   1      45.185  29.815  27.723  1.00  0.00    -0.354 N 
ATOM     54  N   UNL A   1      43.938  27.162  27.403  1.00  0.00    -0.248 NA
ATOM     55  C   UNL A   1      43.957  25.027  26.461  1.00  0.00     0.031 C 
ATOM     56  C   UNL A   1      47.230  30.117  26.912  1.00  0.00     0.029 A 
ATOM     57  C   UNL A   1      46.205  29.191  27.028  1.00  0.00     0.049 A 
ATOM     58  H   UNL A   1      44.325  29.399  27.960  1.00  0.00     0.167 HD
ATOM     59  C   UNL A   1      45.134  26.975  26.718  1.00  0.00     0.074 A 
ATOM     60  C   UNL A   1      45.109  25.626  26.197  1.00  0.00     0.031 C 
ATOM     61  C   UNL A   1      46.159  27.841  26.528  1.00  0.00     0.037 A 
BRANCH  48  62
ATOM     62  C   UNL A   1      45.218  33.470  28.854  1.00  0.00     0.057 A 
ATOM     63  C   UNL A   1      44.947  34.471  27.916  1.00  0.00     0.134 A 
ATOM     64  C   UNL A   1      45.926  33.832  30.007  1.00  0.00     0.134 A 
ATOM     65  F   UNL A   1      44.292  34.183  26.780  1.00  0.00    -0.206 F 
ATOM     66  C   UNL A   1      45.365  35.787  28.117  1.00  0.00     0.040 A 
ATOM     67  C   UNL A   1      46.325  35.149  30.233  1.00  0.00     0.040 A 
ATOM     68  F   UNL A   1      46.223  32.915  30.941  1.00  0.00    -0.206 F 
ATOM     69  C   UNL A   1      46.043  36.131  29.285  1.00  0.00     0.006 A 
ENDBRANCH  48  62
BRANCH  49  70
ATOM     70  C   UNL A   1      41.324  24.333  27.536  1.00  0.00     0.057 A 
ATOM     71  C   UNL A   1      40.250  24.188  26.649  1.00  0.00     0.134 A 
ATOM     72  C   UNL A   1      41.762  23.181  28.202  1.00  0.00     0.134 A 
ATOM     73  F   UNL A   1      39.767  25.255  25.995  1.00  0.00    -0.206 F 
ATOM     74  C   UNL A   1      39.603  22.963  26.472  1.00  0.00     0.040 A 
ATOM     75  C   UNL A   1      41.149  21.942  28.005  1.00  0.00     0.040 A 
ATOM     76  F   UNL A   1      42.788  23.241  29.063  1.00  0.00    -0.206 F 
ATOM     77  C   UNL A   1      40.054  21.834  27.152  1.00  0.00     0.006 A 
ENDBRANCH  49  70
BRANCH  61  78
ATOM     78  C   UNL A   1      47.348  27.353  25.751  1.00  0.00     0.057 A 
ATOM     79  C   UNL A   1      48.410  26.680  26.367  1.00  0.00     0.134 A 
ATOM     80  C   UNL A   1      47.396  27.498  24.358  1.00  0.00     0.134 A 
ATOM     81  F   UNL A   1      48.430  26.516  27.699  1.00  0.00    -0.206 F 
ATOM     82  C   UNL A   1      49.486  26.186  25.629  1.00  0.00     0.040 A 
ATOM     83  C   UNL A   1      48.449  26.977  23.606  1.00  0.00     0.040 A 
ATOM     84  F   UNL A   1      46.404  28.120  23.702  1.00  0.00    -0.206 F 
ATOM     85  C   UNL A   1      49.501  26.324  24.243  1.00  0.00     0.006 A 
ENDBRANCH  61  78
ENDBRANCH  35  36
ENDBRANCH  28  30
ENDBRANCH  27  28
ENDBRANCH  26  27
ENDBRANCH   1  26
TORSDOF 16
ENDMDL
