MODEL 1
REMARK VINA RESULT:     -12.4      0.000      0.000
REMARK SMILES O=C(OCCOCCOC(=O)[C@@H]1CCCN1S(=O)(=O)c1ccc2c3c(cccc13)C(=O)N2)c1ccc(-c2c3nc(c(-c4c(F)cccc4F)c4ccc([nH]4)c(-c4c(F)cccc4F)c4nc(c(-c5c(F)cccc5F)c5ccc2[nH]5)C=C4)C=C3)cc1
REMARK SMILES IDX 6 1 5 2 4 3 3 4 2 5 1 6 33 7 34 8 86 9 35 10 85 11 36 12
REMARK SMILES IDX 37 13 38 14 79 15 39 16 84 17 78 18 80 19 40 20 83 21 77 22
REMARK SMILES IDX 76 23 41 25 67 26 50 27 66 28 51 29 54 30 65 31 81 32 52 33
REMARK SMILES IDX 53 34 64 36 82 37 55 38 42 39 43 40 48 41 44 42 45 43 47 44
REMARK SMILES IDX 49 45 46 46 68 47 69 48 74 49 70 50 71 51 73 52 75 53 72 54
REMARK SMILES IDX 56 55 57 56 62 57 58 58 59 59 61 60 63 61 60 62 7 63 8 64
REMARK SMILES IDX 9 65 10 66 11 67 12 68 13 69 16 70 14 71 15 72 17 73 18 74
REMARK SMILES IDX 19 75 20 76 21 77 29 78 22 79 24 80 28 81 23 82 25 83 27 84
REMARK SMILES IDX 32 85 26 86 30 87 31 89
REMARK H PARENT 80 24 54 35 32 88
REMARK Flexibility Score: inf
ROOT
ATOM      1  O   UNL A   1      31.976  30.021  26.152  1.00  0.00    -0.374 OA
ENDROOT
BRANCH   1   2
ATOM      2  C   UNL A   1      32.576  31.185  26.721  1.00  0.00     0.202 C 
BRANCH   2   3
ATOM      3  C   UNL A   1      31.625  32.282  27.186  1.00  0.00     0.261 C 
BRANCH   3   4
ATOM      4  O   UNL A   1      32.256  33.560  27.139  1.00  0.00    -0.460 OA
BRANCH   4   5
ATOM      5  C   UNL A   1      32.940  34.175  28.131  1.00  0.00     0.338 C 
ATOM      6  O   UNL A   1      32.496  35.247  28.541  1.00  0.00    -0.246 OA
BRANCH   5   7
ATOM      7  C   UNL A   1      34.203  33.656  28.767  1.00  0.00     0.060 A 
ATOM      8  C   UNL A   1      35.518  33.988  28.421  1.00  0.00     0.016 A 
ATOM      9  C   UNL A   1      34.029  32.783  29.858  1.00  0.00     0.016 A 
ATOM     10  C   UNL A   1      36.604  33.567  29.169  1.00  0.00     0.010 A 
ATOM     11  C   UNL A   1      35.120  32.277  30.569  1.00  0.00     0.010 A 
ATOM     12  C   UNL A   1      36.409  32.671  30.212  1.00  0.00    -0.014 A 
BRANCH  12  13
ATOM     13  C   UNL A   1      37.609  31.972  30.681  1.00  0.00     0.031 A 
ATOM     14  C   UNL A   1      38.050  32.270  32.084  1.00  0.00     0.074 A 
ATOM     15  C   UNL A   1      38.143  30.978  29.959  1.00  0.00     0.049 A 
ATOM     16  N   UNL A   1      38.973  31.696  32.804  1.00  0.00    -0.248 NA
ATOM     17  C   UNL A   1      37.298  33.325  32.790  1.00  0.00     0.031 C 
ATOM     18  C   UNL A   1      37.663  30.518  28.655  1.00  0.00     0.029 A 
ATOM     19  N   UNL A   1      39.193  30.154  30.246  1.00  0.00    -0.354 N 
ATOM     20  C   UNL A   1      38.879  32.285  34.057  1.00  0.00     0.074 A 
ATOM     21  C   UNL A   1      37.825  33.270  34.000  1.00  0.00     0.031 C 
ATOM     22  C   UNL A   1      38.431  29.489  28.251  1.00  0.00     0.029 A 
ATOM     23  C   UNL A   1      39.467  29.250  29.253  1.00  0.00     0.049 A 
ATOM     24  H   UNL A   1      39.704  30.203  31.086  1.00  0.00     0.167 HD
ATOM     25  C   UNL A   1      39.622  32.035  35.158  1.00  0.00     0.037 A 
ATOM     26  C   UNL A   1      40.469  28.355  29.176  1.00  0.00     0.037 A 
ATOM     27  C   UNL A   1      40.743  31.139  35.155  1.00  0.00     0.049 A 
ATOM     28  C   UNL A   1      41.438  28.275  30.329  1.00  0.00     0.074 A 
ATOM     29  C   UNL A   1      41.670  30.902  36.150  1.00  0.00     0.029 A 
ATOM     30  N   UNL A   1      41.106  30.354  34.067  1.00  0.00    -0.354 N 
ATOM     31  N   UNL A   1      41.402  28.884  31.492  1.00  0.00    -0.248 NA
ATOM     32  C   UNL A   1      42.596  27.393  30.149  1.00  0.00     0.031 C 
ATOM     33  C   UNL A   1      42.633  30.021  35.640  1.00  0.00     0.029 A 
ATOM     34  C   UNL A   1      42.263  29.655  34.352  1.00  0.00     0.049 A 
ATOM     35  H   UNL A   1      40.610  30.303  33.218  1.00  0.00     0.167 HD
ATOM     36  C   UNL A   1      42.503  28.422  32.201  1.00  0.00     0.074 A 
ATOM     37  C   UNL A   1      43.186  27.482  31.331  1.00  0.00     0.031 C 
ATOM     38  C   UNL A   1      42.914  28.732  33.457  1.00  0.00     0.037 A 
BRANCH  25  39
ATOM     39  C   UNL A   1      39.291  32.840  36.378  1.00  0.00     0.057 A 
ATOM     40  C   UNL A   1      38.391  32.346  37.329  1.00  0.00     0.134 A 
ATOM     41  C   UNL A   1      39.939  34.050  36.669  1.00  0.00     0.134 A 
ATOM     42  F   UNL A   1      37.752  31.185  37.124  1.00  0.00    -0.206 F 
ATOM     43  C   UNL A   1      38.157  33.017  38.530  1.00  0.00     0.040 A 
ATOM     44  C   UNL A   1      39.732  34.717  37.878  1.00  0.00     0.040 A 
ATOM     45  F   UNL A   1      40.847  34.557  35.819  1.00  0.00    -0.206 F 
ATOM     46  C   UNL A   1      38.838  34.199  38.813  1.00  0.00     0.006 A 
ENDBRANCH  25  39
BRANCH  26  47
ATOM     47  C   UNL A   1      40.644  27.505  27.971  1.00  0.00     0.057 A 
ATOM     48  C   UNL A   1      41.423  27.926  26.885  1.00  0.00     0.134 A 
ATOM     49  C   UNL A   1      40.090  26.221  27.901  1.00  0.00     0.134 A 
ATOM     50  F   UNL A   1      41.987  29.143  26.888  1.00  0.00    -0.206 F 
ATOM     51  C   UNL A   1      41.644  27.106  25.779  1.00  0.00     0.040 A 
ATOM     52  C   UNL A   1      40.324  25.380  26.810  1.00  0.00     0.040 A 
ATOM     53  F   UNL A   1      39.358  25.745  28.918  1.00  0.00    -0.206 F 
ATOM     54  C   UNL A   1      41.103  25.824  25.744  1.00  0.00     0.006 A 
ENDBRANCH  26  47
BRANCH  38  55
ATOM     55  C   UNL A   1      44.124  28.005  33.970  1.00  0.00     0.057 A 
ATOM     56  C   UNL A   1      45.400  28.556  33.798  1.00  0.00     0.134 A 
ATOM     57  C   UNL A   1      44.034  26.765  34.614  1.00  0.00     0.134 A 
ATOM     58  F   UNL A   1      45.558  29.733  33.173  1.00  0.00    -0.206 F 
ATOM     59  C   UNL A   1      46.544  27.903  34.255  1.00  0.00     0.040 A 
ATOM     60  C   UNL A   1      45.169  26.120  35.109  1.00  0.00     0.040 A 
ATOM     61  F   UNL A   1      42.840  26.189  34.819  1.00  0.00    -0.206 F 
ATOM     62  C   UNL A   1      46.428  26.688  34.925  1.00  0.00     0.006 A 
ENDBRANCH  38  55
ENDBRANCH  12  13
ENDBRANCH   5   7
ENDBRANCH   4   5
ENDBRANCH   3   4
ENDBRANCH   2   3
ENDBRANCH   1   2
BRANCH   1  63
ATOM     63  C   UNL A   1      32.002  28.868  26.994  1.00  0.00     0.202 C 
BRANCH  63  64
ATOM     64  C   UNL A   1      31.265  27.686  26.354  1.00  0.00     0.261 C 
BRANCH  64  65
ATOM     65  O   UNL A   1      31.419  26.521  27.195  1.00  0.00    -0.462 OA
BRANCH  65  66
ATOM     66  C   UNL A   1      31.433  25.305  26.585  1.00  0.00     0.324 C 
ATOM     67  O   UNL A   1      31.413  24.238  27.185  1.00  0.00    -0.250 OA
BRANCH  66  68
ATOM     68  C   UNL A   1      31.472  25.413  25.082  1.00  0.00     0.183 C 
ATOM     69  C   UNL A   1      30.610  24.432  24.290  1.00  0.00     0.034 C 
ATOM     70  N   UNL A   1      32.707  25.569  24.242  1.00  0.00    -0.184 NA
ATOM     71  C   UNL A   1      30.725  24.979  22.886  1.00  0.00     0.019 C 
ATOM     72  C   UNL A   1      32.151  25.529  22.809  1.00  0.00     0.103 C 
BRANCH  70  73
ATOM     73  S   UNL A   1      34.144  24.614  24.286  1.00  0.00     0.244 S 
ATOM     74  O   UNL A   1      34.605  24.489  22.919  1.00  0.00    -0.207 OA
ATOM     75  O   UNL A   1      34.977  25.327  25.236  1.00  0.00    -0.207 OA
BRANCH  73  76
ATOM     76  C   UNL A   1      33.955  22.946  24.916  1.00  0.00     0.090 A 
ATOM     77  C   UNL A   1      34.226  22.699  26.276  1.00  0.00     0.024 A 
ATOM     78  C   UNL A   1      33.317  21.910  24.145  1.00  0.00     0.005 A 
ATOM     79  C   UNL A   1      34.036  21.457  26.910  1.00  0.00     0.028 A 
ATOM     80  C   UNL A   1      33.143  20.720  24.808  1.00  0.00     0.019 A 
ATOM     81  C   UNL A   1      32.762  21.893  22.833  1.00  0.00     0.010 A 
ATOM     82  C   UNL A   1      33.487  20.479  26.118  1.00  0.00     0.050 A 
ATOM     83  C   UNL A   1      32.538  19.569  24.319  1.00  0.00     0.050 A 
ATOM     84  C   UNL A   1      32.130  20.745  22.301  1.00  0.00     0.002 A 
ATOM     85  N   UNL A   1      33.125  19.182  26.424  1.00  0.00    -0.321 N 
ATOM     86  C   UNL A   1      32.016  19.556  23.032  1.00  0.00     0.014 A 
ATOM     87  C   UNL A   1      32.536  18.532  25.334  1.00  0.00     0.256 C 
ATOM     88  H   UNL A   1      33.264  18.765  27.305  1.00  0.00     0.170 HD
ATOM     89  O   UNL A   1      32.157  17.373  25.336  1.00  0.00    -0.269 OA
ENDBRANCH  73  76
ENDBRANCH  70  73
ENDBRANCH  66  68
ENDBRANCH  65  66
ENDBRANCH  64  65
ENDBRANCH  63  64
ENDBRANCH   1  63
TORSDOF 16
ENDMDL
MODEL 2
REMARK VINA RESULT:     -12.4      1.440      2.287
REMARK SMILES O=C(OCCOCCOC(=O)[C@@H]1CCCN1S(=O)(=O)c1ccc2c3c(cccc13)C(=O)N2)c1ccc(-c2c3nc(c(-c4c(F)cccc4F)c4ccc([nH]4)c(-c4c(F)cccc4F)c4nc(c(-c5c(F)cccc5F)c5ccc2[nH]5)C=C4)C=C3)cc1
REMARK SMILES IDX 6 1 5 2 4 3 3 4 2 5 1 6 33 7 34 8 86 9 35 10 85 11 36 12
REMARK SMILES IDX 37 13 38 14 79 15 39 16 84 17 78 18 80 19 40 20 83 21 77 22
REMARK SMILES IDX 76 23 41 25 67 26 50 27 66 28 51 29 54 30 65 31 81 32 52 33
REMARK SMILES IDX 53 34 64 36 82 37 55 38 42 39 43 40 48 41 44 42 45 43 47 44
REMARK SMILES IDX 49 45 46 46 68 47 69 48 74 49 70 50 71 51 73 52 75 53 72 54
REMARK SMILES IDX 56 55 57 56 62 57 58 58 59 59 61 60 63 61 60 62 7 63 8 64
REMARK SMILES IDX 9 65 10 66 11 67 12 68 13 69 16 70 14 71 15 72 17 73 18 74
REMARK SMILES IDX 19 75 20 76 21 77 29 78 22 79 24 80 28 81 23 82 25 83 27 84
REMARK SMILES IDX 32 85 26 86 30 87 31 89
REMARK H PARENT 80 24 54 35 32 88
REMARK Flexibility Score: inf
ROOT
ATOM      1  O   UNL A   1      32.040  30.807  26.206  1.00  0.00    -0.374 OA
ENDROOT
BRANCH   1   2
ATOM      2  C   UNL A   1      31.423  31.900  26.886  1.00  0.00     0.202 C 
BRANCH   2   3
ATOM      3  C   UNL A   1      32.069  33.268  26.699  1.00  0.00     0.261 C 
BRANCH   3   4
ATOM      4  O   UNL A   1      32.181  33.956  27.944  1.00  0.00    -0.460 OA
BRANCH   4   5
ATOM      5  C   UNL A   1      33.311  34.420  28.525  1.00  0.00     0.338 C 
ATOM      6  O   UNL A   1      33.379  35.631  28.737  1.00  0.00    -0.246 OA
BRANCH   5   7
ATOM      7  C   UNL A   1      34.492  33.576  28.926  1.00  0.00     0.060 A 
ATOM      8  C   UNL A   1      34.459  32.341  29.584  1.00  0.00     0.016 A 
ATOM      9  C   UNL A   1      35.756  34.068  28.549  1.00  0.00     0.016 A 
ATOM     10  C   UNL A   1      35.599  31.578  29.773  1.00  0.00     0.010 A 
ATOM     11  C   UNL A   1      36.926  33.351  28.813  1.00  0.00     0.010 A 
ATOM     12  C   UNL A   1      36.839  32.105  29.433  1.00  0.00    -0.014 A 
BRANCH  12  13
ATOM     13  C   UNL A   1      37.998  31.430  30.021  1.00  0.00     0.031 A 
ATOM     14  C   UNL A   1      38.282  31.724  31.465  1.00  0.00     0.074 A 
ATOM     15  C   UNL A   1      38.630  30.455  29.354  1.00  0.00     0.049 A 
ATOM     16  N   UNL A   1      39.136  31.166  32.275  1.00  0.00    -0.248 NA
ATOM     17  C   UNL A   1      37.433  32.756  32.094  1.00  0.00     0.031 C 
ATOM     18  C   UNL A   1      38.302  29.996  28.003  1.00  0.00     0.029 A 
ATOM     19  N   UNL A   1      39.663  29.652  29.745  1.00  0.00    -0.354 N 
ATOM     20  C   UNL A   1      38.895  31.741  33.515  1.00  0.00     0.074 A 
ATOM     21  C   UNL A   1      37.830  32.702  33.353  1.00  0.00     0.031 C 
ATOM     22  C   UNL A   1      39.133  28.988  27.676  1.00  0.00     0.029 A 
ATOM     23  C   UNL A   1      40.063  28.764  28.781  1.00  0.00     0.049 A 
ATOM     24  H   UNL A   1      40.081  29.706  30.635  1.00  0.00     0.167 HD
ATOM     25  C   UNL A   1      39.523  31.498  34.687  1.00  0.00     0.037 A 
ATOM     26  C   UNL A   1      41.088  27.894  28.804  1.00  0.00     0.037 A 
ATOM     27  C   UNL A   1      40.659  30.628  34.797  1.00  0.00     0.049 A 
ATOM     28  C   UNL A   1      41.931  27.825  30.053  1.00  0.00     0.074 A 
ATOM     29  C   UNL A   1      41.481  30.403  35.884  1.00  0.00     0.029 A 
ATOM     30  N   UNL A   1      41.154  29.862  33.749  1.00  0.00    -0.354 N 
ATOM     31  N   UNL A   1      41.757  28.423  31.210  1.00  0.00    -0.248 NA
ATOM     32  C   UNL A   1      43.122  26.972  29.991  1.00  0.00     0.031 C 
ATOM     33  C   UNL A   1      42.513  29.550  35.472  1.00  0.00     0.029 A 
ATOM     34  C   UNL A   1      42.291  29.187  34.151  1.00  0.00     0.049 A 
ATOM     35  H   UNL A   1      40.753  29.807  32.851  1.00  0.00     0.167 HD
ATOM     36  C   UNL A   1      42.788  27.980  32.029  1.00  0.00     0.074 A 
ATOM     37  C   UNL A   1      43.581  27.064  31.231  1.00  0.00     0.031 C 
ATOM     38  C   UNL A   1      43.055  28.287  33.324  1.00  0.00     0.037 A 
BRANCH  25  39
ATOM     39  C   UNL A   1      39.046  32.284  35.870  1.00  0.00     0.057 A 
ATOM     40  C   UNL A   1      38.201  31.694  36.818  1.00  0.00     0.134 A 
ATOM     41  C   UNL A   1      39.503  33.584  36.133  1.00  0.00     0.134 A 
ATOM     42  F   UNL A   1      37.742  30.446  36.638  1.00  0.00    -0.206 F 
ATOM     43  C   UNL A   1      37.839  32.361  37.989  1.00  0.00     0.040 A 
ATOM     44  C   UNL A   1      39.168  34.251  37.313  1.00  0.00     0.040 A 
ATOM     45  F   UNL A   1      40.351  34.191  35.287  1.00  0.00    -0.206 F 
ATOM     46  C   UNL A   1      38.334  33.638  38.246  1.00  0.00     0.006 A 
ENDBRANCH  25  39
BRANCH  26  47
ATOM     47  C   UNL A   1      41.410  27.059  27.619  1.00  0.00     0.057 A 
ATOM     48  C   UNL A   1      42.310  27.497  26.639  1.00  0.00     0.134 A 
ATOM     49  C   UNL A   1      40.876  25.774  27.469  1.00  0.00     0.134 A 
ATOM     50  F   UNL A   1      42.863  28.715  26.723  1.00  0.00    -0.206 F 
ATOM     51  C   UNL A   1      42.667  26.691  25.557  1.00  0.00     0.040 A 
ATOM     52  C   UNL A   1      41.243  24.947  26.405  1.00  0.00     0.040 A 
ATOM     53  F   UNL A   1      40.031  25.282  28.386  1.00  0.00    -0.206 F 
ATOM     54  C   UNL A   1      42.141  25.407  25.444  1.00  0.00     0.006 A 
ENDBRANCH  26  47
BRANCH  38  55
ATOM     55  C   UNL A   1      44.221  27.584  33.957  1.00  0.00     0.057 A 
ATOM     56  C   UNL A   1      44.034  26.355  34.603  1.00  0.00     0.134 A 
ATOM     57  C   UNL A   1      45.515  28.120  33.944  1.00  0.00     0.134 A 
ATOM     58  F   UNL A   1      42.817  25.795  34.666  1.00  0.00    -0.206 F 
ATOM     59  C   UNL A   1      45.094  25.680  35.207  1.00  0.00     0.040 A 
ATOM     60  C   UNL A   1      46.590  27.436  34.514  1.00  0.00     0.040 A 
ATOM     61  F   UNL A   1      45.762  29.288  33.333  1.00  0.00    -0.206 F 
ATOM     62  C   UNL A   1      46.379  26.214  35.152  1.00  0.00     0.006 A 
ENDBRANCH  38  55
ENDBRANCH  12  13
ENDBRANCH   5   7
ENDBRANCH   4   5
ENDBRANCH   3   4
ENDBRANCH   2   3
ENDBRANCH   1   2
BRANCH   1  63
ATOM     63  C   UNL A   1      33.233  30.323  26.822  1.00  0.00     0.202 C 
BRANCH  63  64
ATOM     64  C   UNL A   1      33.672  28.980  26.224  1.00  0.00     0.261 C 
BRANCH  64  65
ATOM     65  O   UNL A   1      33.196  27.909  27.068  1.00  0.00    -0.462 OA
BRANCH  65  66
ATOM     66  C   UNL A   1      31.947  27.426  26.823  1.00  0.00     0.324 C 
ATOM     67  O   UNL A   1      31.024  27.477  27.626  1.00  0.00    -0.250 OA
BRANCH  66  68
ATOM     68  C   UNL A   1      31.821  26.820  25.448  1.00  0.00     0.183 C 
ATOM     69  C   UNL A   1      30.514  27.068  24.696  1.00  0.00     0.034 C 
ATOM     70  N   UNL A   1      32.200  25.420  25.065  1.00  0.00    -0.184 NA
ATOM     71  C   UNL A   1      30.840  26.527  23.323  1.00  0.00     0.019 C 
ATOM     72  C   UNL A   1      31.769  25.341  23.591  1.00  0.00     0.103 C 
BRANCH  70  73
ATOM     73  S   UNL A   1      31.735  23.948  25.838  1.00  0.00     0.244 S 
ATOM     74  O   UNL A   1      31.636  24.233  27.255  1.00  0.00    -0.207 OA
ATOM     75  O   UNL A   1      30.530  23.573  25.121  1.00  0.00    -0.207 OA
BRANCH  73  76
ATOM     76  C   UNL A   1      32.881  22.581  25.671  1.00  0.00     0.090 A 
ATOM     77  C   UNL A   1      32.377  21.311  25.324  1.00  0.00     0.024 A 
ATOM     78  C   UNL A   1      34.307  22.782  25.646  1.00  0.00     0.005 A 
ATOM     79  C   UNL A   1      33.179  20.180  25.080  1.00  0.00     0.028 A 
ATOM     80  C   UNL A   1      35.047  21.653  25.395  1.00  0.00     0.019 A 
ATOM     81  C   UNL A   1      35.114  23.950  25.769  1.00  0.00     0.010 A 
ATOM     82  C   UNL A   1      34.532  20.405  25.133  1.00  0.00     0.050 A 
ATOM     83  C   UNL A   1      36.429  21.563  25.291  1.00  0.00     0.050 A 
ATOM     84  C   UNL A   1      36.523  23.903  25.661  1.00  0.00     0.002 A 
ATOM     85  N   UNL A   1      35.589  19.546  24.900  1.00  0.00    -0.321 N 
ATOM     86  C   UNL A   1      37.209  22.703  25.429  1.00  0.00     0.014 A 
ATOM     87  C   UNL A   1      36.823  20.196  25.000  1.00  0.00     0.256 C 
ATOM     88  H   UNL A   1      35.484  18.590  24.688  1.00  0.00     0.170 HD
ATOM     89  O   UNL A   1      37.908  19.656  24.868  1.00  0.00    -0.269 OA
ENDBRANCH  73  76
ENDBRANCH  70  73
ENDBRANCH  66  68
ENDBRANCH  65  66
ENDBRANCH  64  65
ENDBRANCH  63  64
ENDBRANCH   1  63
TORSDOF 16
ENDMDL
MODEL 3
REMARK VINA RESULT:     -12.2      4.489      9.893
REMARK SMILES O=C(OCCOCCOC(=O)[C@@H]1CCCN1S(=O)(=O)c1ccc2c3c(cccc13)C(=O)N2)c1ccc(-c2c3nc(c(-c4c(F)cccc4F)c4ccc([nH]4)c(-c4c(F)cccc4F)c4nc(c(-c5c(F)cccc5F)c5ccc2[nH]5)C=C4)C=C3)cc1
REMARK SMILES IDX 6 1 5 2 4 3 3 4 2 5 1 6 33 7 34 8 86 9 35 10 85 11 36 12
REMARK SMILES IDX 37 13 38 14 79 15 39 16 84 17 78 18 80 19 40 20 83 21 77 22
REMARK SMILES IDX 76 23 41 25 67 26 50 27 66 28 51 29 54 30 65 31 81 32 52 33
REMARK SMILES IDX 53 34 64 36 82 37 55 38 42 39 43 40 48 41 44 42 45 43 47 44
REMARK SMILES IDX 49 45 46 46 68 47 69 48 74 49 70 50 71 51 73 52 75 53 72 54
REMARK SMILES IDX 56 55 57 56 62 57 58 58 59 59 61 60 63 61 60 62 7 63 8 64
REMARK SMILES IDX 9 65 10 66 11 67 12 68 13 69 16 70 14 71 15 72 17 73 18 74
REMARK SMILES IDX 19 75 20 76 21 77 29 78 22 79 24 80 28 81 23 82 25 83 27 84
REMARK SMILES IDX 32 85 26 86 30 87 31 89
REMARK H PARENT 80 24 54 35 32 88
REMARK Flexibility Score: inf
ROOT
ATOM      1  O   UNL A   1      38.069  21.406  25.230  1.00  0.00    -0.374 OA
ENDROOT
BRANCH   1   2
ATOM      2  C   UNL A   1      38.381  20.050  24.914  1.00  0.00     0.202 C 
BRANCH   2   3
ATOM      3  C   UNL A   1      39.196  19.281  25.948  1.00  0.00     0.261 C 
BRANCH   3   4
ATOM      4  O   UNL A   1      40.553  19.144  25.532  1.00  0.00    -0.460 OA
BRANCH   4   5
ATOM      5  C   UNL A   1      41.647  19.695  26.107  1.00  0.00     0.338 C 
ATOM      6  O   UNL A   1      42.602  18.951  26.331  1.00  0.00    -0.246 OA
BRANCH   5   7
ATOM      7  C   UNL A   1      41.785  21.143  26.501  1.00  0.00     0.060 A 
ATOM      8  C   UNL A   1      41.511  22.261  25.705  1.00  0.00     0.016 A 
ATOM      9  C   UNL A   1      42.185  21.384  27.829  1.00  0.00     0.016 A 
ATOM     10  C   UNL A   1      41.531  23.549  26.214  1.00  0.00     0.010 A 
ATOM     11  C   UNL A   1      42.297  22.683  28.333  1.00  0.00     0.010 A 
ATOM     12  C   UNL A   1      41.971  23.763  27.514  1.00  0.00    -0.014 A 
BRANCH  12  13
ATOM     13  C   UNL A   1      42.344  25.143  27.838  1.00  0.00     0.031 A 
ATOM     14  C   UNL A   1      43.692  25.600  27.364  1.00  0.00     0.074 A 
ATOM     15  C   UNL A   1      41.439  25.991  28.345  1.00  0.00     0.049 A 
ATOM     16  N   UNL A   1      44.217  26.793  27.375  1.00  0.00    -0.248 NA
ATOM     17  C   UNL A   1      44.541  24.569  26.733  1.00  0.00     0.031 C 
ATOM     18  C   UNL A   1      40.053  25.661  28.676  1.00  0.00     0.029 A 
ATOM     19  N   UNL A   1      41.552  27.320  28.636  1.00  0.00    -0.354 N 
ATOM     20  C   UNL A   1      45.430  26.666  26.712  1.00  0.00     0.074 A 
ATOM     21  C   UNL A   1      45.575  25.283  26.326  1.00  0.00     0.031 C 
ATOM     22  C   UNL A   1      39.443  26.769  29.137  1.00  0.00     0.029 A 
ATOM     23  C   UNL A   1      40.409  27.865  29.160  1.00  0.00     0.049 A 
ATOM     24  H   UNL A   1      42.376  27.838  28.484  1.00  0.00     0.167 HD
ATOM     25  C   UNL A   1      46.352  27.623  26.462  1.00  0.00     0.037 A 
ATOM     26  C   UNL A   1      40.200  29.111  29.624  1.00  0.00     0.037 A 
ATOM     27  C   UNL A   1      46.239  28.963  26.963  1.00  0.00     0.049 A 
ATOM     28  C   UNL A   1      41.343  30.093  29.556  1.00  0.00     0.074 A 
ATOM     29  C   UNL A   1      47.162  29.990  26.913  1.00  0.00     0.029 A 
ATOM     30  N   UNL A   1      45.131  29.445  27.647  1.00  0.00    -0.354 N 
ATOM     31  N   UNL A   1      42.524  29.960  28.997  1.00  0.00    -0.248 NA
ATOM     32  C   UNL A   1      41.126  31.394  30.199  1.00  0.00     0.031 C 
ATOM     33  C   UNL A   1      46.635  31.074  27.627  1.00  0.00     0.029 A 
ATOM     34  C   UNL A   1      45.356  30.746  28.057  1.00  0.00     0.049 A 
ATOM     35  H   UNL A   1      44.305  28.935  27.815  1.00  0.00     0.167 HD
ATOM     36  C   UNL A   1      43.173  31.175  29.178  1.00  0.00     0.074 A 
ATOM     37  C   UNL A   1      42.249  32.029  29.900  1.00  0.00     0.031 C 
ATOM     38  C   UNL A   1      44.411  31.561  28.778  1.00  0.00     0.037 A 
BRANCH  25  39
ATOM     39  C   UNL A   1      47.579  27.183  25.724  1.00  0.00     0.057 A 
ATOM     40  C   UNL A   1      47.686  27.389  24.343  1.00  0.00     0.134 A 
ATOM     41  C   UNL A   1      48.698  26.657  26.387  1.00  0.00     0.134 A 
ATOM     42  F   UNL A   1      46.661  27.907  23.650  1.00  0.00    -0.206 F 
ATOM     43  C   UNL A   1      48.864  27.101  23.652  1.00  0.00     0.040 A 
ATOM     44  C   UNL A   1      49.889  26.389  25.710  1.00  0.00     0.040 A 
ATOM     45  F   UNL A   1      48.676  26.476  27.718  1.00  0.00    -0.206 F 
ATOM     46  C   UNL A   1      49.974  26.612  24.337  1.00  0.00     0.006 A 
ENDBRANCH  25  39
BRANCH  26  47
ATOM     47  C   UNL A   1      38.899  29.494  30.228  1.00  0.00     0.057 A 
ATOM     48  C   UNL A   1      37.843  29.976  29.444  1.00  0.00     0.134 A 
ATOM     49  C   UNL A   1      38.656  29.326  31.596  1.00  0.00     0.134 A 
ATOM     50  F   UNL A   1      38.005  30.157  28.126  1.00  0.00    -0.206 F 
ATOM     51  C   UNL A   1      36.597  30.276  29.996  1.00  0.00     0.040 A 
ATOM     52  C   UNL A   1      37.407  29.598  32.158  1.00  0.00     0.040 A 
ATOM     53  F   UNL A   1      39.615  28.841  32.398  1.00  0.00    -0.206 F 
ATOM     54  C   UNL A   1      36.373  30.076  31.356  1.00  0.00     0.006 A 
ENDBRANCH  26  47
BRANCH  38  55
ATOM     55  C   UNL A   1      44.803  32.980  29.072  1.00  0.00     0.057 A 
ATOM     56  C   UNL A   1      45.452  33.296  30.273  1.00  0.00     0.134 A 
ATOM     57  C   UNL A   1      44.530  34.031  28.187  1.00  0.00     0.134 A 
ATOM     58  F   UNL A   1      45.728  32.340  31.172  1.00  0.00    -0.206 F 
ATOM     59  C   UNL A   1      45.823  34.605  30.579  1.00  0.00     0.040 A 
ATOM     60  C   UNL A   1      44.929  35.339  28.467  1.00  0.00     0.040 A 
ATOM     61  F   UNL A   1      43.920  33.793  27.016  1.00  0.00    -0.206 F 
ATOM     62  C   UNL A   1      45.573  35.628  29.668  1.00  0.00     0.006 A 
ENDBRANCH  38  55
ENDBRANCH  12  13
ENDBRANCH   5   7
ENDBRANCH   4   5
ENDBRANCH   3   4
ENDBRANCH   2   3
ENDBRANCH   1   2
BRANCH   1  63
ATOM     63  C   UNL A   1      36.708  21.771  24.997  1.00  0.00     0.202 C 
BRANCH  63  64
ATOM     64  C   UNL A   1      36.571  22.686  23.774  1.00  0.00     0.261 C 
BRANCH  64  65
ATOM     65  O   UNL A   1      35.228  22.581  23.253  1.00  0.00    -0.462 OA
BRANCH  65  66
ATOM     66  C   UNL A   1      34.471  23.712  23.241  1.00  0.00     0.324 C 
ATOM     67  O   UNL A   1      34.882  24.808  22.882  1.00  0.00    -0.250 OA
BRANCH  66  68
ATOM     68  C   UNL A   1      33.061  23.468  23.718  1.00  0.00     0.183 C 
ATOM     69  C   UNL A   1      31.932  23.764  22.733  1.00  0.00     0.034 C 
ATOM     70  N   UNL A   1      32.499  23.876  25.048  1.00  0.00    -0.184 NA
ATOM     71  C   UNL A   1      30.732  23.198  23.457  1.00  0.00     0.019 C 
ATOM     72  C   UNL A   1      31.023  23.459  24.937  1.00  0.00     0.103 C 
BRANCH  70  73
ATOM     73  S   UNL A   1      32.560  25.434  25.789  1.00  0.00     0.244 S 
ATOM     74  O   UNL A   1      31.567  25.435  26.844  1.00  0.00    -0.207 OA
ATOM     75  O   UNL A   1      33.958  25.565  26.154  1.00  0.00    -0.207 OA
BRANCH  73  76
ATOM     76  C   UNL A   1      32.173  26.823  24.723  1.00  0.00     0.090 A 
ATOM     77  C   UNL A   1      33.232  27.537  24.128  1.00  0.00     0.024 A 
ATOM     78  C   UNL A   1      30.831  27.084  24.271  1.00  0.00     0.005 A 
ATOM     79  C   UNL A   1      33.061  28.589  23.208  1.00  0.00     0.028 A 
ATOM     80  C   UNL A   1      30.714  28.111  23.368  1.00  0.00     0.019 A 
ATOM     81  C   UNL A   1      29.589  26.437  24.529  1.00  0.00     0.010 A 
ATOM     82  C   UNL A   1      31.759  28.846  22.857  1.00  0.00     0.050 A 
ATOM     83  C   UNL A   1      29.552  28.558  22.753  1.00  0.00     0.050 A 
ATOM     84  C   UNL A   1      28.384  26.855  23.917  1.00  0.00     0.002 A 
ATOM     85  N   UNL A   1      31.241  29.758  21.959  1.00  0.00    -0.321 N 
ATOM     86  C   UNL A   1      28.342  27.933  23.023  1.00  0.00     0.014 A 
ATOM     87  C   UNL A   1      29.850  29.655  21.850  1.00  0.00     0.256 C 
ATOM     88  H   UNL A   1      31.787  30.405  21.454  1.00  0.00     0.170 HD
ATOM     89  O   UNL A   1      29.151  30.365  21.147  1.00  0.00    -0.269 OA
ENDBRANCH  73  76
ENDBRANCH  70  73
ENDBRANCH  66  68
ENDBRANCH  65  66
ENDBRANCH  64  65
ENDBRANCH  63  64
ENDBRANCH   1  63
TORSDOF 16
ENDMDL
