MODEL 1
REMARK VINA RESULT:     -11.8      0.000      0.000
REMARK SMILES C/C(=N\NC(N)=O)c1nnn(-c2ccc(C(=O)OCCOCCOC(=O)c3ccc(-c4c5nc(c(-c6c(F)cccc6F)c6ccc([nH]6)c(-c6c(F)cccc6F)c6nc(c(-c7c(F)cccc7F)c7ccc4[nH]7)C=C6)C=C5)cc3)cc2)c1C
REMARK SMILES IDX 20 1 19 2 18 3 16 4 17 5 15 6 12 7 13 8 82 9 14 10 81 11
REMARK SMILES IDX 11 12 8 13 9 14 83 15 10 16 84 17 2 18 1 19 3 20 4 21 5 22
REMARK SMILES IDX 6 24 7 25 21 28 22 29 23 30 24 31 25 32 26 33 27 34 28 35
REMARK SMILES IDX 80 36 29 37 79 38 30 39 31 40 32 41 73 42 33 43 78 44 72 45
REMARK SMILES IDX 74 46 34 47 77 48 71 49 70 50 35 52 61 53 44 54 60 55 45 56
REMARK SMILES IDX 48 57 59 58 75 59 46 60 47 61 58 63 76 64 49 65 36 66 37 67
REMARK SMILES IDX 42 68 38 69 39 70 41 71 43 72 40 73 62 74 63 75 68 76 64 77
REMARK SMILES IDX 65 78 67 79 69 80 66 81 50 82 51 83 56 84 52 85 53 86 55 87
REMARK SMILES IDX 57 88 54 89
REMARK H PARENT 4 23 6 26 6 27 74 51 48 62
REMARK Flexibility Score: inf
ROOT
ATOM      1  C   UNL A   1      44.103  18.615  24.815  1.00  0.00     0.202 C 
ENDROOT
BRANCH   1   2
ATOM      2  C   UNL A   1      42.955  18.692  25.818  1.00  0.00     0.261 C 
BRANCH   2   3
ATOM      3  O   UNL A   1      41.976  19.672  25.437  1.00  0.00    -0.460 OA
BRANCH   3   4
ATOM      4  C   UNL A   1      41.442  20.359  26.474  1.00  0.00     0.338 C 
ATOM      5  O   UNL A   1      42.021  20.752  27.473  1.00  0.00    -0.246 OA
BRANCH   4   6
ATOM      6  C   UNL A   1      40.037  20.711  26.193  1.00  0.00     0.060 A 
ATOM      7  C   UNL A   1      37.583  21.431  25.146  1.00  0.00     0.067 A 
ATOM      8  C   UNL A   1      37.996  20.099  25.042  1.00  0.00     0.029 A 
ATOM      9  C   UNL A   1      38.310  22.359  25.905  1.00  0.00     0.029 A 
ATOM     10  C   UNL A   1      39.245  19.751  25.545  1.00  0.00     0.018 A 
ATOM     11  C   UNL A   1      39.541  21.993  26.446  1.00  0.00     0.018 A 
BRANCH   7  12
ATOM     12  N   UNL A   1      36.573  21.880  24.269  1.00  0.00    -0.217 N 
ATOM     13  C   UNL A   1      34.649  22.594  23.542  1.00  0.00     0.132 A 
ATOM     14  N   UNL A   1      35.640  23.230  22.846  1.00  0.00    -0.128 NA
ATOM     15  C   UNL A   1      35.208  21.725  24.458  1.00  0.00     0.071 A 
ATOM     16  N   UNL A   1      36.806  22.835  23.339  1.00  0.00    -0.061 NA
ATOM     17  C   UNL A   1      34.579  20.969  25.569  1.00  0.00     0.069 C 
BRANCH  13  18
ATOM     18  C   UNL A   1      33.255  22.983  23.460  1.00  0.00     0.087 C 
ATOM     19  C   UNL A   1      32.343  22.024  22.737  1.00  0.00     0.071 C 
ATOM     20  N   UNL A   1      32.953  24.114  24.028  1.00  0.00    -0.174 NA
BRANCH  20  21
ATOM     21  N   UNL A   1      31.692  24.636  23.954  1.00  0.00    -0.229 N 
ATOM     22  C   UNL A   1      30.933  25.067  25.021  1.00  0.00     0.332 C 
ATOM     23  H   UNL A   1      31.291  24.712  23.059  1.00  0.00     0.195 HD
ATOM     24  N   UNL A   1      29.706  25.518  24.635  1.00  0.00    -0.350 N 
ATOM     25  O   UNL A   1      31.258  25.088  26.200  1.00  0.00    -0.247 OA
ATOM     26  H   UNL A   1      29.450  25.499  23.685  1.00  0.00     0.161 HD
ATOM     27  H   UNL A   1      29.074  25.862  25.309  1.00  0.00     0.161 HD
ENDBRANCH  20  21
ENDBRANCH  13  18
ENDBRANCH   7  12
ENDBRANCH   4   6
ENDBRANCH   3   4
ENDBRANCH   2   3
ENDBRANCH   1   2
BRANCH   1  28
ATOM     28  O   UNL A   1      45.366  18.133  25.278  1.00  0.00    -0.374 OA
BRANCH  28  29
ATOM     29  C   UNL A   1      46.448  19.036  25.472  1.00  0.00     0.202 C 
BRANCH  29  30
ATOM     30  C   UNL A   1      46.620  20.174  24.478  1.00  0.00     0.261 C 
BRANCH  30  31
ATOM     31  O   UNL A   1      46.180  21.414  25.005  1.00  0.00    -0.460 OA
BRANCH  31  32
ATOM     32  C   UNL A   1      45.024  21.858  24.456  1.00  0.00     0.338 C 
ATOM     33  O   UNL A   1      44.709  21.853  23.282  1.00  0.00    -0.246 OA
BRANCH  32  34
ATOM     34  C   UNL A   1      44.259  22.539  25.505  1.00  0.00     0.060 A 
ATOM     35  C   UNL A   1      43.176  23.302  25.062  1.00  0.00     0.016 A 
ATOM     36  C   UNL A   1      44.837  22.715  26.770  1.00  0.00     0.016 A 
ATOM     37  C   UNL A   1      42.841  24.423  25.781  1.00  0.00     0.010 A 
ATOM     38  C   UNL A   1      44.534  23.857  27.461  1.00  0.00     0.010 A 
ATOM     39  C   UNL A   1      43.600  24.732  26.911  1.00  0.00    -0.014 A 
BRANCH  39  40
ATOM     40  C   UNL A   1      43.355  25.997  27.561  1.00  0.00     0.031 A 
ATOM     41  C   UNL A   1      44.379  27.012  27.249  1.00  0.00     0.074 A 
ATOM     42  C   UNL A   1      42.221  26.229  28.243  1.00  0.00     0.049 A 
ATOM     43  N   UNL A   1      45.220  27.570  28.052  1.00  0.00    -0.248 NA
ATOM     44  C   UNL A   1      44.609  27.313  25.826  1.00  0.00     0.031 C 
ATOM     45  C   UNL A   1      41.024  25.386  28.307  1.00  0.00     0.029 A 
ATOM     46  N   UNL A   1      41.852  27.343  28.926  1.00  0.00    -0.354 N 
ATOM     47  C   UNL A   1      45.945  28.453  27.257  1.00  0.00     0.074 A 
ATOM     48  C   UNL A   1      45.698  28.074  25.896  1.00  0.00     0.031 C 
ATOM     49  C   UNL A   1      39.996  26.121  28.789  1.00  0.00     0.029 A 
ATOM     50  C   UNL A   1      40.489  27.439  29.158  1.00  0.00     0.049 A 
ATOM     51  H   UNL A   1      42.496  28.023  29.228  1.00  0.00     0.167 HD
ATOM     52  C   UNL A   1      46.427  29.616  27.771  1.00  0.00     0.037 A 
ATOM     53  C   UNL A   1      39.823  28.561  29.525  1.00  0.00     0.037 A 
ATOM     54  C   UNL A   1      46.527  29.537  29.210  1.00  0.00     0.049 A 
ATOM     55  C   UNL A   1      40.826  29.547  30.009  1.00  0.00     0.074 A 
ATOM     56  C   UNL A   1      47.164  28.690  30.097  1.00  0.00     0.029 A 
ATOM     57  N   UNL A   1      45.606  30.229  29.959  1.00  0.00    -0.354 N 
ATOM     58  N   UNL A   1      41.480  29.443  31.131  1.00  0.00    -0.248 NA
ATOM     59  C   UNL A   1      41.420  30.447  29.028  1.00  0.00     0.031 C 
ATOM     60  C   UNL A   1      46.288  28.587  31.217  1.00  0.00     0.029 A 
ATOM     61  C   UNL A   1      45.187  29.407  30.971  1.00  0.00     0.049 A 
ATOM     62  H   UNL A   1      45.301  31.151  29.796  1.00  0.00     0.167 HD
ATOM     63  C   UNL A   1      42.758  29.904  30.841  1.00  0.00     0.074 A 
ATOM     64  C   UNL A   1      42.630  30.609  29.571  1.00  0.00     0.031 C 
ATOM     65  C   UNL A   1      43.848  29.420  31.508  1.00  0.00     0.037 A 
BRANCH  52  66
ATOM     66  C   UNL A   1      46.370  30.936  27.025  1.00  0.00     0.057 A 
ATOM     67  C   UNL A   1      47.534  31.724  26.985  1.00  0.00     0.134 A 
ATOM     68  C   UNL A   1      45.193  31.605  26.623  1.00  0.00     0.134 A 
ATOM     69  F   UNL A   1      48.729  31.208  27.315  1.00  0.00    -0.206 F 
ATOM     70  C   UNL A   1      47.505  33.097  26.707  1.00  0.00     0.040 A 
ATOM     71  C   UNL A   1      45.163  32.963  26.295  1.00  0.00     0.040 A 
ATOM     72  F   UNL A   1      43.987  31.031  26.604  1.00  0.00    -0.206 F 
ATOM     73  C   UNL A   1      46.312  33.725  26.380  1.00  0.00     0.006 A 
ENDBRANCH  52  66
BRANCH  53  74
ATOM     74  C   UNL A   1      38.425  28.949  29.224  1.00  0.00     0.057 A 
ATOM     75  C   UNL A   1      37.471  29.053  30.247  1.00  0.00     0.134 A 
ATOM     76  C   UNL A   1      38.044  29.470  27.975  1.00  0.00     0.134 A 
ATOM     77  F   UNL A   1      37.753  28.625  31.487  1.00  0.00    -0.206 F 
ATOM     78  C   UNL A   1      36.223  29.654  30.045  1.00  0.00     0.040 A 
ATOM     79  C   UNL A   1      36.795  30.058  27.755  1.00  0.00     0.040 A 
ATOM     80  F   UNL A   1      38.901  29.507  26.945  1.00  0.00    -0.206 F 
ATOM     81  C   UNL A   1      35.883  30.166  28.797  1.00  0.00     0.006 A 
ENDBRANCH  53  74
BRANCH  65  82
ATOM     82  C   UNL A   1      43.605  28.621  32.755  1.00  0.00     0.057 A 
ATOM     83  C   UNL A   1      43.479  27.223  32.782  1.00  0.00     0.134 A 
ATOM     84  C   UNL A   1      43.623  29.279  33.990  1.00  0.00     0.134 A 
ATOM     85  F   UNL A   1      43.561  26.497  31.659  1.00  0.00    -0.206 F 
ATOM     86  C   UNL A   1      43.316  26.523  33.980  1.00  0.00     0.040 A 
ATOM     87  C   UNL A   1      43.498  28.586  35.196  1.00  0.00     0.040 A 
ATOM     88  F   UNL A   1      43.800  30.609  34.046  1.00  0.00    -0.206 F 
ATOM     89  C   UNL A   1      43.329  27.205  35.193  1.00  0.00     0.006 A 
ENDBRANCH  65  82
ENDBRANCH  39  40
ENDBRANCH  32  34
ENDBRANCH  31  32
ENDBRANCH  30  31
ENDBRANCH  29  30
ENDBRANCH  28  29
ENDBRANCH   1  28
TORSDOF 17
ENDMDL
MODEL 2
REMARK VINA RESULT:     -11.6      5.144     10.475
REMARK SMILES C/C(=N\NC(N)=O)c1nnn(-c2ccc(C(=O)OCCOCCOC(=O)c3ccc(-c4c5nc(c(-c6c(F)cccc6F)c6ccc([nH]6)c(-c6c(F)cccc6F)c6nc(c(-c7c(F)cccc7F)c7ccc4[nH]7)C=C6)C=C5)cc3)cc2)c1C
REMARK SMILES IDX 20 1 19 2 18 3 16 4 17 5 15 6 12 7 13 8 82 9 14 10 81 11
REMARK SMILES IDX 11 12 8 13 9 14 83 15 10 16 84 17 2 18 1 19 3 20 4 21 5 22
REMARK SMILES IDX 6 24 7 25 21 28 22 29 23 30 24 31 25 32 26 33 27 34 28 35
REMARK SMILES IDX 80 36 29 37 79 38 30 39 31 40 32 41 73 42 33 43 78 44 72 45
REMARK SMILES IDX 74 46 34 47 77 48 71 49 70 50 35 52 61 53 44 54 60 55 45 56
REMARK SMILES IDX 48 57 59 58 75 59 46 60 47 61 58 63 76 64 49 65 36 66 37 67
REMARK SMILES IDX 42 68 38 69 39 70 41 71 43 72 40 73 62 74 63 75 68 76 64 77
REMARK SMILES IDX 65 78 67 79 69 80 66 81 50 82 51 83 56 84 52 85 53 86 55 87
REMARK SMILES IDX 57 88 54 89
REMARK H PARENT 4 23 6 26 6 27 74 51 48 62
REMARK Flexibility Score: inf
ROOT
ATOM      1  C   UNL A   1      34.851  33.708  28.010  1.00  0.00     0.202 C 
ENDROOT
BRANCH   1   2
ATOM      2  C   UNL A   1      33.828  32.619  28.323  1.00  0.00     0.261 C 
BRANCH   2   3
ATOM      3  O   UNL A   1      33.888  31.541  27.375  1.00  0.00    -0.460 OA
BRANCH   3   4
ATOM      4  C   UNL A   1      32.680  31.123  26.929  1.00  0.00     0.338 C 
ATOM      5  O   UNL A   1      31.666  31.791  26.816  1.00  0.00    -0.246 OA
BRANCH   4   6
ATOM      6  C   UNL A   1      32.759  29.731  26.448  1.00  0.00     0.060 A 
ATOM      7  C   UNL A   1      32.586  27.011  25.985  1.00  0.00     0.067 A 
ATOM      8  C   UNL A   1      31.547  27.838  25.544  1.00  0.00     0.029 A 
ATOM      9  C   UNL A   1      33.771  27.550  26.505  1.00  0.00     0.029 A 
ATOM     10  C   UNL A   1      31.627  29.201  25.808  1.00  0.00     0.018 A 
ATOM     11  C   UNL A   1      33.865  28.923  26.726  1.00  0.00     0.018 A 
BRANCH   7  12
ATOM     12  N   UNL A   1      32.316  25.634  26.136  1.00  0.00    -0.217 N 
ATOM     13  C   UNL A   1      32.622  23.502  26.450  1.00  0.00     0.132 A 
ATOM     14  N   UNL A   1      31.466  23.873  27.081  1.00  0.00    -0.128 NA
ATOM     15  C   UNL A   1      33.190  24.601  25.836  1.00  0.00     0.071 A 
ATOM     16  N   UNL A   1      31.323  25.184  26.936  1.00  0.00    -0.061 NA
ATOM     17  C   UNL A   1      34.525  24.763  25.208  1.00  0.00     0.069 C 
BRANCH  13  18
ATOM     18  C   UNL A   1      33.234  22.200  26.629  1.00  0.00     0.087 C 
ATOM     19  C   UNL A   1      33.982  21.996  27.923  1.00  0.00     0.071 C 
ATOM     20  N   UNL A   1      33.060  21.358  25.653  1.00  0.00    -0.174 NA
BRANCH  20  21
ATOM     21  N   UNL A   1      33.653  20.127  25.658  1.00  0.00    -0.229 N 
ATOM     22  C   UNL A   1      33.068  18.947  25.249  1.00  0.00     0.332 C 
ATOM     23  H   UNL A   1      34.581  20.078  25.983  1.00  0.00     0.195 HD
ATOM     24  N   UNL A   1      33.900  17.878  25.393  1.00  0.00    -0.350 N 
ATOM     25  O   UNL A   1      31.945  18.800  24.788  1.00  0.00    -0.247 OA
ATOM     26  H   UNL A   1      34.803  18.003  25.765  1.00  0.00     0.161 HD
ATOM     27  H   UNL A   1      33.598  16.980  25.125  1.00  0.00     0.161 HD
ENDBRANCH  20  21
ENDBRANCH  13  18
ENDBRANCH   7  12
ENDBRANCH   4   6
ENDBRANCH   3   4
ENDBRANCH   2   3
ENDBRANCH   1   2
BRANCH   1  28
ATOM     28  O   UNL A   1      34.826  34.897  28.803  1.00  0.00    -0.374 OA
BRANCH  28  29
ATOM     29  C   UNL A   1      33.734  35.802  28.700  1.00  0.00     0.202 C 
BRANCH  29  30
ATOM     30  C   UNL A   1      32.948  36.125  29.961  1.00  0.00     0.261 C 
BRANCH  30  31
ATOM     31  O   UNL A   1      32.834  35.004  30.822  1.00  0.00    -0.460 OA
BRANCH  31  32
ATOM     32  C   UNL A   1      32.871  35.323  32.137  1.00  0.00     0.338 C 
ATOM     33  O   UNL A   1      32.200  36.153  32.720  1.00  0.00    -0.246 OA
BRANCH  32  34
ATOM     34  C   UNL A   1      34.010  34.624  32.739  1.00  0.00     0.060 A 
ATOM     35  C   UNL A   1      35.127  35.417  33.016  1.00  0.00     0.016 A 
ATOM     36  C   UNL A   1      34.083  33.227  32.647  1.00  0.00     0.016 A 
ATOM     37  C   UNL A   1      36.367  34.833  32.937  1.00  0.00     0.010 A 
ATOM     38  C   UNL A   1      35.321  32.656  32.522  1.00  0.00     0.010 A 
ATOM     39  C   UNL A   1      36.439  33.484  32.587  1.00  0.00    -0.014 A 
BRANCH  39  40
ATOM     40  C   UNL A   1      37.744  32.922  32.338  1.00  0.00     0.031 A 
ATOM     41  C   UNL A   1      38.611  32.929  33.531  1.00  0.00     0.074 A 
ATOM     42  C   UNL A   1      38.042  32.325  31.171  1.00  0.00     0.049 A 
ATOM     43  N   UNL A   1      39.709  33.581  33.716  1.00  0.00    -0.248 NA
ATOM     44  C   UNL A   1      38.093  32.261  34.737  1.00  0.00     0.031 C 
ATOM     45  C   UNL A   1      37.128  31.987  30.077  1.00  0.00     0.029 A 
ATOM     46  N   UNL A   1      39.218  31.775  30.773  1.00  0.00    -0.354 N 
ATOM     47  C   UNL A   1      40.125  33.229  34.996  1.00  0.00     0.074 A 
ATOM     48  C   UNL A   1      38.993  32.632  35.644  1.00  0.00     0.031 C 
ATOM     49  C   UNL A   1      37.733  31.095  29.260  1.00  0.00     0.029 A 
ATOM     50  C   UNL A   1      39.098  30.885  29.717  1.00  0.00     0.049 A 
ATOM     51  H   UNL A   1      40.080  31.989  31.198  1.00  0.00     0.167 HD
ATOM     52  C   UNL A   1      41.448  33.163  35.304  1.00  0.00     0.037 A 
ATOM     53  C   UNL A   1      40.029  29.977  29.334  1.00  0.00     0.037 A 
ATOM     54  C   UNL A   1      42.230  33.946  34.374  1.00  0.00     0.049 A 
ATOM     55  C   UNL A   1      41.320  30.357  29.967  1.00  0.00     0.074 A 
ATOM     56  C   UNL A   1      42.221  35.267  33.966  1.00  0.00     0.029 A 
ATOM     57  N   UNL A   1      42.978  33.275  33.437  1.00  0.00    -0.354 N 
ATOM     58  N   UNL A   1      42.035  31.390  29.620  1.00  0.00    -0.248 NA
ATOM     59  C   UNL A   1      41.613  29.817  31.289  1.00  0.00     0.031 C 
ATOM     60  C   UNL A   1      42.567  35.237  32.583  1.00  0.00     0.029 A 
ATOM     61  C   UNL A   1      42.808  33.908  32.235  1.00  0.00     0.049 A 
ATOM     62  H   UNL A   1      43.537  32.482  33.601  1.00  0.00     0.167 HD
ATOM     63  C   UNL A   1      42.540  31.888  30.814  1.00  0.00     0.074 A 
ATOM     64  C   UNL A   1      42.340  30.821  31.788  1.00  0.00     0.031 C 
ATOM     65  C   UNL A   1      42.800  33.221  30.966  1.00  0.00     0.037 A 
BRANCH  52  66
ATOM     66  C   UNL A   1      42.048  32.052  36.145  1.00  0.00     0.057 A 
ATOM     67  C   UNL A   1      42.937  32.407  37.175  1.00  0.00     0.134 A 
ATOM     68  C   UNL A   1      42.049  30.679  35.814  1.00  0.00     0.134 A 
ATOM     69  F   UNL A   1      43.020  33.674  37.609  1.00  0.00    -0.206 F 
ATOM     70  C   UNL A   1      43.850  31.500  37.728  1.00  0.00     0.040 A 
ATOM     71  C   UNL A   1      42.921  29.755  36.397  1.00  0.00     0.040 A 
ATOM     72  F   UNL A   1      41.284  30.148  34.856  1.00  0.00    -0.206 F 
ATOM     73  C   UNL A   1      43.857  30.172  37.324  1.00  0.00     0.006 A 
ENDBRANCH  52  66
BRANCH  53  74
ATOM     74  C   UNL A   1      39.826  28.654  28.700  1.00  0.00     0.057 A 
ATOM     75  C   UNL A   1      40.387  28.363  27.448  1.00  0.00     0.134 A 
ATOM     76  C   UNL A   1      39.295  27.558  29.403  1.00  0.00     0.134 A 
ATOM     77  F   UNL A   1      40.959  29.332  26.717  1.00  0.00    -0.206 F 
ATOM     78  C   UNL A   1      40.434  27.061  26.935  1.00  0.00     0.040 A 
ATOM     79  C   UNL A   1      39.320  26.256  28.896  1.00  0.00     0.040 A 
ATOM     80  F   UNL A   1      38.811  27.696  30.646  1.00  0.00    -0.206 F 
ATOM     81  C   UNL A   1      39.905  26.000  27.663  1.00  0.00     0.006 A 
ENDBRANCH  53  74
BRANCH  65  82
ATOM     82  C   UNL A   1      42.824  34.072  29.729  1.00  0.00     0.057 A 
ATOM     83  C   UNL A   1      41.717  34.786  29.244  1.00  0.00     0.134 A 
ATOM     84  C   UNL A   1      44.045  34.276  29.075  1.00  0.00     0.134 A 
ATOM     85  F   UNL A   1      40.533  34.740  29.870  1.00  0.00    -0.206 F 
ATOM     86  C   UNL A   1      41.809  35.613  28.123  1.00  0.00     0.040 A 
ATOM     87  C   UNL A   1      44.158  35.130  27.977  1.00  0.00     0.040 A 
ATOM     88  F   UNL A   1      45.160  33.674  29.521  1.00  0.00    -0.206 F 
ATOM     89  C   UNL A   1      43.035  35.790  27.488  1.00  0.00     0.006 A 
ENDBRANCH  65  82
ENDBRANCH  39  40
ENDBRANCH  32  34
ENDBRANCH  31  32
ENDBRANCH  30  31
ENDBRANCH  29  30
ENDBRANCH  28  29
ENDBRANCH   1  28
TORSDOF 17
ENDMDL
MODEL 3
REMARK VINA RESULT:     -11.4      2.327      3.404
REMARK SMILES C/C(=N\NC(N)=O)c1nnn(-c2ccc(C(=O)OCCOCCOC(=O)c3ccc(-c4c5nc(c(-c6c(F)cccc6F)c6ccc([nH]6)c(-c6c(F)cccc6F)c6nc(c(-c7c(F)cccc7F)c7ccc4[nH]7)C=C6)C=C5)cc3)cc2)c1C
REMARK SMILES IDX 20 1 19 2 18 3 16 4 17 5 15 6 12 7 13 8 82 9 14 10 81 11
REMARK SMILES IDX 11 12 8 13 9 14 83 15 10 16 84 17 2 18 1 19 3 20 4 21 5 22
REMARK SMILES IDX 6 24 7 25 21 28 22 29 23 30 24 31 25 32 26 33 27 34 28 35
REMARK SMILES IDX 80 36 29 37 79 38 30 39 31 40 32 41 73 42 33 43 78 44 72 45
REMARK SMILES IDX 74 46 34 47 77 48 71 49 70 50 35 52 61 53 44 54 60 55 45 56
REMARK SMILES IDX 48 57 59 58 75 59 46 60 47 61 58 63 76 64 49 65 36 66 37 67
REMARK SMILES IDX 42 68 38 69 39 70 41 71 43 72 40 73 62 74 63 75 68 76 64 77
REMARK SMILES IDX 65 78 67 79 69 80 66 81 50 82 51 83 56 84 52 85 53 86 55 87
REMARK SMILES IDX 57 88 54 89
REMARK H PARENT 4 23 6 26 6 27 74 51 48 62
REMARK Flexibility Score: inf
ROOT
ATOM      1  C   UNL A   1      40.321  20.808  26.902  1.00  0.00     0.202 C 
ENDROOT
BRANCH   1   2
ATOM      2  C   UNL A   1      39.707  21.928  26.065  1.00  0.00     0.261 C 
BRANCH   2   3
ATOM      3  O   UNL A   1      38.272  21.862  26.054  1.00  0.00    -0.460 OA
BRANCH   3   4
ATOM      4  C   UNL A   1      37.763  20.942  25.201  1.00  0.00     0.338 C 
ATOM      5  O   UNL A   1      38.052  19.758  25.137  1.00  0.00    -0.246 OA
BRANCH   4   6
ATOM      6  C   UNL A   1      36.670  21.526  24.401  1.00  0.00     0.060 A 
ATOM      7  C   UNL A   1      34.675  23.051  23.246  1.00  0.00     0.067 A 
ATOM      8  C   UNL A   1      36.004  23.293  22.884  1.00  0.00     0.029 A 
ATOM      9  C   UNL A   1      34.331  21.955  24.050  1.00  0.00     0.029 A 
ATOM     10  C   UNL A   1      37.005  22.542  23.492  1.00  0.00     0.018 A 
ATOM     11  C   UNL A   1      35.336  21.177  24.622  1.00  0.00     0.018 A 
BRANCH   7  12
ATOM     12  N   UNL A   1      33.728  24.069  23.004  1.00  0.00    -0.217 N 
ATOM     13  C   UNL A   1      32.738  26.007  23.044  1.00  0.00     0.132 A 
ATOM     14  N   UNL A   1      32.585  25.466  21.797  1.00  0.00    -0.128 NA
ATOM     15  C   UNL A   1      33.462  25.142  23.841  1.00  0.00     0.071 A 
ATOM     16  N   UNL A   1      33.245  24.315  21.765  1.00  0.00    -0.061 NA
ATOM     17  C   UNL A   1      34.059  25.349  25.184  1.00  0.00     0.069 C 
BRANCH  13  18
ATOM     18  C   UNL A   1      32.385  27.378  23.357  1.00  0.00     0.087 C 
ATOM     19  C   UNL A   1      33.539  28.328  23.555  1.00  0.00     0.071 C 
ATOM     20  N   UNL A   1      31.110  27.628  23.425  1.00  0.00    -0.174 NA
BRANCH  20  21
ATOM     21  N   UNL A   1      30.643  28.859  23.792  1.00  0.00    -0.229 N 
ATOM     22  C   UNL A   1      29.882  29.700  23.008  1.00  0.00     0.332 C 
ATOM     23  H   UNL A   1      30.869  29.172  24.697  1.00  0.00     0.195 HD
ATOM     24  N   UNL A   1      29.586  30.870  23.640  1.00  0.00    -0.350 N 
ATOM     25  O   UNL A   1      29.471  29.486  21.876  1.00  0.00    -0.247 OA
ATOM     26  H   UNL A   1      29.919  31.037  24.551  1.00  0.00     0.161 HD
ATOM     27  H   UNL A   1      29.037  31.550  23.184  1.00  0.00     0.161 HD
ENDBRANCH  20  21
ENDBRANCH  13  18
ENDBRANCH   7  12
ENDBRANCH   4   6
ENDBRANCH   3   4
ENDBRANCH   2   3
ENDBRANCH   1   2
BRANCH   1  28
ATOM     28  O   UNL A   1      41.062  19.794  26.221  1.00  0.00    -0.374 OA
BRANCH  28  29
ATOM     29  C   UNL A   1      42.324  19.370  26.725  1.00  0.00     0.202 C 
BRANCH  29  30
ATOM     30  C   UNL A   1      43.333  18.796  25.742  1.00  0.00     0.261 C 
BRANCH  30  31
ATOM     31  O   UNL A   1      43.402  19.551  24.545  1.00  0.00    -0.460 OA
BRANCH  31  32
ATOM     32  C   UNL A   1      44.664  19.729  24.087  1.00  0.00     0.338 C 
ATOM     33  O   UNL A   1      45.441  18.876  23.702  1.00  0.00    -0.246 OA
BRANCH  32  34
ATOM     34  C   UNL A   1      45.031  21.131  24.305  1.00  0.00     0.060 A 
ATOM     35  C   UNL A   1      46.031  21.351  25.256  1.00  0.00     0.016 A 
ATOM     36  C   UNL A   1      44.155  22.141  23.885  1.00  0.00     0.016 A 
ATOM     37  C   UNL A   1      45.983  22.515  25.983  1.00  0.00     0.010 A 
ATOM     38  C   UNL A   1      44.079  23.280  24.642  1.00  0.00     0.010 A 
ATOM     39  C   UNL A   1      44.941  23.408  25.729  1.00  0.00    -0.014 A 
BRANCH  39  40
ATOM     40  C   UNL A   1      44.796  24.542  26.609  1.00  0.00     0.031 A 
ATOM     41  C   UNL A   1      45.957  25.452  26.570  1.00  0.00     0.074 A 
ATOM     42  C   UNL A   1      43.646  24.787  27.259  1.00  0.00     0.049 A 
ATOM     43  N   UNL A   1      46.790  25.723  27.517  1.00  0.00    -0.248 NA
ATOM     44  C   UNL A   1      46.339  25.992  25.255  1.00  0.00     0.031 C 
ATOM     45  C   UNL A   1      42.355  24.117  27.080  1.00  0.00     0.029 A 
ATOM     46  N   UNL A   1      43.358  25.785  28.133  1.00  0.00    -0.354 N 
ATOM     47  C   UNL A   1      47.679  26.639  26.963  1.00  0.00     0.074 A 
ATOM     48  C   UNL A   1      47.502  26.570  25.542  1.00  0.00     0.031 C 
ATOM     49  C   UNL A   1      41.386  24.875  27.644  1.00  0.00     0.029 A 
ATOM     50  C   UNL A   1      42.002  26.016  28.302  1.00  0.00     0.049 A 
ATOM     51  H   UNL A   1      44.052  26.300  28.605  1.00  0.00     0.167 HD
ATOM     52  C   UNL A   1      48.253  27.603  27.731  1.00  0.00     0.037 A 
ATOM     53  C   UNL A   1      41.447  27.124  28.852  1.00  0.00     0.037 A 
ATOM     54  C   UNL A   1      48.224  27.232  29.127  1.00  0.00     0.049 A 
ATOM     55  C   UNL A   1      42.518  27.852  29.584  1.00  0.00     0.074 A 
ATOM     56  C   UNL A   1      48.678  26.149  29.856  1.00  0.00     0.029 A 
ATOM     57  N   UNL A   1      47.333  27.881  29.948  1.00  0.00    -0.354 N 
ATOM     58  N   UNL A   1      43.060  27.443  30.697  1.00  0.00    -0.248 NA
ATOM     59  C   UNL A   1      43.295  28.839  28.844  1.00  0.00     0.031 C 
ATOM     60  C   UNL A   1      47.706  25.948  30.880  1.00  0.00     0.029 A 
ATOM     61  C   UNL A   1      46.736  26.941  30.745  1.00  0.00     0.049 A 
ATOM     62  H   UNL A   1      47.155  28.850  29.960  1.00  0.00     0.167 HD
ATOM     63  C   UNL A   1      44.403  27.776  30.581  1.00  0.00     0.074 A 
ATOM     64  C   UNL A   1      44.467  28.727  29.476  1.00  0.00     0.031 C 
ATOM     65  C   UNL A   1      45.368  27.029  31.195  1.00  0.00     0.037 A 
BRANCH  52  66
ATOM     66  C   UNL A   1      48.418  29.039  27.270  1.00  0.00     0.057 A 
ATOM     67  C   UNL A   1      49.662  29.662  27.474  1.00  0.00     0.134 A 
ATOM     68  C   UNL A   1      47.368  29.921  26.931  1.00  0.00     0.134 A 
ATOM     69  F   UNL A   1      50.753  28.941  27.775  1.00  0.00    -0.206 F 
ATOM     70  C   UNL A   1      49.815  31.054  27.482  1.00  0.00     0.040 A 
ATOM     71  C   UNL A   1      47.523  31.309  26.885  1.00  0.00     0.040 A 
ATOM     72  F   UNL A   1      46.112  29.524  26.708  1.00  0.00    -0.206 F 
ATOM     73  C   UNL A   1      48.737  31.884  27.207  1.00  0.00     0.006 A 
ENDBRANCH  52  66
BRANCH  53  74
ATOM     74  C   UNL A   1      40.137  27.748  28.558  1.00  0.00     0.057 A 
ATOM     75  C   UNL A   1      39.120  27.775  29.524  1.00  0.00     0.134 A 
ATOM     76  C   UNL A   1      39.926  28.550  27.423  1.00  0.00     0.134 A 
ATOM     77  F   UNL A   1      39.244  27.078  30.663  1.00  0.00    -0.206 F 
ATOM     78  C   UNL A   1      37.974  28.566  29.379  1.00  0.00     0.040 A 
ATOM     79  C   UNL A   1      38.779  29.333  27.257  1.00  0.00     0.040 A 
ATOM     80  F   UNL A   1      40.865  28.674  26.473  1.00  0.00    -0.206 F 
ATOM     81  C   UNL A   1      37.803  29.355  28.245  1.00  0.00     0.006 A 
ENDBRANCH  53  74
BRANCH  65  82
ATOM     82  C   UNL A   1      44.928  26.041  32.237  1.00  0.00     0.057 A 
ATOM     83  C   UNL A   1      44.536  24.723  31.955  1.00  0.00     0.134 A 
ATOM     84  C   UNL A   1      45.023  26.399  33.586  1.00  0.00     0.134 A 
ATOM     85  F   UNL A   1      44.521  24.256  30.699  1.00  0.00    -0.206 F 
ATOM     86  C   UNL A   1      44.195  23.825  32.969  1.00  0.00     0.040 A 
ATOM     87  C   UNL A   1      44.721  25.499  34.610  1.00  0.00     0.040 A 
ATOM     88  F   UNL A   1      45.450  27.624  33.933  1.00  0.00    -0.206 F 
ATOM     89  C   UNL A   1      44.291  24.211  34.303  1.00  0.00     0.006 A 
ENDBRANCH  65  82
ENDBRANCH  39  40
ENDBRANCH  32  34
ENDBRANCH  31  32
ENDBRANCH  30  31
ENDBRANCH  29  30
ENDBRANCH  28  29
ENDBRANCH   1  28
TORSDOF 17
ENDMDL
