MODEL 1
REMARK VINA RESULT:     -10.1      0.000      0.000
REMARK SMILES CC[C@](C)(NC(=O)NCc1ccco1)C(=O)OCCOCCOC(=O)c1ccc(-c2c3nc(c(-c4c(F)cccc4F)c4ccc([nH]4)c(-c4c(F)cccc4F)c4nc(c(-c5c(F)cccc5F)c5ccc2[nH]5)C=C4)C=C3)cc1
REMARK SMILES IDX 19 1 18 2 17 3 15 4 16 5 3 6 4 7 2 8 1 9 5 10 6 11 7 13 8 14
REMARK SMILES IDX 9 16 10 17 11 18 14 19 12 20 13 21 20 22 21 23 22 24 23 25
REMARK SMILES IDX 24 26 25 27 26 28 27 29 79 30 28 31 78 32 29 33 30 34 31 35
REMARK SMILES IDX 72 36 32 37 77 38 71 39 73 40 33 41 76 42 70 43 69 44 34 46
REMARK SMILES IDX 60 47 43 48 59 49 44 50 47 51 58 52 74 53 45 54 46 55 57 57
REMARK SMILES IDX 75 58 48 59 35 60 36 61 41 62 37 63 38 64 40 65 42 66 39 67
REMARK SMILES IDX 61 68 62 69 67 70 63 71 64 72 66 73 68 74 65 75 49 76 50 77
REMARK SMILES IDX 55 78 51 79 52 80 54 81 56 82 53 83
REMARK H PARENT 5 12 8 15 73 45 47 56
REMARK Flexibility Score: inf
ROOT
ATOM      1  C   UNL A   1      37.436  22.063  25.002  1.00  0.00     0.202 C 
ENDROOT
BRANCH   1   2
ATOM      2  C   UNL A   1      36.697  22.547  23.748  1.00  0.00     0.261 C 
BRANCH   2   3
ATOM      3  O   UNL A   1      35.603  23.372  24.185  1.00  0.00    -0.462 OA
BRANCH   3   4
ATOM      4  C   UNL A   1      34.413  23.359  23.555  1.00  0.00     0.331 C 
ATOM      5  O   UNL A   1      34.306  23.232  22.340  1.00  0.00    -0.249 OA
BRANCH   4   6
ATOM      6  C   UNL A   1      33.195  23.635  24.543  1.00  0.00     0.136 C 
ATOM      7  C   UNL A   1      32.046  22.814  23.892  1.00  0.00     0.047 C 
BRANCH   6   8
ATOM      8  C   UNL A   1      32.741  25.128  24.552  1.00  0.00     0.037 C 
ATOM      9  C   UNL A   1      33.690  26.122  23.894  1.00  0.00     0.007 C 
ENDBRANCH   6   8
BRANCH   6  10
ATOM     10  N   UNL A   1      33.260  23.120  25.983  1.00  0.00    -0.322 N 
ATOM     11  C   UNL A   1      33.824  22.126  26.702  1.00  0.00     0.316 C 
ATOM     12  H   UNL A   1      32.719  23.696  26.569  1.00  0.00     0.166 HD
ATOM     13  O   UNL A   1      33.878  22.270  27.925  1.00  0.00    -0.249 OA
ATOM     14  N   UNL A   1      34.306  20.988  26.162  1.00  0.00    -0.331 N 
ATOM     15  H   UNL A   1      35.046  20.515  26.609  1.00  0.00     0.165 HD
BRANCH  14  16
ATOM     16  C   UNL A   1      33.766  20.462  24.965  1.00  0.00     0.193 C 
BRANCH  16  17
ATOM     17  C   UNL A   1      33.597  19.030  24.749  1.00  0.00     0.122 A 
ATOM     18  C   UNL A   1      34.336  17.972  24.290  1.00  0.00     0.047 A 
ATOM     19  O   UNL A   1      32.390  18.581  25.216  1.00  0.00    -0.467 OA
ATOM     20  C   UNL A   1      33.536  16.814  24.509  1.00  0.00     0.042 A 
ATOM     21  C   UNL A   1      32.362  17.243  25.068  1.00  0.00     0.195 A 
ENDBRANCH  16  17
ENDBRANCH  14  16
ENDBRANCH   6  10
ENDBRANCH   4   6
ENDBRANCH   3   4
ENDBRANCH   2   3
ENDBRANCH   1   2
BRANCH   1  22
ATOM     22  O   UNL A   1      37.194  20.687  25.308  1.00  0.00    -0.374 OA
BRANCH  22  23
ATOM     23  C   UNL A   1      38.125  19.736  24.789  1.00  0.00     0.202 C 
BRANCH  23  24
ATOM     24  C   UNL A   1      39.168  19.238  25.787  1.00  0.00     0.261 C 
BRANCH  24  25
ATOM     25  O   UNL A   1      40.363  20.045  25.779  1.00  0.00    -0.460 OA
BRANCH  25  26
ATOM     26  C   UNL A   1      41.003  20.149  26.967  1.00  0.00     0.338 C 
ATOM     27  O   UNL A   1      41.511  19.246  27.606  1.00  0.00    -0.246 OA
BRANCH  26  28
ATOM     28  C   UNL A   1      41.086  21.566  27.391  1.00  0.00     0.060 A 
ATOM     29  C   UNL A   1      40.414  22.520  26.618  1.00  0.00     0.016 A 
ATOM     30  C   UNL A   1      41.903  21.974  28.448  1.00  0.00     0.016 A 
ATOM     31  C   UNL A   1      40.609  23.885  26.853  1.00  0.00     0.010 A 
ATOM     32  C   UNL A   1      42.096  23.342  28.684  1.00  0.00     0.010 A 
ATOM     33  C   UNL A   1      41.486  24.310  27.860  1.00  0.00    -0.014 A 
BRANCH  33  34
ATOM     34  C   UNL A   1      41.900  25.742  27.958  1.00  0.00     0.031 A 
ATOM     35  C   UNL A   1      43.223  26.152  27.392  1.00  0.00     0.074 A 
ATOM     36  C   UNL A   1      41.132  26.677  28.543  1.00  0.00     0.049 A 
ATOM     37  N   UNL A   1      43.816  27.316  27.448  1.00  0.00    -0.248 NA
ATOM     38  C   UNL A   1      43.976  25.118  26.670  1.00  0.00     0.031 C 
ATOM     39  C   UNL A   1      39.806  26.426  29.068  1.00  0.00     0.029 A 
ATOM     40  N   UNL A   1      41.337  28.007  28.815  1.00  0.00    -0.354 N 
ATOM     41  C   UNL A   1      45.019  27.153  26.781  1.00  0.00     0.074 A 
ATOM     42  C   UNL A   1      45.087  25.769  26.361  1.00  0.00     0.031 C 
ATOM     43  C   UNL A   1      39.315  27.532  29.641  1.00  0.00     0.029 A 
ATOM     44  C   UNL A   1      40.315  28.586  29.533  1.00  0.00     0.049 A 
ATOM     45  H   UNL A   1      42.139  28.500  28.524  1.00  0.00     0.167 HD
ATOM     46  C   UNL A   1      45.974  28.080  26.533  1.00  0.00     0.037 A 
ATOM     47  C   UNL A   1      40.194  29.820  30.059  1.00  0.00     0.037 A 
ATOM     48  C   UNL A   1      45.903  29.453  26.959  1.00  0.00     0.049 A 
ATOM     49  C   UNL A   1      41.301  30.809  29.845  1.00  0.00     0.074 A 
ATOM     50  C   UNL A   1      46.816  30.468  26.738  1.00  0.00     0.029 A 
ATOM     51  N   UNL A   1      44.866  30.002  27.702  1.00  0.00    -0.354 N 
ATOM     52  N   UNL A   1      42.427  30.648  29.192  1.00  0.00    -0.248 NA
ATOM     53  C   UNL A   1      41.124  32.147  30.423  1.00  0.00     0.031 C 
ATOM     54  C   UNL A   1      46.364  31.614  27.399  1.00  0.00     0.029 A 
ATOM     55  C   UNL A   1      45.134  31.335  27.974  1.00  0.00     0.049 A 
ATOM     56  H   UNL A   1      44.061  29.517  27.993  1.00  0.00     0.167 HD
ATOM     57  C   UNL A   1      43.076  31.873  29.249  1.00  0.00     0.074 A 
ATOM     58  C   UNL A   1      42.218  32.767  30.000  1.00  0.00     0.031 C 
ATOM     59  C   UNL A   1      44.271  32.222  28.715  1.00  0.00     0.037 A 
BRANCH  46  60
ATOM     60  C   UNL A   1      47.197  27.611  25.804  1.00  0.00     0.057 A 
ATOM     61  C   UNL A   1      47.297  27.664  24.407  1.00  0.00     0.134 A 
ATOM     62  C   UNL A   1      48.286  27.089  26.512  1.00  0.00     0.134 A 
ATOM     63  F   UNL A   1      46.280  28.134  23.669  1.00  0.00    -0.206 F 
ATOM     64  C   UNL A   1      48.424  27.181  23.739  1.00  0.00     0.040 A 
ATOM     65  C   UNL A   1      49.431  26.634  25.858  1.00  0.00     0.040 A 
ATOM     66  F   UNL A   1      48.255  27.011  27.851  1.00  0.00    -0.206 F 
ATOM     67  C   UNL A   1      49.497  26.670  24.466  1.00  0.00     0.006 A 
ENDBRANCH  46  60
BRANCH  47  68
ATOM     68  C   UNL A   1      38.980  30.184  30.838  1.00  0.00     0.057 A 
ATOM     69  C   UNL A   1      37.888  30.812  30.229  1.00  0.00     0.134 A 
ATOM     70  C   UNL A   1      38.884  29.910  32.208  1.00  0.00     0.134 A 
ATOM     71  F   UNL A   1      37.926  31.116  28.924  1.00  0.00    -0.206 F 
ATOM     72  C   UNL A   1      36.750  31.168  30.956  1.00  0.00     0.040 A 
ATOM     73  C   UNL A   1      37.742  30.238  32.942  1.00  0.00     0.040 A 
ATOM     74  F   UNL A   1      39.893  29.304  32.851  1.00  0.00    -0.206 F 
ATOM     75  C   UNL A   1      36.673  30.875  32.317  1.00  0.00     0.006 A 
ENDBRANCH  47  68
BRANCH  59  76
ATOM     76  C   UNL A   1      44.708  33.649  28.873  1.00  0.00     0.057 A 
ATOM     77  C   UNL A   1      44.337  34.648  27.965  1.00  0.00     0.134 A 
ATOM     78  C   UNL A   1      45.465  34.036  29.987  1.00  0.00     0.134 A 
ATOM     79  F   UNL A   1      43.626  34.342  26.869  1.00  0.00    -0.206 F 
ATOM     80  C   UNL A   1      44.717  35.978  28.152  1.00  0.00     0.040 A 
ATOM     81  C   UNL A   1      45.825  35.365  30.200  1.00  0.00     0.040 A 
ATOM     82  F   UNL A   1      45.849  33.128  30.898  1.00  0.00    -0.206 F 
ATOM     83  C   UNL A   1      45.454  36.341  29.278  1.00  0.00     0.006 A 
ENDBRANCH  59  76
ENDBRANCH  33  34
ENDBRANCH  26  28
ENDBRANCH  25  26
ENDBRANCH  24  25
ENDBRANCH  23  24
ENDBRANCH  22  23
ENDBRANCH   1  22
TORSDOF 18
ENDMDL
MODEL 2
REMARK VINA RESULT:     -10.0      4.454      7.732
REMARK SMILES CC[C@](C)(NC(=O)NCc1ccco1)C(=O)OCCOCCOC(=O)c1ccc(-c2c3nc(c(-c4c(F)cccc4F)c4ccc([nH]4)c(-c4c(F)cccc4F)c4nc(c(-c5c(F)cccc5F)c5ccc2[nH]5)C=C4)C=C3)cc1
REMARK SMILES IDX 19 1 18 2 17 3 15 4 16 5 3 6 4 7 2 8 1 9 5 10 6 11 7 13 8 14
REMARK SMILES IDX 9 16 10 17 11 18 14 19 12 20 13 21 20 22 21 23 22 24 23 25
REMARK SMILES IDX 24 26 25 27 26 28 27 29 79 30 28 31 78 32 29 33 30 34 31 35
REMARK SMILES IDX 72 36 32 37 77 38 71 39 73 40 33 41 76 42 70 43 69 44 34 46
REMARK SMILES IDX 60 47 43 48 59 49 44 50 47 51 58 52 74 53 45 54 46 55 57 57
REMARK SMILES IDX 75 58 48 59 35 60 36 61 41 62 37 63 38 64 40 65 42 66 39 67
REMARK SMILES IDX 61 68 62 69 67 70 63 71 64 72 66 73 68 74 65 75 49 76 50 77
REMARK SMILES IDX 55 78 51 79 52 80 54 81 56 82 53 83
REMARK H PARENT 5 12 8 15 73 45 47 56
REMARK Flexibility Score: inf
ROOT
ATOM      1  C   UNL A   1      31.003  29.732  24.603  1.00  0.00     0.202 C 
ENDROOT
BRANCH   1   2
ATOM      2  C   UNL A   1      31.397  28.467  23.831  1.00  0.00     0.261 C 
BRANCH   2   3
ATOM      3  O   UNL A   1      31.242  27.350  24.724  1.00  0.00    -0.462 OA
BRANCH   3   4
ATOM      4  C   UNL A   1      30.276  26.429  24.543  1.00  0.00     0.331 C 
ATOM      5  O   UNL A   1      29.125  26.724  24.243  1.00  0.00    -0.249 OA
BRANCH   4   6
ATOM      6  C   UNL A   1      30.773  24.951  24.869  1.00  0.00     0.136 C 
ATOM      7  C   UNL A   1      32.191  25.199  25.457  1.00  0.00     0.047 C 
BRANCH   6   8
ATOM      8  C   UNL A   1      30.956  24.073  23.591  1.00  0.00     0.037 C 
ATOM      9  C   UNL A   1      32.064  24.499  22.637  1.00  0.00     0.007 C 
ENDBRANCH   6   8
BRANCH   6  10
ATOM     10  N   UNL A   1      30.054  24.133  25.943  1.00  0.00    -0.322 N 
ATOM     11  C   UNL A   1      30.268  23.075  26.755  1.00  0.00     0.316 C 
ATOM     12  H   UNL A   1      29.149  24.491  26.088  1.00  0.00     0.166 HD
ATOM     13  O   UNL A   1      29.518  22.940  27.724  1.00  0.00    -0.249 OA
ATOM     14  N   UNL A   1      31.234  22.156  26.552  1.00  0.00    -0.331 N 
ATOM     15  H   UNL A   1      31.625  21.684  27.324  1.00  0.00     0.165 HD
BRANCH  14  16
ATOM     16  C   UNL A   1      31.695  21.857  25.248  1.00  0.00     0.193 C 
BRANCH  16  17
ATOM     17  C   UNL A   1      32.595  20.742  24.975  1.00  0.00     0.122 A 
ATOM     18  C   UNL A   1      33.916  20.547  24.671  1.00  0.00     0.047 A 
ATOM     19  O   UNL A   1      31.980  19.532  25.158  1.00  0.00    -0.467 OA
ATOM     20  C   UNL A   1      34.116  19.137  24.690  1.00  0.00     0.042 A 
ATOM     21  C   UNL A   1      32.904  18.569  24.985  1.00  0.00     0.195 A 
ENDBRANCH  16  17
ENDBRANCH  14  16
ENDBRANCH   6  10
ENDBRANCH   4   6
ENDBRANCH   3   4
ENDBRANCH   2   3
ENDBRANCH   1   2
BRANCH   1  22
ATOM     22  O   UNL A   1      32.064  30.264  25.400  1.00  0.00    -0.374 OA
BRANCH  22  23
ATOM     23  C   UNL A   1      31.719  30.739  26.702  1.00  0.00     0.202 C 
BRANCH  23  24
ATOM     24  C   UNL A   1      31.457  32.240  26.797  1.00  0.00     0.261 C 
BRANCH  24  25
ATOM     25  O   UNL A   1      32.660  33.018  26.634  1.00  0.00    -0.460 OA
BRANCH  25  26
ATOM     26  C   UNL A   1      33.164  33.554  27.770  1.00  0.00     0.338 C 
ATOM     27  O   UNL A   1      32.649  34.407  28.468  1.00  0.00    -0.246 OA
BRANCH  26  28
ATOM     28  C   UNL A   1      34.444  32.900  28.130  1.00  0.00     0.060 A 
ATOM     29  C   UNL A   1      34.394  31.591  28.624  1.00  0.00     0.016 A 
ATOM     30  C   UNL A   1      35.658  33.590  28.105  1.00  0.00     0.016 A 
ATOM     31  C   UNL A   1      35.540  30.992  29.158  1.00  0.00     0.010 A 
ATOM     32  C   UNL A   1      36.807  32.988  28.638  1.00  0.00     0.010 A 
ATOM     33  C   UNL A   1      36.748  31.701  29.209  1.00  0.00    -0.014 A 
BRANCH  33  34
ATOM     34  C   UNL A   1      37.905  31.180  29.997  1.00  0.00     0.031 A 
ATOM     35  C   UNL A   1      38.823  30.183  29.361  1.00  0.00     0.074 A 
ATOM     36  C   UNL A   1      38.151  31.567  31.261  1.00  0.00     0.049 A 
ATOM     37  N   UNL A   1      39.828  29.537  29.891  1.00  0.00    -0.248 NA
ATOM     38  C   UNL A   1      38.575  29.874  27.946  1.00  0.00     0.031 C 
ATOM     39  C   UNL A   1      37.383  32.572  31.965  1.00  0.00     0.029 A 
ATOM     40  N   UNL A   1      39.086  31.172  32.186  1.00  0.00    -0.354 N 
ATOM     41  C   UNL A   1      40.328  28.733  28.879  1.00  0.00     0.074 A 
ATOM     42  C   UNL A   1      39.491  28.946  27.716  1.00  0.00     0.031 C 
ATOM     43  C   UNL A   1      37.827  32.700  33.222  1.00  0.00     0.029 A 
ATOM     44  C   UNL A   1      38.923  31.761  33.419  1.00  0.00     0.049 A 
ATOM     45  H   UNL A   1      39.804  30.528  31.985  1.00  0.00     0.167 HD
ATOM     46  C   UNL A   1      41.394  27.901  28.916  1.00  0.00     0.037 A 
ATOM     47  C   UNL A   1      39.568  31.563  34.585  1.00  0.00     0.037 A 
ATOM     48  C   UNL A   1      42.218  27.690  30.077  1.00  0.00     0.049 A 
ATOM     49  C   UNL A   1      40.696  30.574  34.627  1.00  0.00     0.074 A 
ATOM     50  C   UNL A   1      43.331  26.878  30.203  1.00  0.00     0.029 A 
ATOM     51  N   UNL A   1      42.014  28.283  31.316  1.00  0.00    -0.354 N 
ATOM     52  N   UNL A   1      41.173  29.834  33.656  1.00  0.00    -0.248 NA
ATOM     53  C   UNL A   1      41.382  30.398  35.913  1.00  0.00     0.031 C 
ATOM     54  C   UNL A   1      43.763  26.931  31.532  1.00  0.00     0.029 A 
ATOM     55  C   UNL A   1      42.963  27.830  32.219  1.00  0.00     0.049 A 
ATOM     56  H   UNL A   1      41.301  28.929  31.522  1.00  0.00     0.167 HD
ATOM     57  C   UNL A   1      42.237  29.132  34.202  1.00  0.00     0.074 A 
ATOM     58  C   UNL A   1      42.336  29.535  35.590  1.00  0.00     0.031 C 
ATOM     59  C   UNL A   1      43.062  28.242  33.598  1.00  0.00     0.037 A 
BRANCH  46  60
ATOM     60  C   UNL A   1      41.692  27.127  27.667  1.00  0.00     0.057 A 
ATOM     61  C   UNL A   1      42.488  27.649  26.640  1.00  0.00     0.134 A 
ATOM     62  C   UNL A   1      41.163  25.843  27.489  1.00  0.00     0.134 A 
ATOM     63  F   UNL A   1      43.008  28.881  26.740  1.00  0.00    -0.206 F 
ATOM     64  C   UNL A   1      42.718  26.934  25.462  1.00  0.00     0.040 A 
ATOM     65  C   UNL A   1      41.413  25.106  26.331  1.00  0.00     0.040 A 
ATOM     66  F   UNL A   1      40.393  25.285  28.435  1.00  0.00    -0.206 F 
ATOM     67  C   UNL A   1      42.184  25.656  25.309  1.00  0.00     0.006 A 
ENDBRANCH  46  60
BRANCH  47  68
ATOM     68  C   UNL A   1      39.162  32.316  35.801  1.00  0.00     0.057 A 
ATOM     69  C   UNL A   1      38.276  31.766  36.734  1.00  0.00     0.134 A 
ATOM     70  C   UNL A   1      39.654  33.602  36.060  1.00  0.00     0.134 A 
ATOM     71  F   UNL A   1      37.757  30.546  36.534  1.00  0.00    -0.206 F 
ATOM     72  C   UNL A   1      37.882  32.472  37.873  1.00  0.00     0.040 A 
ATOM     73  C   UNL A   1      39.288  34.308  37.207  1.00  0.00     0.040 A 
ATOM     74  F   UNL A   1      40.513  34.183  35.210  1.00  0.00    -0.206 F 
ATOM     75  C   UNL A   1      38.393  33.746  38.115  1.00  0.00     0.006 A 
ENDBRANCH  47  68
BRANCH  59  76
ATOM     76  C   UNL A   1      44.185  27.677  34.417  1.00  0.00     0.057 A 
ATOM     77  C   UNL A   1      45.420  28.324  34.538  1.00  0.00     0.134 A 
ATOM     78  C   UNL A   1      44.003  26.491  35.141  1.00  0.00     0.134 A 
ATOM     79  F   UNL A   1      45.665  29.454  33.858  1.00  0.00    -0.206 F 
ATOM     80  C   UNL A   1      46.439  27.805  35.338  1.00  0.00     0.040 A 
ATOM     81  C   UNL A   1      45.001  25.978  35.967  1.00  0.00     0.040 A 
ATOM     82  F   UNL A   1      42.840  25.823  35.073  1.00  0.00    -0.206 F 
ATOM     83  C   UNL A   1      46.227  26.634  36.064  1.00  0.00     0.006 A 
ENDBRANCH  59  76
ENDBRANCH  33  34
ENDBRANCH  26  28
ENDBRANCH  25  26
ENDBRANCH  24  25
ENDBRANCH  23  24
ENDBRANCH  22  23
ENDBRANCH   1  22
TORSDOF 18
ENDMDL
MODEL 3
REMARK VINA RESULT:     -10.0      2.322      3.671
REMARK SMILES CC[C@](C)(NC(=O)NCc1ccco1)C(=O)OCCOCCOC(=O)c1ccc(-c2c3nc(c(-c4c(F)cccc4F)c4ccc([nH]4)c(-c4c(F)cccc4F)c4nc(c(-c5c(F)cccc5F)c5ccc2[nH]5)C=C4)C=C3)cc1
REMARK SMILES IDX 19 1 18 2 17 3 15 4 16 5 3 6 4 7 2 8 1 9 5 10 6 11 7 13 8 14
REMARK SMILES IDX 9 16 10 17 11 18 14 19 12 20 13 21 20 22 21 23 22 24 23 25
REMARK SMILES IDX 24 26 25 27 26 28 27 29 79 30 28 31 78 32 29 33 30 34 31 35
REMARK SMILES IDX 72 36 32 37 77 38 71 39 73 40 33 41 76 42 70 43 69 44 34 46
REMARK SMILES IDX 60 47 43 48 59 49 44 50 47 51 58 52 74 53 45 54 46 55 57 57
REMARK SMILES IDX 75 58 48 59 35 60 36 61 41 62 37 63 38 64 40 65 42 66 39 67
REMARK SMILES IDX 61 68 62 69 67 70 63 71 64 72 66 73 68 74 65 75 49 76 50 77
REMARK SMILES IDX 55 78 51 79 52 80 54 81 56 82 53 83
REMARK H PARENT 5 12 8 15 73 45 47 56
REMARK Flexibility Score: inf
ROOT
ATOM      1  C   UNL A   1      37.123  22.908  24.577  1.00  0.00     0.202 C 
ENDROOT
BRANCH   1   2
ATOM      2  C   UNL A   1      35.810  22.322  24.043  1.00  0.00     0.261 C 
BRANCH   2   3
ATOM      3  O   UNL A   1      34.744  22.837  24.860  1.00  0.00    -0.462 OA
BRANCH   3   4
ATOM      4  C   UNL A   1      34.081  22.054  25.733  1.00  0.00     0.331 C 
ATOM      5  O   UNL A   1      34.637  21.479  26.662  1.00  0.00    -0.249 OA
BRANCH   4   6
ATOM      6  C   UNL A   1      32.545  21.880  25.354  1.00  0.00     0.136 C 
ATOM      7  C   UNL A   1      32.430  20.346  25.124  1.00  0.00     0.047 C 
BRANCH   6   8
ATOM      8  C   UNL A   1      32.165  22.573  24.007  1.00  0.00     0.037 C 
ATOM      9  C   UNL A   1      32.128  21.674  22.778  1.00  0.00     0.007 C 
ENDBRANCH   6   8
BRANCH   6  10
ATOM     10  N   UNL A   1      31.470  22.189  26.398  1.00  0.00    -0.322 N 
ATOM     11  C   UNL A   1      30.752  23.232  26.868  1.00  0.00     0.316 C 
ATOM     12  H   UNL A   1      31.224  21.366  26.880  1.00  0.00     0.166 HD
ATOM     13  O   UNL A   1      29.734  22.977  27.514  1.00  0.00    -0.249 OA
ATOM     14  N   UNL A   1      31.098  24.523  26.689  1.00  0.00    -0.331 N 
ATOM     15  H   UNL A   1      30.396  25.214  26.657  1.00  0.00     0.165 HD
BRANCH  14  16
ATOM     16  C   UNL A   1      32.454  24.903  26.547  1.00  0.00     0.193 C 
BRANCH  16  17
ATOM     17  C   UNL A   1      32.860  26.069  25.771  1.00  0.00     0.122 A 
ATOM     18  C   UNL A   1      33.727  27.123  25.889  1.00  0.00     0.047 A 
ATOM     19  O   UNL A   1      32.286  26.080  24.527  1.00  0.00    -0.467 OA
ATOM     20  C   UNL A   1      33.688  27.800  24.636  1.00  0.00     0.042 A 
ATOM     21  C   UNL A   1      32.792  27.128  23.849  1.00  0.00     0.195 A 
ENDBRANCH  16  17
ENDBRANCH  14  16
ENDBRANCH   6  10
ENDBRANCH   4   6
ENDBRANCH   3   4
ENDBRANCH   2   3
ENDBRANCH   1   2
BRANCH   1  22
ATOM     22  O   UNL A   1      37.971  21.934  25.190  1.00  0.00    -0.374 OA
BRANCH  22  23
ATOM     23  C   UNL A   1      37.691  20.562  24.907  1.00  0.00     0.202 C 
BRANCH  23  24
ATOM     24  C   UNL A   1      38.882  19.615  25.038  1.00  0.00     0.261 C 
BRANCH  24  25
ATOM     25  O   UNL A   1      39.635  19.847  26.246  1.00  0.00    -0.460 OA
BRANCH  25  26
ATOM     26  C   UNL A   1      40.978  19.725  26.127  1.00  0.00     0.338 C 
ATOM     27  O   UNL A   1      41.587  18.792  25.637  1.00  0.00    -0.246 OA
BRANCH  26  28
ATOM     28  C   UNL A   1      41.656  20.947  26.615  1.00  0.00     0.060 A 
ATOM     29  C   UNL A   1      41.576  21.238  27.982  1.00  0.00     0.016 A 
ATOM     30  C   UNL A   1      42.254  21.859  25.742  1.00  0.00     0.016 A 
ATOM     31  C   UNL A   1      42.029  22.468  28.472  1.00  0.00     0.010 A 
ATOM     32  C   UNL A   1      42.710  23.091  26.234  1.00  0.00     0.010 A 
ATOM     33  C   UNL A   1      42.561  23.424  27.596  1.00  0.00    -0.014 A 
BRANCH  33  34
ATOM     34  C   UNL A   1      42.811  24.823  28.053  1.00  0.00     0.031 A 
ATOM     35  C   UNL A   1      44.200  25.219  28.445  1.00  0.00     0.074 A 
ATOM     36  C   UNL A   1      41.833  25.742  28.135  1.00  0.00     0.049 A 
ATOM     37  N   UNL A   1      44.621  26.347  28.953  1.00  0.00    -0.248 NA
ATOM     38  C   UNL A   1      45.251  24.213  28.236  1.00  0.00     0.031 C 
ATOM     39  C   UNL A   1      40.465  25.509  27.724  1.00  0.00     0.029 A 
ATOM     40  N   UNL A   1      41.813  27.036  28.594  1.00  0.00    -0.354 N 
ATOM     41  C   UNL A   1      45.985  26.184  29.140  1.00  0.00     0.074 A 
ATOM     42  C   UNL A   1      46.312  24.836  28.724  1.00  0.00     0.031 C 
ATOM     43  C   UNL A   1      39.712  26.586  27.980  1.00  0.00     0.029 A 
ATOM     44  C   UNL A   1      40.558  27.601  28.595  1.00  0.00     0.049 A 
ATOM     45  H   UNL A   1      42.620  27.514  28.895  1.00  0.00     0.167 HD
ATOM     46  C   UNL A   1      46.881  27.084  29.606  1.00  0.00     0.037 A 
ATOM     47  C   UNL A   1      40.125  28.792  29.049  1.00  0.00     0.037 A 
ATOM     48  C   UNL A   1      46.548  28.421  30.024  1.00  0.00     0.049 A 
ATOM     49  C   UNL A   1      41.123  29.745  29.640  1.00  0.00     0.074 A 
ATOM     50  C   UNL A   1      47.395  29.409  30.495  1.00  0.00     0.029 A 
ATOM     51  N   UNL A   1      45.267  28.954  30.033  1.00  0.00    -0.354 N 
ATOM     52  N   UNL A   1      42.415  29.587  29.791  1.00  0.00    -0.248 NA
ATOM     53  C   UNL A   1      40.613  31.039  30.111  1.00  0.00     0.031 C 
ATOM     54  C   UNL A   1      46.619  30.517  30.847  1.00  0.00     0.029 A 
ATOM     55  C   UNL A   1      45.297  30.248  30.531  1.00  0.00     0.049 A 
ATOM     56  H   UNL A   1      44.457  28.484  29.732  1.00  0.00     0.167 HD
ATOM     57  C   UNL A   1      42.880  30.774  30.341  1.00  0.00     0.074 A 
ATOM     58  C   UNL A   1      41.730  31.642  30.495  1.00  0.00     0.031 C 
ATOM     59  C   UNL A   1      44.149  31.111  30.674  1.00  0.00     0.037 A 
BRANCH  46  60
ATOM     60  C   UNL A   1      48.302  26.621  29.728  1.00  0.00     0.057 A 
ATOM     61  C   UNL A   1      49.232  26.793  28.695  1.00  0.00     0.134 A 
ATOM     62  C   UNL A   1      48.741  25.985  30.895  1.00  0.00     0.134 A 
ATOM     63  F   UNL A   1      48.871  27.376  27.542  1.00  0.00    -0.206 F 
ATOM     64  C   UNL A   1      50.539  26.315  28.805  1.00  0.00     0.040 A 
ATOM     65  C   UNL A   1      50.053  25.533  31.030  1.00  0.00     0.040 A 
ATOM     66  F   UNL A   1      47.901  25.791  31.923  1.00  0.00    -0.206 F 
ATOM     67  C   UNL A   1      50.954  25.688  29.978  1.00  0.00     0.006 A 
ENDBRANCH  46  60
BRANCH  47  68
ATOM     68  C   UNL A   1      38.684  29.147  28.962  1.00  0.00     0.057 A 
ATOM     69  C   UNL A   1      38.122  29.617  27.771  1.00  0.00     0.134 A 
ATOM     70  C   UNL A   1      37.835  29.022  30.070  1.00  0.00     0.134 A 
ATOM     71  F   UNL A   1      38.886  29.775  26.680  1.00  0.00    -0.206 F 
ATOM     72  C   UNL A   1      36.771  29.963  27.685  1.00  0.00     0.040 A 
ATOM     73  C   UNL A   1      36.477  29.341  29.991  1.00  0.00     0.040 A 
ATOM     74  F   UNL A   1      38.309  28.571  31.240  1.00  0.00    -0.206 F 
ATOM     75  C   UNL A   1      35.943  29.820  28.797  1.00  0.00     0.006 A 
ENDBRANCH  47  68
BRANCH  59  76
ATOM     76  C   UNL A   1      44.381  32.499  31.193  1.00  0.00     0.057 A 
ATOM     77  C   UNL A   1      44.614  33.586  30.340  1.00  0.00     0.134 A 
ATOM     78  C   UNL A   1      44.312  32.760  32.568  1.00  0.00     0.134 A 
ATOM     79  F   UNL A   1      44.707  33.402  29.015  1.00  0.00    -0.206 F 
ATOM     80  C   UNL A   1      44.785  34.878  30.838  1.00  0.00     0.040 A 
ATOM     81  C   UNL A   1      44.451  34.051  33.075  1.00  0.00     0.040 A 
ATOM     82  F   UNL A   1      44.087  31.764  33.439  1.00  0.00    -0.206 F 
ATOM     83  C   UNL A   1      44.693  35.115  32.209  1.00  0.00     0.006 A 
ENDBRANCH  59  76
ENDBRANCH  33  34
ENDBRANCH  26  28
ENDBRANCH  25  26
ENDBRANCH  24  25
ENDBRANCH  23  24
ENDBRANCH  22  23
ENDBRANCH   1  22
TORSDOF 18
ENDMDL
