MODEL 1
REMARK VINA RESULT:      -9.4      0.000      0.000
REMARK SMILES CC[C@@H]([NH3+])C(=O)NCCOCC(=O)OCCOCCOC(=O)c1ccc(-c2c3nc(c(-c4c(F)cccc4F)c4ccc([nH]4)c(-c4c(F)cccc4F)c4nc(c(-c5c(F)cccc5F)c5ccc2[nH]5)C=C4)C=C3)cc1
REMARK SMILES IDX 15 1 14 2 12 3 13 4 11 5 10 6 9 7 8 8 7 9 5 10 6 11 3 13
REMARK SMILES IDX 2 14 1 15 4 16 16 20 17 21 18 22 19 23 20 24 21 25 22 26
REMARK SMILES IDX 23 27 24 28 76 29 25 30 75 31 26 32 27 33 28 34 69 35 29 36
REMARK SMILES IDX 74 37 68 38 70 39 30 40 73 41 67 42 66 43 31 45 57 46 40 47
REMARK SMILES IDX 56 48 41 49 44 50 55 51 71 52 42 53 43 54 54 56 72 57 45 58
REMARK SMILES IDX 32 59 33 60 38 61 34 62 35 63 37 64 39 65 36 66 58 67 59 68
REMARK SMILES IDX 64 69 60 70 61 71 63 72 65 73 62 74 46 75 47 76 52 77 48 78
REMARK SMILES IDX 49 79 51 80 53 81 50 82
REMARK H PARENT 7 12 4 17 4 18 4 19 70 44 44 55
REMARK Flexibility Score: inf
ROOT
ATOM      1  C   UNL A   1      32.022  25.289  26.213  1.00  0.00     0.261 C 
ENDROOT
BRANCH   1   2
ATOM      2  O   UNL A   1      31.356  24.298  27.038  1.00  0.00    -0.462 OA
BRANCH   2   3
ATOM      3  C   UNL A   1      31.755  23.007  26.863  1.00  0.00     0.332 C 
ATOM      4  O   UNL A   1      31.178  22.183  26.163  1.00  0.00    -0.250 OA
BRANCH   3   5
ATOM      5  C   UNL A   1      33.013  22.646  27.674  1.00  0.00     0.282 C 
BRANCH   5   6
ATOM      6  O   UNL A   1      33.965  21.658  27.360  1.00  0.00    -0.368 OA
BRANCH   6   7
ATOM      7  C   UNL A   1      34.569  21.641  26.071  1.00  0.00     0.182 C 
BRANCH   7   8
ATOM      8  C   UNL A   1      34.094  20.606  25.028  1.00  0.00     0.144 C 
BRANCH   8   9
ATOM      9  N   UNL A   1      33.093  19.657  25.501  1.00  0.00    -0.349 N 
ATOM     10  C   UNL A   1      32.868  18.353  25.162  1.00  0.00     0.278 C 
ATOM     11  O   UNL A   1      32.153  17.698  25.929  1.00  0.00    -0.268 OA
ATOM     12  H   UNL A   1      32.475  20.017  26.177  1.00  0.00     0.163 HD
BRANCH  10  13
ATOM     13  C   UNL A   1      33.421  17.682  23.880  1.00  0.00     0.270 C 
BRANCH  13  14
ATOM     14  C   UNL A   1      33.804  16.221  24.113  1.00  0.00     0.072 C 
ATOM     15  C   UNL A   1      35.018  15.994  25.001  1.00  0.00     0.011 C 
ENDBRANCH  13  14
BRANCH  13  16
ATOM     16  N   UNL A   1      32.491  17.853  22.750  1.00  0.00    -0.347 N 
ATOM     17  H   UNL A   1      32.471  16.998  22.195  1.00  0.00     0.345 HD
ATOM     18  H   UNL A   1      32.804  18.630  22.168  1.00  0.00     0.345 HD
ATOM     19  H   UNL A   1      31.556  18.049  23.106  1.00  0.00     0.345 HD
ENDBRANCH  13  16
ENDBRANCH  10  13
ENDBRANCH   8   9
ENDBRANCH   7   8
ENDBRANCH   6   7
ENDBRANCH   5   6
ENDBRANCH   3   5
ENDBRANCH   2   3
ENDBRANCH   1   2
BRANCH   1  20
ATOM     20  C   UNL A   1      31.470  26.707  26.423  1.00  0.00     0.202 C 
BRANCH  20  21
ATOM     21  O   UNL A   1      32.294  27.770  25.943  1.00  0.00    -0.374 OA
BRANCH  21  22
ATOM     22  C   UNL A   1      31.606  28.980  25.658  1.00  0.00     0.202 C 
BRANCH  22  23
ATOM     23  C   UNL A   1      32.429  30.254  25.841  1.00  0.00     0.261 C 
BRANCH  23  24
ATOM     24  O   UNL A   1      32.641  30.515  27.232  1.00  0.00    -0.460 OA
BRANCH  24  25
ATOM     25  C   UNL A   1      33.308  31.664  27.471  1.00  0.00     0.338 C 
ATOM     26  O   UNL A   1      32.860  32.793  27.538  1.00  0.00    -0.246 OA
BRANCH  25  27
ATOM     27  C   UNL A   1      34.687  31.323  27.839  1.00  0.00     0.060 A 
ATOM     28  C   UNL A   1      34.956  29.970  28.051  1.00  0.00     0.016 A 
ATOM     29  C   UNL A   1      35.676  32.298  28.001  1.00  0.00     0.016 A 
ATOM     30  C   UNL A   1      36.205  29.587  28.510  1.00  0.00     0.010 A 
ATOM     31  C   UNL A   1      36.935  31.910  28.461  1.00  0.00     0.010 A 
ATOM     32  C   UNL A   1      37.181  30.560  28.766  1.00  0.00    -0.014 A 
BRANCH  32  33
ATOM     33  C   UNL A   1      38.386  30.153  29.516  1.00  0.00     0.031 A 
ATOM     34  C   UNL A   1      38.536  30.613  30.938  1.00  0.00     0.074 A 
ATOM     35  C   UNL A   1      39.267  29.303  28.964  1.00  0.00     0.049 A 
ATOM     36  N   UNL A   1      39.453  30.301  31.817  1.00  0.00    -0.248 NA
ATOM     37  C   UNL A   1      37.513  31.545  31.441  1.00  0.00     0.031 C 
ATOM     38  C   UNL A   1      39.185  28.771  27.604  1.00  0.00     0.029 A 
ATOM     39  N   UNL A   1      40.388  28.721  29.490  1.00  0.00    -0.354 N 
ATOM     40  C   UNL A   1      39.118  30.997  32.971  1.00  0.00     0.074 A 
ATOM     41  C   UNL A   1      37.938  31.776  32.674  1.00  0.00     0.031 C 
ATOM     42  C   UNL A   1      40.210  27.924  27.408  1.00  0.00     0.029 A 
ATOM     43  C   UNL A   1      41.027  27.876  28.618  1.00  0.00     0.049 A 
ATOM     44  H   UNL A   1      40.706  28.893  30.406  1.00  0.00     0.167 HD
ATOM     45  C   UNL A   1      39.735  30.975  34.175  1.00  0.00     0.037 A 
ATOM     46  C   UNL A   1      42.147  27.150  28.785  1.00  0.00     0.037 A 
ATOM     47  C   UNL A   1      40.907  30.190  34.460  1.00  0.00     0.049 A 
ATOM     48  C   UNL A   1      42.844  27.187  30.117  1.00  0.00     0.074 A 
ATOM     49  C   UNL A   1      41.602  30.076  35.650  1.00  0.00     0.029 A 
ATOM     50  N   UNL A   1      41.560  29.388  33.535  1.00  0.00    -0.354 N 
ATOM     51  N   UNL A   1      42.504  27.823  31.214  1.00  0.00    -0.248 NA
ATOM     52  C   UNL A   1      44.077  26.398  30.238  1.00  0.00     0.031 C 
ATOM     53  C   UNL A   1      42.708  29.246  35.430  1.00  0.00     0.029 A 
ATOM     54  C   UNL A   1      42.669  28.799  34.119  1.00  0.00     0.049 A 
ATOM     55  H   UNL A   1      41.277  29.257  32.601  1.00  0.00     0.167 HD
ATOM     56  C   UNL A   1      43.464  27.492  32.160  1.00  0.00     0.074 A 
ATOM     57  C   UNL A   1      44.388  26.583  31.512  1.00  0.00     0.031 C 
ATOM     58  C   UNL A   1      43.575  27.901  33.449  1.00  0.00     0.037 A 
BRANCH  45  59
ATOM     59  C   UNL A   1      39.173  31.851  35.257  1.00  0.00     0.057 A 
ATOM     60  C   UNL A   1      38.292  31.362  36.230  1.00  0.00     0.134 A 
ATOM     61  C   UNL A   1      39.534  33.202  35.335  1.00  0.00     0.134 A 
ATOM     62  F   UNL A   1      37.890  30.082  36.202  1.00  0.00    -0.206 F 
ATOM     63  C   UNL A   1      37.772  32.190  37.227  1.00  0.00     0.040 A 
ATOM     64  C   UNL A   1      39.042  34.033  36.342  1.00  0.00     0.040 A 
ATOM     65  F   UNL A   1      40.374  33.737  34.435  1.00  0.00    -0.206 F 
ATOM     66  C   UNL A   1      38.153  33.529  37.289  1.00  0.00     0.006 A 
ENDBRANCH  45  59
BRANCH  46  67
ATOM     67  C   UNL A   1      42.673  26.328  27.667  1.00  0.00     0.057 A 
ATOM     68  C   UNL A   1      43.536  26.870  26.708  1.00  0.00     0.134 A 
ATOM     69  C   UNL A   1      42.316  24.981  27.525  1.00  0.00     0.134 A 
ATOM     70  F   UNL A   1      43.900  28.160  26.779  1.00  0.00    -0.206 F 
ATOM     71  C   UNL A   1      44.011  26.109  25.639  1.00  0.00     0.040 A 
ATOM     72  C   UNL A   1      42.804  24.201  26.477  1.00  0.00     0.040 A 
ATOM     73  F   UNL A   1      41.497  24.400  28.414  1.00  0.00    -0.206 F 
ATOM     74  C   UNL A   1      43.648  24.768  25.524  1.00  0.00     0.006 A 
ENDBRANCH  46  67
BRANCH  58  75
ATOM     75  C   UNL A   1      44.722  27.343  34.241  1.00  0.00     0.057 A 
ATOM     76  C   UNL A   1      45.957  28.000  34.320  1.00  0.00     0.134 A 
ATOM     77  C   UNL A   1      44.583  26.140  34.946  1.00  0.00     0.134 A 
ATOM     78  F   UNL A   1      46.160  29.149  33.657  1.00  0.00    -0.206 F 
ATOM     79  C   UNL A   1      47.024  27.463  35.042  1.00  0.00     0.040 A 
ATOM     80  C   UNL A   1      45.632  25.610  35.697  1.00  0.00     0.040 A 
ATOM     81  F   UNL A   1      43.423  25.468  34.924  1.00  0.00    -0.206 F 
ATOM     82  C   UNL A   1      46.860  26.266  35.737  1.00  0.00     0.006 A 
ENDBRANCH  58  75
ENDBRANCH  32  33
ENDBRANCH  25  27
ENDBRANCH  24  25
ENDBRANCH  23  24
ENDBRANCH  22  23
ENDBRANCH  21  22
ENDBRANCH  20  21
ENDBRANCH   1  20
TORSDOF 21
ENDMDL
MODEL 2
REMARK VINA RESULT:      -9.3      4.382      9.582
REMARK SMILES CC[C@@H]([NH3+])C(=O)NCCOCC(=O)OCCOCCOC(=O)c1ccc(-c2c3nc(c(-c4c(F)cccc4F)c4ccc([nH]4)c(-c4c(F)cccc4F)c4nc(c(-c5c(F)cccc5F)c5ccc2[nH]5)C=C4)C=C3)cc1
REMARK SMILES IDX 15 1 14 2 12 3 13 4 11 5 10 6 9 7 8 8 7 9 5 10 6 11 3 13
REMARK SMILES IDX 2 14 1 15 4 16 16 20 17 21 18 22 19 23 20 24 21 25 22 26
REMARK SMILES IDX 23 27 24 28 76 29 25 30 75 31 26 32 27 33 28 34 69 35 29 36
REMARK SMILES IDX 74 37 68 38 70 39 30 40 73 41 67 42 66 43 31 45 57 46 40 47
REMARK SMILES IDX 56 48 41 49 44 50 55 51 71 52 42 53 43 54 54 56 72 57 45 58
REMARK SMILES IDX 32 59 33 60 38 61 34 62 35 63 37 64 39 65 36 66 58 67 59 68
REMARK SMILES IDX 64 69 60 70 61 71 63 72 65 73 62 74 46 75 47 76 52 77 48 78
REMARK SMILES IDX 49 79 51 80 53 81 50 82
REMARK H PARENT 7 12 4 17 4 18 4 19 70 44 44 55
REMARK Flexibility Score: inf
ROOT
ATOM      1  C   UNL A   1      34.119  23.826  24.232  1.00  0.00     0.261 C 
ENDROOT
BRANCH   1   2
ATOM      2  O   UNL A   1      34.407  23.754  22.812  1.00  0.00    -0.462 OA
BRANCH   2   3
ATOM      3  C   UNL A   1      33.407  24.153  21.977  1.00  0.00     0.332 C 
ATOM      4  O   UNL A   1      33.338  23.881  20.784  1.00  0.00    -0.250 OA
BRANCH   3   5
ATOM      5  C   UNL A   1      32.355  25.036  22.671  1.00  0.00     0.282 C 
BRANCH   5   6
ATOM      6  O   UNL A   1      30.983  24.756  22.819  1.00  0.00    -0.368 OA
BRANCH   6   7
ATOM      7  C   UNL A   1      30.326  25.060  24.045  1.00  0.00     0.182 C 
BRANCH   7   8
ATOM      8  C   UNL A   1      29.691  26.455  24.235  1.00  0.00     0.144 C 
BRANCH   8   9
ATOM      9  N   UNL A   1      30.630  27.538  24.506  1.00  0.00    -0.349 N 
ATOM     10  C   UNL A   1      30.759  28.772  23.934  1.00  0.00     0.278 C 
ATOM     11  O   UNL A   1      31.436  29.600  24.554  1.00  0.00    -0.268 OA
ATOM     12  H   UNL A   1      31.281  27.347  25.219  1.00  0.00     0.163 HD
BRANCH  10  13
ATOM     13  C   UNL A   1      30.143  29.164  22.568  1.00  0.00     0.270 C 
BRANCH  13  14
ATOM     14  C   UNL A   1      28.817  29.908  22.726  1.00  0.00     0.072 C 
ATOM     15  C   UNL A   1      28.114  30.279  21.429  1.00  0.00     0.011 C 
ENDBRANCH  13  14
BRANCH  13  16
ATOM     16  N   UNL A   1      31.114  29.900  21.741  1.00  0.00    -0.347 N 
ATOM     17  H   UNL A   1      31.388  30.757  22.221  1.00  0.00     0.345 HD
ATOM     18  H   UNL A   1      30.690  30.133  20.844  1.00  0.00     0.345 HD
ATOM     19  H   UNL A   1      31.938  29.320  21.587  1.00  0.00     0.345 HD
ENDBRANCH  13  16
ENDBRANCH  10  13
ENDBRANCH   8   9
ENDBRANCH   7   8
ENDBRANCH   6   7
ENDBRANCH   5   6
ENDBRANCH   3   5
ENDBRANCH   2   3
ENDBRANCH   1   2
BRANCH   1  20
ATOM     20  C   UNL A   1      34.684  22.632  25.015  1.00  0.00     0.202 C 
BRANCH  20  21
ATOM     21  O   UNL A   1      35.526  21.747  24.274  1.00  0.00    -0.374 OA
BRANCH  21  22
ATOM     22  C   UNL A   1      35.960  20.596  24.985  1.00  0.00     0.202 C 
BRANCH  22  23
ATOM     23  C   UNL A   1      37.469  20.354  24.969  1.00  0.00     0.261 C 
BRANCH  23  24
ATOM     24  O   UNL A   1      38.163  21.501  25.467  1.00  0.00    -0.460 OA
BRANCH  24  25
ATOM     25  C   UNL A   1      39.333  21.205  26.072  1.00  0.00     0.338 C 
ATOM     26  O   UNL A   1      39.997  20.191  25.967  1.00  0.00    -0.246 OA
BRANCH  25  27
ATOM     27  C   UNL A   1      39.807  22.409  26.764  1.00  0.00     0.060 A 
ATOM     28  C   UNL A   1      39.189  23.610  26.413  1.00  0.00     0.016 A 
ATOM     29  C   UNL A   1      40.842  22.368  27.703  1.00  0.00     0.016 A 
ATOM     30  C   UNL A   1      39.662  24.800  26.942  1.00  0.00     0.010 A 
ATOM     31  C   UNL A   1      41.316  23.567  28.237  1.00  0.00     0.010 A 
ATOM     32  C   UNL A   1      40.758  24.786  27.814  1.00  0.00    -0.014 A 
BRANCH  32  33
ATOM     33  C   UNL A   1      41.409  26.074  28.129  1.00  0.00     0.031 A 
ATOM     34  C   UNL A   1      42.785  26.335  27.586  1.00  0.00     0.074 A 
ATOM     35  C   UNL A   1      40.734  27.024  28.796  1.00  0.00     0.049 A 
ATOM     36  N   UNL A   1      43.507  27.423  27.648  1.00  0.00    -0.248 NA
ATOM     37  C   UNL A   1      43.433  25.223  26.871  1.00  0.00     0.031 C 
ATOM     38  C   UNL A   1      39.380  26.878  29.330  1.00  0.00     0.029 A 
ATOM     39  N   UNL A   1      41.089  28.306  29.116  1.00  0.00    -0.354 N 
ATOM     40  C   UNL A   1      44.691  27.128  26.983  1.00  0.00     0.074 A 
ATOM     41  C   UNL A   1      44.608  25.748  26.558  1.00  0.00     0.031 C 
ATOM     42  C   UNL A   1      39.011  28.037  29.900  1.00  0.00     0.029 A 
ATOM     43  C   UNL A   1      40.111  28.993  29.790  1.00  0.00     0.049 A 
ATOM     44  H   UNL A   1      41.962  28.698  28.885  1.00  0.00     0.167 HD
ATOM     45  C   UNL A   1      45.744  27.940  26.740  1.00  0.00     0.037 A 
ATOM     46  C   UNL A   1      40.111  30.252  30.264  1.00  0.00     0.037 A 
ATOM     47  C   UNL A   1      45.811  29.313  27.163  1.00  0.00     0.049 A 
ATOM     48  C   UNL A   1      41.319  31.116  30.027  1.00  0.00     0.074 A 
ATOM     49  C   UNL A   1      46.820  30.235  26.953  1.00  0.00     0.029 A 
ATOM     50  N   UNL A   1      44.824  29.959  27.894  1.00  0.00    -0.354 N 
ATOM     51  N   UNL A   1      42.421  30.839  29.371  1.00  0.00    -0.248 NA
ATOM     52  C   UNL A   1      41.280  32.473  30.590  1.00  0.00     0.031 C 
ATOM     53  C   UNL A   1      46.468  31.423  27.602  1.00  0.00     0.029 A 
ATOM     54  C   UNL A   1      45.213  31.260  28.168  1.00  0.00     0.049 A 
ATOM     55  H   UNL A   1      43.972  29.554  28.175  1.00  0.00     0.167 HD
ATOM     56  C   UNL A   1      43.194  31.991  29.419  1.00  0.00     0.074 A 
ATOM     57  C   UNL A   1      42.424  32.976  30.153  1.00  0.00     0.031 C 
ATOM     58  C   UNL A   1      44.429  32.218  28.905  1.00  0.00     0.037 A 
BRANCH  45  59
ATOM     59  C   UNL A   1      46.919  27.351  26.013  1.00  0.00     0.057 A 
ATOM     60  C   UNL A   1      47.064  27.455  24.623  1.00  0.00     0.134 A 
ATOM     61  C   UNL A   1      47.929  26.685  26.718  1.00  0.00     0.134 A 
ATOM     62  F   UNL A   1      46.123  28.064  23.884  1.00  0.00    -0.206 F 
ATOM     63  C   UNL A   1      48.158  26.897  23.959  1.00  0.00     0.040 A 
ATOM     64  C   UNL A   1      49.041  26.147  26.070  1.00  0.00     0.040 A 
ATOM     65  F   UNL A   1      47.853  26.549  28.051  1.00  0.00    -0.206 F 
ATOM     66  C   UNL A   1      49.155  26.246  24.685  1.00  0.00     0.006 A 
ENDBRANCH  45  59
BRANCH  46  67
ATOM     67  C   UNL A   1      38.933  30.768  31.005  1.00  0.00     0.057 A 
ATOM     68  C   UNL A   1      37.920  31.482  30.354  1.00  0.00     0.134 A 
ATOM     69  C   UNL A   1      38.798  30.569  32.384  1.00  0.00     0.134 A 
ATOM     70  F   UNL A   1      38.002  31.722  29.037  1.00  0.00    -0.206 F 
ATOM     71  C   UNL A   1      36.825  31.995  31.051  1.00  0.00     0.040 A 
ATOM     72  C   UNL A   1      37.696  31.053  33.089  1.00  0.00     0.040 A 
ATOM     73  F   UNL A   1      39.732  29.889  33.065  1.00  0.00    -0.206 F 
ATOM     74  C   UNL A   1      36.708  31.776  32.423  1.00  0.00     0.006 A 
ENDBRANCH  46  67
BRANCH  58  75
ATOM     75  C   UNL A   1      45.002  33.592  29.100  1.00  0.00     0.057 A 
ATOM     76  C   UNL A   1      44.759  34.632  28.194  1.00  0.00     0.134 A 
ATOM     77  C   UNL A   1      45.796  33.881  30.219  1.00  0.00     0.134 A 
ATOM     78  F   UNL A   1      44.019  34.418  27.096  1.00  0.00    -0.206 F 
ATOM     79  C   UNL A   1      45.314  35.900  28.374  1.00  0.00     0.040 A 
ATOM     80  C   UNL A   1      46.329  35.153  30.426  1.00  0.00     0.040 A 
ATOM     81  F   UNL A   1      46.056  32.933  31.132  1.00  0.00    -0.206 F 
ATOM     82  C   UNL A   1      46.097  36.164  29.496  1.00  0.00     0.006 A 
ENDBRANCH  58  75
ENDBRANCH  32  33
ENDBRANCH  25  27
ENDBRANCH  24  25
ENDBRANCH  23  24
ENDBRANCH  22  23
ENDBRANCH  21  22
ENDBRANCH  20  21
ENDBRANCH   1  20
TORSDOF 21
ENDMDL
MODEL 3
REMARK VINA RESULT:      -9.2      4.291      9.661
REMARK SMILES CC[C@@H]([NH3+])C(=O)NCCOCC(=O)OCCOCCOC(=O)c1ccc(-c2c3nc(c(-c4c(F)cccc4F)c4ccc([nH]4)c(-c4c(F)cccc4F)c4nc(c(-c5c(F)cccc5F)c5ccc2[nH]5)C=C4)C=C3)cc1
REMARK SMILES IDX 15 1 14 2 12 3 13 4 11 5 10 6 9 7 8 8 7 9 5 10 6 11 3 13
REMARK SMILES IDX 2 14 1 15 4 16 16 20 17 21 18 22 19 23 20 24 21 25 22 26
REMARK SMILES IDX 23 27 24 28 76 29 25 30 75 31 26 32 27 33 28 34 69 35 29 36
REMARK SMILES IDX 74 37 68 38 70 39 30 40 73 41 67 42 66 43 31 45 57 46 40 47
REMARK SMILES IDX 56 48 41 49 44 50 55 51 71 52 42 53 43 54 54 56 72 57 45 58
REMARK SMILES IDX 32 59 33 60 38 61 34 62 35 63 37 64 39 65 36 66 58 67 59 68
REMARK SMILES IDX 64 69 60 70 61 71 63 72 65 73 62 74 46 75 47 76 52 77 48 78
REMARK SMILES IDX 49 79 51 80 53 81 50 82
REMARK H PARENT 7 12 4 17 4 18 4 19 70 44 44 55
REMARK Flexibility Score: inf
ROOT
ATOM      1  C   UNL A   1      33.368  22.923  25.281  1.00  0.00     0.261 C 
ENDROOT
BRANCH   1   2
ATOM      2  O   UNL A   1      32.152  22.658  26.028  1.00  0.00    -0.462 OA
BRANCH   2   3
ATOM      3  C   UNL A   1      31.381  23.742  26.321  1.00  0.00     0.332 C 
ATOM      4  O   UNL A   1      30.581  23.804  27.248  1.00  0.00    -0.250 OA
BRANCH   3   5
ATOM      5  C   UNL A   1      31.575  24.908  25.335  1.00  0.00     0.282 C 
BRANCH   5   6
ATOM      6  O   UNL A   1      31.251  26.261  25.554  1.00  0.00    -0.368 OA
BRANCH   6   7
ATOM      7  C   UNL A   1      31.935  27.278  24.830  1.00  0.00     0.182 C 
BRANCH   7   8
ATOM      8  C   UNL A   1      31.186  28.580  24.469  1.00  0.00     0.144 C 
BRANCH   8   9
ATOM      9  N   UNL A   1      30.834  28.729  23.062  1.00  0.00    -0.349 N 
ATOM     10  C   UNL A   1      29.811  29.409  22.464  1.00  0.00     0.278 C 
ATOM     11  O   UNL A   1      29.921  29.619  21.251  1.00  0.00    -0.268 OA
ATOM     12  H   UNL A   1      31.433  28.259  22.438  1.00  0.00     0.163 HD
BRANCH  10  13
ATOM     13  C   UNL A   1      28.538  29.889  23.205  1.00  0.00     0.270 C 
BRANCH  13  14
ATOM     14  C   UNL A   1      28.684  31.314  23.738  1.00  0.00     0.072 C 
ATOM     15  C   UNL A   1      28.048  32.402  22.886  1.00  0.00     0.011 C 
ENDBRANCH  13  14
BRANCH  13  16
ATOM     16  N   UNL A   1      27.340  29.714  22.367  1.00  0.00    -0.347 N 
ATOM     17  H   UNL A   1      26.513  29.666  22.962  1.00  0.00     0.345 HD
ATOM     18  H   UNL A   1      27.424  28.852  21.829  1.00  0.00     0.345 HD
ATOM     19  H   UNL A   1      27.253  30.505  21.729  1.00  0.00     0.345 HD
ENDBRANCH  13  16
ENDBRANCH  10  13
ENDBRANCH   8   9
ENDBRANCH   7   8
ENDBRANCH   6   7
ENDBRANCH   5   6
ENDBRANCH   3   5
ENDBRANCH   2   3
ENDBRANCH   1   2
BRANCH   1  20
ATOM     20  C   UNL A   1      33.672  21.840  24.235  1.00  0.00     0.202 C 
BRANCH  20  21
ATOM     21  O   UNL A   1      34.764  20.972  24.542  1.00  0.00    -0.374 OA
BRANCH  21  22
ATOM     22  C   UNL A   1      35.922  21.621  25.049  1.00  0.00     0.202 C 
BRANCH  22  23
ATOM     23  C   UNL A   1      37.136  20.716  25.256  1.00  0.00     0.261 C 
BRANCH  23  24
ATOM     24  O   UNL A   1      38.345  21.468  25.127  1.00  0.00    -0.460 OA
BRANCH  24  25
ATOM     25  C   UNL A   1      39.302  21.109  26.009  1.00  0.00     0.338 C 
ATOM     26  O   UNL A   1      39.835  20.023  26.138  1.00  0.00    -0.246 OA
BRANCH  25  27
ATOM     27  C   UNL A   1      39.761  22.317  26.703  1.00  0.00     0.060 A 
ATOM     28  C   UNL A   1      39.136  23.513  26.346  1.00  0.00     0.016 A 
ATOM     29  C   UNL A   1      40.789  22.286  27.651  1.00  0.00     0.016 A 
ATOM     30  C   UNL A   1      39.595  24.707  26.877  1.00  0.00     0.010 A 
ATOM     31  C   UNL A   1      41.249  23.489  28.186  1.00  0.00     0.010 A 
ATOM     32  C   UNL A   1      40.685  24.703  27.758  1.00  0.00    -0.014 A 
BRANCH  32  33
ATOM     33  C   UNL A   1      41.323  25.996  28.076  1.00  0.00     0.031 A 
ATOM     34  C   UNL A   1      42.702  26.267  27.545  1.00  0.00     0.074 A 
ATOM     35  C   UNL A   1      40.634  26.943  28.734  1.00  0.00     0.049 A 
ATOM     36  N   UNL A   1      43.415  27.361  27.611  1.00  0.00    -0.248 NA
ATOM     37  C   UNL A   1      43.365  25.158  26.838  1.00  0.00     0.031 C 
ATOM     38  C   UNL A   1      39.276  26.788  29.255  1.00  0.00     0.029 A 
ATOM     39  N   UNL A   1      40.976  28.228  29.055  1.00  0.00    -0.354 N 
ATOM     40  C   UNL A   1      44.607  27.073  26.958  1.00  0.00     0.074 A 
ATOM     41  C   UNL A   1      44.539  25.691  26.535  1.00  0.00     0.031 C 
ATOM     42  C   UNL A   1      38.894  27.946  29.819  1.00  0.00     0.029 A 
ATOM     43  C   UNL A   1      39.987  28.909  29.718  1.00  0.00     0.049 A 
ATOM     44  H   UNL A   1      41.849  28.626  28.831  1.00  0.00     0.167 HD
ATOM     45  C   UNL A   1      45.657  27.892  26.723  1.00  0.00     0.037 A 
ATOM     46  C   UNL A   1      39.973  30.169  30.189  1.00  0.00     0.037 A 
ATOM     47  C   UNL A   1      45.709  29.267  27.144  1.00  0.00     0.049 A 
ATOM     48  C   UNL A   1      41.177  31.042  29.961  1.00  0.00     0.074 A 
ATOM     49  C   UNL A   1      46.713  30.196  26.941  1.00  0.00     0.029 A 
ATOM     50  N   UNL A   1      44.711  29.907  27.863  1.00  0.00    -0.354 N 
ATOM     51  N   UNL A   1      42.287  30.772  29.316  1.00  0.00    -0.248 NA
ATOM     52  C   UNL A   1      41.122  32.400  30.520  1.00  0.00     0.031 C 
ATOM     53  C   UNL A   1      46.346  31.383  27.584  1.00  0.00     0.029 A 
ATOM     54  C   UNL A   1      45.087  31.211  28.139  1.00  0.00     0.049 A 
ATOM     55  H   UNL A   1      43.859  29.496  28.137  1.00  0.00     0.167 HD
ATOM     56  C   UNL A   1      43.051  31.930  29.369  1.00  0.00     0.074 A 
ATOM     57  C   UNL A   1      42.267  32.910  30.093  1.00  0.00     0.031 C 
ATOM     58  C   UNL A   1      44.289  32.166  28.866  1.00  0.00     0.037 A 
BRANCH  45  59
ATOM     59  C   UNL A   1      46.843  27.311  26.008  1.00  0.00     0.057 A 
ATOM     60  C   UNL A   1      47.863  26.633  26.687  1.00  0.00     0.134 A 
ATOM     61  C   UNL A   1      46.955  27.418  24.616  1.00  0.00     0.134 A 
ATOM     62  F   UNL A   1      47.829  26.511  28.023  1.00  0.00    -0.206 F 
ATOM     63  C   UNL A   1      48.964  26.103  26.010  1.00  0.00     0.040 A 
ATOM     64  C   UNL A   1      48.036  26.870  23.926  1.00  0.00     0.040 A 
ATOM     65  F   UNL A   1      46.013  28.055  23.904  1.00  0.00    -0.206 F 
ATOM     66  C   UNL A   1      49.049  26.215  24.623  1.00  0.00     0.006 A 
ENDBRANCH  45  59
BRANCH  46  67
ATOM     67  C   UNL A   1      38.785  30.678  30.917  1.00  0.00     0.057 A 
ATOM     68  C   UNL A   1      38.632  30.475  32.294  1.00  0.00     0.134 A 
ATOM     69  C   UNL A   1      37.766  31.370  30.251  1.00  0.00     0.134 A 
ATOM     70  F   UNL A   1      39.565  29.802  32.985  1.00  0.00    -0.206 F 
ATOM     71  C   UNL A   1      37.502  30.926  32.978  1.00  0.00     0.040 A 
ATOM     72  C   UNL A   1      36.644  31.850  30.926  1.00  0.00     0.040 A 
ATOM     73  F   UNL A   1      37.854  31.601  28.933  1.00  0.00    -0.206 F 
ATOM     74  C   UNL A   1      36.505  31.621  32.294  1.00  0.00     0.006 A 
ENDBRANCH  46  67
BRANCH  58  75
ATOM     75  C   UNL A   1      44.850  33.544  29.063  1.00  0.00     0.057 A 
ATOM     76  C   UNL A   1      44.559  34.595  28.184  1.00  0.00     0.134 A 
ATOM     77  C   UNL A   1      45.680  33.825  30.157  1.00  0.00     0.134 A 
ATOM     78  F   UNL A   1      43.782  34.388  27.111  1.00  0.00    -0.206 F 
ATOM     79  C   UNL A   1      45.102  35.868  28.366  1.00  0.00     0.040 A 
ATOM     80  C   UNL A   1      46.203  35.101  30.365  1.00  0.00     0.040 A 
ATOM     81  F   UNL A   1      45.987  32.867  31.044  1.00  0.00    -0.206 F 
ATOM     82  C   UNL A   1      45.923  36.124  29.462  1.00  0.00     0.006 A 
ENDBRANCH  58  75
ENDBRANCH  32  33
ENDBRANCH  25  27
ENDBRANCH  24  25
ENDBRANCH  23  24
ENDBRANCH  22  23
ENDBRANCH  21  22
ENDBRANCH  20  21
ENDBRANCH   1  20
TORSDOF 21
ENDMDL
