MODEL 1
REMARK VINA RESULT:     -11.0      0.000      0.000
REMARK SMILES C[C@]12CCC(=O)N1[C@@H](C(=O)N1C[C@H](O)C[C@@H]1C(=O)OCCOCCOC(=O)c1ccc(-c3c4nc(c(-c5c(F)cccc5F)c5ccc([nH]5)c(-c5c(F)cccc5F)c5nc(c(-c6c(F)cccc6F)c6ccc3[nH]6)C=C5)C=C4)cc1)CS2
REMARK SMILES IDX 22 1 21 2 20 3 19 4 17 5 18 6 16 7 11 8 12 9 13 10 15 11
REMARK SMILES IDX 9 12 10 13 8 14 1 15 2 16 3 17 7 18 83 19 4 20 5 21 82 22
REMARK SMILES IDX 6 23 14 24 23 26 24 27 25 28 26 29 27 30 28 31 29 32 81 33
REMARK SMILES IDX 30 34 80 35 31 36 32 37 33 38 74 39 34 40 79 41 73 42 75 43
REMARK SMILES IDX 35 44 78 45 72 46 71 47 36 49 62 50 45 51 61 52 46 53 49 54
REMARK SMILES IDX 60 55 76 56 47 57 48 58 59 60 77 61 50 62 37 63 38 64 43 65
REMARK SMILES IDX 39 66 40 67 42 68 44 69 41 70 63 71 64 72 69 73 65 74 66 75
REMARK SMILES IDX 68 76 70 77 67 78 51 79 52 80 57 81 53 82 54 83 56 84 58 85
REMARK SMILES IDX 55 86
REMARK H PARENT 14 25 75 48 49 59
REMARK Flexibility Score: inf
ROOT
ATOM      1  O   UNL A   1      32.057  30.555  26.878  1.00  0.00    -0.374 OA
ENDROOT
BRANCH   1   2
ATOM      2  C   UNL A   1      32.943  29.877  25.979  1.00  0.00     0.202 C 
BRANCH   2   3
ATOM      3  C   UNL A   1      32.294  29.150  24.786  1.00  0.00     0.261 C 
BRANCH   3   4
ATOM      4  O   UNL A   1      33.084  29.310  23.583  1.00  0.00    -0.462 OA
BRANCH   4   5
ATOM      5  C   UNL A   1      33.328  28.183  22.837  1.00  0.00     0.329 C 
ATOM      6  O   UNL A   1      34.334  28.015  22.160  1.00  0.00    -0.250 OA
BRANCH   5   7
ATOM      7  C   UNL A   1      32.323  27.058  23.216  1.00  0.00     0.197 C 
ATOM      8  N   UNL A   1      33.004  25.776  23.493  1.00  0.00    -0.324 N 
ATOM      9  C   UNL A   1      32.835  24.869  22.361  1.00  0.00     0.152 C 
ATOM     10  C   UNL A   1      32.186  25.690  21.253  1.00  0.00     0.136 C 
ATOM     11  C   UNL A   1      31.405  26.750  22.018  1.00  0.00     0.070 C 
BRANCH   8  12
ATOM     12  C   UNL A   1      33.815  25.363  24.539  1.00  0.00     0.247 C 
ATOM     13  O   UNL A   1      34.097  26.165  25.442  1.00  0.00    -0.272 OA
BRANCH  12  14
ATOM     14  C   UNL A   1      34.468  23.947  24.613  1.00  0.00     0.186 C 
ATOM     15  C   UNL A   1      34.615  20.605  24.996  1.00  0.00     0.047 C 
ATOM     16  C   UNL A   1      34.612  21.831  25.914  1.00  0.00     0.087 C 
ATOM     17  C   UNL A   1      34.015  21.468  27.278  1.00  0.00     0.049 C 
ATOM     18  N   UNL A   1      33.811  22.933  25.449  1.00  0.00    -0.315 N 
ATOM     19  S   UNL A   1      36.307  22.453  25.927  1.00  0.00    -0.131 SA
ATOM     20  C   UNL A   1      33.025  22.578  27.595  1.00  0.00     0.103 C 
ATOM     21  C   UNL A   1      32.726  23.187  26.258  1.00  0.00     0.224 C 
ATOM     22  C   UNL A   1      35.933  23.976  24.997  1.00  0.00     0.107 C 
ATOM     23  O   UNL A   1      31.771  23.902  26.020  1.00  0.00    -0.275 OA
ENDBRANCH  12  14
ENDBRANCH   8  12
BRANCH  10  24
ATOM     24  O   UNL A   1      33.182  26.326  20.459  1.00  0.00    -0.391 OA
ATOM     25  H   UNL A   1      34.062  26.044  20.755  1.00  0.00     0.211 HD
ENDBRANCH  10  24
ENDBRANCH   5   7
ENDBRANCH   4   5
ENDBRANCH   3   4
ENDBRANCH   2   3
ENDBRANCH   1   2
BRANCH   1  26
ATOM     26  C   UNL A   1      31.388  31.693  26.358  1.00  0.00     0.202 C 
BRANCH  26  27
ATOM     27  C   UNL A   1      31.777  33.072  26.889  1.00  0.00     0.261 C 
BRANCH  27  28
ATOM     28  O   UNL A   1      33.177  33.249  26.933  1.00  0.00    -0.460 OA
BRANCH  28  29
ATOM     29  C   UNL A   1      33.593  33.768  28.105  1.00  0.00     0.338 C 
ATOM     30  O   UNL A   1      33.068  34.617  28.801  1.00  0.00    -0.246 OA
BRANCH  29  31
ATOM     31  C   UNL A   1      34.749  32.969  28.484  1.00  0.00     0.060 A 
ATOM     32  C   UNL A   1      34.540  31.611  28.732  1.00  0.00     0.016 A 
ATOM     33  C   UNL A   1      36.014  33.558  28.544  1.00  0.00     0.016 A 
ATOM     34  C   UNL A   1      35.615  30.829  29.112  1.00  0.00     0.010 A 
ATOM     35  C   UNL A   1      37.088  32.776  28.924  1.00  0.00     0.010 A 
ATOM     36  C   UNL A   1      36.874  31.428  29.253  1.00  0.00    -0.014 A 
BRANCH  36  37
ATOM     37  C   UNL A   1      37.937  30.716  29.969  1.00  0.00     0.031 A 
ATOM     38  C   UNL A   1      38.150  31.071  31.409  1.00  0.00     0.074 A 
ATOM     39  C   UNL A   1      38.692  29.814  29.328  1.00  0.00     0.049 A 
ATOM     40  N   UNL A   1      39.106  30.707  32.216  1.00  0.00    -0.248 NA
ATOM     41  C   UNL A   1      37.160  31.983  32.012  1.00  0.00     0.031 C 
ATOM     42  C   UNL A   1      38.511  29.394  27.939  1.00  0.00     0.029 A 
ATOM     43  N   UNL A   1      39.779  29.110  29.761  1.00  0.00    -0.354 N 
ATOM     44  C   UNL A   1      38.843  31.355  33.416  1.00  0.00     0.074 A 
ATOM     45  C   UNL A   1      37.661  32.164  33.223  1.00  0.00     0.031 C 
ATOM     46  C   UNL A   1      39.475  28.512  27.626  1.00  0.00     0.029 A 
ATOM     47  C   UNL A   1      40.358  28.349  28.779  1.00  0.00     0.049 A 
ATOM     48  H   UNL A   1      40.114  29.145  30.687  1.00  0.00     0.167 HD
ATOM     49  C   UNL A   1      39.532  31.270  34.575  1.00  0.00     0.037 A 
ATOM     50  C   UNL A   1      41.496  27.634  28.815  1.00  0.00     0.037 A 
ATOM     51  C   UNL A   1      40.706  30.458  34.728  1.00  0.00     0.049 A 
ATOM     52  C   UNL A   1      42.285  27.609  30.097  1.00  0.00     0.074 A 
ATOM     53  C   UNL A   1      41.490  30.276  35.851  1.00  0.00     0.029 A 
ATOM     54  N   UNL A   1      41.267  29.694  33.713  1.00  0.00    -0.354 N 
ATOM     55  N   UNL A   1      42.029  28.210  31.236  1.00  0.00    -0.248 NA
ATOM     56  C   UNL A   1      43.517  26.812  30.101  1.00  0.00     0.031 C 
ATOM     57  C   UNL A   1      42.558  29.445  35.500  1.00  0.00     0.029 A 
ATOM     58  C   UNL A   1      42.401  29.055  34.177  1.00  0.00     0.049 A 
ATOM     59  H   UNL A   1      40.910  29.619  32.798  1.00  0.00     0.167 HD
ATOM     60  C   UNL A   1      43.042  27.827  32.105  1.00  0.00     0.074 A 
ATOM     61  C   UNL A   1      43.919  26.947  31.357  1.00  0.00     0.031 C 
ATOM     62  C   UNL A   1      43.231  28.163  33.406  1.00  0.00     0.037 A 
BRANCH  49  63
ATOM     63  C   UNL A   1      39.051  32.094  35.731  1.00  0.00     0.057 A 
ATOM     64  C   UNL A   1      38.208  31.569  36.721  1.00  0.00     0.134 A 
ATOM     65  C   UNL A   1      39.439  33.433  35.860  1.00  0.00     0.134 A 
ATOM     66  F   UNL A   1      37.779  30.299  36.646  1.00  0.00    -0.206 F 
ATOM     67  C   UNL A   1      37.751  32.352  37.783  1.00  0.00     0.040 A 
ATOM     68  C   UNL A   1      39.014  34.218  36.934  1.00  0.00     0.040 A 
ATOM     69  F   UNL A   1      40.238  34.002  34.946  1.00  0.00    -0.206 F 
ATOM     70  C   UNL A   1      38.162  33.679  37.895  1.00  0.00     0.006 A 
ENDBRANCH  49  63
BRANCH  50  71
ATOM     71  C   UNL A   1      41.949  26.898  27.610  1.00  0.00     0.057 A 
ATOM     72  C   UNL A   1      41.631  25.549  27.427  1.00  0.00     0.134 A 
ATOM     73  C   UNL A   1      42.702  27.525  26.608  1.00  0.00     0.134 A 
ATOM     74  F   UNL A   1      40.921  24.891  28.356  1.00  0.00    -0.206 F 
ATOM     75  C   UNL A   1      42.064  24.840  26.304  1.00  0.00     0.040 A 
ATOM     76  C   UNL A   1      43.118  26.837  25.468  1.00  0.00     0.040 A 
ATOM     77  F   UNL A   1      43.028  28.821  26.715  1.00  0.00    -0.206 F 
ATOM     78  C   UNL A   1      42.807  25.486  25.318  1.00  0.00     0.006 A 
ENDBRANCH  50  71
BRANCH  62  79
ATOM     79  C   UNL A   1      44.383  27.527  34.122  1.00  0.00     0.057 A 
ATOM     80  C   UNL A   1      45.627  28.155  34.239  1.00  0.00     0.134 A 
ATOM     81  C   UNL A   1      44.208  26.302  34.781  1.00  0.00     0.134 A 
ATOM     82  F   UNL A   1      45.860  29.324  33.621  1.00  0.00    -0.206 F 
ATOM     83  C   UNL A   1      46.663  27.584  34.978  1.00  0.00     0.040 A 
ATOM     84  C   UNL A   1      45.225  25.735  35.548  1.00  0.00     0.040 A 
ATOM     85  F   UNL A   1      43.034  25.656  34.718  1.00  0.00    -0.206 F 
ATOM     86  C   UNL A   1      46.458  26.376  35.645  1.00  0.00     0.006 A 
ENDBRANCH  62  79
ENDBRANCH  36  37
ENDBRANCH  29  31
ENDBRANCH  28  29
ENDBRANCH  27  28
ENDBRANCH  26  27
ENDBRANCH   1  26
TORSDOF 17
ENDMDL
MODEL 2
REMARK VINA RESULT:     -11.0      4.657      9.529
REMARK SMILES C[C@]12CCC(=O)N1[C@@H](C(=O)N1C[C@H](O)C[C@@H]1C(=O)OCCOCCOC(=O)c1ccc(-c3c4nc(c(-c5c(F)cccc5F)c5ccc([nH]5)c(-c5c(F)cccc5F)c5nc(c(-c6c(F)cccc6F)c6ccc3[nH]6)C=C5)C=C4)cc1)CS2
REMARK SMILES IDX 22 1 21 2 20 3 19 4 17 5 18 6 16 7 11 8 12 9 13 10 15 11
REMARK SMILES IDX 9 12 10 13 8 14 1 15 2 16 3 17 7 18 83 19 4 20 5 21 82 22
REMARK SMILES IDX 6 23 14 24 23 26 24 27 25 28 26 29 27 30 28 31 29 32 81 33
REMARK SMILES IDX 30 34 80 35 31 36 32 37 33 38 74 39 34 40 79 41 73 42 75 43
REMARK SMILES IDX 35 44 78 45 72 46 71 47 36 49 62 50 45 51 61 52 46 53 49 54
REMARK SMILES IDX 60 55 76 56 47 57 48 58 59 60 77 61 50 62 37 63 38 64 43 65
REMARK SMILES IDX 39 66 40 67 42 68 44 69 41 70 63 71 64 72 69 73 65 74 66 75
REMARK SMILES IDX 68 76 70 77 67 78 51 79 52 80 57 81 53 82 54 83 56 84 58 85
REMARK SMILES IDX 55 86
REMARK H PARENT 14 25 75 48 49 59
REMARK Flexibility Score: inf
ROOT
ATOM      1  O   UNL A   1      38.816  22.135  26.188  1.00  0.00    -0.374 OA
ENDROOT
BRANCH   1   2
ATOM      2  C   UNL A   1      37.997  23.307  26.099  1.00  0.00     0.202 C 
BRANCH   2   3
ATOM      3  C   UNL A   1      36.618  23.138  25.433  1.00  0.00     0.261 C 
BRANCH   3   4
ATOM      4  O   UNL A   1      35.565  23.060  26.424  1.00  0.00    -0.462 OA
BRANCH   4   5
ATOM      5  C   UNL A   1      34.675  22.020  26.316  1.00  0.00     0.329 C 
ATOM      6  O   UNL A   1      33.849  21.733  27.173  1.00  0.00    -0.250 OA
BRANCH   5   7
ATOM      7  C   UNL A   1      34.659  21.474  24.860  1.00  0.00     0.197 C 
ATOM      8  N   UNL A   1      33.339  21.646  24.218  1.00  0.00    -0.324 N 
ATOM      9  C   UNL A   1      32.634  20.368  24.182  1.00  0.00     0.152 C 
ATOM     10  C   UNL A   1      33.470  19.399  25.010  1.00  0.00     0.136 C 
ATOM     11  C   UNL A   1      34.883  19.950  24.868  1.00  0.00     0.070 C 
BRANCH   8  12
ATOM     12  C   UNL A   1      32.663  22.772  23.773  1.00  0.00     0.247 C 
ATOM     13  O   UNL A   1      31.715  22.639  22.985  1.00  0.00    -0.272 OA
BRANCH  12  14
ATOM     14  C   UNL A   1      33.077  24.229  24.151  1.00  0.00     0.186 C 
ATOM     15  C   UNL A   1      33.498  26.935  26.110  1.00  0.00     0.047 C 
ATOM     16  C   UNL A   1      32.361  26.325  25.284  1.00  0.00     0.087 C 
ATOM     17  C   UNL A   1      31.006  26.708  25.887  1.00  0.00     0.049 C 
ATOM     18  N   UNL A   1      32.347  24.887  25.243  1.00  0.00    -0.315 N 
ATOM     19  S   UNL A   1      32.647  26.842  23.577  1.00  0.00    -0.131 SA
ATOM     20  C   UNL A   1      30.206  25.416  25.939  1.00  0.00     0.103 C 
ATOM     21  C   UNL A   1      31.251  24.343  25.874  1.00  0.00     0.224 C 
ATOM     22  C   UNL A   1      33.087  25.180  22.971  1.00  0.00     0.107 C 
ATOM     23  O   UNL A   1      31.068  23.179  26.181  1.00  0.00    -0.275 OA
ENDBRANCH  12  14
ENDBRANCH   8  12
BRANCH  10  24
ATOM     24  O   UNL A   1      33.083  19.454  26.379  1.00  0.00    -0.391 OA
ATOM     25  H   UNL A   1      32.404  18.782  26.551  1.00  0.00     0.211 HD
ENDBRANCH  10  24
ENDBRANCH   5   7
ENDBRANCH   4   5
ENDBRANCH   3   4
ENDBRANCH   2   3
ENDBRANCH   1   2
BRANCH   1  26
ATOM     26  C   UNL A   1      38.450  21.051  25.349  1.00  0.00     0.202 C 
BRANCH  26  27
ATOM     27  C   UNL A   1      39.159  19.710  25.541  1.00  0.00     0.261 C 
BRANCH  27  28
ATOM     28  O   UNL A   1      40.022  19.722  26.659  1.00  0.00    -0.460 OA
BRANCH  28  29
ATOM     29  C   UNL A   1      41.314  19.555  26.313  1.00  0.00     0.338 C 
ATOM     30  O   UNL A   1      41.850  18.605  25.772  1.00  0.00    -0.246 OA
BRANCH  29  31
ATOM     31  C   UNL A   1      41.942  20.843  26.561  1.00  0.00     0.060 A 
ATOM     32  C   UNL A   1      42.146  21.214  27.892  1.00  0.00     0.016 A 
ATOM     33  C   UNL A   1      42.357  21.636  25.489  1.00  0.00     0.016 A 
ATOM     34  C   UNL A   1      42.725  22.441  28.162  1.00  0.00     0.010 A 
ATOM     35  C   UNL A   1      42.936  22.861  25.759  1.00  0.00     0.010 A 
ATOM     36  C   UNL A   1      43.071  23.278  27.094  1.00  0.00    -0.014 A 
BRANCH  36  37
ATOM     37  C   UNL A   1      43.363  24.692  27.348  1.00  0.00     0.031 A 
ATOM     38  C   UNL A   1      44.793  25.125  27.247  1.00  0.00     0.074 A 
ATOM     39  C   UNL A   1      42.376  25.531  27.687  1.00  0.00     0.049 A 
ATOM     40  N   UNL A   1      45.335  26.267  27.567  1.00  0.00    -0.248 NA
ATOM     41  C   UNL A   1      45.748  24.122  26.738  1.00  0.00     0.031 C 
ATOM     42  C   UNL A   1      40.958  25.182  27.765  1.00  0.00     0.029 A 
ATOM     43  N   UNL A   1      42.427  26.846  28.054  1.00  0.00    -0.354 N 
ATOM     44  C   UNL A   1      46.692  26.115  27.313  1.00  0.00     0.074 A 
ATOM     45  C   UNL A   1      46.899  24.762  26.850  1.00  0.00     0.031 C 
ATOM     46  C   UNL A   1      40.271  26.260  28.177  1.00  0.00     0.029 A 
ATOM     47  C   UNL A   1      41.210  27.350  28.432  1.00  0.00     0.049 A 
ATOM     48  H   UNL A   1      43.255  27.379  28.047  1.00  0.00     0.167 HD
ATOM     49  C   UNL A   1      47.671  27.036  27.453  1.00  0.00     0.037 A 
ATOM     50  C   UNL A   1      40.911  28.550  28.960  1.00  0.00     0.037 A 
ATOM     51  C   UNL A   1      47.427  28.371  27.922  1.00  0.00     0.049 A 
ATOM     52  C   UNL A   1      42.029  29.536  29.172  1.00  0.00     0.074 A 
ATOM     53  C   UNL A   1      48.329  29.402  28.099  1.00  0.00     0.029 A 
ATOM     54  N   UNL A   1      46.179  28.854  28.296  1.00  0.00    -0.354 N 
ATOM     55  N   UNL A   1      43.311  29.400  28.918  1.00  0.00    -0.248 NA
ATOM     56  C   UNL A   1      41.665  30.839  29.741  1.00  0.00     0.031 C 
ATOM     57  C   UNL A   1      47.636  30.493  28.632  1.00  0.00     0.029 A 
ATOM     58  C   UNL A   1      46.291  30.163  28.723  1.00  0.00     0.049 A 
ATOM     59  H   UNL A   1      45.341  28.339  28.261  1.00  0.00     0.167 HD
ATOM     60  C   UNL A   1      43.897  30.613  29.254  1.00  0.00     0.074 A 
ATOM     61  C   UNL A   1      42.831  31.469  29.735  1.00  0.00     0.031 C 
ATOM     62  C   UNL A   1      45.197  30.991  29.168  1.00  0.00     0.037 A 
BRANCH  49  63
ATOM     63  C   UNL A   1      49.073  26.613  27.130  1.00  0.00     0.057 A 
ATOM     64  C   UNL A   1      49.928  26.067  28.098  1.00  0.00     0.134 A 
ATOM     65  C   UNL A   1      49.575  26.748  25.830  1.00  0.00     0.134 A 
ATOM     66  F   UNL A   1      49.519  25.931  29.369  1.00  0.00    -0.206 F 
ATOM     67  C   UNL A   1      51.238  25.695  27.789  1.00  0.00     0.040 A 
ATOM     68  C   UNL A   1      50.872  26.350  25.502  1.00  0.00     0.040 A 
ATOM     69  F   UNL A   1      48.813  27.268  24.856  1.00  0.00    -0.206 F 
ATOM     70  C   UNL A   1      51.710  25.829  26.485  1.00  0.00     0.006 A 
ENDBRANCH  49  63
BRANCH  50  71
ATOM     71  C   UNL A   1      39.511  28.875  29.321  1.00  0.00     0.057 A 
ATOM     72  C   UNL A   1      39.016  28.607  30.602  1.00  0.00     0.134 A 
ATOM     73  C   UNL A   1      38.634  29.466  28.403  1.00  0.00     0.134 A 
ATOM     74  F   UNL A   1      39.804  28.033  31.524  1.00  0.00    -0.206 F 
ATOM     75  C   UNL A   1      37.695  28.893  30.951  1.00  0.00     0.040 A 
ATOM     76  C   UNL A   1      37.319  29.782  28.745  1.00  0.00     0.040 A 
ATOM     77  F   UNL A   1      39.049  29.761  27.163  1.00  0.00    -0.206 F 
ATOM     78  C   UNL A   1      36.843  29.487  30.022  1.00  0.00     0.006 A 
ENDBRANCH  50  71
BRANCH  62  79
ATOM     79  C   UNL A   1      45.529  32.406  29.532  1.00  0.00     0.057 A 
ATOM     80  C   UNL A   1      45.971  32.763  30.811  1.00  0.00     0.134 A 
ATOM     81  C   UNL A   1      45.489  33.409  28.554  1.00  0.00     0.134 A 
ATOM     82  F   UNL A   1      46.021  31.849  31.793  1.00  0.00    -0.206 F 
ATOM     83  C   UNL A   1      46.352  34.071  31.109  1.00  0.00     0.040 A 
ATOM     84  C   UNL A   1      45.895  34.714  28.830  1.00  0.00     0.040 A 
ATOM     85  F   UNL A   1      45.086  33.127  27.306  1.00  0.00    -0.206 F 
ATOM     86  C   UNL A   1      46.326  35.048  30.113  1.00  0.00     0.006 A 
ENDBRANCH  62  79
ENDBRANCH  36  37
ENDBRANCH  29  31
ENDBRANCH  28  29
ENDBRANCH  27  28
ENDBRANCH  26  27
ENDBRANCH   1  26
TORSDOF 17
ENDMDL
MODEL 3
REMARK VINA RESULT:     -10.9      4.663      8.394
REMARK SMILES C[C@]12CCC(=O)N1[C@@H](C(=O)N1C[C@H](O)C[C@@H]1C(=O)OCCOCCOC(=O)c1ccc(-c3c4nc(c(-c5c(F)cccc5F)c5ccc([nH]5)c(-c5c(F)cccc5F)c5nc(c(-c6c(F)cccc6F)c6ccc3[nH]6)C=C5)C=C4)cc1)CS2
REMARK SMILES IDX 22 1 21 2 20 3 19 4 17 5 18 6 16 7 11 8 12 9 13 10 15 11
REMARK SMILES IDX 9 12 10 13 8 14 1 15 2 16 3 17 7 18 83 19 4 20 5 21 82 22
REMARK SMILES IDX 6 23 14 24 23 26 24 27 25 28 26 29 27 30 28 31 29 32 81 33
REMARK SMILES IDX 30 34 80 35 31 36 32 37 33 38 74 39 34 40 79 41 73 42 75 43
REMARK SMILES IDX 35 44 78 45 72 46 71 47 36 49 62 50 45 51 61 52 46 53 49 54
REMARK SMILES IDX 60 55 76 56 47 57 48 58 59 60 77 61 50 62 37 63 38 64 43 65
REMARK SMILES IDX 39 66 40 67 42 68 44 69 41 70 63 71 64 72 69 73 65 74 66 75
REMARK SMILES IDX 68 76 70 77 67 78 51 79 52 80 57 81 53 82 54 83 56 84 58 85
REMARK SMILES IDX 55 86
REMARK H PARENT 14 25 75 48 49 59
REMARK Flexibility Score: inf
ROOT
ATOM      1  O   UNL A   1      38.502  22.648  26.099  1.00  0.00    -0.374 OA
ENDROOT
BRANCH   1   2
ATOM      2  C   UNL A   1      37.589  23.750  26.162  1.00  0.00     0.202 C 
BRANCH   2   3
ATOM      3  C   UNL A   1      36.169  23.503  25.617  1.00  0.00     0.261 C 
BRANCH   3   4
ATOM      4  O   UNL A   1      35.247  23.181  26.687  1.00  0.00    -0.462 OA
BRANCH   4   5
ATOM      5  C   UNL A   1      34.425  22.097  26.503  1.00  0.00     0.329 C 
ATOM      6  O   UNL A   1      33.630  21.690  27.340  1.00  0.00    -0.250 OA
BRANCH   5   7
ATOM      7  C   UNL A   1      34.425  21.668  25.008  1.00  0.00     0.197 C 
ATOM      8  N   UNL A   1      33.093  21.821  24.387  1.00  0.00    -0.324 N 
ATOM      9  C   UNL A   1      32.455  20.514  24.252  1.00  0.00     0.152 C 
ATOM     10  C   UNL A   1      33.347  19.527  24.996  1.00  0.00     0.136 C 
ATOM     11  C   UNL A   1      34.728  20.162  24.893  1.00  0.00     0.070 C 
BRANCH   8  12
ATOM     12  C   UNL A   1      32.355  22.941  24.036  1.00  0.00     0.247 C 
ATOM     13  O   UNL A   1      31.233  22.795  23.529  1.00  0.00    -0.272 OA
BRANCH  12  14
ATOM     14  C   UNL A   1      32.891  24.401  24.172  1.00  0.00     0.186 C 
ATOM     15  C   UNL A   1      33.729  27.277  25.709  1.00  0.00     0.047 C 
ATOM     16  C   UNL A   1      32.455  26.655  25.131  1.00  0.00     0.087 C 
ATOM     17  C   UNL A   1      31.223  27.192  25.868  1.00  0.00     0.049 C 
ATOM     18  N   UNL A   1      32.364  25.225  25.268  1.00  0.00    -0.315 N 
ATOM     19  S   UNL A   1      32.511  26.955  23.351  1.00  0.00    -0.131 SA
ATOM     20  C   UNL A   1      30.377  25.971  26.187  1.00  0.00     0.103 C 
ATOM     21  C   UNL A   1      31.347  24.830  26.107  1.00  0.00     0.224 C 
ATOM     22  C   UNL A   1      32.774  25.209  22.895  1.00  0.00     0.107 C 
ATOM     23  O   UNL A   1      31.154  23.723  26.576  1.00  0.00    -0.275 OA
ENDBRANCH  12  14
ENDBRANCH   8  12
BRANCH  10  24
ATOM     24  O   UNL A   1      32.969  19.453  26.367  1.00  0.00    -0.391 OA
ATOM     25  H   UNL A   1      32.065  19.790  26.473  1.00  0.00     0.211 HD
ENDBRANCH  10  24
ENDBRANCH   5   7
ENDBRANCH   4   5
ENDBRANCH   3   4
ENDBRANCH   2   3
ENDBRANCH   1   2
BRANCH   1  26
ATOM     26  C   UNL A   1      38.107  21.554  25.286  1.00  0.00     0.202 C 
BRANCH  26  27
ATOM     27  C   UNL A   1      38.906  20.254  25.378  1.00  0.00     0.261 C 
BRANCH  27  28
ATOM     28  O   UNL A   1      39.733  20.219  26.523  1.00  0.00    -0.460 OA
BRANCH  28  29
ATOM     29  C   UNL A   1      41.005  19.889  26.227  1.00  0.00     0.338 C 
ATOM     30  O   UNL A   1      41.432  18.907  25.648  1.00  0.00    -0.246 OA
BRANCH  29  31
ATOM     31  C   UNL A   1      41.794  21.056  26.593  1.00  0.00     0.060 A 
ATOM     32  C   UNL A   1      42.089  21.235  27.946  1.00  0.00     0.016 A 
ATOM     33  C   UNL A   1      42.262  21.920  25.600  1.00  0.00     0.016 A 
ATOM     34  C   UNL A   1      42.822  22.344  28.327  1.00  0.00     0.010 A 
ATOM     35  C   UNL A   1      42.995  23.028  25.982  1.00  0.00     0.010 A 
ATOM     36  C   UNL A   1      43.228  23.259  27.348  1.00  0.00    -0.014 A 
BRANCH  36  37
ATOM     37  C   UNL A   1      43.698  24.588  27.752  1.00  0.00     0.031 A 
ATOM     38  C   UNL A   1      42.659  25.595  28.136  1.00  0.00     0.074 A 
ATOM     39  C   UNL A   1      45.007  24.872  27.736  1.00  0.00     0.049 A 
ATOM     40  N   UNL A   1      42.792  26.869  28.381  1.00  0.00    -0.248 NA
ATOM     41  C   UNL A   1      41.272  25.102  28.232  1.00  0.00     0.031 C 
ATOM     42  C   UNL A   1      46.074  23.925  27.410  1.00  0.00     0.029 A 
ATOM     43  N   UNL A   1      45.655  26.050  27.977  1.00  0.00    -0.354 N 
ATOM     44  C   UNL A   1      41.509  27.331  28.645  1.00  0.00     0.074 A 
ATOM     45  C   UNL A   1      40.606  26.214  28.494  1.00  0.00     0.031 C 
ATOM     46  C   UNL A   1      47.251  24.571  27.453  1.00  0.00     0.029 A 
ATOM     47  C   UNL A   1      47.007  25.978  27.764  1.00  0.00     0.049 A 
ATOM     48  H   UNL A   1      45.197  26.869  28.275  1.00  0.00     0.167 HD
ATOM     49  C   UNL A   1      41.131  28.581  28.990  1.00  0.00     0.037 A 
ATOM     50  C   UNL A   1      47.927  26.958  27.785  1.00  0.00     0.037 A 
ATOM     51  C   UNL A   1      42.060  29.669  29.126  1.00  0.00     0.049 A 
ATOM     52  C   UNL A   1      47.472  28.358  28.104  1.00  0.00     0.074 A 
ATOM     53  C   UNL A   1      41.807  30.980  29.480  1.00  0.00     0.029 A 
ATOM     54  N   UNL A   1      43.427  29.563  28.906  1.00  0.00    -0.354 N 
ATOM     55  N   UNL A   1      46.262  28.793  28.368  1.00  0.00    -0.248 NA
ATOM     56  C   UNL A   1      48.504  29.401  28.127  1.00  0.00     0.031 C 
ATOM     57  C   UNL A   1      43.015  31.681  29.419  1.00  0.00     0.029 A 
ATOM     58  C   UNL A   1      44.030  30.791  29.095  1.00  0.00     0.049 A 
ATOM     59  H   UNL A   1      43.896  28.735  28.653  1.00  0.00     0.167 HD
ATOM     60  C   UNL A   1      46.394  30.150  28.633  1.00  0.00     0.074 A 
ATOM     61  C   UNL A   1      47.802  30.464  28.491  1.00  0.00     0.031 C 
ATOM     62  C   UNL A   1      45.442  31.056  28.971  1.00  0.00     0.037 A 
BRANCH  49  63
ATOM     63  C   UNL A   1      39.669  28.830  29.202  1.00  0.00     0.057 A 
ATOM     64  C   UNL A   1      39.059  28.664  30.454  1.00  0.00     0.134 A 
ATOM     65  C   UNL A   1      38.857  29.248  28.140  1.00  0.00     0.134 A 
ATOM     66  F   UNL A   1      39.774  28.244  31.509  1.00  0.00    -0.206 F 
ATOM     67  C   UNL A   1      37.691  28.881  30.635  1.00  0.00     0.040 A 
ATOM     68  C   UNL A   1      37.495  29.498  28.316  1.00  0.00     0.040 A 
ATOM     69  F   UNL A   1      39.373  29.421  26.915  1.00  0.00    -0.206 F 
ATOM     70  C   UNL A   1      36.907  29.308  29.564  1.00  0.00     0.006 A 
ENDBRANCH  49  63
BRANCH  50  71
ATOM     71  C   UNL A   1      49.348  26.650  27.496  1.00  0.00     0.057 A 
ATOM     72  C   UNL A   1      49.850  26.721  26.192  1.00  0.00     0.134 A 
ATOM     73  C   UNL A   1      50.241  26.285  28.511  1.00  0.00     0.134 A 
ATOM     74  F   UNL A   1      49.042  27.056  25.175  1.00  0.00    -0.206 F 
ATOM     75  C   UNL A   1      51.182  26.419  25.903  1.00  0.00     0.040 A 
ATOM     76  C   UNL A   1      51.581  26.006  28.242  1.00  0.00     0.040 A 
ATOM     77  F   UNL A   1      49.827  26.212  29.785  1.00  0.00    -0.206 F 
ATOM     78  C   UNL A   1      52.054  26.064  26.932  1.00  0.00     0.006 A 
ENDBRANCH  50  71
BRANCH  62  79
ATOM     79  C   UNL A   1      45.896  32.450  29.279  1.00  0.00     0.057 A 
ATOM     80  C   UNL A   1      45.939  33.453  28.304  1.00  0.00     0.134 A 
ATOM     81  C   UNL A   1      46.208  32.810  30.597  1.00  0.00     0.134 A 
ATOM     82  F   UNL A   1      45.661  33.168  27.022  1.00  0.00    -0.206 F 
ATOM     83  C   UNL A   1      46.287  34.764  28.626  1.00  0.00     0.040 A 
ATOM     84  C   UNL A   1      46.528  34.124  30.938  1.00  0.00     0.040 A 
ATOM     85  F   UNL A   1      46.173  31.897  31.579  1.00  0.00    -0.206 F 
ATOM     86  C   UNL A   1      46.570  35.105  29.949  1.00  0.00     0.006 A 
ENDBRANCH  62  79
ENDBRANCH  36  37
ENDBRANCH  29  31
ENDBRANCH  28  29
ENDBRANCH  27  28
ENDBRANCH  26  27
ENDBRANCH   1  26
TORSDOF 17
ENDMDL
