MODEL 1
REMARK VINA RESULT:     -10.9      0.000      0.000
REMARK SMILES O=C(OCCOCCOC(=O)c1ccccc1/C=N\NC(=S)NCc1ccccc1)c1ccc(-c2c3nc(c(-c4c(F)cccc4F)c4ccc([nH]4)c(-c4c(F)cccc4F)c4nc(c(-c5c(F)cccc5F)c5ccc2[nH]5)C=C4)C=C3)cc1
REMARK SMILES IDX 8 1 7 2 6 3 5 4 4 5 3 6 2 7 1 8 31 9 32 10 84 11 33 12 83 13
REMARK SMILES IDX 34 14 35 15 36 16 77 17 37 18 82 19 76 20 78 21 38 22 81 23
REMARK SMILES IDX 75 24 74 25 39 27 65 28 48 29 64 30 49 31 52 32 63 33 79 34
REMARK SMILES IDX 50 35 51 36 62 38 80 39 53 40 40 41 41 42 46 43 42 44 43 45
REMARK SMILES IDX 45 46 47 47 44 48 66 49 67 50 72 51 68 52 69 53 71 54 73 55
REMARK SMILES IDX 70 56 54 57 55 58 60 59 56 60 57 61 59 62 61 63 58 64 9 65
REMARK SMILES IDX 10 66 11 67 12 68 13 69 17 70 14 71 16 72 15 73 18 74 19 75
REMARK SMILES IDX 20 76 21 78 22 79 23 80 24 82 25 83 26 84 30 85 27 86 29 87
REMARK SMILES IDX 28 88
REMARK H PARENT 78 26 52 37 20 77 23 81
REMARK Flexibility Score: inf
ROOT
ATOM      1  C   UNL A   1      34.244  29.080  26.619  1.00  0.00     0.261 C 
ENDROOT
BRANCH   1   2
ATOM      2  C   UNL A   1      33.125  30.135  26.664  1.00  0.00     0.202 C 
BRANCH   2   3
ATOM      3  O   UNL A   1      33.455  31.163  27.609  1.00  0.00    -0.374 OA
BRANCH   3   4
ATOM      4  C   UNL A   1      34.824  31.577  27.685  1.00  0.00     0.202 C 
BRANCH   4   5
ATOM      5  C   UNL A   1      35.560  31.652  29.027  1.00  0.00     0.261 C 
BRANCH   5   6
ATOM      6  O   UNL A   1      35.570  30.375  29.691  1.00  0.00    -0.460 OA
BRANCH   6   7
ATOM      7  C   UNL A   1      36.494  29.962  30.594  1.00  0.00     0.338 C 
ATOM      8  O   UNL A   1      36.248  29.999  31.794  1.00  0.00    -0.246 OA
BRANCH   7   9
ATOM      9  C   UNL A   1      37.835  29.506  30.141  1.00  0.00     0.060 A 
ATOM     10  C   UNL A   1      38.262  29.658  28.823  1.00  0.00     0.016 A 
ATOM     11  C   UNL A   1      38.733  28.982  31.075  1.00  0.00     0.016 A 
ATOM     12  C   UNL A   1      39.479  29.206  28.388  1.00  0.00     0.010 A 
ATOM     13  C   UNL A   1      40.018  28.612  30.670  1.00  0.00     0.010 A 
ATOM     14  C   UNL A   1      40.382  28.731  29.322  1.00  0.00    -0.014 A 
BRANCH  14  15
ATOM     15  C   UNL A   1      41.700  28.377  28.800  1.00  0.00     0.031 A 
ATOM     16  C   UNL A   1      41.909  27.000  28.280  1.00  0.00     0.074 A 
ATOM     17  C   UNL A   1      42.606  29.363  28.658  1.00  0.00     0.049 A 
ATOM     18  N   UNL A   1      43.007  26.448  27.850  1.00  0.00    -0.248 NA
ATOM     19  C   UNL A   1      40.722  26.127  28.218  1.00  0.00     0.031 C 
ATOM     20  C   UNL A   1      42.379  30.775  28.999  1.00  0.00     0.029 A 
ATOM     21  N   UNL A   1      43.876  29.346  28.161  1.00  0.00    -0.354 N 
ATOM     22  C   UNL A   1      42.660  25.147  27.524  1.00  0.00     0.074 A 
ATOM     23  C   UNL A   1      41.245  24.996  27.768  1.00  0.00     0.031 C 
ATOM     24  C   UNL A   1      43.472  31.486  28.688  1.00  0.00     0.029 A 
ATOM     25  C   UNL A   1      44.503  30.568  28.230  1.00  0.00     0.049 A 
ATOM     26  H   UNL A   1      44.302  28.540  27.788  1.00  0.00     0.167 HD
ATOM     27  C   UNL A   1      43.486  24.172  27.090  1.00  0.00     0.037 A 
ATOM     28  C   UNL A   1      45.794  30.877  28.020  1.00  0.00     0.037 A 
ATOM     29  C   UNL A   1      44.886  24.391  26.854  1.00  0.00     0.049 A 
ATOM     30  C   UNL A   1      46.706  29.746  27.637  1.00  0.00     0.074 A 
ATOM     31  C   UNL A   1      45.849  23.490  26.449  1.00  0.00     0.029 A 
ATOM     32  N   UNL A   1      45.518  25.620  27.011  1.00  0.00    -0.354 N 
ATOM     33  N   UNL A   1      46.403  28.492  27.391  1.00  0.00    -0.248 NA
ATOM     34  C   UNL A   1      48.136  30.054  27.538  1.00  0.00     0.031 C 
ATOM     35  C   UNL A   1      47.075  24.162  26.413  1.00  0.00     0.029 A 
ATOM     36  C   UNL A   1      46.868  25.493  26.748  1.00  0.00     0.049 A 
ATOM     37  H   UNL A   1      45.070  26.457  27.270  1.00  0.00     0.167 HD
ATOM     38  C   UNL A   1      47.601  27.858  27.111  1.00  0.00     0.074 A 
ATOM     39  C   UNL A   1      48.633  28.877  27.184  1.00  0.00     0.031 C 
ATOM     40  C   UNL A   1      47.843  26.552  26.836  1.00  0.00     0.037 A 
BRANCH  27  41
ATOM     41  C   UNL A   1      42.916  22.795  26.958  1.00  0.00     0.057 A 
ATOM     42  C   UNL A   1      42.593  22.000  28.063  1.00  0.00     0.134 A 
ATOM     43  C   UNL A   1      42.700  22.251  25.685  1.00  0.00     0.134 A 
ATOM     44  F   UNL A   1      42.809  22.448  29.310  1.00  0.00    -0.206 F 
ATOM     45  C   UNL A   1      42.082  20.709  27.907  1.00  0.00     0.040 A 
ATOM     46  C   UNL A   1      42.174  20.970  25.515  1.00  0.00     0.040 A 
ATOM     47  F   UNL A   1      43.007  22.954  24.584  1.00  0.00    -0.206 F 
ATOM     48  C   UNL A   1      41.865  20.194  26.630  1.00  0.00     0.006 A 
ENDBRANCH  27  41
BRANCH  28  49
ATOM     49  C   UNL A   1      46.302  32.247  28.288  1.00  0.00     0.057 A 
ATOM     50  C   UNL A   1      46.309  33.235  27.298  1.00  0.00     0.134 A 
ATOM     51  C   UNL A   1      46.822  32.598  29.543  1.00  0.00     0.134 A 
ATOM     52  F   UNL A   1      45.843  32.962  26.070  1.00  0.00    -0.206 F 
ATOM     53  C   UNL A   1      46.835  34.508  27.536  1.00  0.00     0.040 A 
ATOM     54  C   UNL A   1      47.319  33.876  29.806  1.00  0.00     0.040 A 
ATOM     55  F   UNL A   1      46.848  31.704  30.543  1.00  0.00    -0.206 F 
ATOM     56  C   UNL A   1      47.338  34.833  28.795  1.00  0.00     0.006 A 
ENDBRANCH  28  49
BRANCH  40  57
ATOM     57  C   UNL A   1      49.269  26.178  26.592  1.00  0.00     0.057 A 
ATOM     58  C   UNL A   1      49.848  26.302  25.324  1.00  0.00     0.134 A 
ATOM     59  C   UNL A   1      50.082  25.755  27.649  1.00  0.00     0.134 A 
ATOM     60  F   UNL A   1      49.108  26.686  24.272  1.00  0.00    -0.206 F 
ATOM     61  C   UNL A   1      51.192  26.006  25.113  1.00  0.00     0.040 A 
ATOM     62  C   UNL A   1      51.434  25.483  27.455  1.00  0.00     0.040 A 
ATOM     63  F   UNL A   1      49.581  25.627  28.886  1.00  0.00    -0.206 F 
ATOM     64  C   UNL A   1      51.992  25.606  26.183  1.00  0.00     0.006 A 
ENDBRANCH  40  57
ENDBRANCH  14  15
ENDBRANCH   7   9
ENDBRANCH   6   7
ENDBRANCH   5   6
ENDBRANCH   4   5
ENDBRANCH   3   4
ENDBRANCH   2   3
ENDBRANCH   1   2
BRANCH   1  65
ATOM     65  O   UNL A   1      33.973  28.183  25.529  1.00  0.00    -0.460 OA
BRANCH  65  66
ATOM     66  C   UNL A   1      33.373  27.018  25.869  1.00  0.00     0.338 C 
ATOM     67  O   UNL A   1      32.361  26.862  26.524  1.00  0.00    -0.246 OA
BRANCH  66  68
ATOM     68  C   UNL A   1      33.952  26.002  24.979  1.00  0.00     0.068 A 
ATOM     69  C   UNL A   1      35.139  24.842  25.686  1.00  0.00     0.016 A 
ATOM     70  C   UNL A   1      33.149  25.616  23.390  1.00  0.00     0.009 A 
ATOM     71  C   UNL A   1      35.566  23.308  24.803  1.00  0.00     0.001 A 
ATOM     72  C   UNL A   1      33.623  24.123  22.461  1.00  0.00     0.010 A 
ATOM     73  C   UNL A   1      34.847  22.985  23.176  1.00  0.00     0.001 A 
BRANCH  70  74
ATOM     74  C   UNL A   1      32.766  26.741  22.592  1.00  0.00     0.142 C 
ATOM     75  N   UNL A   1      31.512  26.941  22.400  1.00  0.00    -0.181 NA
BRANCH  75  76
ATOM     76  N   UNL A   1      30.632  26.016  22.898  1.00  0.00    -0.254 N 
ATOM     77  H   UNL A   1      30.564  25.213  22.332  1.00  0.00     0.193 HD
BRANCH  76  78
ATOM     78  C   UNL A   1      29.834  25.952  23.991  1.00  0.00     0.187 C 
ATOM     79  S   UNL A   1      28.381  26.813  23.868  1.00  0.00    -0.039 S 
BRANCH  78  80
ATOM     80  N   UNL A   1      30.035  25.286  25.211  1.00  0.00    -0.357 N 
ATOM     81  H   UNL A   1      29.234  25.540  25.726  1.00  0.00     0.163 HD
BRANCH  80  82
ATOM     82  C   UNL A   1      31.061  24.074  26.547  1.00  0.00     0.151 C 
BRANCH  82  83
ATOM     83  C   UNL A   1      31.786  22.541  26.483  1.00  0.00    -0.029 A 
ATOM     84  C   UNL A   1      31.664  21.758  25.313  1.00  0.00     0.005 A 
ATOM     85  C   UNL A   1      32.868  22.271  27.355  1.00  0.00     0.005 A 
ATOM     86  C   UNL A   1      32.585  20.746  25.030  1.00  0.00     0.000 A 
ATOM     87  C   UNL A   1      33.810  21.287  27.037  1.00  0.00     0.000 A 
ATOM     88  C   UNL A   1      33.670  20.529  25.877  1.00  0.00     0.000 A 
ENDBRANCH  82  83
ENDBRANCH  80  82
ENDBRANCH  78  80
ENDBRANCH  76  78
ENDBRANCH  75  76
ENDBRANCH  70  74
ENDBRANCH  66  68
ENDBRANCH  65  66
ENDBRANCH   1  65
TORSDOF 20
ENDMDL
MODEL 2
REMARK VINA RESULT:     -10.8      1.408      3.052
REMARK SMILES O=C(OCCOCCOC(=O)c1ccccc1/C=N\NC(=S)NCc1ccccc1)c1ccc(-c2c3nc(c(-c4c(F)cccc4F)c4ccc([nH]4)c(-c4c(F)cccc4F)c4nc(c(-c5c(F)cccc5F)c5ccc2[nH]5)C=C4)C=C3)cc1
REMARK SMILES IDX 8 1 7 2 6 3 5 4 4 5 3 6 2 7 1 8 31 9 32 10 84 11 33 12 83 13
REMARK SMILES IDX 34 14 35 15 36 16 77 17 37 18 82 19 76 20 78 21 38 22 81 23
REMARK SMILES IDX 75 24 74 25 39 27 65 28 48 29 64 30 49 31 52 32 63 33 79 34
REMARK SMILES IDX 50 35 51 36 62 38 80 39 53 40 40 41 41 42 46 43 42 44 43 45
REMARK SMILES IDX 45 46 47 47 44 48 66 49 67 50 72 51 68 52 69 53 71 54 73 55
REMARK SMILES IDX 70 56 54 57 55 58 60 59 56 60 57 61 59 62 61 63 58 64 9 65
REMARK SMILES IDX 10 66 11 67 12 68 13 69 17 70 14 71 16 72 15 73 18 74 19 75
REMARK SMILES IDX 20 76 21 78 22 79 23 80 24 82 25 83 26 84 30 85 27 86 29 87
REMARK SMILES IDX 28 88
REMARK H PARENT 78 26 52 37 20 77 23 81
REMARK Flexibility Score: inf
ROOT
ATOM      1  C   UNL A   1      33.489  28.915  26.927  1.00  0.00     0.261 C 
ENDROOT
BRANCH   1   2
ATOM      2  C   UNL A   1      32.682  30.214  27.101  1.00  0.00     0.202 C 
BRANCH   2   3
ATOM      3  O   UNL A   1      33.451  31.176  27.835  1.00  0.00    -0.374 OA
BRANCH   3   4
ATOM      4  C   UNL A   1      34.876  31.135  27.692  1.00  0.00     0.202 C 
BRANCH   4   5
ATOM      5  C   UNL A   1      35.804  31.396  28.883  1.00  0.00     0.261 C 
BRANCH   5   6
ATOM      6  O   UNL A   1      35.613  30.418  29.921  1.00  0.00    -0.460 OA
BRANCH   6   7
ATOM      7  C   UNL A   1      36.553  30.019  30.813  1.00  0.00     0.338 C 
ATOM      8  O   UNL A   1      36.323  30.059  32.017  1.00  0.00    -0.246 OA
BRANCH   7   9
ATOM      9  C   UNL A   1      37.892  29.575  30.344  1.00  0.00     0.060 A 
ATOM     10  C   UNL A   1      38.305  29.739  29.023  1.00  0.00     0.016 A 
ATOM     11  C   UNL A   1      38.802  29.050  31.265  1.00  0.00     0.016 A 
ATOM     12  C   UNL A   1      39.521  29.298  28.573  1.00  0.00     0.010 A 
ATOM     13  C   UNL A   1      40.085  28.691  30.845  1.00  0.00     0.010 A 
ATOM     14  C   UNL A   1      40.435  28.821  29.494  1.00  0.00    -0.014 A 
BRANCH  14  15
ATOM     15  C   UNL A   1      41.751  28.480  28.957  1.00  0.00     0.031 A 
ATOM     16  C   UNL A   1      41.958  27.113  28.409  1.00  0.00     0.074 A 
ATOM     17  C   UNL A   1      42.655  29.469  28.828  1.00  0.00     0.049 A 
ATOM     18  N   UNL A   1      43.054  26.571  27.962  1.00  0.00    -0.248 NA
ATOM     19  C   UNL A   1      40.772  26.240  28.338  1.00  0.00     0.031 C 
ATOM     20  C   UNL A   1      42.428  30.874  29.197  1.00  0.00     0.029 A 
ATOM     21  N   UNL A   1      43.922  29.464  28.322  1.00  0.00    -0.354 N 
ATOM     22  C   UNL A   1      42.706  25.276  27.613  1.00  0.00     0.074 A 
ATOM     23  C   UNL A   1      41.293  25.119  27.863  1.00  0.00     0.031 C 
ATOM     24  C   UNL A   1      43.518  31.593  28.893  1.00  0.00     0.029 A 
ATOM     25  C   UNL A   1      44.547  30.685  28.411  1.00  0.00     0.049 A 
ATOM     26  H   UNL A   1      44.345  28.666  27.931  1.00  0.00     0.167 HD
ATOM     27  C   UNL A   1      43.531  24.310  27.155  1.00  0.00     0.037 A 
ATOM     28  C   UNL A   1      45.837  30.999  28.198  1.00  0.00     0.037 A 
ATOM     29  C   UNL A   1      44.929  24.536  26.914  1.00  0.00     0.049 A 
ATOM     30  C   UNL A   1      46.747  29.878  27.788  1.00  0.00     0.074 A 
ATOM     31  C   UNL A   1      45.890  23.644  26.485  1.00  0.00     0.029 A 
ATOM     32  N   UNL A   1      45.560  25.763  27.090  1.00  0.00    -0.354 N 
ATOM     33  N   UNL A   1      46.444  28.628  27.519  1.00  0.00    -0.248 NA
ATOM     34  C   UNL A   1      48.176  30.189  27.685  1.00  0.00     0.031 C 
ATOM     35  C   UNL A   1      47.115  24.318  26.454  1.00  0.00     0.029 A 
ATOM     36  C   UNL A   1      46.908  25.642  26.816  1.00  0.00     0.049 A 
ATOM     37  H   UNL A   1      45.113  26.594  27.368  1.00  0.00     0.167 HD
ATOM     38  C   UNL A   1      47.641  28.001  27.220  1.00  0.00     0.074 A 
ATOM     39  C   UNL A   1      48.672  29.020  27.306  1.00  0.00     0.031 C 
ATOM     40  C   UNL A   1      47.883  26.701  26.918  1.00  0.00     0.037 A 
BRANCH  27  41
ATOM     41  C   UNL A   1      42.962  22.936  27.000  1.00  0.00     0.057 A 
ATOM     42  C   UNL A   1      42.675  22.372  25.752  1.00  0.00     0.134 A 
ATOM     43  C   UNL A   1      42.685  22.165  28.137  1.00  0.00     0.134 A 
ATOM     44  F   UNL A   1      42.883  23.071  24.625  1.00  0.00    -0.206 F 
ATOM     45  C   UNL A   1      42.123  21.093  25.640  1.00  0.00     0.040 A 
ATOM     46  C   UNL A   1      42.151  20.879  28.039  1.00  0.00     0.040 A 
ATOM     47  F   UNL A   1      42.920  22.655  29.364  1.00  0.00    -0.206 F 
ATOM     48  C   UNL A   1      41.867  20.341  26.786  1.00  0.00     0.006 A 
ENDBRANCH  27  41
BRANCH  28  49
ATOM     49  C   UNL A   1      46.344  32.365  28.489  1.00  0.00     0.057 A 
ATOM     50  C   UNL A   1      46.773  32.734  29.768  1.00  0.00     0.134 A 
ATOM     51  C   UNL A   1      46.386  33.353  27.492  1.00  0.00     0.134 A 
ATOM     52  F   UNL A   1      46.743  31.845  30.771  1.00  0.00    -0.206 F 
ATOM     53  C   UNL A   1      47.201  34.034  30.051  1.00  0.00     0.040 A 
ATOM     54  C   UNL A   1      46.843  34.646  27.752  1.00  0.00     0.040 A 
ATOM     55  F   UNL A   1      45.992  33.073  26.241  1.00  0.00    -0.206 F 
ATOM     56  C   UNL A   1      47.241  34.993  29.040  1.00  0.00     0.006 A 
ENDBRANCH  28  49
BRANCH  40  57
ATOM     57  C   UNL A   1      49.308  26.334  26.657  1.00  0.00     0.057 A 
ATOM     58  C   UNL A   1      50.133  25.847  27.677  1.00  0.00     0.134 A 
ATOM     59  C   UNL A   1      49.834  26.407  25.362  1.00  0.00     0.134 A 
ATOM     60  F   UNL A   1      49.683  25.774  28.939  1.00  0.00    -0.206 F 
ATOM     61  C   UNL A   1      51.443  25.453  27.418  1.00  0.00     0.040 A 
ATOM     62  C   UNL A   1      51.133  25.989  25.087  1.00  0.00     0.040 A 
ATOM     63  F   UNL A   1      49.084  26.858  24.346  1.00  0.00    -0.206 F 
ATOM     64  C   UNL A   1      51.942  25.513  26.117  1.00  0.00     0.006 A 
ENDBRANCH  40  57
ENDBRANCH  14  15
ENDBRANCH   7   9
ENDBRANCH   6   7
ENDBRANCH   5   6
ENDBRANCH   4   5
ENDBRANCH   3   4
ENDBRANCH   2   3
ENDBRANCH   1   2
BRANCH   1  65
ATOM     65  O   UNL A   1      32.642  27.940  26.295  1.00  0.00    -0.460 OA
BRANCH  65  66
ATOM     66  C   UNL A   1      32.562  28.026  24.946  1.00  0.00     0.338 C 
ATOM     67  O   UNL A   1      33.402  27.711  24.126  1.00  0.00    -0.246 OA
BRANCH  66  68
ATOM     68  C   UNL A   1      31.134  28.206  24.647  1.00  0.00     0.068 A 
ATOM     69  C   UNL A   1      30.580  29.846  24.140  1.00  0.00     0.016 A 
ATOM     70  C   UNL A   1      30.081  26.755  24.320  1.00  0.00     0.009 A 
ATOM     71  C   UNL A   1      28.961  30.064  23.338  1.00  0.00     0.001 A 
ATOM     72  C   UNL A   1      28.428  26.969  23.588  1.00  0.00     0.010 A 
ATOM     73  C   UNL A   1      27.875  28.635  23.115  1.00  0.00     0.001 A 
BRANCH  70  74
ATOM     74  C   UNL A   1      30.210  25.667  25.241  1.00  0.00     0.142 C 
ATOM     75  N   UNL A   1      30.849  24.624  24.851  1.00  0.00    -0.181 NA
BRANCH  75  76
ATOM     76  N   UNL A   1      31.287  24.589  23.552  1.00  0.00    -0.254 N 
ATOM     77  H   UNL A   1      30.588  24.296  22.923  1.00  0.00     0.193 HD
BRANCH  76  78
ATOM     78  C   UNL A   1      32.460  24.865  22.935  1.00  0.00     0.187 C 
ATOM     79  S   UNL A   1      32.316  25.574  21.404  1.00  0.00    -0.039 S 
BRANCH  78  80
ATOM     80  N   UNL A   1      33.778  24.646  23.372  1.00  0.00    -0.357 N 
ATOM     81  H   UNL A   1      34.270  24.555  22.524  1.00  0.00     0.163 HD
BRANCH  80  82
ATOM     82  C   UNL A   1      35.275  24.403  24.788  1.00  0.00     0.151 C 
BRANCH  82  83
ATOM     83  C   UNL A   1      36.715  23.512  24.891  1.00  0.00    -0.029 A 
ATOM     84  C   UNL A   1      37.666  23.832  25.886  1.00  0.00     0.005 A 
ATOM     85  C   UNL A   1      36.742  22.209  24.338  1.00  0.00     0.005 A 
ATOM     86  C   UNL A   1      38.604  22.887  26.308  1.00  0.00     0.000 A 
ATOM     87  C   UNL A   1      37.655  21.257  24.804  1.00  0.00     0.000 A 
ATOM     88  C   UNL A   1      38.582  21.595  25.787  1.00  0.00     0.000 A 
ENDBRANCH  82  83
ENDBRANCH  80  82
ENDBRANCH  78  80
ENDBRANCH  76  78
ENDBRANCH  75  76
ENDBRANCH  70  74
ENDBRANCH  66  68
ENDBRANCH  65  66
ENDBRANCH   1  65
TORSDOF 20
ENDMDL
MODEL 3
REMARK VINA RESULT:     -10.2      7.132     12.279
REMARK SMILES O=C(OCCOCCOC(=O)c1ccccc1/C=N\NC(=S)NCc1ccccc1)c1ccc(-c2c3nc(c(-c4c(F)cccc4F)c4ccc([nH]4)c(-c4c(F)cccc4F)c4nc(c(-c5c(F)cccc5F)c5ccc2[nH]5)C=C4)C=C3)cc1
REMARK SMILES IDX 8 1 7 2 6 3 5 4 4 5 3 6 2 7 1 8 31 9 32 10 84 11 33 12 83 13
REMARK SMILES IDX 34 14 35 15 36 16 77 17 37 18 82 19 76 20 78 21 38 22 81 23
REMARK SMILES IDX 75 24 74 25 39 27 65 28 48 29 64 30 49 31 52 32 63 33 79 34
REMARK SMILES IDX 50 35 51 36 62 38 80 39 53 40 40 41 41 42 46 43 42 44 43 45
REMARK SMILES IDX 45 46 47 47 44 48 66 49 67 50 72 51 68 52 69 53 71 54 73 55
REMARK SMILES IDX 70 56 54 57 55 58 60 59 56 60 57 61 59 62 61 63 58 64 9 65
REMARK SMILES IDX 10 66 11 67 12 68 13 69 17 70 14 71 16 72 15 73 18 74 19 75
REMARK SMILES IDX 20 76 21 78 22 79 23 80 24 82 25 83 26 84 30 85 27 86 29 87
REMARK SMILES IDX 28 88
REMARK H PARENT 78 26 52 37 20 77 23 81
REMARK Flexibility Score: inf
ROOT
ATOM      1  C   UNL A   1      36.125  34.287  34.364  1.00  0.00     0.261 C 
ENDROOT
BRANCH   1   2
ATOM      2  C   UNL A   1      34.720  34.783  33.981  1.00  0.00     0.202 C 
BRANCH   2   3
ATOM      3  O   UNL A   1      34.764  36.180  33.656  1.00  0.00    -0.374 OA
BRANCH   3   4
ATOM      4  C   UNL A   1      33.936  36.636  32.581  1.00  0.00     0.202 C 
BRANCH   4   5
ATOM      5  C   UNL A   1      32.921  35.705  31.906  1.00  0.00     0.261 C 
BRANCH   5   6
ATOM      6  O   UNL A   1      33.046  35.744  30.473  1.00  0.00    -0.460 OA
BRANCH   6   7
ATOM      7  C   UNL A   1      33.403  34.702  29.682  1.00  0.00     0.338 C 
ATOM      8  O   UNL A   1      32.646  34.302  28.805  1.00  0.00    -0.246 OA
BRANCH   7   9
ATOM      9  C   UNL A   1      34.695  34.000  29.904  1.00  0.00     0.060 A 
ATOM     10  C   UNL A   1      35.865  34.382  29.251  1.00  0.00     0.016 A 
ATOM     11  C   UNL A   1      34.764  32.977  30.853  1.00  0.00     0.016 A 
ATOM     12  C   UNL A   1      37.050  33.717  29.419  1.00  0.00     0.010 A 
ATOM     13  C   UNL A   1      35.989  32.356  31.113  1.00  0.00     0.010 A 
ATOM     14  C   UNL A   1      37.128  32.736  30.391  1.00  0.00    -0.014 A 
BRANCH  14  15
ATOM     15  C   UNL A   1      38.453  32.153  30.593  1.00  0.00     0.031 A 
ATOM     16  C   UNL A   1      39.392  32.836  31.522  1.00  0.00     0.074 A 
ATOM     17  C   UNL A   1      38.694  30.939  30.064  1.00  0.00     0.049 A 
ATOM     18  N   UNL A   1      40.633  32.547  31.786  1.00  0.00    -0.248 NA
ATOM     19  C   UNL A   1      38.863  33.993  32.268  1.00  0.00     0.031 C 
ATOM     20  C   UNL A   1      37.729  30.151  29.283  1.00  0.00     0.029 A 
ATOM     21  N   UNL A   1      39.797  30.138  30.127  1.00  0.00    -0.354 N 
ATOM     22  C   UNL A   1      41.054  33.517  32.680  1.00  0.00     0.074 A 
ATOM     23  C   UNL A   1      39.931  34.385  32.946  1.00  0.00     0.031 C 
ATOM     24  C   UNL A   1      38.283  28.975  28.953  1.00  0.00     0.029 A 
ATOM     25  C   UNL A   1      39.666  28.976  29.404  1.00  0.00     0.049 A 
ATOM     26  H   UNL A   1      40.605  30.369  30.640  1.00  0.00     0.167 HD
ATOM     27  C   UNL A   1      42.294  33.664  33.194  1.00  0.00     0.037 A 
ATOM     28  C   UNL A   1      40.598  28.062  29.084  1.00  0.00     0.037 A 
ATOM     29  C   UNL A   1      43.367  32.755  32.899  1.00  0.00     0.049 A 
ATOM     30  C   UNL A   1      41.991  28.312  29.588  1.00  0.00     0.074 A 
ATOM     31  C   UNL A   1      44.681  32.800  33.318  1.00  0.00     0.029 A 
ATOM     32  N   UNL A   1      43.233  31.628  32.095  1.00  0.00    -0.354 N 
ATOM     33  N   UNL A   1      42.420  29.266  30.382  1.00  0.00    -0.248 NA
ATOM     34  C   UNL A   1      43.035  27.391  29.130  1.00  0.00     0.031 C 
ATOM     35  C   UNL A   1      45.355  31.728  32.724  1.00  0.00     0.029 A 
ATOM     36  C   UNL A   1      44.450  30.989  31.973  1.00  0.00     0.049 A 
ATOM     37  H   UNL A   1      42.394  31.329  31.676  1.00  0.00     0.167 HD
ATOM     38  C   UNL A   1      43.783  29.066  30.517  1.00  0.00     0.074 A 
ATOM     39  C   UNL A   1      44.101  27.875  29.750  1.00  0.00     0.031 C 
ATOM     40  C   UNL A   1      44.699  29.800  31.195  1.00  0.00     0.037 A 
BRANCH  27  41
ATOM     41  C   UNL A   1      42.559  34.886  34.015  1.00  0.00     0.057 A 
ATOM     42  C   UNL A   1      42.437  34.902  35.409  1.00  0.00     0.134 A 
ATOM     43  C   UNL A   1      42.933  36.080  33.385  1.00  0.00     0.134 A 
ATOM     44  F   UNL A   1      42.047  33.801  36.071  1.00  0.00    -0.206 F 
ATOM     45  C   UNL A   1      42.671  36.065  36.147  1.00  0.00     0.040 A 
ATOM     46  C   UNL A   1      43.187  37.244  34.112  1.00  0.00     0.040 A 
ATOM     47  F   UNL A   1      43.049  36.136  32.050  1.00  0.00    -0.206 F 
ATOM     48  C   UNL A   1      43.054  37.238  35.498  1.00  0.00     0.006 A 
ENDBRANCH  27  41
BRANCH  28  49
ATOM     49  C   UNL A   1      40.278  26.939  28.166  1.00  0.00     0.057 A 
ATOM     50  C   UNL A   1      39.510  25.846  28.580  1.00  0.00     0.134 A 
ATOM     51  C   UNL A   1      40.760  26.917  26.847  1.00  0.00     0.134 A 
ATOM     52  F   UNL A   1      39.033  25.794  29.832  1.00  0.00    -0.206 F 
ATOM     53  C   UNL A   1      39.253  24.766  27.731  1.00  0.00     0.040 A 
ATOM     54  C   UNL A   1      40.483  25.861  25.978  1.00  0.00     0.040 A 
ATOM     55  F   UNL A   1      41.503  27.930  26.378  1.00  0.00    -0.206 F 
ATOM     56  C   UNL A   1      39.737  24.774  26.424  1.00  0.00     0.006 A 
ENDBRANCH  28  49
BRANCH  40  57
ATOM     57  C   UNL A   1      46.113  29.320  31.130  1.00  0.00     0.057 A 
ATOM     58  C   UNL A   1      46.998  29.789  30.153  1.00  0.00     0.134 A 
ATOM     59  C   UNL A   1      46.606  28.433  32.095  1.00  0.00     0.134 A 
ATOM     60  F   UNL A   1      46.572  30.627  29.195  1.00  0.00    -0.206 F 
ATOM     61  C   UNL A   1      48.330  29.382  30.131  1.00  0.00     0.040 A 
ATOM     62  C   UNL A   1      47.943  28.042  32.099  1.00  0.00     0.040 A 
ATOM     63  F   UNL A   1      45.804  27.959  33.059  1.00  0.00    -0.206 F 
ATOM     64  C   UNL A   1      48.807  28.514  31.113  1.00  0.00     0.006 A 
ENDBRANCH  40  57
ENDBRANCH  14  15
ENDBRANCH   7   9
ENDBRANCH   6   7
ENDBRANCH   5   6
ENDBRANCH   4   5
ENDBRANCH   3   4
ENDBRANCH   2   3
ENDBRANCH   1   2
BRANCH   1  65
ATOM     65  O   UNL A   1      36.085  33.824  35.725  1.00  0.00    -0.460 OA
BRANCH  65  66
ATOM     66  C   UNL A   1      36.948  32.826  36.026  1.00  0.00     0.338 C 
ATOM     67  O   UNL A   1      37.280  31.888  35.328  1.00  0.00    -0.246 OA
BRANCH  66  68
ATOM     68  C   UNL A   1      37.700  33.296  37.198  1.00  0.00     0.068 A 
ATOM     69  C   UNL A   1      38.992  34.526  36.933  1.00  0.00     0.016 A 
ATOM     70  C   UNL A   1      37.036  33.032  38.875  1.00  0.00     0.009 A 
ATOM     71  C   UNL A   1      39.661  35.478  38.333  1.00  0.00     0.001 A 
ATOM     72  C   UNL A   1      37.749  33.921  40.294  1.00  0.00     0.010 A 
ATOM     73  C   UNL A   1      39.073  35.133  40.008  1.00  0.00     0.001 A 
BRANCH  70  74
ATOM     74  C   UNL A   1      36.550  31.715  39.155  1.00  0.00     0.142 C 
ATOM     75  N   UNL A   1      35.304  31.583  39.441  1.00  0.00    -0.181 NA
BRANCH  75  76
ATOM     76  N   UNL A   1      34.548  32.721  39.543  1.00  0.00    -0.254 N 
ATOM     77  H   UNL A   1      34.332  33.115  38.666  1.00  0.00     0.193 HD
BRANCH  76  78
ATOM     78  C   UNL A   1      34.027  33.428  40.574  1.00  0.00     0.187 C 
ATOM     79  S   UNL A   1      32.579  34.237  40.230  1.00  0.00    -0.039 S 
BRANCH  78  80
ATOM     80  N   UNL A   1      34.511  33.597  41.882  1.00  0.00    -0.357 N 
ATOM     81  H   UNL A   1      33.979  34.358  42.209  1.00  0.00     0.163 HD
BRANCH  80  82
ATOM     82  C   UNL A   1      35.710  33.154  43.517  1.00  0.00     0.151 C 
BRANCH  82  83
ATOM     83  C   UNL A   1      36.848  31.954  43.897  1.00  0.00    -0.029 A 
ATOM     84  C   UNL A   1      36.779  31.294  45.144  1.00  0.00     0.005 A 
ATOM     85  C   UNL A   1      37.519  31.301  42.834  1.00  0.00     0.005 A 
ATOM     86  C   UNL A   1      37.358  30.036  45.321  1.00  0.00     0.000 A 
ATOM     87  C   UNL A   1      38.053  30.020  43.010  1.00  0.00     0.000 A 
ATOM     88  C   UNL A   1      37.971  29.389  44.249  1.00  0.00     0.000 A 
ENDBRANCH  82  83
ENDBRANCH  80  82
ENDBRANCH  78  80
ENDBRANCH  76  78
ENDBRANCH  75  76
ENDBRANCH  70  74
ENDBRANCH  66  68
ENDBRANCH  65  66
ENDBRANCH   1  65
TORSDOF 20
ENDMDL
