MODEL 1
REMARK VINA RESULT:      -6.1      0.000      0.000
REMARK SMILES CC/C=C/C/C=C/C/C=C/C/C=C/CC/C=C/COCC(=O)OCCOCCOC(=O)c1ccc(-c2c3nc(c(-c4c(F)cccc4F)c4ccc([nH]4)c(-c4c(F)cccc4F)c4nc(c(-c5c(F)cccc5F)c5ccc2[nH]5)C=C4)C=C3)cc1
REMARK SMILES IDX 20 1 19 2 18 3 17 4 16 5 15 6 14 7 13 8 12 9 11 10 10 11
REMARK SMILES IDX 9 12 8 13 7 14 6 15 5 16 4 17 3 18 2 19 1 20 21 21 22 22
REMARK SMILES IDX 23 23 24 24 25 25 26 26 27 27 28 28 29 29 30 30 31 31 32 32
REMARK SMILES IDX 33 33 85 34 34 35 84 36 35 37 36 38 37 39 78 40 38 41 83 42
REMARK SMILES IDX 77 43 79 44 39 45 82 46 76 47 75 48 40 50 66 51 49 52 65 53
REMARK SMILES IDX 50 54 53 55 64 56 80 57 51 58 52 59 63 61 81 62 54 63 41 64
REMARK SMILES IDX 42 65 47 66 43 67 44 68 46 69 48 70 45 71 67 72 68 73 73 74
REMARK SMILES IDX 69 75 70 76 72 77 74 78 71 79 55 80 56 81 61 82 57 83 58 84
REMARK SMILES IDX 60 85 62 86 59 87
REMARK H PARENT 79 49 53 60
REMARK Flexibility Score: inf
ROOT
ATOM      1  C   UNL A   1      41.803  22.071  26.157  1.00  0.00     0.283 C 
ENDROOT
BRANCH   1   2
ATOM      2  O   UNL A   1      41.486  23.444  26.290  1.00  0.00    -0.366 OA
BRANCH   2   3
ATOM      3  C   UNL A   1      40.265  23.770  26.947  1.00  0.00     0.188 C 
BRANCH   3   4
ATOM      4  C   UNL A   1      40.288  25.106  27.634  1.00  0.00    -0.003 C 
ATOM      5  C   UNL A   1      39.343  25.531  28.490  1.00  0.00    -0.029 C 
BRANCH   5   6
ATOM      6  C   UNL A   1      39.322  26.876  29.166  1.00  0.00     0.031 C 
BRANCH   6   7
ATOM      7  C   UNL A   1      39.000  28.039  28.214  1.00  0.00     0.031 C 
BRANCH   7   8
ATOM      8  C   UNL A   1      40.206  28.766  27.677  1.00  0.00    -0.031 C 
ATOM      9  C   UNL A   1      40.766  28.534  26.478  1.00  0.00    -0.027 C 
BRANCH   9  10
ATOM     10  C   UNL A   1      41.934  29.308  25.929  1.00  0.00     0.054 C 
BRANCH  10  11
ATOM     11  C   UNL A   1      42.805  29.836  27.033  1.00  0.00    -0.027 C 
ATOM     12  C   UNL A   1      44.072  29.442  27.246  1.00  0.00    -0.027 C 
BRANCH  12  13
ATOM     13  C   UNL A   1      44.944  29.951  28.360  1.00  0.00     0.054 C 
BRANCH  13  14
ATOM     14  C   UNL A   1      46.380  30.013  27.925  1.00  0.00    -0.027 C 
ATOM     15  C   UNL A   1      46.993  29.064  27.198  1.00  0.00    -0.027 C 
BRANCH  15  16
ATOM     16  C   UNL A   1      48.436  29.122  26.781  1.00  0.00     0.054 C 
BRANCH  16  17
ATOM     17  C   UNL A   1      49.063  27.758  26.825  1.00  0.00    -0.027 C 
ATOM     18  C   UNL A   1      48.999  26.866  25.823  1.00  0.00    -0.031 C 
BRANCH  18  19
ATOM     19  C   UNL A   1      49.622  25.502  25.876  1.00  0.00     0.023 C 
ATOM     20  C   UNL A   1      51.059  25.571  26.370  1.00  0.00     0.008 C 
ENDBRANCH  18  19
ENDBRANCH  16  17
ENDBRANCH  15  16
ENDBRANCH  13  14
ENDBRANCH  12  13
ENDBRANCH  10  11
ENDBRANCH   9  10
ENDBRANCH   7   8
ENDBRANCH   6   7
ENDBRANCH   5   6
ENDBRANCH   3   4
ENDBRANCH   2   3
ENDBRANCH   1   2
BRANCH   1  21
ATOM     21  C   UNL A   1      41.535  21.027  27.246  1.00  0.00     0.332 C 
ATOM     22  O   UNL A   1      40.549  21.068  27.973  1.00  0.00    -0.250 OA
BRANCH  21  23
ATOM     23  O   UNL A   1      42.464  20.032  27.249  1.00  0.00    -0.462 OA
BRANCH  23  24
ATOM     24  C   UNL A   1      42.466  19.166  26.092  1.00  0.00     0.261 C 
BRANCH  24  25
ATOM     25  C   UNL A   1      43.856  18.589  25.813  1.00  0.00     0.202 C 
BRANCH  25  26
ATOM     26  O   UNL A   1      44.183  18.397  24.435  1.00  0.00    -0.374 OA
BRANCH  26  27
ATOM     27  C   UNL A   1      45.189  19.251  23.903  1.00  0.00     0.202 C 
BRANCH  27  28
ATOM     28  C   UNL A   1      45.721  20.324  24.858  1.00  0.00     0.261 C 
BRANCH  28  29
ATOM     29  O   UNL A   1      45.066  21.582  24.644  1.00  0.00    -0.460 OA
BRANCH  29  30
ATOM     30  C   UNL A   1      45.904  22.642  24.713  1.00  0.00     0.338 C 
ATOM     31  O   UNL A   1      46.736  22.984  23.891  1.00  0.00    -0.246 OA
BRANCH  30  32
ATOM     32  C   UNL A   1      45.572  23.480  25.877  1.00  0.00     0.060 A 
ATOM     33  C   UNL A   1      45.645  24.862  25.684  1.00  0.00     0.016 A 
ATOM     34  C   UNL A   1      45.297  22.945  27.139  1.00  0.00     0.016 A 
ATOM     35  C   UNL A   1      45.559  25.717  26.773  1.00  0.00     0.010 A 
ATOM     36  C   UNL A   1      45.206  23.808  28.237  1.00  0.00     0.010 A 
ATOM     37  C   UNL A   1      45.409  25.189  28.063  1.00  0.00    -0.014 A 
BRANCH  37  38
ATOM     38  C   UNL A   1      45.713  26.080  29.207  1.00  0.00     0.031 A 
ATOM     39  C   UNL A   1      44.575  26.810  29.869  1.00  0.00     0.074 A 
ATOM     40  C   UNL A   1      46.950  26.126  29.731  1.00  0.00     0.049 A 
ATOM     41  N   UNL A   1      44.575  27.540  30.955  1.00  0.00    -0.248 NA
ATOM     42  C   UNL A   1      43.255  26.695  29.225  1.00  0.00     0.031 C 
ATOM     43  C   UNL A   1      48.118  25.425  29.202  1.00  0.00     0.029 A 
ATOM     44  N   UNL A   1      47.417  26.774  30.845  1.00  0.00    -0.354 N 
ATOM     45  C   UNL A   1      43.262  27.963  31.125  1.00  0.00     0.074 A 
ATOM     46  C   UNL A   1      42.500  27.449  30.010  1.00  0.00     0.031 C 
ATOM     47  C   UNL A   1      49.169  25.668  30.004  1.00  0.00     0.029 A 
ATOM     48  C   UNL A   1      48.750  26.553  31.089  1.00  0.00     0.049 A 
ATOM     49  H   UNL A   1      46.852  27.343  31.416  1.00  0.00     0.167 HD
ATOM     50  C   UNL A   1      42.732  28.698  32.130  1.00  0.00     0.037 A 
ATOM     51  C   UNL A   1      49.537  27.014  32.079  1.00  0.00     0.037 A 
ATOM     52  C   UNL A   1      43.487  29.204  33.244  1.00  0.00     0.049 A 
ATOM     53  C   UNL A   1      48.935  27.876  33.156  1.00  0.00     0.074 A 
ATOM     54  C   UNL A   1      43.046  29.956  34.318  1.00  0.00     0.029 A 
ATOM     55  N   UNL A   1      44.848  29.007  33.425  1.00  0.00    -0.354 N 
ATOM     56  N   UNL A   1      47.688  28.254  33.317  1.00  0.00    -0.248 NA
ATOM     57  C   UNL A   1      49.849  28.366  34.197  1.00  0.00     0.031 C 
ATOM     58  C   UNL A   1      44.149  30.250  35.126  1.00  0.00     0.029 A 
ATOM     59  C   UNL A   1      45.268  29.640  34.582  1.00  0.00     0.049 A 
ATOM     60  H   UNL A   1      45.430  28.491  32.820  1.00  0.00     0.167 HD
ATOM     61  C   UNL A   1      47.665  29.004  34.485  1.00  0.00     0.074 A 
ATOM     62  C   UNL A   1      49.017  29.011  35.003  1.00  0.00     0.031 C 
ATOM     63  C   UNL A   1      46.620  29.634  35.077  1.00  0.00     0.037 A 
BRANCH  50  64
ATOM     64  C   UNL A   1      41.267  29.014  32.053  1.00  0.00     0.057 A 
ATOM     65  C   UNL A   1      40.323  28.354  32.851  1.00  0.00     0.134 A 
ATOM     66  C   UNL A   1      40.794  29.998  31.175  1.00  0.00     0.134 A 
ATOM     67  F   UNL A   1      40.708  27.387  33.698  1.00  0.00    -0.206 F 
ATOM     68  C   UNL A   1      38.962  28.645  32.765  1.00  0.00     0.040 A 
ATOM     69  C   UNL A   1      39.438  30.315  31.097  1.00  0.00     0.040 A 
ATOM     70  F   UNL A   1      41.645  30.667  30.382  1.00  0.00    -0.206 F 
ATOM     71  C   UNL A   1      38.516  29.634  31.888  1.00  0.00     0.006 A 
ENDBRANCH  50  64
BRANCH  51  72
ATOM     72  C   UNL A   1      50.980  26.669  32.103  1.00  0.00     0.057 A 
ATOM     73  C   UNL A   1      51.933  27.465  31.457  1.00  0.00     0.134 A 
ATOM     74  C   UNL A   1      51.437  25.517  32.754  1.00  0.00     0.134 A 
ATOM     75  F   UNL A   1      51.554  28.570  30.798  1.00  0.00    -0.206 F 
ATOM     76  C   UNL A   1      53.285  27.118  31.440  1.00  0.00     0.040 A 
ATOM     77  C   UNL A   1      52.789  25.171  32.767  1.00  0.00     0.040 A 
ATOM     78  F   UNL A   1      50.574  24.712  33.392  1.00  0.00    -0.206 F 
ATOM     79  C   UNL A   1      53.716  25.970  32.102  1.00  0.00     0.006 A 
ENDBRANCH  51  72
BRANCH  63  80
ATOM     80  C   UNL A   1      46.900  30.360  36.361  1.00  0.00     0.057 A 
ATOM     81  C   UNL A   1      47.261  31.713  36.381  1.00  0.00     0.134 A 
ATOM     82  C   UNL A   1      46.789  29.700  37.593  1.00  0.00     0.134 A 
ATOM     83  F   UNL A   1      47.396  32.397  35.235  1.00  0.00    -0.206 F 
ATOM     84  C   UNL A   1      47.533  32.377  37.578  1.00  0.00     0.040 A 
ATOM     85  C   UNL A   1      47.031  30.361  38.797  1.00  0.00     0.040 A 
ATOM     86  F   UNL A   1      46.437  28.407  37.644  1.00  0.00    -0.206 F 
ATOM     87  C   UNL A   1      47.413  31.701  38.791  1.00  0.00     0.006 A 
ENDBRANCH  63  80
ENDBRANCH  37  38
ENDBRANCH  30  32
ENDBRANCH  29  30
ENDBRANCH  28  29
ENDBRANCH  27  28
ENDBRANCH  26  27
ENDBRANCH  25  26
ENDBRANCH  24  25
ENDBRANCH  23  24
ENDBRANCH  21  23
ENDBRANCH   1  21
TORSDOF 27
ENDMDL
MODEL 2
REMARK VINA RESULT:      -5.9      5.443     10.915
REMARK SMILES CC/C=C/C/C=C/C/C=C/C/C=C/CC/C=C/COCC(=O)OCCOCCOC(=O)c1ccc(-c2c3nc(c(-c4c(F)cccc4F)c4ccc([nH]4)c(-c4c(F)cccc4F)c4nc(c(-c5c(F)cccc5F)c5ccc2[nH]5)C=C4)C=C3)cc1
REMARK SMILES IDX 20 1 19 2 18 3 17 4 16 5 15 6 14 7 13 8 12 9 11 10 10 11
REMARK SMILES IDX 9 12 8 13 7 14 6 15 5 16 4 17 3 18 2 19 1 20 21 21 22 22
REMARK SMILES IDX 23 23 24 24 25 25 26 26 27 27 28 28 29 29 30 30 31 31 32 32
REMARK SMILES IDX 33 33 85 34 34 35 84 36 35 37 36 38 37 39 78 40 38 41 83 42
REMARK SMILES IDX 77 43 79 44 39 45 82 46 76 47 75 48 40 50 66 51 49 52 65 53
REMARK SMILES IDX 50 54 53 55 64 56 80 57 51 58 52 59 63 61 81 62 54 63 41 64
REMARK SMILES IDX 42 65 47 66 43 67 44 68 46 69 48 70 45 71 67 72 68 73 73 74
REMARK SMILES IDX 69 75 70 76 72 77 74 78 71 79 55 80 56 81 61 82 57 83 58 84
REMARK SMILES IDX 60 85 62 86 59 87
REMARK H PARENT 79 49 53 60
REMARK Flexibility Score: inf
ROOT
ATOM      1  C   UNL A   1      34.076  34.516  29.419  1.00  0.00     0.283 C 
ENDROOT
BRANCH   1   2
ATOM      2  O   UNL A   1      33.941  33.110  29.491  1.00  0.00    -0.366 OA
BRANCH   2   3
ATOM      3  C   UNL A   1      34.979  32.388  30.148  1.00  0.00     0.188 C 
BRANCH   3   4
ATOM      4  C   UNL A   1      35.703  31.423  29.252  1.00  0.00    -0.003 C 
ATOM      5  C   UNL A   1      37.034  31.237  29.260  1.00  0.00    -0.029 C 
BRANCH   5   6
ATOM      6  C   UNL A   1      37.789  30.304  28.352  1.00  0.00     0.031 C 
BRANCH   6   7
ATOM      7  C   UNL A   1      39.179  29.920  28.881  1.00  0.00     0.031 C 
BRANCH   7   8
ATOM      8  C   UNL A   1      39.186  29.335  30.269  1.00  0.00    -0.031 C 
ATOM      9  C   UNL A   1      38.216  28.555  30.773  1.00  0.00    -0.027 C 
BRANCH   9  10
ATOM     10  C   UNL A   1      38.262  27.929  32.141  1.00  0.00     0.054 C 
BRANCH  10  11
ATOM     11  C   UNL A   1      39.677  27.780  32.624  1.00  0.00    -0.027 C 
ATOM     12  C   UNL A   1      40.370  28.756  33.235  1.00  0.00    -0.027 C 
BRANCH  12  13
ATOM     13  C   UNL A   1      41.792  28.621  33.704  1.00  0.00     0.054 C 
BRANCH  13  14
ATOM     14  C   UNL A   1      42.059  27.230  34.202  1.00  0.00    -0.027 C 
ATOM     15  C   UNL A   1      41.630  26.752  35.382  1.00  0.00    -0.027 C 
BRANCH  15  16
ATOM     16  C   UNL A   1      41.915  25.365  35.884  1.00  0.00     0.054 C 
BRANCH  16  17
ATOM     17  C   UNL A   1      42.739  24.594  34.892  1.00  0.00    -0.027 C 
ATOM     18  C   UNL A   1      43.870  23.939  35.200  1.00  0.00    -0.031 C 
BRANCH  18  19
ATOM     19  C   UNL A   1      44.693  23.176  34.202  1.00  0.00     0.023 C 
ATOM     20  C   UNL A   1      44.845  21.719  34.612  1.00  0.00     0.008 C 
ENDBRANCH  18  19
ENDBRANCH  16  17
ENDBRANCH  15  16
ENDBRANCH  13  14
ENDBRANCH  12  13
ENDBRANCH  10  11
ENDBRANCH   9  10
ENDBRANCH   7   8
ENDBRANCH   6   7
ENDBRANCH   5   6
ENDBRANCH   3   4
ENDBRANCH   2   3
ENDBRANCH   1   2
BRANCH   1  21
ATOM     21  C   UNL A   1      33.094  35.499  30.066  1.00  0.00     0.332 C 
ATOM     22  O   UNL A   1      32.682  36.499  29.490  1.00  0.00    -0.250 OA
BRANCH  21  23
ATOM     23  O   UNL A   1      32.685  35.086  31.298  1.00  0.00    -0.462 OA
BRANCH  23  24
ATOM     24  C   UNL A   1      33.273  35.775  32.423  1.00  0.00     0.261 C 
BRANCH  24  25
ATOM     25  C   UNL A   1      34.314  34.913  33.141  1.00  0.00     0.202 C 
BRANCH  25  26
ATOM     26  O   UNL A   1      35.604  35.506  33.308  1.00  0.00    -0.374 OA
BRANCH  26  27
ATOM     27  C   UNL A   1      36.700  34.605  33.419  1.00  0.00     0.202 C 
BRANCH  27  28
ATOM     28  C   UNL A   1      37.165  33.961  32.110  1.00  0.00     0.261 C 
BRANCH  28  29
ATOM     29  O   UNL A   1      38.596  33.955  32.014  1.00  0.00    -0.460 OA
BRANCH  29  30
ATOM     30  C   UNL A   1      39.164  32.838  32.523  1.00  0.00     0.338 C 
ATOM     31  O   UNL A   1      38.647  32.010  33.252  1.00  0.00    -0.246 OA
BRANCH  30  32
ATOM     32  C   UNL A   1      40.500  32.633  31.938  1.00  0.00     0.060 A 
ATOM     33  C   UNL A   1      40.593  32.769  30.550  1.00  0.00     0.016 A 
ATOM     34  C   UNL A   1      41.602  32.226  32.695  1.00  0.00     0.016 A 
ATOM     35  C   UNL A   1      41.756  32.387  29.896  1.00  0.00     0.010 A 
ATOM     36  C   UNL A   1      42.776  31.844  32.035  1.00  0.00     0.010 A 
ATOM     37  C   UNL A   1      42.827  31.858  30.630  1.00  0.00    -0.014 A 
BRANCH  37  38
ATOM     38  C   UNL A   1      43.865  31.111  29.883  1.00  0.00     0.031 A 
ATOM     39  C   UNL A   1      45.081  31.859  29.404  1.00  0.00     0.074 A 
ATOM     40  C   UNL A   1      43.794  29.774  29.760  1.00  0.00     0.049 A 
ATOM     41  N   UNL A   1      46.172  31.403  28.844  1.00  0.00    -0.248 NA
ATOM     42  C   UNL A   1      45.070  33.321  29.588  1.00  0.00     0.031 C 
ATOM     43  C   UNL A   1      42.689  28.940  30.226  1.00  0.00     0.029 A 
ATOM     44  N   UNL A   1      44.691  28.884  29.227  1.00  0.00    -0.354 N 
ATOM     45  C   UNL A   1      46.973  32.514  28.617  1.00  0.00     0.074 A 
ATOM     46  C   UNL A   1      46.229  33.673  29.056  1.00  0.00     0.031 C 
ATOM     47  C   UNL A   1      42.981  27.652  29.973  1.00  0.00     0.029 A 
ATOM     48  C   UNL A   1      44.282  27.576  29.313  1.00  0.00     0.049 A 
ATOM     49  H   UNL A   1      45.546  29.156  28.822  1.00  0.00     0.167 HD
ATOM     50  C   UNL A   1      48.226  32.566  28.107  1.00  0.00     0.037 A 
ATOM     51  C   UNL A   1      44.896  26.449  28.906  1.00  0.00     0.037 A 
ATOM     52  C   UNL A   1      48.970  31.413  27.678  1.00  0.00     0.049 A 
ATOM     53  C   UNL A   1      46.267  26.539  28.291  1.00  0.00     0.074 A 
ATOM     54  C   UNL A   1      50.248  31.356  27.150  1.00  0.00     0.029 A 
ATOM     55  N   UNL A   1      48.498  30.110  27.729  1.00  0.00    -0.354 N 
ATOM     56  N   UNL A   1      47.023  27.594  28.099  1.00  0.00    -0.248 NA
ATOM     57  C   UNL A   1      46.875  25.277  27.847  1.00  0.00     0.031 C 
ATOM     58  C   UNL A   1      50.532  30.022  26.842  1.00  0.00     0.029 A 
ATOM     59  C   UNL A   1      49.451  29.243  27.223  1.00  0.00     0.049 A 
ATOM     60  H   UNL A   1      47.616  29.842  28.074  1.00  0.00     0.167 HD
ATOM     61  C   UNL A   1      48.200  27.122  27.534  1.00  0.00     0.074 A 
ATOM     62  C   UNL A   1      48.066  25.683  27.434  1.00  0.00     0.031 C 
ATOM     63  C   UNL A   1      49.295  27.814  27.131  1.00  0.00     0.037 A 
BRANCH  50  64
ATOM     64  C   UNL A   1      48.857  33.921  27.969  1.00  0.00     0.057 A 
ATOM     65  C   UNL A   1      48.715  34.689  26.805  1.00  0.00     0.134 A 
ATOM     66  C   UNL A   1      49.608  34.469  29.016  1.00  0.00     0.134 A 
ATOM     67  F   UNL A   1      48.025  34.214  25.757  1.00  0.00    -0.206 F 
ATOM     68  C   UNL A   1      49.315  35.943  26.681  1.00  0.00     0.040 A 
ATOM     69  C   UNL A   1      50.192  35.731  28.913  1.00  0.00     0.040 A 
ATOM     70  F   UNL A   1      49.782  33.785  30.158  1.00  0.00    -0.206 F 
ATOM     71  C   UNL A   1      50.052  36.470  27.741  1.00  0.00     0.006 A 
ENDBRANCH  50  64
BRANCH  51  72
ATOM     72  C   UNL A   1      44.223  25.137  29.069  1.00  0.00     0.057 A 
ATOM     73  C   UNL A   1      43.408  24.604  28.063  1.00  0.00     0.134 A 
ATOM     74  C   UNL A   1      44.359  24.396  30.249  1.00  0.00     0.134 A 
ATOM     75  F   UNL A   1      43.221  25.277  26.918  1.00  0.00    -0.206 F 
ATOM     76  C   UNL A   1      42.738  23.390  28.231  1.00  0.00     0.040 A 
ATOM     77  C   UNL A   1      43.714  23.170  30.422  1.00  0.00     0.040 A 
ATOM     78  F   UNL A   1      45.124  24.852  31.250  1.00  0.00    -0.206 F 
ATOM     79  C   UNL A   1      42.895  22.668  29.412  1.00  0.00     0.006 A 
ENDBRANCH  51  72
BRANCH  63  80
ATOM     80  C   UNL A   1      50.437  27.018  26.570  1.00  0.00     0.057 A 
ATOM     81  C   UNL A   1      50.610  26.846  25.191  1.00  0.00     0.134 A 
ATOM     82  C   UNL A   1      51.384  26.431  27.420  1.00  0.00     0.134 A 
ATOM     83  F   UNL A   1      49.732  27.373  24.325  1.00  0.00    -0.206 F 
ATOM     84  C   UNL A   1      51.668  26.094  24.678  1.00  0.00     0.040 A 
ATOM     85  C   UNL A   1      52.460  25.700  26.918  1.00  0.00     0.040 A 
ATOM     86  F   UNL A   1      51.282  26.567  28.751  1.00  0.00    -0.206 F 
ATOM     87  C   UNL A   1      52.599  25.522  25.543  1.00  0.00     0.006 A 
ENDBRANCH  63  80
ENDBRANCH  37  38
ENDBRANCH  30  32
ENDBRANCH  29  30
ENDBRANCH  28  29
ENDBRANCH  27  28
ENDBRANCH  26  27
ENDBRANCH  25  26
ENDBRANCH  24  25
ENDBRANCH  23  24
ENDBRANCH  21  23
ENDBRANCH   1  21
TORSDOF 27
ENDMDL
MODEL 3
REMARK VINA RESULT:      -5.7      4.776      7.795
REMARK SMILES CC/C=C/C/C=C/C/C=C/C/C=C/CC/C=C/COCC(=O)OCCOCCOC(=O)c1ccc(-c2c3nc(c(-c4c(F)cccc4F)c4ccc([nH]4)c(-c4c(F)cccc4F)c4nc(c(-c5c(F)cccc5F)c5ccc2[nH]5)C=C4)C=C3)cc1
REMARK SMILES IDX 20 1 19 2 18 3 17 4 16 5 15 6 14 7 13 8 12 9 11 10 10 11
REMARK SMILES IDX 9 12 8 13 7 14 6 15 5 16 4 17 3 18 2 19 1 20 21 21 22 22
REMARK SMILES IDX 23 23 24 24 25 25 26 26 27 27 28 28 29 29 30 30 31 31 32 32
REMARK SMILES IDX 33 33 85 34 34 35 84 36 35 37 36 38 37 39 78 40 38 41 83 42
REMARK SMILES IDX 77 43 79 44 39 45 82 46 76 47 75 48 40 50 66 51 49 52 65 53
REMARK SMILES IDX 50 54 53 55 64 56 80 57 51 58 52 59 63 61 81 62 54 63 41 64
REMARK SMILES IDX 42 65 47 66 43 67 44 68 46 69 48 70 45 71 67 72 68 73 73 74
REMARK SMILES IDX 69 75 70 76 72 77 74 78 71 79 55 80 56 81 61 82 57 83 58 84
REMARK SMILES IDX 60 85 62 86 59 87
REMARK H PARENT 79 49 53 60
REMARK Flexibility Score: inf
ROOT
ATOM      1  C   UNL A   1      43.274  21.826  25.988  1.00  0.00     0.283 C 
ENDROOT
BRANCH   1   2
ATOM      2  O   UNL A   1      41.948  21.546  25.581  1.00  0.00    -0.366 OA
BRANCH   2   3
ATOM      3  C   UNL A   1      41.020  21.173  26.596  1.00  0.00     0.188 C 
BRANCH   3   4
ATOM      4  C   UNL A   1      39.645  21.744  26.394  1.00  0.00    -0.003 C 
ATOM      5  C   UNL A   1      39.394  23.040  26.143  1.00  0.00    -0.029 C 
BRANCH   5   6
ATOM      6  C   UNL A   1      38.027  23.645  25.971  1.00  0.00     0.031 C 
BRANCH   6   7
ATOM      7  C   UNL A   1      36.879  22.640  26.159  1.00  0.00     0.031 C 
BRANCH   7   8
ATOM      8  C   UNL A   1      35.643  22.937  25.351  1.00  0.00    -0.031 C 
ATOM      9  C   UNL A   1      35.544  22.779  24.021  1.00  0.00    -0.027 C 
BRANCH   9  10
ATOM     10  C   UNL A   1      34.285  23.022  23.233  1.00  0.00     0.054 C 
BRANCH  10  11
ATOM     11  C   UNL A   1      33.685  24.359  23.566  1.00  0.00    -0.027 C 
ATOM     12  C   UNL A   1      33.844  25.463  22.816  1.00  0.00    -0.027 C 
BRANCH  12  13
ATOM     13  C   UNL A   1      33.264  26.809  23.151  1.00  0.00     0.054 C 
BRANCH  13  14
ATOM     14  C   UNL A   1      32.928  26.894  24.612  1.00  0.00    -0.027 C 
ATOM     15  C   UNL A   1      32.016  27.732  25.132  1.00  0.00    -0.027 C 
BRANCH  15  16
ATOM     16  C   UNL A   1      31.697  27.827  26.597  1.00  0.00     0.054 C 
BRANCH  16  17
ATOM     17  C   UNL A   1      32.917  28.200  27.389  1.00  0.00    -0.027 C 
ATOM     18  C   UNL A   1      33.845  29.079  26.976  1.00  0.00    -0.031 C 
BRANCH  18  19
ATOM     19  C   UNL A   1      35.066  29.442  27.770  1.00  0.00     0.023 C 
ATOM     20  C   UNL A   1      35.387  30.924  27.641  1.00  0.00     0.008 C 
ENDBRANCH  18  19
ENDBRANCH  16  17
ENDBRANCH  15  16
ENDBRANCH  13  14
ENDBRANCH  12  13
ENDBRANCH  10  11
ENDBRANCH   9  10
ENDBRANCH   7   8
ENDBRANCH   6   7
ENDBRANCH   5   6
ENDBRANCH   3   4
ENDBRANCH   2   3
ENDBRANCH   1   2
BRANCH   1  21
ATOM     21  C   UNL A   1      44.476  21.812  25.037  1.00  0.00     0.332 C 
ATOM     22  O   UNL A   1      44.415  21.356  23.901  1.00  0.00    -0.250 OA
BRANCH  21  23
ATOM     23  O   UNL A   1      45.566  22.427  25.572  1.00  0.00    -0.462 OA
BRANCH  23  24
ATOM     24  C   UNL A   1      46.302  23.296  24.682  1.00  0.00     0.261 C 
BRANCH  24  25
ATOM     25  C   UNL A   1      46.090  24.773  25.022  1.00  0.00     0.202 C 
BRANCH  25  26
ATOM     26  O   UNL A   1      47.021  25.685  24.434  1.00  0.00    -0.374 OA
BRANCH  26  27
ATOM     27  C   UNL A   1      46.722  27.069  24.580  1.00  0.00     0.202 C 
BRANCH  27  28
ATOM     28  C   UNL A   1      45.323  27.392  25.114  1.00  0.00     0.261 C 
BRANCH  28  29
ATOM     29  O   UNL A   1      45.380  28.371  26.160  1.00  0.00    -0.460 OA
BRANCH  29  30
ATOM     30  C   UNL A   1      44.754  27.983  27.294  1.00  0.00     0.338 C 
ATOM     31  O   UNL A   1      43.555  27.857  27.472  1.00  0.00    -0.246 OA
BRANCH  30  32
ATOM     32  C   UNL A   1      45.738  27.548  28.299  1.00  0.00     0.060 A 
ATOM     33  C   UNL A   1      45.922  26.168  28.426  1.00  0.00     0.016 A 
ATOM     34  C   UNL A   1      46.388  28.441  29.156  1.00  0.00     0.016 A 
ATOM     35  C   UNL A   1      46.664  25.665  29.485  1.00  0.00     0.010 A 
ATOM     36  C   UNL A   1      47.140  27.933  30.221  1.00  0.00     0.010 A 
ATOM     37  C   UNL A   1      47.219  26.544  30.426  1.00  0.00    -0.014 A 
BRANCH  37  38
ATOM     38  C   UNL A   1      47.652  25.973  31.722  1.00  0.00     0.031 A 
ATOM     39  C   UNL A   1      46.612  25.740  32.786  1.00  0.00     0.074 A 
ATOM     40  C   UNL A   1      48.913  25.541  31.895  1.00  0.00     0.049 A 
ATOM     41  N   UNL A   1      46.726  25.140  33.944  1.00  0.00    -0.248 NA
ATOM     42  C   UNL A   1      45.257  26.243  32.504  1.00  0.00     0.031 C 
ATOM     43  C   UNL A   1      49.992  25.670  30.917  1.00  0.00     0.029 A 
ATOM     44  N   UNL A   1      49.487  24.878  32.949  1.00  0.00    -0.354 N 
ATOM     45  C   UNL A   1      45.464  25.190  34.520  1.00  0.00     0.074 A 
ATOM     46  C   UNL A   1      44.607  25.916  33.611  1.00  0.00     0.031 C 
ATOM     47  C   UNL A   1      51.098  25.089  31.413  1.00  0.00     0.029 A 
ATOM     48  C   UNL A   1      50.808  24.563  32.745  1.00  0.00     0.049 A 
ATOM     49  H   UNL A   1      49.000  24.650  33.774  1.00  0.00     0.167 HD
ATOM     50  C   UNL A   1      45.046  24.661  35.695  1.00  0.00     0.037 A 
ATOM     51  C   UNL A   1      51.679  23.921  33.546  1.00  0.00     0.037 A 
ATOM     52  C   UNL A   1      45.895  23.932  36.597  1.00  0.00     0.049 A 
ATOM     53  C   UNL A   1      51.204  23.390  34.872  1.00  0.00     0.074 A 
ATOM     54  C   UNL A   1      45.571  23.352  37.811  1.00  0.00     0.029 A 
ATOM     55  N   UNL A   1      47.243  23.684  36.381  1.00  0.00    -0.354 N 
ATOM     56  N   UNL A   1      50.002  23.427  35.399  1.00  0.00    -0.248 NA
ATOM     57  C   UNL A   1      52.205  22.718  35.711  1.00  0.00     0.031 C 
ATOM     58  C   UNL A   1      46.734  22.789  38.348  1.00  0.00     0.029 A 
ATOM     59  C   UNL A   1      47.770  22.977  37.447  1.00  0.00     0.049 A 
ATOM     60  H   UNL A   1      47.749  23.968  35.585  1.00  0.00     0.167 HD
ATOM     61  C   UNL A   1      50.099  22.765  36.616  1.00  0.00     0.074 A 
ATOM     62  C   UNL A   1      51.472  22.320  36.740  1.00  0.00     0.031 C 
ATOM     63  C   UNL A   1      49.140  22.545  37.550  1.00  0.00     0.037 A 
BRANCH  50  64
ATOM     64  C   UNL A   1      43.610  24.875  36.074  1.00  0.00     0.057 A 
ATOM     65  C   UNL A   1      43.222  25.877  36.973  1.00  0.00     0.134 A 
ATOM     66  C   UNL A   1      42.601  24.075  35.525  1.00  0.00     0.134 A 
ATOM     67  F   UNL A   1      44.142  26.666  37.550  1.00  0.00    -0.206 F 
ATOM     68  C   UNL A   1      41.886  26.062  37.329  1.00  0.00     0.040 A 
ATOM     69  C   UNL A   1      41.258  24.265  35.854  1.00  0.00     0.040 A 
ATOM     70  F   UNL A   1      42.904  23.097  34.658  1.00  0.00    -0.206 F 
ATOM     71  C   UNL A   1      40.898  25.257  36.764  1.00  0.00     0.006 A 
ENDBRANCH  50  64
BRANCH  51  72
ATOM     72  C   UNL A   1      53.088  23.739  33.118  1.00  0.00     0.057 A 
ATOM     73  C   UNL A   1      54.037  24.755  33.278  1.00  0.00     0.134 A 
ATOM     74  C   UNL A   1      53.512  22.550  32.513  1.00  0.00     0.134 A 
ATOM     75  F   UNL A   1      53.686  25.925  33.831  1.00  0.00    -0.206 F 
ATOM     76  C   UNL A   1      55.352  24.603  32.835  1.00  0.00     0.040 A 
ATOM     77  C   UNL A   1      54.829  22.375  32.087  1.00  0.00     0.040 A 
ATOM     78  F   UNL A   1      52.650  21.539  32.330  1.00  0.00    -0.206 F 
ATOM     79  C   UNL A   1      55.752  23.407  32.242  1.00  0.00     0.006 A 
ENDBRANCH  51  72
BRANCH  63  80
ATOM     80  C   UNL A   1      49.543  21.771  38.771  1.00  0.00     0.057 A 
ATOM     81  C   UNL A   1      50.000  22.408  39.932  1.00  0.00     0.134 A 
ATOM     82  C   UNL A   1      49.454  20.373  38.791  1.00  0.00     0.134 A 
ATOM     83  F   UNL A   1      50.118  23.744  39.972  1.00  0.00    -0.206 F 
ATOM     84  C   UNL A   1      50.384  21.680  41.059  1.00  0.00     0.040 A 
ATOM     85  C   UNL A   1      49.810  19.637  39.921  1.00  0.00     0.040 A 
ATOM     86  F   UNL A   1      49.014  19.702  37.716  1.00  0.00    -0.206 F 
ATOM     87  C   UNL A   1      50.285  20.290  41.057  1.00  0.00     0.006 A 
ENDBRANCH  63  80
ENDBRANCH  37  38
ENDBRANCH  30  32
ENDBRANCH  29  30
ENDBRANCH  28  29
ENDBRANCH  27  28
ENDBRANCH  26  27
ENDBRANCH  25  26
ENDBRANCH  24  25
ENDBRANCH  23  24
ENDBRANCH  21  23
ENDBRANCH   1  21
TORSDOF 27
ENDMDL
