MODEL 1
REMARK VINA RESULT:     -12.3      0.000      0.000
REMARK SMILES O=C(CC1(C(=O)OCCOCCOC(=O)c2ccc(-c3c4nc(c(-c5c(F)cccc5F)c5ccc([nH]5)c(-c5c(F)cccc5F)c5nc(c(-c6c(F)cccc6F)c6ccc3[nH]6)C=C5)C=C4)cc2)CCCCC1)Nc1ccc(N2CCOC2=O)cc1
REMARK SMILES IDX 9 1 8 2 7 3 5 4 6 5 4 6 70 7 74 8 71 9 73 10 72 11 3 12 2 13
REMARK SMILES IDX 1 14 75 15 76 17 77 18 87 19 78 20 86 21 79 22 80 23 81 24
REMARK SMILES IDX 84 25 82 26 83 27 85 28 10 29 11 30 12 31 13 32 14 33 15 34
REMARK SMILES IDX 16 35 17 36 69 37 18 38 68 39 19 40 20 41 21 42 62 43 22 44
REMARK SMILES IDX 67 45 61 46 63 47 23 48 66 49 60 50 59 51 24 53 50 54 33 55
REMARK SMILES IDX 49 56 34 57 37 58 48 59 64 60 35 61 36 62 47 64 65 65 38 66
REMARK SMILES IDX 25 67 26 68 31 69 27 70 28 71 30 72 32 73 29 74 51 75 52 76
REMARK SMILES IDX 57 77 53 78 54 79 56 80 58 81 55 82 39 83 40 84 45 85 41 86
REMARK SMILES IDX 42 87 44 88 46 89 43 90
REMARK H PARENT 75 16 63 52 37 63
REMARK Flexibility Score: inf
ROOT
ATOM      1  C   UNL A   1      32.186  28.509  26.675  1.00  0.00     0.202 C 
ENDROOT
BRANCH   1   2
ATOM      2  C   UNL A   1      32.872  28.516  25.309  1.00  0.00     0.261 C 
BRANCH   2   3
ATOM      3  O   UNL A   1      32.958  27.192  24.753  1.00  0.00    -0.463 OA
BRANCH   3   4
ATOM      4  C   UNL A   1      32.950  27.126  23.399  1.00  0.00     0.312 C 
ATOM      5  O   UNL A   1      33.701  27.771  22.677  1.00  0.00    -0.252 OA
BRANCH   4   6
ATOM      6  C   UNL A   1      31.893  26.157  22.835  1.00  0.00     0.077 C 
ATOM      7  C   UNL A   1      30.936  27.064  22.018  1.00  0.00     0.019 C 
ATOM      8  C   UNL A   1      31.060  25.376  23.884  1.00  0.00     0.019 C 
ATOM      9  C   UNL A   1      30.056  27.946  22.910  1.00  0.00     0.001 C 
ATOM     10  C   UNL A   1      30.052  26.183  24.703  1.00  0.00     0.001 C 
ATOM     11  C   UNL A   1      29.202  27.107  23.849  1.00  0.00     0.000 C 
BRANCH   6  12
ATOM     12  C   UNL A   1      32.710  25.205  21.879  1.00  0.00     0.119 C 
BRANCH  12  13
ATOM     13  C   UNL A   1      33.219  23.846  22.360  1.00  0.00     0.225 C 
ATOM     14  O   UNL A   1      34.412  23.668  22.591  1.00  0.00    -0.275 OA
ATOM     15  N   UNL A   1      32.235  22.888  22.519  1.00  0.00    -0.326 N 
ATOM     16  H   UNL A   1      31.321  23.131  22.246  1.00  0.00     0.169 HD
BRANCH  15  17
ATOM     17  C   UNL A   1      32.431  21.596  23.037  1.00  0.00     0.041 A 
ATOM     18  C   UNL A   1      32.020  20.506  22.263  1.00  0.00     0.028 A 
ATOM     19  C   UNL A   1      32.978  21.373  24.299  1.00  0.00     0.028 A 
ATOM     20  C   UNL A   1      32.237  19.200  22.710  1.00  0.00     0.028 A 
ATOM     21  C   UNL A   1      33.098  20.066  24.789  1.00  0.00     0.028 A 
ATOM     22  C   UNL A   1      32.770  18.974  23.979  1.00  0.00     0.047 A 
BRANCH  22  23
ATOM     23  N   UNL A   1      33.050  17.669  24.410  1.00  0.00    -0.274 N 
ATOM     24  C   UNL A   1      32.676  17.176  25.697  1.00  0.00     0.171 C 
ATOM     25  C   UNL A   1      33.641  16.670  23.669  1.00  0.00     0.414 C 
ATOM     26  C   UNL A   1      32.691  15.685  25.463  1.00  0.00     0.257 C 
ATOM     27  O   UNL A   1      33.606  15.497  24.378  1.00  0.00    -0.447 OA
ATOM     28  O   UNL A   1      34.170  16.765  22.569  1.00  0.00    -0.224 OA
ENDBRANCH  22  23
ENDBRANCH  15  17
ENDBRANCH  12  13
ENDBRANCH   6  12
ENDBRANCH   4   6
ENDBRANCH   3   4
ENDBRANCH   2   3
ENDBRANCH   1   2
BRANCH   1  29
ATOM     29  O   UNL A   1      31.789  29.761  27.226  1.00  0.00    -0.374 OA
BRANCH  29  30
ATOM     30  C   UNL A   1      32.013  30.941  26.464  1.00  0.00     0.202 C 
BRANCH  30  31
ATOM     31  C   UNL A   1      31.619  32.289  27.081  1.00  0.00     0.261 C 
BRANCH  31  32
ATOM     32  O   UNL A   1      32.613  33.310  26.924  1.00  0.00    -0.460 OA
BRANCH  32  33
ATOM     33  C   UNL A   1      33.168  33.701  28.098  1.00  0.00     0.338 C 
ATOM     34  O   UNL A   1      32.666  34.407  28.955  1.00  0.00    -0.246 OA
BRANCH  33  35
ATOM     35  C   UNL A   1      34.443  33.006  28.323  1.00  0.00     0.060 A 
ATOM     36  C   UNL A   1      34.370  31.739  28.914  1.00  0.00     0.016 A 
ATOM     37  C   UNL A   1      35.674  33.621  28.090  1.00  0.00     0.016 A 
ATOM     38  C   UNL A   1      35.528  31.109  29.341  1.00  0.00     0.010 A 
ATOM     39  C   UNL A   1      36.841  32.984  28.522  1.00  0.00     0.010 A 
ATOM     40  C   UNL A   1      36.766  31.749  29.192  1.00  0.00    -0.014 A 
BRANCH  40  41
ATOM     41  C   UNL A   1      37.942  31.162  29.872  1.00  0.00     0.031 A 
ATOM     42  C   UNL A   1      38.201  31.493  31.315  1.00  0.00     0.074 A 
ATOM     43  C   UNL A   1      38.707  30.262  29.229  1.00  0.00     0.049 A 
ATOM     44  N   UNL A   1      39.126  31.033  32.119  1.00  0.00    -0.248 NA
ATOM     45  C   UNL A   1      37.298  32.474  31.939  1.00  0.00     0.031 C 
ATOM     46  C   UNL A   1      38.520  29.838  27.842  1.00  0.00     0.029 A 
ATOM     47  N   UNL A   1      39.781  29.530  29.664  1.00  0.00    -0.354 N 
ATOM     48  C   UNL A   1      38.915  31.665  33.339  1.00  0.00     0.074 A 
ATOM     49  C   UNL A   1      37.803  32.572  33.159  1.00  0.00     0.031 C 
ATOM     50  C   UNL A   1      39.442  28.909  27.543  1.00  0.00     0.029 A 
ATOM     51  C   UNL A   1      40.301  28.699  28.705  1.00  0.00     0.049 A 
ATOM     52  H   UNL A   1      40.144  29.596  30.576  1.00  0.00     0.167 HD
ATOM     53  C   UNL A   1      39.582  31.492  34.505  1.00  0.00     0.037 A 
ATOM     54  C   UNL A   1      41.360  27.870  28.759  1.00  0.00     0.037 A 
ATOM     55  C   UNL A   1      40.688  30.584  34.672  1.00  0.00     0.049 A 
ATOM     56  C   UNL A   1      42.123  27.745  30.049  1.00  0.00     0.074 A 
ATOM     57  C   UNL A   1      41.422  30.320  35.814  1.00  0.00     0.029 A 
ATOM     58  N   UNL A   1      41.224  29.797  33.662  1.00  0.00    -0.354 N 
ATOM     59  N   UNL A   1      41.899  28.326  31.203  1.00  0.00    -0.248 NA
ATOM     60  C   UNL A   1      43.282  26.844  30.044  1.00  0.00     0.031 C 
ATOM     61  C   UNL A   1      42.441  29.421  35.481  1.00  0.00     0.029 A 
ATOM     62  C   UNL A   1      42.300  29.072  34.147  1.00  0.00     0.049 A 
ATOM     63  H   UNL A   1      40.888  29.759  32.738  1.00  0.00     0.167 HD
ATOM     64  C   UNL A   1      42.873  27.841  32.068  1.00  0.00     0.074 A 
ATOM     65  C   UNL A   1      43.671  26.901  31.309  1.00  0.00     0.031 C 
ATOM     66  C   UNL A   1      43.089  28.145  33.373  1.00  0.00     0.037 A 
BRANCH  53  67
ATOM     67  C   UNL A   1      39.153  32.322  35.681  1.00  0.00     0.057 A 
ATOM     68  C   UNL A   1      39.576  33.647  35.854  1.00  0.00     0.134 A 
ATOM     69  C   UNL A   1      38.276  31.798  36.641  1.00  0.00     0.134 A 
ATOM     70  F   UNL A   1      40.427  34.209  34.981  1.00  0.00    -0.206 F 
ATOM     71  C   UNL A   1      39.164  34.411  36.948  1.00  0.00     0.040 A 
ATOM     72  C   UNL A   1      37.834  32.560  37.723  1.00  0.00     0.040 A 
ATOM     73  F   UNL A   1      37.829  30.538  36.537  1.00  0.00    -0.206 F 
ATOM     74  C   UNL A   1      38.284  33.869  37.883  1.00  0.00     0.006 A 
ENDBRANCH  53  67
BRANCH  54  75
ATOM     75  C   UNL A   1      41.762  27.100  27.555  1.00  0.00     0.057 A 
ATOM     76  C   UNL A   1      42.576  27.663  26.566  1.00  0.00     0.134 A 
ATOM     77  C   UNL A   1      41.328  25.782  27.357  1.00  0.00     0.134 A 
ATOM     78  F   UNL A   1      43.010  28.927  26.687  1.00  0.00    -0.206 F 
ATOM     79  C   UNL A   1      42.925  26.955  25.415  1.00  0.00     0.040 A 
ATOM     80  C   UNL A   1      41.694  25.052  26.226  1.00  0.00     0.040 A 
ATOM     81  F   UNL A   1      40.550  25.182  28.270  1.00  0.00    -0.206 F 
ATOM     82  C   UNL A   1      42.488  25.642  25.246  1.00  0.00     0.006 A 
ENDBRANCH  54  75
BRANCH  66  83
ATOM     83  C   UNL A   1      44.215  27.429  34.062  1.00  0.00     0.057 A 
ATOM     84  C   UNL A   1      45.508  27.966  34.126  1.00  0.00     0.134 A 
ATOM     85  C   UNL A   1      44.000  26.192  34.683  1.00  0.00     0.134 A 
ATOM     86  F   UNL A   1      45.787  29.142  33.543  1.00  0.00    -0.206 F 
ATOM     87  C   UNL A   1      46.555  27.279  34.744  1.00  0.00     0.040 A 
ATOM     88  C   UNL A   1      45.030  25.512  35.334  1.00  0.00     0.040 A 
ATOM     89  F   UNL A   1      42.784  25.625  34.672  1.00  0.00    -0.206 F 
ATOM     90  C   UNL A   1      46.314  26.050  35.357  1.00  0.00     0.006 A 
ENDBRANCH  66  83
ENDBRANCH  40  41
ENDBRANCH  33  35
ENDBRANCH  32  33
ENDBRANCH  31  32
ENDBRANCH  30  31
ENDBRANCH  29  30
ENDBRANCH   1  29
TORSDOF 18
ENDMDL
MODEL 2
REMARK VINA RESULT:     -12.2      4.228     10.102
REMARK SMILES O=C(CC1(C(=O)OCCOCCOC(=O)c2ccc(-c3c4nc(c(-c5c(F)cccc5F)c5ccc([nH]5)c(-c5c(F)cccc5F)c5nc(c(-c6c(F)cccc6F)c6ccc3[nH]6)C=C5)C=C4)cc2)CCCCC1)Nc1ccc(N2CCOC2=O)cc1
REMARK SMILES IDX 9 1 8 2 7 3 5 4 6 5 4 6 70 7 74 8 71 9 73 10 72 11 3 12 2 13
REMARK SMILES IDX 1 14 75 15 76 17 77 18 87 19 78 20 86 21 79 22 80 23 81 24
REMARK SMILES IDX 84 25 82 26 83 27 85 28 10 29 11 30 12 31 13 32 14 33 15 34
REMARK SMILES IDX 16 35 17 36 69 37 18 38 68 39 19 40 20 41 21 42 62 43 22 44
REMARK SMILES IDX 67 45 61 46 63 47 23 48 66 49 60 50 59 51 24 53 50 54 33 55
REMARK SMILES IDX 49 56 34 57 37 58 48 59 64 60 35 61 36 62 47 64 65 65 38 66
REMARK SMILES IDX 25 67 26 68 31 69 27 70 28 71 30 72 32 73 29 74 51 75 52 76
REMARK SMILES IDX 57 77 53 78 54 79 56 80 58 81 55 82 39 83 40 84 45 85 41 86
REMARK SMILES IDX 42 87 44 88 46 89 43 90
REMARK H PARENT 75 16 63 52 37 63
REMARK Flexibility Score: inf
ROOT
ATOM      1  C   UNL A   1      34.532  21.154  26.869  1.00  0.00     0.202 C 
ENDROOT
BRANCH   1   2
ATOM      2  C   UNL A   1      33.918  22.297  27.679  1.00  0.00     0.261 C 
BRANCH   2   3
ATOM      3  O   UNL A   1      33.454  23.359  26.827  1.00  0.00    -0.463 OA
BRANCH   3   4
ATOM      4  C   UNL A   1      32.119  23.377  26.593  1.00  0.00     0.312 C 
ATOM      5  O   UNL A   1      31.283  22.904  27.354  1.00  0.00    -0.252 OA
BRANCH   4   6
ATOM      6  C   UNL A   1      31.734  24.052  25.262  1.00  0.00     0.077 C 
ATOM      7  C   UNL A   1      31.437  22.870  24.303  1.00  0.00     0.019 C 
ATOM      8  C   UNL A   1      32.821  24.952  24.619  1.00  0.00     0.019 C 
ATOM      9  C   UNL A   1      32.707  22.123  23.879  1.00  0.00     0.001 C 
ATOM     10  C   UNL A   1      34.047  24.244  24.041  1.00  0.00     0.001 C 
ATOM     11  C   UNL A   1      33.686  23.050  23.175  1.00  0.00     0.000 C 
BRANCH   6  12
ATOM     12  C   UNL A   1      30.412  24.844  25.597  1.00  0.00     0.119 C 
BRANCH  12  13
ATOM     13  C   UNL A   1      30.232  26.302  25.172  1.00  0.00     0.225 C 
ATOM     14  O   UNL A   1      30.734  27.213  25.825  1.00  0.00    -0.275 OA
ATOM     15  N   UNL A   1      29.493  26.476  24.017  1.00  0.00    -0.326 N 
ATOM     16  H   UNL A   1      29.092  25.673  23.613  1.00  0.00     0.169 HD
BRANCH  15  17
ATOM     17  C   UNL A   1      29.268  27.704  23.371  1.00  0.00     0.041 A 
ATOM     18  C   UNL A   1      27.953  28.172  23.285  1.00  0.00     0.028 A 
ATOM     19  C   UNL A   1      30.296  28.440  22.786  1.00  0.00     0.028 A 
ATOM     20  C   UNL A   1      27.680  29.410  22.698  1.00  0.00     0.028 A 
ATOM     21  C   UNL A   1      30.007  29.630  22.106  1.00  0.00     0.028 A 
ATOM     22  C   UNL A   1      28.706  30.141  22.098  1.00  0.00     0.047 A 
BRANCH  22  23
ATOM     23  N   UNL A   1      28.452  31.413  21.562  1.00  0.00    -0.274 N 
ATOM     24  C   UNL A   1      28.084  31.626  20.200  1.00  0.00     0.171 C 
ATOM     25  C   UNL A   1      28.447  32.606  22.250  1.00  0.00     0.414 C 
ATOM     26  C   UNL A   1      27.423  32.980  20.275  1.00  0.00     0.257 C 
ATOM     27  O   UNL A   1      28.008  33.607  21.422  1.00  0.00    -0.447 OA
ATOM     28  O   UNL A   1      28.808  32.810  23.403  1.00  0.00    -0.224 OA
ENDBRANCH  22  23
ENDBRANCH  15  17
ENDBRANCH  12  13
ENDBRANCH   6  12
ENDBRANCH   4   6
ENDBRANCH   3   4
ENDBRANCH   2   3
ENDBRANCH   1   2
BRANCH   1  29
ATOM     29  O   UNL A   1      35.584  21.472  25.963  1.00  0.00    -0.374 OA
BRANCH  29  30
ATOM     30  C   UNL A   1      35.991  20.486  25.022  1.00  0.00     0.202 C 
BRANCH  30  31
ATOM     31  C   UNL A   1      37.484  20.142  24.934  1.00  0.00     0.261 C 
BRANCH  31  32
ATOM     32  O   UNL A   1      38.349  21.263  25.160  1.00  0.00    -0.460 OA
BRANCH  32  33
ATOM     33  C   UNL A   1      39.380  20.983  25.996  1.00  0.00     0.338 C 
ATOM     34  O   UNL A   1      40.010  19.943  26.071  1.00  0.00    -0.246 OA
BRANCH  33  35
ATOM     35  C   UNL A   1      39.795  22.189  26.724  1.00  0.00     0.060 A 
ATOM     36  C   UNL A   1      39.212  23.396  26.322  1.00  0.00     0.016 A 
ATOM     37  C   UNL A   1      40.816  22.166  27.676  1.00  0.00     0.016 A 
ATOM     38  C   UNL A   1      39.696  24.597  26.820  1.00  0.00     0.010 A 
ATOM     39  C   UNL A   1      41.303  23.378  28.176  1.00  0.00     0.010 A 
ATOM     40  C   UNL A   1      40.777  24.596  27.712  1.00  0.00    -0.014 A 
BRANCH  40  41
ATOM     41  C   UNL A   1      41.420  25.891  28.030  1.00  0.00     0.031 A 
ATOM     42  C   UNL A   1      42.795  26.182  27.498  1.00  0.00     0.074 A 
ATOM     43  C   UNL A   1      40.732  26.833  28.700  1.00  0.00     0.049 A 
ATOM     44  N   UNL A   1      43.507  27.275  27.594  1.00  0.00    -0.248 NA
ATOM     45  C   UNL A   1      43.459  25.096  26.758  1.00  0.00     0.031 C 
ATOM     46  C   UNL A   1      39.377  26.670  29.226  1.00  0.00     0.029 A 
ATOM     47  N   UNL A   1      41.074  28.116  29.037  1.00  0.00    -0.354 N 
ATOM     48  C   UNL A   1      44.698  27.011  26.928  1.00  0.00     0.074 A 
ATOM     49  C   UNL A   1      44.631  25.641  26.469  1.00  0.00     0.031 C 
ATOM     50  C   UNL A   1      38.996  27.818  29.808  1.00  0.00     0.029 A 
ATOM     51  C   UNL A   1      40.091  28.781  29.725  1.00  0.00     0.049 A 
ATOM     52  H   UNL A   1      41.941  28.521  28.808  1.00  0.00     0.167 HD
ATOM     53  C   UNL A   1      45.745  27.841  26.709  1.00  0.00     0.037 A 
ATOM     54  C   UNL A   1      40.083  30.025  30.240  1.00  0.00     0.037 A 
ATOM     55  C   UNL A   1      45.800  29.206  27.169  1.00  0.00     0.049 A 
ATOM     56  C   UNL A   1      41.286  30.905  30.038  1.00  0.00     0.074 A 
ATOM     57  C   UNL A   1      46.805  30.138  26.987  1.00  0.00     0.029 A 
ATOM     58  N   UNL A   1      44.807  29.829  27.913  1.00  0.00    -0.354 N 
ATOM     59  N   UNL A   1      42.395  30.655  29.383  1.00  0.00    -0.248 NA
ATOM     60  C   UNL A   1      41.231  32.243  30.640  1.00  0.00     0.031 C 
ATOM     61  C   UNL A   1      46.450  31.304  27.672  1.00  0.00     0.029 A 
ATOM     62  C   UNL A   1      45.191  31.123  28.225  1.00  0.00     0.049 A 
ATOM     63  H   UNL A   1      43.956  29.413  28.178  1.00  0.00     0.167 HD
ATOM     64  C   UNL A   1      43.159  31.812  29.473  1.00  0.00     0.074 A 
ATOM     65  C   UNL A   1      42.374  32.770  30.224  1.00  0.00     0.031 C 
ATOM     66  C   UNL A   1      44.399  32.061  28.980  1.00  0.00     0.037 A 
BRANCH  53  67
ATOM     67  C   UNL A   1      46.928  27.289  25.964  1.00  0.00     0.057 A 
ATOM     68  C   UNL A   1      47.077  27.445  24.578  1.00  0.00     0.134 A 
ATOM     69  C   UNL A   1      47.950  26.619  26.649  1.00  0.00     0.134 A 
ATOM     70  F   UNL A   1      46.129  28.064  23.858  1.00  0.00    -0.206 F 
ATOM     71  C   UNL A   1      48.184  26.933  23.900  1.00  0.00     0.040 A 
ATOM     72  C   UNL A   1      49.076  26.129  25.986  1.00  0.00     0.040 A 
ATOM     73  F   UNL A   1      47.875  26.437  27.975  1.00  0.00    -0.206 F 
ATOM     74  C   UNL A   1      49.193  26.280  24.605  1.00  0.00     0.006 A 
ENDBRANCH  53  67
BRANCH  54  75
ATOM     75  C   UNL A   1      38.902  30.507  30.999  1.00  0.00     0.057 A 
ATOM     76  C   UNL A   1      37.894  31.257  30.384  1.00  0.00     0.134 A 
ATOM     77  C   UNL A   1      38.760  30.239  32.367  1.00  0.00     0.134 A 
ATOM     78  F   UNL A   1      37.980  31.563  29.080  1.00  0.00    -0.206 F 
ATOM     79  C   UNL A   1      36.801  31.743  31.104  1.00  0.00     0.040 A 
ATOM     80  C   UNL A   1      37.657  30.692  33.092  1.00  0.00     0.040 A 
ATOM     81  F   UNL A   1      39.688  29.520  33.016  1.00  0.00    -0.206 F 
ATOM     82  C   UNL A   1      36.678  31.454  32.461  1.00  0.00     0.006 A 
ENDBRANCH  54  75
BRANCH  66  83
ATOM     83  C   UNL A   1      44.962  33.434  29.216  1.00  0.00     0.057 A 
ATOM     84  C   UNL A   1      44.714  34.499  28.339  1.00  0.00     0.134 A 
ATOM     85  C   UNL A   1      45.753  33.697  30.342  1.00  0.00     0.134 A 
ATOM     86  F   UNL A   1      43.974  34.315  27.236  1.00  0.00    -0.206 F 
ATOM     87  C   UNL A   1      45.266  35.764  28.552  1.00  0.00     0.040 A 
ATOM     88  C   UNL A   1      46.281  34.965  30.584  1.00  0.00     0.040 A 
ATOM     89  F   UNL A   1      46.020  32.727  31.229  1.00  0.00    -0.206 F 
ATOM     90  C   UNL A   1      46.048  36.001  29.683  1.00  0.00     0.006 A 
ENDBRANCH  66  83
ENDBRANCH  40  41
ENDBRANCH  33  35
ENDBRANCH  32  33
ENDBRANCH  31  32
ENDBRANCH  30  31
ENDBRANCH  29  30
ENDBRANCH   1  29
TORSDOF 18
ENDMDL
MODEL 3
REMARK VINA RESULT:     -12.1      3.897      8.271
REMARK SMILES O=C(CC1(C(=O)OCCOCCOC(=O)c2ccc(-c3c4nc(c(-c5c(F)cccc5F)c5ccc([nH]5)c(-c5c(F)cccc5F)c5nc(c(-c6c(F)cccc6F)c6ccc3[nH]6)C=C5)C=C4)cc2)CCCCC1)Nc1ccc(N2CCOC2=O)cc1
REMARK SMILES IDX 9 1 8 2 7 3 5 4 6 5 4 6 70 7 74 8 71 9 73 10 72 11 3 12 2 13
REMARK SMILES IDX 1 14 75 15 76 17 77 18 87 19 78 20 86 21 79 22 80 23 81 24
REMARK SMILES IDX 84 25 82 26 83 27 85 28 10 29 11 30 12 31 13 32 14 33 15 34
REMARK SMILES IDX 16 35 17 36 69 37 18 38 68 39 19 40 20 41 21 42 62 43 22 44
REMARK SMILES IDX 67 45 61 46 63 47 23 48 66 49 60 50 59 51 24 53 50 54 33 55
REMARK SMILES IDX 49 56 34 57 37 58 48 59 64 60 35 61 36 62 47 64 65 65 38 66
REMARK SMILES IDX 25 67 26 68 31 69 27 70 28 71 30 72 32 73 29 74 51 75 52 76
REMARK SMILES IDX 57 77 53 78 54 79 56 80 58 81 55 82 39 83 40 84 45 85 41 86
REMARK SMILES IDX 42 87 44 88 46 89 43 90
REMARK H PARENT 75 16 63 52 37 63
REMARK Flexibility Score: inf
ROOT
ATOM      1  C   UNL A   1      36.234  23.044  25.790  1.00  0.00     0.202 C 
ENDROOT
BRANCH   1   2
ATOM      2  C   UNL A   1      35.756  23.699  24.494  1.00  0.00     0.261 C 
BRANCH   2   3
ATOM      3  O   UNL A   1      34.881  24.810  24.755  1.00  0.00    -0.463 OA
BRANCH   3   4
ATOM      4  C   UNL A   1      34.080  25.176  23.724  1.00  0.00     0.312 C 
ATOM      5  O   UNL A   1      34.333  24.951  22.546  1.00  0.00    -0.252 OA
BRANCH   4   6
ATOM      6  C   UNL A   1      32.802  25.915  24.167  1.00  0.00     0.077 C 
ATOM      7  C   UNL A   1      32.768  27.189  23.283  1.00  0.00     0.019 C 
ATOM      8  C   UNL A   1      32.747  26.342  25.657  1.00  0.00     0.019 C 
ATOM      9  C   UNL A   1      33.835  28.213  23.686  1.00  0.00     0.001 C 
ATOM     10  C   UNL A   1      33.688  27.470  26.084  1.00  0.00     0.001 C 
ATOM     11  C   UNL A   1      33.662  28.653  25.132  1.00  0.00     0.000 C 
BRANCH   6  12
ATOM     12  C   UNL A   1      31.631  24.934  23.775  1.00  0.00     0.119 C 
BRANCH  12  13
ATOM     13  C   UNL A   1      31.607  23.489  24.274  1.00  0.00     0.225 C 
ATOM     14  O   UNL A   1      30.760  23.118  25.083  1.00  0.00    -0.275 OA
ATOM     15  N   UNL A   1      32.583  22.676  23.728  1.00  0.00    -0.326 N 
ATOM     16  H   UNL A   1      33.243  23.101  23.133  1.00  0.00     0.169 HD
BRANCH  15  17
ATOM     17  C   UNL A   1      32.712  21.294  23.951  1.00  0.00     0.041 A 
ATOM     18  C   UNL A   1      33.453  20.872  25.059  1.00  0.00     0.028 A 
ATOM     19  C   UNL A   1      32.165  20.344  23.090  1.00  0.00     0.028 A 
ATOM     20  C   UNL A   1      33.570  19.511  25.354  1.00  0.00     0.028 A 
ATOM     21  C   UNL A   1      32.373  18.980  23.330  1.00  0.00     0.028 A 
ATOM     22  C   UNL A   1      33.037  18.558  24.485  1.00  0.00     0.047 A 
BRANCH  22  23
ATOM     23  N   UNL A   1      33.094  17.194  24.806  1.00  0.00    -0.274 N 
ATOM     24  C   UNL A   1      32.555  16.653  26.011  1.00  0.00     0.171 C 
ATOM     25  C   UNL A   1      33.594  16.185  24.012  1.00  0.00     0.414 C 
ATOM     26  C   UNL A   1      32.377  15.202  25.637  1.00  0.00     0.257 C 
ATOM     27  O   UNL A   1      33.338  14.974  24.600  1.00  0.00    -0.447 OA
ATOM     28  O   UNL A   1      34.216  16.295  22.962  1.00  0.00    -0.224 OA
ENDBRANCH  22  23
ENDBRANCH  15  17
ENDBRANCH  12  13
ENDBRANCH   6  12
ENDBRANCH   4   6
ENDBRANCH   3   4
ENDBRANCH   2   3
ENDBRANCH   1   2
BRANCH   1  29
ATOM     29  O   UNL A   1      36.657  21.685  25.732  1.00  0.00    -0.374 OA
BRANCH  29  30
ATOM     30  C   UNL A   1      37.823  21.368  24.982  1.00  0.00     0.202 C 
BRANCH  30  31
ATOM     31  C   UNL A   1      39.173  21.361  25.711  1.00  0.00     0.261 C 
BRANCH  31  32
ATOM     32  O   UNL A   1      39.597  20.056  26.129  1.00  0.00    -0.460 OA
BRANCH  32  33
ATOM     33  C   UNL A   1      40.942  19.891  26.083  1.00  0.00     0.338 C 
ATOM     34  O   UNL A   1      41.559  18.985  25.549  1.00  0.00    -0.246 OA
BRANCH  33  35
ATOM     35  C   UNL A   1      41.626  21.074  26.623  1.00  0.00     0.060 A 
ATOM     36  C   UNL A   1      41.493  21.301  27.997  1.00  0.00     0.016 A 
ATOM     37  C   UNL A   1      42.265  22.002  25.799  1.00  0.00     0.016 A 
ATOM     38  C   UNL A   1      41.936  22.495  28.546  1.00  0.00     0.010 A 
ATOM     39  C   UNL A   1      42.710  23.206  26.354  1.00  0.00     0.010 A 
ATOM     40  C   UNL A   1      42.503  23.475  27.719  1.00  0.00    -0.014 A 
BRANCH  40  41
ATOM     41  C   UNL A   1      42.738  24.820  28.290  1.00  0.00     0.031 A 
ATOM     42  C   UNL A   1      44.137  25.231  28.655  1.00  0.00     0.074 A 
ATOM     43  C   UNL A   1      41.722  25.695  28.382  1.00  0.00     0.049 A 
ATOM     44  N   UNL A   1      44.574  26.383  29.097  1.00  0.00    -0.248 NA
ATOM     45  C   UNL A   1      45.187  24.210  28.500  1.00  0.00     0.031 C 
ATOM     46  C   UNL A   1      40.333  25.413  28.018  1.00  0.00     0.029 A 
ATOM     47  N   UNL A   1      41.704  27.002  28.792  1.00  0.00    -0.354 N 
ATOM     48  C   UNL A   1      45.944  26.225  29.272  1.00  0.00     0.074 A 
ATOM     49  C   UNL A   1      46.260  24.857  28.929  1.00  0.00     0.031 C 
ATOM     50  C   UNL A   1      39.600  26.520  28.209  1.00  0.00     0.029 A 
ATOM     51  C   UNL A   1      40.460  27.576  28.738  1.00  0.00     0.049 A 
ATOM     52  H   UNL A   1      42.508  27.482  29.097  1.00  0.00     0.167 HD
ATOM     53  C   UNL A   1      46.855  27.145  29.670  1.00  0.00     0.037 A 
ATOM     54  C   UNL A   1      40.060  28.812  29.089  1.00  0.00     0.037 A 
ATOM     55  C   UNL A   1      46.528  28.508  30.007  1.00  0.00     0.049 A 
ATOM     56  C   UNL A   1      41.083  29.795  29.590  1.00  0.00     0.074 A 
ATOM     57  C   UNL A   1      47.377  29.525  30.406  1.00  0.00     0.029 A 
ATOM     58  N   UNL A   1      45.246  29.039  29.994  1.00  0.00    -0.354 N 
ATOM     59  N   UNL A   1      42.378  29.645  29.725  1.00  0.00    -0.248 NA
ATOM     60  C   UNL A   1      40.586  31.121  29.978  1.00  0.00     0.031 C 
ATOM     61  C   UNL A   1      46.602  30.653  30.694  1.00  0.00     0.029 A 
ATOM     62  C   UNL A   1      45.276  30.360  30.410  1.00  0.00     0.049 A 
ATOM     63  H   UNL A   1      44.435  28.549  29.729  1.00  0.00     0.167 HD
ATOM     64  C   UNL A   1      42.856  30.864  30.190  1.00  0.00     0.074 A 
ATOM     65  C   UNL A   1      41.712  31.748  30.289  1.00  0.00     0.031 C 
ATOM     66  C   UNL A   1      44.126  31.223  30.508  1.00  0.00     0.037 A 
BRANCH  53  67
ATOM     67  C   UNL A   1      48.286  26.701  29.790  1.00  0.00     0.057 A 
ATOM     68  C   UNL A   1      48.778  26.074  30.943  1.00  0.00     0.134 A 
ATOM     69  C   UNL A   1      49.177  26.876  28.722  1.00  0.00     0.134 A 
ATOM     70  F   UNL A   1      47.984  25.888  32.008  1.00  0.00    -0.206 F 
ATOM     71  C   UNL A   1      50.108  25.660  31.038  1.00  0.00     0.040 A 
ATOM     72  C   UNL A   1      50.501  26.439  28.795  1.00  0.00     0.040 A 
ATOM     73  F   UNL A   1      48.773  27.466  27.588  1.00  0.00    -0.206 F 
ATOM     74  C   UNL A   1      50.972  25.835  29.959  1.00  0.00     0.006 A 
ENDBRANCH  53  67
BRANCH  54  75
ATOM     75  C   UNL A   1      38.626  29.186  28.984  1.00  0.00     0.057 A 
ATOM     76  C   UNL A   1      37.771  29.117  30.090  1.00  0.00     0.134 A 
ATOM     77  C   UNL A   1      38.073  29.610  27.769  1.00  0.00     0.134 A 
ATOM     78  F   UNL A   1      38.235  28.702  31.278  1.00  0.00    -0.206 F 
ATOM     79  C   UNL A   1      36.415  29.432  29.985  1.00  0.00     0.040 A 
ATOM     80  C   UNL A   1      36.727  29.957  27.657  1.00  0.00     0.040 A 
ATOM     81  F   UNL A   1      38.841  29.704  26.673  1.00  0.00    -0.206 F 
ATOM     82  C   UNL A   1      35.891  29.860  28.767  1.00  0.00     0.006 A 
ENDBRANCH  54  75
BRANCH  66  83
ATOM     83  C   UNL A   1      44.340  32.639  30.963  1.00  0.00     0.057 A 
ATOM     84  C   UNL A   1      44.314  32.996  32.317  1.00  0.00     0.134 A 
ATOM     85  C   UNL A   1      44.590  33.656  30.033  1.00  0.00     0.134 A 
ATOM     86  F   UNL A   1      44.069  32.074  33.260  1.00  0.00    -0.206 F 
ATOM     87  C   UNL A   1      44.486  34.320  32.728  1.00  0.00     0.040 A 
ATOM     88  C   UNL A   1      44.799  34.976  30.432  1.00  0.00     0.040 A 
ATOM     89  F   UNL A   1      44.642  33.383  28.720  1.00  0.00    -0.206 F 
ATOM     90  C   UNL A   1      44.736  35.314  31.782  1.00  0.00     0.006 A 
ENDBRANCH  66  83
ENDBRANCH  40  41
ENDBRANCH  33  35
ENDBRANCH  32  33
ENDBRANCH  31  32
ENDBRANCH  30  31
ENDBRANCH  29  30
ENDBRANCH   1  29
TORSDOF 18
ENDMDL
