MODEL 1
REMARK VINA RESULT:     -12.3      0.000      0.000
REMARK SMILES C[C@]12C[C@@H](O)[C@H]3[C@@H](CCC4=CC(=O)C=C[C@]43C)[C@H]1CC[C@]2(O)C(=O)COC(=O)CCC(=O)OCCOCCOC(=O)c1ccc(-c2c3nc(c(-c4c(F)cccc4F)c4ccc([nH]4)c(-c4c(F)cccc4F)c4nc(c(-c5c(F)cccc5F)c5ccc2[nH]5)C=C4)C=C3)cc1
REMARK SMILES IDX 34 1 33 2 31 3 32 4 30 5 29 6 27 7 28 8 26 9 25 10 23 11
REMARK SMILES IDX 24 12 21 13 17 14 16 15 15 16 10 17 6 18 14 19 11 20 9 21
REMARK SMILES IDX 7 22 4 23 12 24 8 25 18 26 3 27 13 28 2 29 19 30 1 31 20 32
REMARK SMILES IDX 5 33 22 35 35 37 36 38 37 39 38 40 39 41 40 42 41 43 42 44
REMARK SMILES IDX 43 45 95 46 44 47 94 48 45 49 46 50 47 51 88 52 48 53 93 54
REMARK SMILES IDX 87 55 89 56 49 57 92 58 86 59 85 60 50 62 76 63 59 64 75 65
REMARK SMILES IDX 60 66 63 67 74 68 90 69 61 70 62 71 73 73 91 74 64 75 51 76
REMARK SMILES IDX 52 77 57 78 53 79 54 80 56 81 58 82 55 83 77 84 78 85 83 86
REMARK SMILES IDX 79 87 80 88 82 89 84 90 81 91 65 92 66 93 71 94 67 95 68 96
REMARK SMILES IDX 70 97 72 98 69 99
REMARK H PARENT 5 34 22 36 89 61 63 72
REMARK Flexibility Score: inf
ROOT
ATOM      1  C   UNL A   1      39.497  21.284  25.969  1.00  0.00     0.261 C 
ENDROOT
BRANCH   1   2
ATOM      2  O   UNL A   1      38.426  22.246  25.917  1.00  0.00    -0.463 OA
BRANCH   2   3
ATOM      3  C   UNL A   1      37.379  21.926  25.112  1.00  0.00     0.306 C 
ATOM      4  O   UNL A   1      37.392  22.036  23.891  1.00  0.00    -0.252 OA
BRANCH   3   5
ATOM      5  C   UNL A   1      36.164  21.399  25.852  1.00  0.00     0.134 C 
BRANCH   5   6
ATOM      6  C   UNL A   1      35.273  20.393  25.140  1.00  0.00     0.134 C 
BRANCH   6   7
ATOM      7  C   UNL A   1      33.866  20.858  24.834  1.00  0.00     0.306 C 
ATOM      8  O   UNL A   1      33.455  21.080  23.703  1.00  0.00    -0.252 OA
BRANCH   7   9
ATOM      9  O   UNL A   1      33.093  20.841  25.945  1.00  0.00    -0.458 OA
BRANCH   9  10
ATOM     10  C   UNL A   1      32.473  22.066  26.310  1.00  0.00     0.311 C 
BRANCH  10  11
ATOM     11  C   UNL A   1      33.065  23.413  25.883  1.00  0.00     0.202 C 
ATOM     12  O   UNL A   1      34.003  23.885  26.533  1.00  0.00    -0.293 OA
BRANCH  11  13
ATOM     13  C   UNL A   1      32.447  24.201  24.724  1.00  0.00     0.132 C 
ATOM     14  C   UNL A   1      30.079  29.625  21.688  1.00  0.00     0.021 C 
ATOM     15  C   UNL A   1      29.737  29.267  23.172  1.00  0.00     0.013 C 
ATOM     16  C   UNL A   1      30.217  30.471  23.993  1.00  0.00    -0.012 C 
ATOM     17  C   UNL A   1      28.201  29.218  23.286  1.00  0.00    -0.056 C 
ATOM     18  C   UNL A   1      30.468  27.885  23.466  1.00  0.00     0.035 C 
ATOM     19  C   UNL A   1      29.509  31.609  24.077  1.00  0.00     0.048 C 
ATOM     20  C   UNL A   1      27.481  30.361  23.314  1.00  0.00     0.052 C 
ATOM     21  C   UNL A   1      27.456  27.939  23.554  1.00  0.00     0.032 C 
ATOM     22  C   UNL A   1      29.628  26.872  24.268  1.00  0.00    -0.000 C 
ATOM     23  C   UNL A   1      31.873  28.024  24.079  1.00  0.00     0.119 C 
ATOM     24  C   UNL A   1      28.164  31.668  23.463  1.00  0.00     0.178 C 
ATOM     25  C   UNL A   1      28.286  26.667  23.564  1.00  0.00     0.009 C 
ATOM     26  C   UNL A   1      30.328  25.508  24.524  1.00  0.00     0.002 C 
ATOM     27  C   UNL A   1      32.548  26.676  24.219  1.00  0.00     0.042 C 
ATOM     28  O   UNL A   1      27.611  32.725  23.196  1.00  0.00    -0.290 OA
ATOM     29  C   UNL A   1      31.795  25.612  25.034  1.00  0.00     0.009 C 
ATOM     30  C   UNL A   1      30.433  24.504  23.382  1.00  0.00     0.008 C 
ATOM     31  C   UNL A   1      31.690  25.996  26.522  1.00  0.00     0.015 C 
ATOM     32  C   UNL A   1      31.323  23.424  24.003  1.00  0.00     0.044 C 
BRANCH  23  33
ATOM     33  O   UNL A   1      32.715  28.820  23.246  1.00  0.00    -0.393 OA
ATOM     34  H   UNL A   1      33.029  28.287  22.499  1.00  0.00     0.210 HD
ENDBRANCH  23  33
BRANCH  13  35
ATOM     35  O   UNL A   1      33.528  24.307  23.777  1.00  0.00    -0.381 OA
ATOM     36  H   UNL A   1      34.329  23.911  24.155  1.00  0.00     0.212 HD
ENDBRANCH  13  35
ENDBRANCH  11  13
ENDBRANCH  10  11
ENDBRANCH   9  10
ENDBRANCH   7   9
ENDBRANCH   6   7
ENDBRANCH   5   6
ENDBRANCH   3   5
ENDBRANCH   2   3
ENDBRANCH   1   2
BRANCH   1  37
ATOM     37  C   UNL A   1      40.389  21.465  27.200  1.00  0.00     0.202 C 
BRANCH  37  38
ATOM     38  O   UNL A   1      41.530  20.620  27.281  1.00  0.00    -0.374 OA
BRANCH  38  39
ATOM     39  C   UNL A   1      42.303  20.428  26.099  1.00  0.00     0.202 C 
BRANCH  39  40
ATOM     40  C   UNL A   1      43.287  21.544  25.724  1.00  0.00     0.261 C 
BRANCH  40  41
ATOM     41  O   UNL A   1      42.683  22.638  24.999  1.00  0.00    -0.460 OA
BRANCH  41  42
ATOM     42  C   UNL A   1      43.405  23.782  24.986  1.00  0.00     0.338 C 
ATOM     43  O   UNL A   1      44.446  23.996  24.366  1.00  0.00    -0.246 OA
BRANCH  42  44
ATOM     44  C   UNL A   1      42.742  24.848  25.751  1.00  0.00     0.060 A 
ATOM     45  C   UNL A   1      43.347  26.112  25.807  1.00  0.00     0.016 A 
ATOM     46  C   UNL A   1      41.632  24.562  26.548  1.00  0.00     0.016 A 
ATOM     47  C   UNL A   1      42.873  27.079  26.699  1.00  0.00     0.010 A 
ATOM     48  C   UNL A   1      41.158  25.534  27.438  1.00  0.00     0.010 A 
ATOM     49  C   UNL A   1      41.800  26.783  27.551  1.00  0.00    -0.014 A 
BRANCH  49  50
ATOM     50  C   UNL A   1      41.446  27.689  28.679  1.00  0.00     0.031 A 
ATOM     51  C   UNL A   1      42.210  27.570  29.970  1.00  0.00     0.074 A 
ATOM     52  C   UNL A   1      40.454  28.594  28.581  1.00  0.00     0.049 A 
ATOM     53  N   UNL A   1      41.980  28.132  31.129  1.00  0.00    -0.248 NA
ATOM     54  C   UNL A   1      43.398  26.702  29.947  1.00  0.00     0.031 C 
ATOM     55  C   UNL A   1      39.681  28.870  27.377  1.00  0.00     0.029 A 
ATOM     56  N   UNL A   1      39.903  29.421  29.531  1.00  0.00    -0.354 N 
ATOM     57  C   UNL A   1      42.986  27.680  31.973  1.00  0.00     0.074 A 
ATOM     58  C   UNL A   1      43.810  26.773  31.204  1.00  0.00     0.031 C 
ATOM     59  C   UNL A   1      38.709  29.752  27.671  1.00  0.00     0.029 A 
ATOM     60  C   UNL A   1      38.787  30.091  29.089  1.00  0.00     0.049 A 
ATOM     61  H   UNL A   1      40.271  29.522  30.438  1.00  0.00     0.167 HD
ATOM     62  C   UNL A   1      43.213  28.003  33.269  1.00  0.00     0.037 A 
ATOM     63  C   UNL A   1      37.908  30.862  29.758  1.00  0.00     0.037 A 
ATOM     64  C   UNL A   1      42.400  28.908  34.036  1.00  0.00     0.049 A 
ATOM     65  C   UNL A   1      38.118  31.125  31.226  1.00  0.00     0.074 A 
ATOM     66  C   UNL A   1      42.555  29.299  35.354  1.00  0.00     0.029 A 
ATOM     67  N   UNL A   1      41.277  29.563  33.553  1.00  0.00    -0.354 N 
ATOM     68  N   UNL A   1      39.075  30.701  32.013  1.00  0.00    -0.248 NA
ATOM     69  C   UNL A   1      37.129  31.985  31.896  1.00  0.00     0.031 C 
ATOM     70  C   UNL A   1      41.502  30.160  35.682  1.00  0.00     0.029 A 
ATOM     71  C   UNL A   1      40.722  30.343  34.552  1.00  0.00     0.049 A 
ATOM     72  H   UNL A   1      40.927  29.486  32.636  1.00  0.00     0.167 HD
ATOM     73  C   UNL A   1      38.834  31.281  33.254  1.00  0.00     0.074 A 
ATOM     74  C   UNL A   1      37.636  32.081  33.117  1.00  0.00     0.031 C 
ATOM     75  C   UNL A   1      39.549  31.165  34.399  1.00  0.00     0.037 A 
BRANCH  62  76
ATOM     76  C   UNL A   1      44.384  27.356  33.946  1.00  0.00     0.057 A 
ATOM     77  C   UNL A   1      44.306  26.062  34.477  1.00  0.00     0.134 A 
ATOM     78  C   UNL A   1      45.614  28.019  34.034  1.00  0.00     0.134 A 
ATOM     79  F   UNL A   1      43.152  25.379  34.437  1.00  0.00    -0.206 F 
ATOM     80  C   UNL A   1      45.405  25.458  35.089  1.00  0.00     0.040 A 
ATOM     81  C   UNL A   1      46.727  27.416  34.621  1.00  0.00     0.040 A 
ATOM     82  F   UNL A   1      45.757  29.259  33.541  1.00  0.00    -0.206 F 
ATOM     83  C   UNL A   1      46.623  26.134  35.155  1.00  0.00     0.006 A 
ENDBRANCH  62  76
BRANCH  63  84
ATOM     84  C   UNL A   1      36.736  31.446  29.056  1.00  0.00     0.057 A 
ATOM     85  C   UNL A   1      35.630  30.657  28.718  1.00  0.00     0.134 A 
ATOM     86  C   UNL A   1      36.712  32.790  28.666  1.00  0.00     0.134 A 
ATOM     87  F   UNL A   1      35.606  29.355  29.042  1.00  0.00    -0.206 F 
ATOM     88  C   UNL A   1      34.553  31.176  27.999  1.00  0.00     0.040 A 
ATOM     89  C   UNL A   1      35.629  33.330  27.968  1.00  0.00     0.040 A 
ATOM     90  F   UNL A   1      37.743  33.598  28.952  1.00  0.00    -0.206 F 
ATOM     91  C   UNL A   1      34.549  32.519  27.624  1.00  0.00     0.006 A 
ENDBRANCH  63  84
BRANCH  75  92
ATOM     92  C   UNL A   1      39.110  31.980  35.580  1.00  0.00     0.057 A 
ATOM     93  C   UNL A   1      38.312  31.446  36.598  1.00  0.00     0.134 A 
ATOM     94  C   UNL A   1      39.545  33.304  35.725  1.00  0.00     0.134 A 
ATOM     95  F   UNL A   1      37.852  30.189  36.514  1.00  0.00    -0.206 F 
ATOM     96  C   UNL A   1      37.952  32.205  37.713  1.00  0.00     0.040 A 
ATOM     97  C   UNL A   1      39.212  34.065  36.845  1.00  0.00     0.040 A 
ATOM     98  F   UNL A   1      40.318  33.873  34.787  1.00  0.00    -0.206 F 
ATOM     99  C   UNL A   1      38.410  33.516  37.844  1.00  0.00     0.006 A 
ENDBRANCH  75  92
ENDBRANCH  49  50
ENDBRANCH  42  44
ENDBRANCH  41  42
ENDBRANCH  40  41
ENDBRANCH  39  40
ENDBRANCH  38  39
ENDBRANCH  37  38
ENDBRANCH   1  37
TORSDOF 22
ENDMDL
MODEL 2
REMARK VINA RESULT:     -11.5      0.972      2.078
REMARK SMILES C[C@]12C[C@@H](O)[C@H]3[C@@H](CCC4=CC(=O)C=C[C@]43C)[C@H]1CC[C@]2(O)C(=O)COC(=O)CCC(=O)OCCOCCOC(=O)c1ccc(-c2c3nc(c(-c4c(F)cccc4F)c4ccc([nH]4)c(-c4c(F)cccc4F)c4nc(c(-c5c(F)cccc5F)c5ccc2[nH]5)C=C4)C=C3)cc1
REMARK SMILES IDX 34 1 33 2 31 3 32 4 30 5 29 6 27 7 28 8 26 9 25 10 23 11
REMARK SMILES IDX 24 12 21 13 17 14 16 15 15 16 10 17 6 18 14 19 11 20 9 21
REMARK SMILES IDX 7 22 4 23 12 24 8 25 18 26 3 27 13 28 2 29 19 30 1 31 20 32
REMARK SMILES IDX 5 33 22 35 35 37 36 38 37 39 38 40 39 41 40 42 41 43 42 44
REMARK SMILES IDX 43 45 95 46 44 47 94 48 45 49 46 50 47 51 88 52 48 53 93 54
REMARK SMILES IDX 87 55 89 56 49 57 92 58 86 59 85 60 50 62 76 63 59 64 75 65
REMARK SMILES IDX 60 66 63 67 74 68 90 69 61 70 62 71 73 73 91 74 64 75 51 76
REMARK SMILES IDX 52 77 57 78 53 79 54 80 56 81 58 82 55 83 77 84 78 85 83 86
REMARK SMILES IDX 79 87 80 88 82 89 84 90 81 91 65 92 66 93 71 94 67 95 68 96
REMARK SMILES IDX 70 97 72 98 69 99
REMARK H PARENT 5 34 22 36 89 61 63 72
REMARK Flexibility Score: inf
ROOT
ATOM      1  C   UNL A   1      39.569  21.521  25.752  1.00  0.00     0.261 C 
ENDROOT
BRANCH   1   2
ATOM      2  O   UNL A   1      38.239  21.800  26.228  1.00  0.00    -0.463 OA
BRANCH   2   3
ATOM      3  C   UNL A   1      37.289  21.969  25.272  1.00  0.00     0.306 C 
ATOM      4  O   UNL A   1      37.342  22.822  24.393  1.00  0.00    -0.252 OA
BRANCH   3   5
ATOM      5  C   UNL A   1      36.131  20.992  25.366  1.00  0.00     0.134 C 
BRANCH   5   6
ATOM      6  C   UNL A   1      34.761  21.460  24.899  1.00  0.00     0.134 C 
BRANCH   6   7
ATOM      7  C   UNL A   1      33.847  22.003  25.976  1.00  0.00     0.306 C 
ATOM      8  O   UNL A   1      32.954  21.351  26.501  1.00  0.00    -0.252 OA
BRANCH   7   9
ATOM      9  O   UNL A   1      34.247  23.230  26.384  1.00  0.00    -0.458 OA
BRANCH   9  10
ATOM     10  C   UNL A   1      33.914  24.323  25.538  1.00  0.00     0.311 C 
BRANCH  10  11
ATOM     11  C   UNL A   1      32.586  24.362  24.778  1.00  0.00     0.202 C 
ATOM     12  O   UNL A   1      32.414  23.585  23.835  1.00  0.00    -0.293 OA
BRANCH  11  13
ATOM     13  C   UNL A   1      31.522  25.409  25.127  1.00  0.00     0.132 C 
ATOM     14  C   UNL A   1      27.208  30.303  23.832  1.00  0.00     0.021 C 
ATOM     15  C   UNL A   1      28.646  30.257  23.218  1.00  0.00     0.013 C 
ATOM     16  C   UNL A   1      28.431  30.258  21.699  1.00  0.00    -0.012 C 
ATOM     17  C   UNL A   1      29.340  31.584  23.584  1.00  0.00    -0.056 C 
ATOM     18  C   UNL A   1      29.336  28.959  23.825  1.00  0.00     0.035 C 
ATOM     19  C   UNL A   1      28.148  31.380  21.016  1.00  0.00     0.048 C 
ATOM     20  C   UNL A   1      29.016  32.725  22.937  1.00  0.00     0.052 C 
ATOM     21  C   UNL A   1      30.514  31.644  24.523  1.00  0.00     0.032 C 
ATOM     22  C   UNL A   1      30.805  29.152  24.252  1.00  0.00    -0.000 C 
ATOM     23  C   UNL A   1      29.191  27.695  22.959  1.00  0.00     0.119 C 
ATOM     24  C   UNL A   1      28.164  32.678  21.726  1.00  0.00     0.178 C 
ATOM     25  C   UNL A   1      30.894  30.342  25.208  1.00  0.00     0.009 C 
ATOM     26  C   UNL A   1      31.468  27.894  24.879  1.00  0.00     0.002 C 
ATOM     27  C   UNL A   1      29.768  26.481  23.655  1.00  0.00     0.042 C 
ATOM     28  O   UNL A   1      27.601  33.671  21.287  1.00  0.00    -0.290 OA
ATOM     29  C   UNL A   1      31.240  26.573  24.088  1.00  0.00     0.009 C 
ATOM     30  C   UNL A   1      31.112  27.504  26.308  1.00  0.00     0.008 C 
ATOM     31  C   UNL A   1      32.191  26.644  22.878  1.00  0.00     0.015 C 
ATOM     32  C   UNL A   1      31.825  26.156  26.445  1.00  0.00     0.044 C 
BRANCH  23  33
ATOM     33  O   UNL A   1      27.815  27.407  22.706  1.00  0.00    -0.393 OA
ATOM     34  H   UNL A   1      27.344  28.230  22.508  1.00  0.00     0.210 HD
ENDBRANCH  23  33
BRANCH  13  35
ATOM     35  O   UNL A   1      30.345  24.619  25.379  1.00  0.00    -0.381 OA
ATOM     36  H   UNL A   1      30.225  23.977  24.661  1.00  0.00     0.212 HD
ENDBRANCH  13  35
ENDBRANCH  11  13
ENDBRANCH  10  11
ENDBRANCH   9  10
ENDBRANCH   7   9
ENDBRANCH   6   7
ENDBRANCH   5   6
ENDBRANCH   3   5
ENDBRANCH   2   3
ENDBRANCH   1   2
BRANCH   1  37
ATOM     37  C   UNL A   1      40.036  20.108  26.109  1.00  0.00     0.202 C 
BRANCH  37  38
ATOM     38  O   UNL A   1      41.293  20.006  26.766  1.00  0.00    -0.374 OA
BRANCH  38  39
ATOM     39  C   UNL A   1      42.470  20.243  25.996  1.00  0.00     0.202 C 
BRANCH  39  40
ATOM     40  C   UNL A   1      43.095  21.640  26.098  1.00  0.00     0.261 C 
BRANCH  40  41
ATOM     41  O   UNL A   1      42.688  22.542  25.045  1.00  0.00    -0.460 OA
BRANCH  41  42
ATOM     42  C   UNL A   1      43.396  23.693  24.974  1.00  0.00     0.338 C 
ATOM     43  O   UNL A   1      44.416  23.897  24.316  1.00  0.00    -0.246 OA
BRANCH  42  44
ATOM     44  C   UNL A   1      42.743  24.777  25.723  1.00  0.00     0.060 A 
ATOM     45  C   UNL A   1      43.380  26.023  25.794  1.00  0.00     0.016 A 
ATOM     46  C   UNL A   1      41.606  24.521  26.492  1.00  0.00     0.016 A 
ATOM     47  C   UNL A   1      42.910  27.003  26.675  1.00  0.00     0.010 A 
ATOM     48  C   UNL A   1      41.137  25.505  27.370  1.00  0.00     0.010 A 
ATOM     49  C   UNL A   1      41.809  26.736  27.499  1.00  0.00    -0.014 A 
BRANCH  49  50
ATOM     50  C   UNL A   1      41.451  27.651  28.618  1.00  0.00     0.031 A 
ATOM     51  C   UNL A   1      42.208  27.539  29.915  1.00  0.00     0.074 A 
ATOM     52  C   UNL A   1      40.463  28.558  28.509  1.00  0.00     0.049 A 
ATOM     53  N   UNL A   1      41.973  28.111  31.068  1.00  0.00    -0.248 NA
ATOM     54  C   UNL A   1      43.393  26.668  29.905  1.00  0.00     0.031 C 
ATOM     55  C   UNL A   1      39.697  28.828  27.298  1.00  0.00     0.029 A 
ATOM     56  N   UNL A   1      39.909  29.394  29.449  1.00  0.00    -0.354 N 
ATOM     57  C   UNL A   1      42.973  27.662  31.921  1.00  0.00     0.074 A 
ATOM     58  C   UNL A   1      43.799  26.747  31.164  1.00  0.00     0.031 C 
ATOM     59  C   UNL A   1      38.727  29.715  27.580  1.00  0.00     0.029 A 
ATOM     60  C   UNL A   1      38.798  30.065  28.996  1.00  0.00     0.049 A 
ATOM     61  H   UNL A   1      40.272  29.501  30.357  1.00  0.00     0.167 HD
ATOM     62  C   UNL A   1      43.194  27.994  33.216  1.00  0.00     0.037 A 
ATOM     63  C   UNL A   1      37.917  30.843  29.655  1.00  0.00     0.037 A 
ATOM     64  C   UNL A   1      42.379  28.907  33.971  1.00  0.00     0.049 A 
ATOM     65  C   UNL A   1      38.119  31.116  31.122  1.00  0.00     0.074 A 
ATOM     66  C   UNL A   1      42.528  29.308  35.288  1.00  0.00     0.029 A 
ATOM     67  N   UNL A   1      41.261  29.562  33.478  1.00  0.00    -0.354 N 
ATOM     68  N   UNL A   1      39.071  30.695  31.918  1.00  0.00    -0.248 NA
ATOM     69  C   UNL A   1      37.129  31.984  31.781  1.00  0.00     0.031 C 
ATOM     70  C   UNL A   1      41.476  30.174  35.604  1.00  0.00     0.029 A 
ATOM     71  C   UNL A   1      40.703  30.351  34.468  1.00  0.00     0.049 A 
ATOM     72  H   UNL A   1      40.916  29.479  32.559  1.00  0.00     0.167 HD
ATOM     73  C   UNL A   1      38.825  31.284  33.153  1.00  0.00     0.074 A 
ATOM     74  C   UNL A   1      37.630  32.087  33.003  1.00  0.00     0.031 C 
ATOM     75  C   UNL A   1      39.533  31.175  34.302  1.00  0.00     0.037 A 
BRANCH  62  76
ATOM     76  C   UNL A   1      44.360  27.349  33.904  1.00  0.00     0.057 A 
ATOM     77  C   UNL A   1      45.639  27.920  33.879  1.00  0.00     0.134 A 
ATOM     78  C   UNL A   1      44.193  26.165  34.633  1.00  0.00     0.134 A 
ATOM     79  F   UNL A   1      45.867  29.047  33.186  1.00  0.00    -0.206 F 
ATOM     80  C   UNL A   1      46.715  27.325  34.538  1.00  0.00     0.040 A 
ATOM     81  C   UNL A   1      45.257  25.574  35.317  1.00  0.00     0.040 A 
ATOM     82  F   UNL A   1      42.993  25.570  34.701  1.00  0.00    -0.206 F 
ATOM     83  C   UNL A   1      46.524  26.152  35.266  1.00  0.00     0.006 A 
ENDBRANCH  62  76
BRANCH  63  84
ATOM     84  C   UNL A   1      36.750  31.425  28.942  1.00  0.00     0.057 A 
ATOM     85  C   UNL A   1      36.721  32.779  28.589  1.00  0.00     0.134 A 
ATOM     86  C   UNL A   1      35.621  30.655  28.639  1.00  0.00     0.134 A 
ATOM     87  F   UNL A   1      37.762  33.574  28.877  1.00  0.00    -0.206 F 
ATOM     88  C   UNL A   1      35.603  33.353  27.981  1.00  0.00     0.040 A 
ATOM     89  C   UNL A   1      34.505  31.210  28.008  1.00  0.00     0.040 A 
ATOM     90  F   UNL A   1      35.581  29.353  28.958  1.00  0.00    -0.206 F 
ATOM     91  C   UNL A   1      34.491  32.566  27.686  1.00  0.00     0.006 A 
ENDBRANCH  63  84
BRANCH  75  92
ATOM     92  C   UNL A   1      39.090  32.000  35.475  1.00  0.00     0.057 A 
ATOM     93  C   UNL A   1      38.325  31.464  36.517  1.00  0.00     0.134 A 
ATOM     94  C   UNL A   1      39.488  33.339  35.587  1.00  0.00     0.134 A 
ATOM     95  F   UNL A   1      37.901  30.192  36.465  1.00  0.00    -0.206 F 
ATOM     96  C   UNL A   1      37.961  32.234  37.623  1.00  0.00     0.040 A 
ATOM     97  C   UNL A   1      39.152  34.111  36.698  1.00  0.00     0.040 A 
ATOM     98  F   UNL A   1      40.229  33.911  34.626  1.00  0.00    -0.206 F 
ATOM     99  C   UNL A   1      38.383  33.559  37.721  1.00  0.00     0.006 A 
ENDBRANCH  75  92
ENDBRANCH  49  50
ENDBRANCH  42  44
ENDBRANCH  41  42
ENDBRANCH  40  41
ENDBRANCH  39  40
ENDBRANCH  38  39
ENDBRANCH  37  38
ENDBRANCH   1  37
TORSDOF 22
ENDMDL
MODEL 3
REMARK VINA RESULT:     -10.9      6.293      8.371
REMARK SMILES C[C@]12C[C@@H](O)[C@H]3[C@@H](CCC4=CC(=O)C=C[C@]43C)[C@H]1CC[C@]2(O)C(=O)COC(=O)CCC(=O)OCCOCCOC(=O)c1ccc(-c2c3nc(c(-c4c(F)cccc4F)c4ccc([nH]4)c(-c4c(F)cccc4F)c4nc(c(-c5c(F)cccc5F)c5ccc2[nH]5)C=C4)C=C3)cc1
REMARK SMILES IDX 34 1 33 2 31 3 32 4 30 5 29 6 27 7 28 8 26 9 25 10 23 11
REMARK SMILES IDX 24 12 21 13 17 14 16 15 15 16 10 17 6 18 14 19 11 20 9 21
REMARK SMILES IDX 7 22 4 23 12 24 8 25 18 26 3 27 13 28 2 29 19 30 1 31 20 32
REMARK SMILES IDX 5 33 22 35 35 37 36 38 37 39 38 40 39 41 40 42 41 43 42 44
REMARK SMILES IDX 43 45 95 46 44 47 94 48 45 49 46 50 47 51 88 52 48 53 93 54
REMARK SMILES IDX 87 55 89 56 49 57 92 58 86 59 85 60 50 62 76 63 59 64 75 65
REMARK SMILES IDX 60 66 63 67 74 68 90 69 61 70 62 71 73 73 91 74 64 75 51 76
REMARK SMILES IDX 52 77 57 78 53 79 54 80 56 81 58 82 55 83 77 84 78 85 83 86
REMARK SMILES IDX 79 87 80 88 82 89 84 90 81 91 65 92 66 93 71 94 67 95 68 96
REMARK SMILES IDX 70 97 72 98 69 99
REMARK H PARENT 5 34 22 36 89 61 63 72
REMARK Flexibility Score: inf
ROOT
ATOM      1  C   UNL A   1      37.762  22.288  25.512  1.00  0.00     0.261 C 
ENDROOT
BRANCH   1   2
ATOM      2  O   UNL A   1      36.576  21.550  25.865  1.00  0.00    -0.463 OA
BRANCH   2   3
ATOM      3  C   UNL A   1      35.773  21.189  24.831  1.00  0.00     0.306 C 
ATOM      4  O   UNL A   1      35.557  21.890  23.849  1.00  0.00    -0.252 OA
BRANCH   3   5
ATOM      5  C   UNL A   1      35.152  19.811  24.978  1.00  0.00     0.134 C 
BRANCH   5   6
ATOM      6  C   UNL A   1      33.712  19.623  24.525  1.00  0.00     0.134 C 
BRANCH   6   7
ATOM      7  C   UNL A   1      32.678  20.452  25.256  1.00  0.00     0.306 C 
ATOM      8  O   UNL A   1      31.490  20.467  24.963  1.00  0.00    -0.252 OA
BRANCH   7   9
ATOM      9  O   UNL A   1      33.208  21.039  26.354  1.00  0.00    -0.458 OA
BRANCH   9  10
ATOM     10  C   UNL A   1      32.756  22.352  26.656  1.00  0.00     0.311 C 
BRANCH  10  11
ATOM     11  C   UNL A   1      33.444  23.584  26.062  1.00  0.00     0.202 C 
ATOM     12  O   UNL A   1      34.477  24.005  26.591  1.00  0.00    -0.293 OA
BRANCH  11  13
ATOM     13  C   UNL A   1      32.813  24.334  24.884  1.00  0.00     0.132 C 
ATOM     14  C   UNL A   1      30.196  29.602  21.779  1.00  0.00     0.021 C 
ATOM     15  C   UNL A   1      29.832  29.220  23.251  1.00  0.00     0.013 C 
ATOM     16  C   UNL A   1      30.208  30.450  24.087  1.00  0.00    -0.012 C 
ATOM     17  C   UNL A   1      28.299  29.071  23.318  1.00  0.00    -0.056 C 
ATOM     18  C   UNL A   1      30.640  27.886  23.567  1.00  0.00     0.035 C 
ATOM     19  C   UNL A   1      29.425  31.540  24.150  1.00  0.00     0.048 C 
ATOM     20  C   UNL A   1      27.507  30.165  23.324  1.00  0.00     0.052 C 
ATOM     21  C   UNL A   1      27.630  27.746  23.562  1.00  0.00     0.032 C 
ATOM     22  C   UNL A   1      29.843  26.819  24.342  1.00  0.00    -0.000 C 
ATOM     23  C   UNL A   1      32.014  28.114  24.224  1.00  0.00     0.119 C 
ATOM     24  C   UNL A   1      28.099  31.513  23.494  1.00  0.00     0.178 C 
ATOM     25  C   UNL A   1      28.540  26.530  23.597  1.00  0.00     0.009 C 
ATOM     26  C   UNL A   1      30.621  25.503  24.619  1.00  0.00     0.002 C 
ATOM     27  C   UNL A   1      32.770  26.812  24.384  1.00  0.00     0.042 C 
ATOM     28  O   UNL A   1      27.488  32.533  23.211  1.00  0.00    -0.290 OA
ATOM     29  C   UNL A   1      32.062  25.700  25.175  1.00  0.00     0.009 C 
ATOM     30  C   UNL A   1      30.826  24.511  23.480  1.00  0.00     0.008 C 
ATOM     31  C   UNL A   1      31.886  26.072  26.659  1.00  0.00     0.015 C 
ATOM     32  C   UNL A   1      31.764  23.489  24.128  1.00  0.00     0.044 C 
BRANCH  23  33
ATOM     33  O   UNL A   1      32.829  28.965  23.418  1.00  0.00    -0.393 OA
ATOM     34  H   UNL A   1      32.581  28.862  22.486  1.00  0.00     0.210 HD
ENDBRANCH  23  33
BRANCH  13  35
ATOM     35  O   UNL A   1      33.913  24.512  23.971  1.00  0.00    -0.381 OA
ATOM     36  H   UNL A   1      34.710  24.098  24.340  1.00  0.00     0.212 HD
ENDBRANCH  13  35
ENDBRANCH  11  13
ENDBRANCH  10  11
ENDBRANCH   9  10
ENDBRANCH   7   9
ENDBRANCH   6   7
ENDBRANCH   5   6
ENDBRANCH   3   5
ENDBRANCH   2   3
ENDBRANCH   1   2
BRANCH   1  37
ATOM     37  C   UNL A   1      39.044  21.488  25.754  1.00  0.00     0.202 C 
BRANCH  37  38
ATOM     38  O   UNL A   1      40.053  22.131  26.523  1.00  0.00    -0.374 OA
BRANCH  38  39
ATOM     39  C   UNL A   1      40.854  21.324  27.383  1.00  0.00     0.202 C 
BRANCH  39  40
ATOM     40  C   UNL A   1      42.211  21.899  27.809  1.00  0.00     0.261 C 
BRANCH  40  41
ATOM     41  O   UNL A   1      42.124  22.898  28.849  1.00  0.00    -0.460 OA
BRANCH  41  42
ATOM     42  C   UNL A   1      41.834  24.147  28.417  1.00  0.00     0.338 C 
ATOM     43  O   UNL A   1      40.731  24.694  28.415  1.00  0.00    -0.246 OA
BRANCH  42  44
ATOM     44  C   UNL A   1      43.046  24.877  28.018  1.00  0.00     0.060 A 
ATOM     45  C   UNL A   1      43.884  25.387  29.019  1.00  0.00     0.016 A 
ATOM     46  C   UNL A   1      43.265  25.208  26.679  1.00  0.00     0.016 A 
ATOM     47  C   UNL A   1      44.915  26.273  28.689  1.00  0.00     0.010 A 
ATOM     48  C   UNL A   1      44.300  26.092  26.352  1.00  0.00     0.010 A 
ATOM     49  C   UNL A   1      45.105  26.664  27.356  1.00  0.00    -0.014 A 
BRANCH  49  50
ATOM     50  C   UNL A   1      46.015  27.791  27.012  1.00  0.00     0.031 A 
ATOM     51  C   UNL A   1      47.483  27.509  26.837  1.00  0.00     0.074 A 
ATOM     52  C   UNL A   1      45.565  29.052  26.873  1.00  0.00     0.049 A 
ATOM     53  N   UNL A   1      48.480  28.344  26.695  1.00  0.00    -0.248 NA
ATOM     54  C   UNL A   1      47.876  26.092  26.813  1.00  0.00     0.031 C 
ATOM     55  C   UNL A   1      44.168  29.460  26.942  1.00  0.00     0.029 A 
ATOM     56  N   UNL A   1      46.249  30.229  26.683  1.00  0.00    -0.354 N 
ATOM     57  C   UNL A   1      49.618  27.556  26.575  1.00  0.00     0.074 A 
ATOM     58  C   UNL A   1      49.193  26.177  26.691  1.00  0.00     0.031 C 
ATOM     59  C   UNL A   1      44.097  30.801  26.865  1.00  0.00     0.029 A 
ATOM     60  C   UNL A   1      45.448  31.344  26.753  1.00  0.00     0.049 A 
ATOM     61  H   UNL A   1      47.218  30.269  26.514  1.00  0.00     0.167 HD
ATOM     62  C   UNL A   1      50.899  27.944  26.370  1.00  0.00     0.037 A 
ATOM     63  C   UNL A   1      45.769  32.652  26.762  1.00  0.00     0.037 A 
ATOM     64  C   UNL A   1      51.325  29.312  26.247  1.00  0.00     0.049 A 
ATOM     65  C   UNL A   1      47.212  33.064  26.640  1.00  0.00     0.074 A 
ATOM     66  C   UNL A   1      52.602  29.801  26.034  1.00  0.00     0.029 A 
ATOM     67  N   UNL A   1      50.484  30.411  26.328  1.00  0.00    -0.354 N 
ATOM     68  N   UNL A   1      48.279  32.313  26.519  1.00  0.00    -0.248 NA
ATOM     69  C   UNL A   1      47.496  34.508  26.645  1.00  0.00     0.031 C 
ATOM     70  C   UNL A   1      52.540  31.198  26.027  1.00  0.00     0.029 A 
ATOM     71  C   UNL A   1      51.217  31.576  26.185  1.00  0.00     0.049 A 
ATOM     72  H   UNL A   1      49.510  30.369  26.466  1.00  0.00     0.167 HD
ATOM     73  C   UNL A   1      49.349  33.189  26.381  1.00  0.00     0.074 A 
ATOM     74  C   UNL A   1      48.805  34.529  26.442  1.00  0.00     0.031 C 
ATOM     75  C   UNL A   1      50.663  32.905  26.211  1.00  0.00     0.037 A 
BRANCH  62  76
ATOM     76  C   UNL A   1      51.940  26.867  26.281  1.00  0.00     0.057 A 
ATOM     77  C   UNL A   1      52.264  26.254  25.063  1.00  0.00     0.134 A 
ATOM     78  C   UNL A   1      52.652  26.467  27.417  1.00  0.00     0.134 A 
ATOM     79  F   UNL A   1      51.607  26.584  23.939  1.00  0.00    -0.206 F 
ATOM     80  C   UNL A   1      53.247  25.268  24.983  1.00  0.00     0.040 A 
ATOM     81  C   UNL A   1      53.655  25.499  27.346  1.00  0.00     0.040 A 
ATOM     82  F   UNL A   1      52.393  27.018  28.613  1.00  0.00    -0.206 F 
ATOM     83  C   UNL A   1      53.951  24.892  26.127  1.00  0.00     0.006 A 
ENDBRANCH  62  76
BRANCH  63  84
ATOM     84  C   UNL A   1      44.708  33.684  26.899  1.00  0.00     0.057 A 
ATOM     85  C   UNL A   1      44.016  34.160  25.779  1.00  0.00     0.134 A 
ATOM     86  C   UNL A   1      44.395  34.251  28.140  1.00  0.00     0.134 A 
ATOM     87  F   UNL A   1      44.290  33.674  24.559  1.00  0.00    -0.206 F 
ATOM     88  C   UNL A   1      43.066  35.177  25.884  1.00  0.00     0.040 A 
ATOM     89  C   UNL A   1      43.429  35.252  28.263  1.00  0.00     0.040 A 
ATOM     90  F   UNL A   1      45.028  33.846  29.250  1.00  0.00    -0.206 F 
ATOM     91  C   UNL A   1      42.768  35.724  27.131  1.00  0.00     0.006 A 
ENDBRANCH  63  84
BRANCH  75  92
ATOM     92  C   UNL A   1      51.602  34.056  25.997  1.00  0.00     0.057 A 
ATOM     93  C   UNL A   1      52.103  34.817  27.059  1.00  0.00     0.134 A 
ATOM     94  C   UNL A   1      52.057  34.365  24.708  1.00  0.00     0.134 A 
ATOM     95  F   UNL A   1      51.698  34.580  28.316  1.00  0.00    -0.206 F 
ATOM     96  C   UNL A   1      53.013  35.854  26.846  1.00  0.00     0.040 A 
ATOM     97  C   UNL A   1      52.985  35.383  24.485  1.00  0.00     0.040 A 
ATOM     98  F   UNL A   1      51.622  33.669  23.647  1.00  0.00    -0.206 F 
ATOM     99  C   UNL A   1      53.464  36.133  25.557  1.00  0.00     0.006 A 
ENDBRANCH  75  92
ENDBRANCH  49  50
ENDBRANCH  42  44
ENDBRANCH  41  42
ENDBRANCH  40  41
ENDBRANCH  39  40
ENDBRANCH  38  39
ENDBRANCH  37  38
ENDBRANCH   1  37
TORSDOF 22
ENDMDL
