MODEL 1
REMARK VINA RESULT:     -10.7      0.000      0.000
REMARK SMILES Cc1ccc(C(N)=O)c(NCc2ccc(C(=O)OCCOCCOC(=O)c3ccc(-c4c5nc(c(-c6c(F)cccc6F)c6ccc([nH]6)c(-c6c(F)cccc6F)c6nc(c(-c7c(F)cccc7F)c7ccc4[nH]7)C=C6)C=C5)cc3)o2)n1
REMARK SMILES IDX 20 1 19 2 18 3 16 4 17 5 15 6 12 7 13 8 81 9 14 10 11 11
REMARK SMILES IDX 10 12 9 14 1 15 2 16 3 17 82 18 4 19 5 20 6 21 7 22 8 23
REMARK SMILES IDX 21 26 22 27 23 28 24 29 25 30 26 31 27 32 28 33 80 34 29 35
REMARK SMILES IDX 79 36 30 37 31 38 32 39 73 40 33 41 78 42 72 43 74 44 34 45
REMARK SMILES IDX 77 46 71 47 70 48 35 50 61 51 44 52 60 53 45 54 48 55 59 56
REMARK SMILES IDX 75 57 46 58 47 59 58 61 76 62 49 63 36 64 37 65 42 66 38 67
REMARK SMILES IDX 39 68 41 69 43 70 40 71 62 72 63 73 68 74 64 75 65 76 67 77
REMARK SMILES IDX 69 78 66 79 50 80 51 81 56 82 52 83 53 84 55 85 57 86 54 87
REMARK H PARENT 10 13 7 24 7 25 74 49 48 60
REMARK Flexibility Score: inf
ROOT
ATOM      1  C   UNL A   1      32.147  29.773  25.779  1.00  0.00     0.202 C 
ENDROOT
BRANCH   1   2
ATOM      2  C   UNL A   1      31.179  30.153  24.655  1.00  0.00     0.261 C 
BRANCH   2   3
ATOM      3  O   UNL A   1      31.461  29.376  23.477  1.00  0.00    -0.457 OA
BRANCH   3   4
ATOM      4  C   UNL A   1      30.381  29.078  22.696  1.00  0.00     0.374 C 
ATOM      5  O   UNL A   1      30.055  29.699  21.691  1.00  0.00    -0.242 OA
BRANCH   4   6
ATOM      6  C   UNL A   1      29.762  27.863  23.170  1.00  0.00     0.211 A 
ATOM      7  C   UNL A   1      29.823  25.818  24.006  1.00  0.00     0.124 A 
ATOM      8  C   UNL A   1      28.495  26.186  23.977  1.00  0.00     0.048 A 
ATOM      9  O   UNL A   1      30.588  26.824  23.498  1.00  0.00    -0.452 OA
ATOM     10  C   UNL A   1      28.454  27.505  23.455  1.00  0.00     0.058 A 
BRANCH   7  11
ATOM     11  C   UNL A   1      30.580  24.626  24.487  1.00  0.00     0.190 C 
BRANCH  11  12
ATOM     12  N   UNL A   1      31.251  23.851  23.451  1.00  0.00    -0.362 N 
ATOM     13  H   UNL A   1      30.776  23.615  22.622  1.00  0.00     0.162 HD
BRANCH  12  14
ATOM     14  C   UNL A   1      32.570  23.447  23.645  1.00  0.00     0.139 A 
ATOM     15  C   UNL A   1      34.166  20.405  24.980  1.00  0.00     0.067 C 
ATOM     16  C   UNL A   1      34.033  21.768  24.374  1.00  0.00     0.040 A 
ATOM     17  C   UNL A   1      35.146  22.482  23.958  1.00  0.00     0.024 A 
ATOM     18  N   UNL A   1      32.772  22.247  24.236  1.00  0.00    -0.236 NA
ATOM     19  C   UNL A   1      34.949  23.732  23.384  1.00  0.00     0.019 A 
ATOM     20  C   UNL A   1      33.651  24.236  23.228  1.00  0.00     0.081 A 
BRANCH  20  21
ATOM     21  C   UNL A   1      33.523  25.587  22.619  1.00  0.00     0.252 C 
ATOM     22  N   UNL A   1      33.432  26.664  23.455  1.00  0.00    -0.365 N 
ATOM     23  O   UNL A   1      33.529  25.746  21.404  1.00  0.00    -0.269 OA
ATOM     24  H   UNL A   1      33.428  26.531  24.429  1.00  0.00     0.159 HD
ATOM     25  H   UNL A   1      33.372  27.574  23.081  1.00  0.00     0.159 HD
ENDBRANCH  20  21
ENDBRANCH  12  14
ENDBRANCH  11  12
ENDBRANCH   7  11
ENDBRANCH   4   6
ENDBRANCH   3   4
ENDBRANCH   2   3
ENDBRANCH   1   2
BRANCH   1  26
ATOM     26  O   UNL A   1      32.237  30.738  26.828  1.00  0.00    -0.374 OA
BRANCH  26  27
ATOM     27  C   UNL A   1      31.357  31.862  26.737  1.00  0.00     0.202 C 
BRANCH  27  28
ATOM     28  C   UNL A   1      32.053  33.227  26.792  1.00  0.00     0.261 C 
BRANCH  28  29
ATOM     29  O   UNL A   1      32.204  33.673  28.154  1.00  0.00    -0.460 OA
BRANCH  29  30
ATOM     30  C   UNL A   1      33.265  34.484  28.376  1.00  0.00     0.338 C 
ATOM     31  O   UNL A   1      33.264  35.701  28.451  1.00  0.00    -0.246 OA
BRANCH  30  32
ATOM     32  C   UNL A   1      34.456  33.671  28.694  1.00  0.00     0.060 A 
ATOM     33  C   UNL A   1      34.240  32.395  29.229  1.00  0.00     0.016 A 
ATOM     34  C   UNL A   1      35.756  34.158  28.527  1.00  0.00     0.016 A 
ATOM     35  C   UNL A   1      35.320  31.620  29.644  1.00  0.00     0.010 A 
ATOM     36  C   UNL A   1      36.839  33.380  28.951  1.00  0.00     0.010 A 
ATOM     37  C   UNL A   1      36.624  32.122  29.541  1.00  0.00    -0.014 A 
BRANCH  37  38
ATOM     38  C   UNL A   1      37.744  31.387  30.178  1.00  0.00     0.031 A 
ATOM     39  C   UNL A   1      38.062  31.647  31.624  1.00  0.00     0.074 A 
ATOM     40  C   UNL A   1      38.452  30.478  29.485  1.00  0.00     0.049 A 
ATOM     41  N   UNL A   1      39.005  31.134  32.372  1.00  0.00    -0.248 NA
ATOM     42  C   UNL A   1      37.199  32.616  32.320  1.00  0.00     0.031 C 
ATOM     43  C   UNL A   1      38.222  30.110  28.089  1.00  0.00     0.029 A 
ATOM     44  N   UNL A   1      39.516  29.700  29.867  1.00  0.00    -0.354 N 
ATOM     45  C   UNL A   1      38.853  31.718  33.623  1.00  0.00     0.074 A 
ATOM     46  C   UNL A   1      37.746  32.645  33.527  1.00  0.00     0.031 C 
ATOM     47  C   UNL A   1      39.125  29.183  27.729  1.00  0.00     0.029 A 
ATOM     48  C   UNL A   1      40.012  28.912  28.859  1.00  0.00     0.049 A 
ATOM     49  H   UNL A   1      39.888  29.706  30.780  1.00  0.00     0.167 HD
ATOM     50  C   UNL A   1      39.565  31.495  34.754  1.00  0.00     0.037 A 
ATOM     51  C   UNL A   1      41.071  28.080  28.846  1.00  0.00     0.037 A 
ATOM     52  C   UNL A   1      40.664  30.573  34.852  1.00  0.00     0.049 A 
ATOM     53  C   UNL A   1      41.887  27.897  30.097  1.00  0.00     0.074 A 
ATOM     54  C   UNL A   1      41.434  30.263  35.960  1.00  0.00     0.029 A 
ATOM     55  N   UNL A   1      41.155  29.815  33.800  1.00  0.00    -0.354 N 
ATOM     56  N   UNL A   1      41.718  28.434  31.282  1.00  0.00    -0.248 NA
ATOM     57  C   UNL A   1      43.042  26.992  30.009  1.00  0.00     0.031 C 
ATOM     58  C   UNL A   1      42.418  29.349  35.568  1.00  0.00     0.029 A 
ATOM     59  C   UNL A   1      42.234  29.057  34.226  1.00  0.00     0.049 A 
ATOM     60  H   UNL A   1      40.793  29.817  32.885  1.00  0.00     0.167 HD
ATOM     61  C   UNL A   1      42.725  27.913  32.084  1.00  0.00     0.074 A 
ATOM     62  C   UNL A   1      43.496  27.009  31.255  1.00  0.00     0.031 C 
ATOM     63  C   UNL A   1      42.987  28.158  33.392  1.00  0.00     0.037 A 
BRANCH  50  64
ATOM     64  C   UNL A   1      39.184  32.280  35.972  1.00  0.00     0.057 A 
ATOM     65  C   UNL A   1      39.715  33.551  36.227  1.00  0.00     0.134 A 
ATOM     66  C   UNL A   1      38.254  31.772  36.887  1.00  0.00     0.134 A 
ATOM     67  F   UNL A   1      40.622  34.088  35.397  1.00  0.00    -0.206 F 
ATOM     68  C   UNL A   1      39.348  34.280  37.359  1.00  0.00     0.040 A 
ATOM     69  C   UNL A   1      37.863  32.501  38.010  1.00  0.00     0.040 A 
ATOM     70  F   UNL A   1      37.707  30.561  36.699  1.00  0.00    -0.206 F 
ATOM     71  C   UNL A   1      38.414  33.757  38.251  1.00  0.00     0.006 A 
ENDBRANCH  50  64
BRANCH  51  72
ATOM     72  C   UNL A   1      41.432  27.359  27.601  1.00  0.00     0.057 A 
ATOM     73  C   UNL A   1      40.987  26.054  27.363  1.00  0.00     0.134 A 
ATOM     74  C   UNL A   1      42.248  27.950  26.629  1.00  0.00     0.134 A 
ATOM     75  F   UNL A   1      40.222  25.426  28.268  1.00  0.00    -0.206 F 
ATOM     76  C   UNL A   1      41.354  25.356  26.211  1.00  0.00     0.040 A 
ATOM     77  C   UNL A   1      42.604  27.272  25.462  1.00  0.00     0.040 A 
ATOM     78  F   UNL A   1      42.708  29.198  26.800  1.00  0.00    -0.206 F 
ATOM     79  C   UNL A   1      42.162  25.968  25.255  1.00  0.00     0.006 A 
ENDBRANCH  51  72
BRANCH  63  80
ATOM     80  C   UNL A   1      44.132  27.416  34.015  1.00  0.00     0.057 A 
ATOM     81  C   UNL A   1      43.968  26.146  34.583  1.00  0.00     0.134 A 
ATOM     82  C   UNL A   1      45.422  27.961  34.009  1.00  0.00     0.134 A 
ATOM     83  F   UNL A   1      42.756  25.575  34.631  1.00  0.00    -0.206 F 
ATOM     84  C   UNL A   1      45.045  25.453  35.140  1.00  0.00     0.040 A 
ATOM     85  C   UNL A   1      46.510  27.268  34.542  1.00  0.00     0.040 A 
ATOM     86  F   UNL A   1      45.648  29.170  33.473  1.00  0.00    -0.206 F 
ATOM     87  C   UNL A   1      46.321  26.012  35.114  1.00  0.00     0.006 A 
ENDBRANCH  63  80
ENDBRANCH  37  38
ENDBRANCH  30  32
ENDBRANCH  29  30
ENDBRANCH  28  29
ENDBRANCH  27  28
ENDBRANCH  26  27
ENDBRANCH   1  26
TORSDOF 18
ENDMDL
MODEL 2
REMARK VINA RESULT:     -10.5      1.036      2.085
REMARK SMILES Cc1ccc(C(N)=O)c(NCc2ccc(C(=O)OCCOCCOC(=O)c3ccc(-c4c5nc(c(-c6c(F)cccc6F)c6ccc([nH]6)c(-c6c(F)cccc6F)c6nc(c(-c7c(F)cccc7F)c7ccc4[nH]7)C=C6)C=C5)cc3)o2)n1
REMARK SMILES IDX 20 1 19 2 18 3 16 4 17 5 15 6 12 7 13 8 81 9 14 10 11 11
REMARK SMILES IDX 10 12 9 14 1 15 2 16 3 17 82 18 4 19 5 20 6 21 7 22 8 23
REMARK SMILES IDX 21 26 22 27 23 28 24 29 25 30 26 31 27 32 28 33 80 34 29 35
REMARK SMILES IDX 79 36 30 37 31 38 32 39 73 40 33 41 78 42 72 43 74 44 34 45
REMARK SMILES IDX 77 46 71 47 70 48 35 50 61 51 44 52 60 53 45 54 48 55 59 56
REMARK SMILES IDX 75 57 46 58 47 59 58 61 76 62 49 63 36 64 37 65 42 66 38 67
REMARK SMILES IDX 39 68 41 69 43 70 40 71 62 72 63 73 68 74 64 75 65 76 67 77
REMARK SMILES IDX 69 78 66 79 50 80 51 81 56 82 52 83 53 84 55 85 57 86 54 87
REMARK H PARENT 10 13 7 24 7 25 74 49 48 60
REMARK Flexibility Score: inf
ROOT
ATOM      1  C   UNL A   1      32.227  29.736  25.743  1.00  0.00     0.202 C 
ENDROOT
BRANCH   1   2
ATOM      2  C   UNL A   1      31.054  29.869  24.769  1.00  0.00     0.261 C 
BRANCH   2   3
ATOM      3  O   UNL A   1      31.409  29.314  23.489  1.00  0.00    -0.457 OA
BRANCH   3   4
ATOM      4  C   UNL A   1      30.484  28.479  22.931  1.00  0.00     0.374 C 
ATOM      5  O   UNL A   1      29.773  28.765  21.975  1.00  0.00    -0.242 OA
BRANCH   4   6
ATOM      6  C   UNL A   1      30.556  27.184  23.566  1.00  0.00     0.211 A 
ATOM      7  C   UNL A   1      31.655  25.494  24.471  1.00  0.00     0.124 A 
ATOM      8  C   UNL A   1      30.314  25.234  24.665  1.00  0.00     0.048 A 
ATOM      9  O   UNL A   1      31.800  26.663  23.788  1.00  0.00    -0.452 OA
ATOM     10  C   UNL A   1      29.607  26.326  24.097  1.00  0.00     0.058 A 
BRANCH   7  11
ATOM     11  C   UNL A   1      32.929  24.825  24.864  1.00  0.00     0.190 C 
BRANCH  11  12
ATOM     12  N   UNL A   1      33.001  23.398  24.577  1.00  0.00    -0.362 N 
ATOM     13  H   UNL A   1      32.218  22.926  24.212  1.00  0.00     0.162 HD
BRANCH  12  14
ATOM     14  C   UNL A   1      34.185  22.709  24.825  1.00  0.00     0.139 A 
ATOM     15  C   UNL A   1      37.627  23.716  25.675  1.00  0.00     0.067 C 
ATOM     16  C   UNL A   1      36.459  22.827  25.378  1.00  0.00     0.040 A 
ATOM     17  C   UNL A   1      36.566  21.448  25.462  1.00  0.00     0.024 A 
ATOM     18  N   UNL A   1      35.298  23.445  25.051  1.00  0.00    -0.236 NA
ATOM     19  C   UNL A   1      35.437  20.683  25.194  1.00  0.00     0.019 A 
ATOM     20  C   UNL A   1      34.228  21.308  24.862  1.00  0.00     0.081 A 
BRANCH  20  21
ATOM     21  C   UNL A   1      33.068  20.421  24.575  1.00  0.00     0.252 C 
ATOM     22  N   UNL A   1      32.609  19.618  25.579  1.00  0.00    -0.365 N 
ATOM     23  O   UNL A   1      32.512  20.426  23.483  1.00  0.00    -0.269 OA
ATOM     24  H   UNL A   1      33.059  19.618  26.454  1.00  0.00     0.159 HD
ATOM     25  H   UNL A   1      31.827  19.039  25.428  1.00  0.00     0.159 HD
ENDBRANCH  20  21
ENDBRANCH  12  14
ENDBRANCH  11  12
ENDBRANCH   7  11
ENDBRANCH   4   6
ENDBRANCH   3   4
ENDBRANCH   2   3
ENDBRANCH   1   2
BRANCH   1  26
ATOM     26  O   UNL A   1      32.329  30.802  26.689  1.00  0.00    -0.374 OA
BRANCH  26  27
ATOM     27  C   UNL A   1      31.389  31.870  26.548  1.00  0.00     0.202 C 
BRANCH  27  28
ATOM     28  C   UNL A   1      31.987  33.274  26.696  1.00  0.00     0.261 C 
BRANCH  28  29
ATOM     29  O   UNL A   1      32.143  33.623  28.085  1.00  0.00    -0.460 OA
BRANCH  29  30
ATOM     30  C   UNL A   1      33.178  34.454  28.353  1.00  0.00     0.338 C 
ATOM     31  O   UNL A   1      33.144  35.668  28.461  1.00  0.00    -0.246 OA
BRANCH  30  32
ATOM     32  C   UNL A   1      34.383  33.663  28.675  1.00  0.00     0.060 A 
ATOM     33  C   UNL A   1      34.189  32.361  29.154  1.00  0.00     0.016 A 
ATOM     34  C   UNL A   1      35.672  34.192  28.564  1.00  0.00     0.016 A 
ATOM     35  C   UNL A   1      35.279  31.601  29.571  1.00  0.00     0.010 A 
ATOM     36  C   UNL A   1      36.765  33.428  28.989  1.00  0.00     0.010 A 
ATOM     37  C   UNL A   1      36.570  32.142  29.525  1.00  0.00    -0.014 A 
BRANCH  37  38
ATOM     38  C   UNL A   1      37.692  31.415  30.166  1.00  0.00     0.031 A 
ATOM     39  C   UNL A   1      38.009  31.683  31.611  1.00  0.00     0.074 A 
ATOM     40  C   UNL A   1      38.403  30.504  29.478  1.00  0.00     0.049 A 
ATOM     41  N   UNL A   1      38.954  31.177  32.361  1.00  0.00    -0.248 NA
ATOM     42  C   UNL A   1      37.143  32.652  32.302  1.00  0.00     0.031 C 
ATOM     43  C   UNL A   1      38.175  30.129  28.084  1.00  0.00     0.029 A 
ATOM     44  N   UNL A   1      39.469  29.731  29.864  1.00  0.00    -0.354 N 
ATOM     45  C   UNL A   1      38.799  31.767  33.609  1.00  0.00     0.074 A 
ATOM     46  C   UNL A   1      37.688  32.689  33.508  1.00  0.00     0.031 C 
ATOM     47  C   UNL A   1      39.081  29.203  27.729  1.00  0.00     0.029 A 
ATOM     48  C   UNL A   1      39.969  28.940  28.860  1.00  0.00     0.049 A 
ATOM     49  H   UNL A   1      39.842  29.744  30.777  1.00  0.00     0.167 HD
ATOM     50  C   UNL A   1      39.511  31.552  34.741  1.00  0.00     0.037 A 
ATOM     51  C   UNL A   1      41.031  28.112  28.852  1.00  0.00     0.037 A 
ATOM     52  C   UNL A   1      40.614  30.634  34.845  1.00  0.00     0.049 A 
ATOM     53  C   UNL A   1      41.847  27.939  30.104  1.00  0.00     0.074 A 
ATOM     54  C   UNL A   1      41.384  30.333  35.955  1.00  0.00     0.029 A 
ATOM     55  N   UNL A   1      41.108  29.873  33.797  1.00  0.00    -0.354 N 
ATOM     56  N   UNL A   1      41.675  28.481  31.286  1.00  0.00    -0.248 NA
ATOM     57  C   UNL A   1      43.005  27.036  30.021  1.00  0.00     0.031 C 
ATOM     58  C   UNL A   1      42.371  29.420  35.567  1.00  0.00     0.029 A 
ATOM     59  C   UNL A   1      42.188  29.120  34.227  1.00  0.00     0.049 A 
ATOM     60  H   UNL A   1      40.745  29.868  32.881  1.00  0.00     0.167 HD
ATOM     61  C   UNL A   1      42.684  27.967  32.091  1.00  0.00     0.074 A 
ATOM     62  C   UNL A   1      43.458  27.062  31.267  1.00  0.00     0.031 C 
ATOM     63  C   UNL A   1      42.945  28.220  33.398  1.00  0.00     0.037 A 
BRANCH  50  64
ATOM     64  C   UNL A   1      39.128  32.342  35.956  1.00  0.00     0.057 A 
ATOM     65  C   UNL A   1      38.257  31.829  36.926  1.00  0.00     0.134 A 
ATOM     66  C   UNL A   1      39.658  33.619  36.173  1.00  0.00     0.134 A 
ATOM     67  F   UNL A   1      37.703  30.617  36.770  1.00  0.00    -0.206 F 
ATOM     68  C   UNL A   1      37.912  32.567  38.059  1.00  0.00     0.040 A 
ATOM     69  C   UNL A   1      39.339  34.357  37.313  1.00  0.00     0.040 A 
ATOM     70  F   UNL A   1      40.500  34.167  35.283  1.00  0.00    -0.206 F 
ATOM     71  C   UNL A   1      38.460  33.833  38.258  1.00  0.00     0.006 A 
ENDBRANCH  50  64
BRANCH  51  72
ATOM     72  C   UNL A   1      41.395  27.385  27.610  1.00  0.00     0.057 A 
ATOM     73  C   UNL A   1      42.209  27.975  26.637  1.00  0.00     0.134 A 
ATOM     74  C   UNL A   1      40.917  26.094  27.358  1.00  0.00     0.134 A 
ATOM     75  F   UNL A   1      42.678  29.219  26.813  1.00  0.00    -0.206 F 
ATOM     76  C   UNL A   1      42.525  27.312  25.451  1.00  0.00     0.040 A 
ATOM     77  C   UNL A   1      41.243  25.410  26.185  1.00  0.00     0.040 A 
ATOM     78  F   UNL A   1      40.130  25.476  28.251  1.00  0.00    -0.206 F 
ATOM     79  C   UNL A   1      42.045  26.023  25.224  1.00  0.00     0.006 A 
ENDBRANCH  51  72
BRANCH  63  80
ATOM     80  C   UNL A   1      44.092  27.485  34.025  1.00  0.00     0.057 A 
ATOM     81  C   UNL A   1      43.920  26.247  34.658  1.00  0.00     0.134 A 
ATOM     82  C   UNL A   1      45.392  28.003  33.957  1.00  0.00     0.134 A 
ATOM     83  F   UNL A   1      42.699  25.704  34.766  1.00  0.00    -0.206 F 
ATOM     84  C   UNL A   1      44.998  25.559  35.219  1.00  0.00     0.040 A 
ATOM     85  C   UNL A   1      46.481  27.314  34.494  1.00  0.00     0.040 A 
ATOM     86  F   UNL A   1      45.626  29.180  33.358  1.00  0.00    -0.206 F 
ATOM     87  C   UNL A   1      46.284  26.090  35.132  1.00  0.00     0.006 A 
ENDBRANCH  63  80
ENDBRANCH  37  38
ENDBRANCH  30  32
ENDBRANCH  29  30
ENDBRANCH  28  29
ENDBRANCH  27  28
ENDBRANCH  26  27
ENDBRANCH   1  26
TORSDOF 18
ENDMDL
MODEL 3
REMARK VINA RESULT:     -10.4      1.170      6.307
REMARK SMILES Cc1ccc(C(N)=O)c(NCc2ccc(C(=O)OCCOCCOC(=O)c3ccc(-c4c5nc(c(-c6c(F)cccc6F)c6ccc([nH]6)c(-c6c(F)cccc6F)c6nc(c(-c7c(F)cccc7F)c7ccc4[nH]7)C=C6)C=C5)cc3)o2)n1
REMARK SMILES IDX 20 1 19 2 18 3 16 4 17 5 15 6 12 7 13 8 81 9 14 10 11 11
REMARK SMILES IDX 10 12 9 14 1 15 2 16 3 17 82 18 4 19 5 20 6 21 7 22 8 23
REMARK SMILES IDX 21 26 22 27 23 28 24 29 25 30 26 31 27 32 28 33 80 34 29 35
REMARK SMILES IDX 79 36 30 37 31 38 32 39 73 40 33 41 78 42 72 43 74 44 34 45
REMARK SMILES IDX 77 46 71 47 70 48 35 50 61 51 44 52 60 53 45 54 48 55 59 56
REMARK SMILES IDX 75 57 46 58 47 59 58 61 76 62 49 63 36 64 37 65 42 66 38 67
REMARK SMILES IDX 39 68 41 69 43 70 40 71 62 72 63 73 68 74 64 75 65 76 67 77
REMARK SMILES IDX 69 78 66 79 50 80 51 81 56 82 52 83 53 84 55 85 57 86 54 87
REMARK H PARENT 10 13 7 24 7 25 74 49 48 60
REMARK Flexibility Score: inf
ROOT
ATOM      1  C   UNL A   1      32.775  29.523  26.336  1.00  0.00     0.202 C 
ENDROOT
BRANCH   1   2
ATOM      2  C   UNL A   1      31.668  29.521  25.279  1.00  0.00     0.261 C 
BRANCH   2   3
ATOM      3  O   UNL A   1      32.181  29.034  24.027  1.00  0.00    -0.457 OA
BRANCH   3   4
ATOM      4  C   UNL A   1      31.259  28.480  23.186  1.00  0.00     0.374 C 
ATOM      5  O   UNL A   1      30.268  29.061  22.759  1.00  0.00    -0.242 OA
BRANCH   4   6
ATOM      6  C   UNL A   1      31.691  27.160  22.795  1.00  0.00     0.211 A 
ATOM      7  C   UNL A   1      31.513  24.957  22.769  1.00  0.00     0.124 A 
ATOM      8  C   UNL A   1      32.530  25.274  21.894  1.00  0.00     0.048 A 
ATOM      9  O   UNL A   1      31.020  26.096  23.331  1.00  0.00    -0.452 OA
ATOM     10  C   UNL A   1      32.635  26.690  21.897  1.00  0.00     0.058 A 
BRANCH   7  11
ATOM     11  C   UNL A   1      30.835  23.696  23.191  1.00  0.00     0.190 C 
BRANCH  11  12
ATOM     12  N   UNL A   1      31.537  22.917  24.203  1.00  0.00    -0.362 N 
ATOM     13  H   UNL A   1      31.125  22.105  24.578  1.00  0.00     0.162 HD
BRANCH  12  14
ATOM     14  C   UNL A   1      32.794  23.332  24.636  1.00  0.00     0.139 A 
ATOM     15  C   UNL A   1      36.239  22.805  23.436  1.00  0.00     0.067 C 
ATOM     16  C   UNL A   1      35.110  23.311  24.281  1.00  0.00     0.040 A 
ATOM     17  C   UNL A   1      35.333  24.197  25.322  1.00  0.00     0.024 A 
ATOM     18  N   UNL A   1      33.869  22.874  23.953  1.00  0.00    -0.236 NA
ATOM     19  C   UNL A   1      34.238  24.644  26.052  1.00  0.00     0.019 A 
ATOM     20  C   UNL A   1      32.949  24.206  25.721  1.00  0.00     0.081 A 
BRANCH  20  21
ATOM     21  C   UNL A   1      31.829  24.717  26.557  1.00  0.00     0.252 C 
ATOM     22  N   UNL A   1      31.518  26.045  26.476  1.00  0.00    -0.365 N 
ATOM     23  O   UNL A   1      31.176  23.972  27.278  1.00  0.00    -0.269 OA
ATOM     24  H   UNL A   1      32.046  26.638  25.895  1.00  0.00     0.159 HD
ATOM     25  H   UNL A   1      30.766  26.407  26.998  1.00  0.00     0.159 HD
ENDBRANCH  20  21
ENDBRANCH  12  14
ENDBRANCH  11  12
ENDBRANCH   7  11
ENDBRANCH   4   6
ENDBRANCH   3   4
ENDBRANCH   2   3
ENDBRANCH   1   2
BRANCH   1  26
ATOM     26  O   UNL A   1      32.716  30.622  27.247  1.00  0.00    -0.374 OA
BRANCH  26  27
ATOM     27  C   UNL A   1      31.856  31.705  26.884  1.00  0.00     0.202 C 
BRANCH  27  28
ATOM     28  C   UNL A   1      32.527  33.083  26.878  1.00  0.00     0.261 C 
BRANCH  28  29
ATOM     29  O   UNL A   1      32.168  33.835  28.053  1.00  0.00    -0.460 OA
BRANCH  29  30
ATOM     30  C   UNL A   1      33.130  34.671  28.513  1.00  0.00     0.338 C 
ATOM     31  O   UNL A   1      33.034  35.870  28.715  1.00  0.00    -0.246 OA
BRANCH  30  32
ATOM     32  C   UNL A   1      34.318  33.892  28.913  1.00  0.00     0.060 A 
ATOM     33  C   UNL A   1      34.107  32.759  29.710  1.00  0.00     0.016 A 
ATOM     34  C   UNL A   1      35.615  34.282  28.567  1.00  0.00     0.016 A 
ATOM     35  C   UNL A   1      35.193  32.041  30.204  1.00  0.00     0.010 A 
ATOM     36  C   UNL A   1      36.704  33.562  29.070  1.00  0.00     0.010 A 
ATOM     37  C   UNL A   1      36.499  32.458  29.918  1.00  0.00    -0.014 A 
BRANCH  37  38
ATOM     38  C   UNL A   1      37.641  31.823  30.618  1.00  0.00     0.031 A 
ATOM     39  C   UNL A   1      38.447  30.775  29.902  1.00  0.00     0.074 A 
ATOM     40  C   UNL A   1      37.974  32.192  31.867  1.00  0.00     0.049 A 
ATOM     41  N   UNL A   1      39.469  30.078  30.329  1.00  0.00    -0.248 NA
ATOM     42  C   UNL A   1      38.047  30.474  28.518  1.00  0.00     0.031 C 
ATOM     43  C   UNL A   1      37.294  33.218  32.656  1.00  0.00     0.029 A 
ATOM     44  N   UNL A   1      38.973  31.739  32.692  1.00  0.00    -0.354 N 
ATOM     45  C   UNL A   1      39.832  29.255  29.270  1.00  0.00     0.074 A 
ATOM     46  C   UNL A   1      38.904  29.518  28.191  1.00  0.00     0.031 C 
ATOM     47  C   UNL A   1      37.891  33.310  33.857  1.00  0.00     0.029 A 
ATOM     48  C   UNL A   1      38.975  32.332  33.930  1.00  0.00     0.049 A 
ATOM     49  H   UNL A   1      39.626  31.053  32.421  1.00  0.00     0.167 HD
ATOM     50  C   UNL A   1      40.854  28.368  29.200  1.00  0.00     0.037 A 
ATOM     51  C   UNL A   1      39.754  32.100  35.004  1.00  0.00     0.037 A 
ATOM     52  C   UNL A   1      41.778  28.107  30.270  1.00  0.00     0.049 A 
ATOM     53  C   UNL A   1      40.841  31.062  34.923  1.00  0.00     0.074 A 
ATOM     54  C   UNL A   1      42.858  27.241  30.285  1.00  0.00     0.029 A 
ATOM     55  N   UNL A   1      41.729  28.707  31.519  1.00  0.00    -0.354 N 
ATOM     56  N   UNL A   1      41.192  30.309  33.908  1.00  0.00    -0.248 NA
ATOM     57  C   UNL A   1      41.640  30.843  36.137  1.00  0.00     0.031 C 
ATOM     58  C   UNL A   1      43.436  27.286  31.559  1.00  0.00     0.029 A 
ATOM     59  C   UNL A   1      42.744  28.212  32.321  1.00  0.00     0.049 A 
ATOM     60  H   UNL A   1      41.070  29.384  31.795  1.00  0.00     0.167 HD
ATOM     61  C   UNL A   1      42.267  29.549  34.352  1.00  0.00     0.074 A 
ATOM     62  C   UNL A   1      42.517  29.938  35.725  1.00  0.00     0.031 C 
ATOM     63  C   UNL A   1      42.984  28.613  33.683  1.00  0.00     0.037 A 
BRANCH  50  64
ATOM     64  C   UNL A   1      41.009  27.599  27.923  1.00  0.00     0.057 A 
ATOM     65  C   UNL A   1      41.808  28.068  26.871  1.00  0.00     0.134 A 
ATOM     66  C   UNL A   1      40.377  26.362  27.753  1.00  0.00     0.134 A 
ATOM     67  F   UNL A   1      42.429  29.253  26.965  1.00  0.00    -0.206 F 
ATOM     68  C   UNL A   1      41.956  27.341  25.689  1.00  0.00     0.040 A 
ATOM     69  C   UNL A   1      40.535  25.616  26.584  1.00  0.00     0.040 A 
ATOM     70  F   UNL A   1      39.600  25.856  28.723  1.00  0.00    -0.206 F 
ATOM     71  C   UNL A   1      41.323  26.108  25.546  1.00  0.00     0.006 A 
ENDBRANCH  50  64
BRANCH  51  72
ATOM     72  C   UNL A   1      39.530  32.858  36.260  1.00  0.00     0.057 A 
ATOM     73  C   UNL A   1      38.618  32.414  37.223  1.00  0.00     0.134 A 
ATOM     74  C   UNL A   1      40.207  34.057  36.515  1.00  0.00     0.134 A 
ATOM     75  F   UNL A   1      37.922  31.285  37.023  1.00  0.00    -0.206 F 
ATOM     76  C   UNL A   1      38.375  33.141  38.389  1.00  0.00     0.040 A 
ATOM     77  C   UNL A   1      39.991  34.783  37.688  1.00  0.00     0.040 A 
ATOM     78  F   UNL A   1      41.093  34.536  35.630  1.00  0.00    -0.206 F 
ATOM     79  C   UNL A   1      39.066  34.328  38.625  1.00  0.00     0.006 A 
ENDBRANCH  51  72
BRANCH  63  80
ATOM     80  C   UNL A   1      44.127  27.970  34.411  1.00  0.00     0.057 A 
ATOM     81  C   UNL A   1      45.401  28.550  34.445  1.00  0.00     0.134 A 
ATOM     82  C   UNL A   1      43.938  26.779  35.124  1.00  0.00     0.134 A 
ATOM     83  F   UNL A   1      45.650  29.683  33.774  1.00  0.00    -0.206 F 
ATOM     84  C   UNL A   1      46.454  27.956  35.146  1.00  0.00     0.040 A 
ATOM     85  C   UNL A   1      44.975  26.188  35.847  1.00  0.00     0.040 A 
ATOM     86  F   UNL A   1      42.739  26.177  35.139  1.00  0.00    -0.206 F 
ATOM     87  C   UNL A   1      46.239  26.775  35.854  1.00  0.00     0.006 A 
ENDBRANCH  63  80
ENDBRANCH  37  38
ENDBRANCH  30  32
ENDBRANCH  29  30
ENDBRANCH  28  29
ENDBRANCH  27  28
ENDBRANCH  26  27
ENDBRANCH   1  26
TORSDOF 18
ENDMDL
