MODEL 1
REMARK VINA RESULT:      -9.4      0.000      0.000
REMARK SMILES CC(C)CCc1cc2c(cc1Cl)C=C(C(=O)OCCOCCOC(=O)c1ccc(-c3c4nc(c(-c5c(F)cccc5F)c5ccc([nH]5)c(-c5c(F)cccc5F)c5nc(c(-c6c(F)cccc6F)c6ccc3[nH]6)C=C5)C=C4)cc1)[C@@H](C(F)(F)F)O2
REMARK SMILES IDX 19 1 18 2 17 3 15 4 16 5 14 6 6 7 7 8 11 9 8 10 10 11 12 12
REMARK SMILES IDX 9 13 85 14 13 15 80 16 5 17 4 18 2 19 1 20 3 21 81 22 82 23
REMARK SMILES IDX 83 24 84 25 20 26 21 27 22 28 23 29 24 30 25 31 26 32 27 33
REMARK SMILES IDX 79 34 28 35 78 36 29 37 30 38 31 39 72 40 32 41 77 42 71 43
REMARK SMILES IDX 73 44 33 45 76 46 70 47 69 48 34 50 60 51 43 52 59 53 44 54
REMARK SMILES IDX 47 55 58 56 74 57 45 58 46 59 57 61 75 62 48 63 35 64 36 65
REMARK SMILES IDX 41 66 37 67 38 68 40 69 42 70 39 71 61 72 62 73 67 74 63 75
REMARK SMILES IDX 64 76 66 77 68 78 65 79 49 80 50 81 55 82 51 83 52 84 54 85
REMARK SMILES IDX 56 86 53 87
REMARK H PARENT 73 49 47 60
REMARK Flexibility Score: inf
ROOT
ATOM      1  C   UNL A   1      34.203  36.433  33.195  1.00  0.00     0.202 C 
ENDROOT
BRANCH   1   2
ATOM      2  C   UNL A   1      35.303  35.417  32.872  1.00  0.00     0.261 C 
BRANCH   2   3
ATOM      3  O   UNL A   1      35.968  34.948  34.054  1.00  0.00    -0.460 OA
BRANCH   3   4
ATOM      4  C   UNL A   1      35.784  33.631  34.311  1.00  0.00     0.338 C 
ATOM      5  O   UNL A   1      34.722  33.031  34.335  1.00  0.00    -0.246 OA
BRANCH   4   6
ATOM      6  C   UNL A   1      37.092  32.961  34.436  1.00  0.00     0.087 C 
ATOM      7  C   UNL A   1      40.707  29.483  34.383  1.00  0.00    -0.026 A 
ATOM      8  C   UNL A   1      40.550  30.737  35.009  1.00  0.00     0.052 A 
ATOM      9  C   UNL A   1      39.774  29.116  33.399  1.00  0.00     0.045 A 
ATOM     10  C   UNL A   1      39.442  31.543  34.746  1.00  0.00     0.128 A 
ATOM     11  C   UNL A   1      38.672  29.931  33.125  1.00  0.00     0.032 A 
ATOM     12  Cl  UNL A   1      39.904  27.653  32.489  1.00  0.00    -0.084 Cl
ATOM     13  C   UNL A   1      38.485  31.124  33.827  1.00  0.00     0.019 A 
ATOM     14  O   UNL A   1      39.367  32.718  35.437  1.00  0.00    -0.475 OA
ATOM     15  C   UNL A   1      37.270  31.892  33.651  1.00  0.00     0.027 C 
ATOM     16  C   UNL A   1      38.118  33.467  35.413  1.00  0.00     0.316 C 
BRANCH   7  17
ATOM     17  C   UNL A   1      41.848  28.586  34.814  1.00  0.00     0.037 C 
BRANCH  17  18
ATOM     18  C   UNL A   1      41.784  28.142  36.288  1.00  0.00     0.008 C 
BRANCH  18  19
ATOM     19  C   UNL A   1      41.784  26.616  36.527  1.00  0.00    -0.017 C 
ATOM     20  C   UNL A   1      41.793  25.819  35.222  1.00  0.00     0.007 C 
ATOM     21  C   UNL A   1      42.996  26.225  37.376  1.00  0.00     0.007 C 
ENDBRANCH  18  19
ENDBRANCH  17  18
ENDBRANCH   7  17
BRANCH  16  22
ATOM     22  C   UNL A   1      37.571  33.552  36.846  1.00  0.00     0.430 C 
ATOM     23  F   UNL A   1      37.757  32.387  37.512  1.00  0.00    -0.167 F 
ATOM     24  F   UNL A   1      38.200  34.511  37.566  1.00  0.00    -0.167 F 
ATOM     25  F   UNL A   1      36.248  33.829  36.870  1.00  0.00    -0.167 F 
ENDBRANCH  16  22
ENDBRANCH   4   6
ENDBRANCH   3   4
ENDBRANCH   2   3
ENDBRANCH   1   2
BRANCH   1  26
ATOM     26  O   UNL A   1      33.612  37.142  32.110  1.00  0.00    -0.374 OA
BRANCH  26  27
ATOM     27  C   UNL A   1      32.624  36.483  31.318  1.00  0.00     0.202 C 
BRANCH  27  28
ATOM     28  C   UNL A   1      33.004  36.026  29.904  1.00  0.00     0.261 C 
BRANCH  28  29
ATOM     29  O   UNL A   1      32.528  34.706  29.594  1.00  0.00    -0.460 OA
BRANCH  29  30
ATOM     30  C   UNL A   1      33.211  34.071  28.609  1.00  0.00     0.338 C 
ATOM     31  O   UNL A   1      32.886  33.954  27.437  1.00  0.00    -0.246 OA
BRANCH  30  32
ATOM     32  C   UNL A   1      34.542  33.688  29.109  1.00  0.00     0.060 A 
ATOM     33  C   UNL A   1      34.685  32.923  30.267  1.00  0.00     0.016 A 
ATOM     34  C   UNL A   1      35.664  34.066  28.359  1.00  0.00     0.016 A 
ATOM     35  C   UNL A   1      35.959  32.505  30.654  1.00  0.00     0.010 A 
ATOM     36  C   UNL A   1      36.936  33.648  28.748  1.00  0.00     0.010 A 
ATOM     37  C   UNL A   1      37.089  32.842  29.884  1.00  0.00    -0.014 A 
BRANCH  37  38
ATOM     38  C   UNL A   1      38.405  32.230  30.187  1.00  0.00     0.031 A 
ATOM     39  C   UNL A   1      39.413  32.922  31.054  1.00  0.00     0.074 A 
ATOM     40  C   UNL A   1      38.692  31.034  29.639  1.00  0.00     0.049 A 
ATOM     41  N   UNL A   1      40.586  32.496  31.451  1.00  0.00    -0.248 NA
ATOM     42  C   UNL A   1      39.064  34.267  31.531  1.00  0.00     0.031 C 
ATOM     43  C   UNL A   1      37.806  30.286  28.746  1.00  0.00     0.029 A 
ATOM     44  N   UNL A   1      39.802  30.238  29.753  1.00  0.00    -0.354 N 
ATOM     45  C   UNL A   1      41.109  33.509  32.243  1.00  0.00     0.074 A 
ATOM     46  C   UNL A   1      40.146  34.592  32.225  1.00  0.00     0.031 C 
ATOM     47  C   UNL A   1      38.393  29.125  28.418  1.00  0.00     0.029 A 
ATOM     48  C   UNL A   1      39.710  29.065  29.044  1.00  0.00     0.049 A 
ATOM     49  H   UNL A   1      40.590  30.483  30.289  1.00  0.00     0.167 HD
ATOM     50  C   UNL A   1      42.275  33.523  32.934  1.00  0.00     0.037 A 
ATOM     51  C   UNL A   1      40.589  28.056  28.912  1.00  0.00     0.037 A 
ATOM     52  C   UNL A   1      43.246  32.456  32.918  1.00  0.00     0.049 A 
ATOM     53  C   UNL A   1      41.905  28.133  29.633  1.00  0.00     0.074 A 
ATOM     54  C   UNL A   1      44.443  32.365  33.606  1.00  0.00     0.029 A 
ATOM     55  N   UNL A   1      43.139  31.300  32.157  1.00  0.00    -0.354 N 
ATOM     56  N   UNL A   1      42.353  29.059  30.446  1.00  0.00    -0.248 NA
ATOM     57  C   UNL A   1      42.838  27.017  29.420  1.00  0.00     0.031 C 
ATOM     58  C   UNL A   1      45.090  31.187  33.215  1.00  0.00     0.029 A 
ATOM     59  C   UNL A   1      44.265  30.509  32.332  1.00  0.00     0.049 A 
ATOM     60  H   UNL A   1      42.376  31.075  31.576  1.00  0.00     0.167 HD
ATOM     61  C   UNL A   1      43.606  28.626  30.862  1.00  0.00     0.074 A 
ATOM     62  C   UNL A   1      43.835  27.343  30.230  1.00  0.00     0.031 C 
ATOM     63  C   UNL A   1      44.488  29.236  31.692  1.00  0.00     0.037 A 
BRANCH  50  64
ATOM     64  C   UNL A   1      42.572  34.743  33.760  1.00  0.00     0.057 A 
ATOM     65  C   UNL A   1      42.379  34.739  35.147  1.00  0.00     0.134 A 
ATOM     66  C   UNL A   1      43.021  35.937  33.177  1.00  0.00     0.134 A 
ATOM     67  F   UNL A   1      41.941  33.636  35.771  1.00  0.00    -0.206 F 
ATOM     68  C   UNL A   1      42.624  35.875  35.924  1.00  0.00     0.040 A 
ATOM     69  C   UNL A   1      43.297  37.069  33.946  1.00  0.00     0.040 A 
ATOM     70  F   UNL A   1      43.233  36.009  31.853  1.00  0.00    -0.206 F 
ATOM     71  C   UNL A   1      43.093  37.041  35.323  1.00  0.00     0.006 A 
ENDBRANCH  50  64
BRANCH  51  72
ATOM     72  C   UNL A   1      40.258  26.879  28.070  1.00  0.00     0.057 A 
ATOM     73  C   UNL A   1      40.775  26.737  26.777  1.00  0.00     0.134 A 
ATOM     74  C   UNL A   1      39.442  25.850  28.554  1.00  0.00     0.134 A 
ATOM     75  F   UNL A   1      41.558  27.693  26.252  1.00  0.00    -0.206 F 
ATOM     76  C   UNL A   1      40.496  25.615  25.998  1.00  0.00     0.040 A 
ATOM     77  C   UNL A   1      39.179  24.707  27.797  1.00  0.00     0.040 A 
ATOM     78  F   UNL A   1      38.929  25.920  29.792  1.00  0.00    -0.206 F 
ATOM     79  C   UNL A   1      39.706  24.590  26.513  1.00  0.00     0.006 A 
ENDBRANCH  51  72
BRANCH  63  80
ATOM     80  C   UNL A   1      45.767  28.502  31.983  1.00  0.00     0.057 A 
ATOM     81  C   UNL A   1      46.892  28.677  31.167  1.00  0.00     0.134 A 
ATOM     82  C   UNL A   1      45.890  27.624  33.069  1.00  0.00     0.134 A 
ATOM     83  F   UNL A   1      46.844  29.496  30.106  1.00  0.00    -0.206 F 
ATOM     84  C   UNL A   1      48.091  28.009  31.421  1.00  0.00     0.040 A 
ATOM     85  C   UNL A   1      47.094  26.976  33.353  1.00  0.00     0.040 A 
ATOM     86  F   UNL A   1      44.857  27.423  33.901  1.00  0.00    -0.206 F 
ATOM     87  C   UNL A   1      48.198  27.164  32.525  1.00  0.00     0.006 A 
ENDBRANCH  63  80
ENDBRANCH  37  38
ENDBRANCH  30  32
ENDBRANCH  29  30
ENDBRANCH  28  29
ENDBRANCH  27  28
ENDBRANCH  26  27
ENDBRANCH   1  26
TORSDOF 18
ENDMDL
MODEL 2
REMARK VINA RESULT:      -9.3      1.173      6.163
REMARK SMILES CC(C)CCc1cc2c(cc1Cl)C=C(C(=O)OCCOCCOC(=O)c1ccc(-c3c4nc(c(-c5c(F)cccc5F)c5ccc([nH]5)c(-c5c(F)cccc5F)c5nc(c(-c6c(F)cccc6F)c6ccc3[nH]6)C=C5)C=C4)cc1)[C@@H](C(F)(F)F)O2
REMARK SMILES IDX 19 1 18 2 17 3 15 4 16 5 14 6 6 7 7 8 11 9 8 10 10 11 12 12
REMARK SMILES IDX 9 13 85 14 13 15 80 16 5 17 4 18 2 19 1 20 3 21 81 22 82 23
REMARK SMILES IDX 83 24 84 25 20 26 21 27 22 28 23 29 24 30 25 31 26 32 27 33
REMARK SMILES IDX 79 34 28 35 78 36 29 37 30 38 31 39 72 40 32 41 77 42 71 43
REMARK SMILES IDX 73 44 33 45 76 46 70 47 69 48 34 50 60 51 43 52 59 53 44 54
REMARK SMILES IDX 47 55 58 56 74 57 45 58 46 59 57 61 75 62 48 63 35 64 36 65
REMARK SMILES IDX 41 66 37 67 38 68 40 69 42 70 39 71 61 72 62 73 67 74 63 75
REMARK SMILES IDX 64 76 66 77 68 78 65 79 49 80 50 81 55 82 51 83 52 84 54 85
REMARK SMILES IDX 56 86 53 87
REMARK H PARENT 73 49 47 60
REMARK Flexibility Score: inf
ROOT
ATOM      1  C   UNL A   1      34.204  36.478  33.708  1.00  0.00     0.202 C 
ENDROOT
BRANCH   1   2
ATOM      2  C   UNL A   1      34.728  35.041  33.614  1.00  0.00     0.261 C 
BRANCH   2   3
ATOM      3  O   UNL A   1      36.107  34.944  33.995  1.00  0.00    -0.460 OA
BRANCH   3   4
ATOM      4  C   UNL A   1      36.372  33.959  34.886  1.00  0.00     0.338 C 
ATOM      5  O   UNL A   1      35.749  33.707  35.905  1.00  0.00    -0.246 OA
BRANCH   4   6
ATOM      6  C   UNL A   1      37.473  33.117  34.384  1.00  0.00     0.087 C 
ATOM      7  C   UNL A   1      40.132  29.171  32.796  1.00  0.00    -0.026 A 
ATOM      8  C   UNL A   1      40.461  30.444  33.304  1.00  0.00     0.052 A 
ATOM      9  C   UNL A   1      38.792  28.920  32.460  1.00  0.00     0.045 A 
ATOM     10  C   UNL A   1      39.473  31.391  33.575  1.00  0.00     0.128 A 
ATOM     11  C   UNL A   1      37.804  29.876  32.717  1.00  0.00     0.032 A 
ATOM     12  Cl  UNL A   1      38.271  27.438  31.739  1.00  0.00    -0.084 Cl
ATOM     13  C   UNL A   1      38.139  31.094  33.311  1.00  0.00     0.019 A 
ATOM     14  O   UNL A   1      39.895  32.577  34.104  1.00  0.00    -0.475 OA
ATOM     15  C   UNL A   1      37.101  32.020  33.713  1.00  0.00     0.027 C 
ATOM     16  C   UNL A   1      38.905  33.492  34.655  1.00  0.00     0.316 C 
BRANCH   7  17
ATOM     17  C   UNL A   1      41.225  28.131  32.661  1.00  0.00     0.037 C 
BRANCH  17  18
ATOM     18  C   UNL A   1      42.220  28.100  33.835  1.00  0.00     0.008 C 
BRANCH  18  19
ATOM     19  C   UNL A   1      41.700  27.452  35.137  1.00  0.00    -0.017 C 
ATOM     20  C   UNL A   1      42.045  25.966  35.230  1.00  0.00     0.007 C 
ATOM     21  C   UNL A   1      42.276  28.190  36.348  1.00  0.00     0.007 C 
ENDBRANCH  18  19
ENDBRANCH  17  18
ENDBRANCH   7  17
BRANCH  16  22
ATOM     22  C   UNL A   1      39.189  33.675  36.154  1.00  0.00     0.430 C 
ATOM     23  F   UNL A   1      40.511  33.549  36.422  1.00  0.00    -0.167 F 
ATOM     24  F   UNL A   1      38.825  34.905  36.586  1.00  0.00    -0.167 F 
ATOM     25  F   UNL A   1      38.531  32.768  36.911  1.00  0.00    -0.167 F 
ENDBRANCH  16  22
ENDBRANCH   4   6
ENDBRANCH   3   4
ENDBRANCH   2   3
ENDBRANCH   1   2
BRANCH   1  26
ATOM     26  O   UNL A   1      34.130  37.239  32.507  1.00  0.00    -0.374 OA
BRANCH  26  27
ATOM     27  C   UNL A   1      32.956  37.140  31.702  1.00  0.00     0.202 C 
BRANCH  27  28
ATOM     28  C   UNL A   1      33.071  36.492  30.316  1.00  0.00     0.261 C 
BRANCH  28  29
ATOM     29  O   UNL A   1      33.031  35.056  30.363  1.00  0.00    -0.460 OA
BRANCH  29  30
ATOM     30  C   UNL A   1      33.226  34.442  29.170  1.00  0.00     0.338 C 
ATOM     31  O   UNL A   1      32.564  34.573  28.151  1.00  0.00    -0.246 OA
BRANCH  30  32
ATOM     32  C   UNL A   1      34.505  33.712  29.201  1.00  0.00     0.060 A 
ATOM     33  C   UNL A   1      35.395  33.770  28.130  1.00  0.00     0.016 A 
ATOM     34  C   UNL A   1      34.829  32.998  30.363  1.00  0.00     0.016 A 
ATOM     35  C   UNL A   1      36.635  33.137  28.239  1.00  0.00     0.010 A 
ATOM     36  C   UNL A   1      36.067  32.366  30.470  1.00  0.00     0.010 A 
ATOM     37  C   UNL A   1      36.989  32.454  29.419  1.00  0.00    -0.014 A 
BRANCH  37  38
ATOM     38  C   UNL A   1      38.375  31.959  29.604  1.00  0.00     0.031 A 
ATOM     39  C   UNL A   1      38.786  30.587  29.164  1.00  0.00     0.074 A 
ATOM     40  C   UNL A   1      39.263  32.770  30.210  1.00  0.00     0.049 A 
ATOM     41  N   UNL A   1      39.969  30.029  29.211  1.00  0.00    -0.248 NA
ATOM     42  C   UNL A   1      37.733  29.729  28.604  1.00  0.00     0.031 C 
ATOM     43  C   UNL A   1      38.966  34.110  30.719  1.00  0.00     0.029 A 
ATOM     44  N   UNL A   1      40.592  32.589  30.497  1.00  0.00    -0.354 N 
ATOM     45  C   UNL A   1      39.813  28.761  28.668  1.00  0.00     0.074 A 
ATOM     46  C   UNL A   1      38.407  28.616  28.347  1.00  0.00     0.031 C 
ATOM     47  C   UNL A   1      40.087  34.644  31.227  1.00  0.00     0.029 A 
ATOM     48  C   UNL A   1      41.169  33.671  31.116  1.00  0.00     0.049 A 
ATOM     49  H   UNL A   1      41.084  31.765  30.281  1.00  0.00     0.167 HD
ATOM     50  C   UNL A   1      40.759  27.817  28.443  1.00  0.00     0.037 A 
ATOM     51  C   UNL A   1      42.430  33.856  31.547  1.00  0.00     0.037 A 
ATOM     52  C   UNL A   1      42.150  27.955  28.798  1.00  0.00     0.049 A 
ATOM     53  C   UNL A   1      43.440  32.763  31.348  1.00  0.00     0.074 A 
ATOM     54  C   UNL A   1      43.189  27.066  28.587  1.00  0.00     0.029 A 
ATOM     55  N   UNL A   1      42.693  29.047  29.461  1.00  0.00    -0.354 N 
ATOM     56  N   UNL A   1      43.299  31.600  30.757  1.00  0.00    -0.248 NA
ATOM     57  C   UNL A   1      44.790  33.010  31.873  1.00  0.00     0.031 C 
ATOM     58  C   UNL A   1      44.347  27.590  29.174  1.00  0.00     0.029 A 
ATOM     59  C   UNL A   1      44.044  28.837  29.696  1.00  0.00     0.049 A 
ATOM     60  H   UNL A   1      42.193  29.852  29.727  1.00  0.00     0.167 HD
ATOM     61  C   UNL A   1      44.546  30.990  30.816  1.00  0.00     0.074 A 
ATOM     62  C   UNL A   1      45.435  31.922  31.479  1.00  0.00     0.031 C 
ATOM     63  C   UNL A   1      44.920  29.768  30.364  1.00  0.00     0.037 A 
BRANCH  50  64
ATOM     64  C   UNL A   1      40.314  26.539  27.789  1.00  0.00     0.057 A 
ATOM     65  C   UNL A   1      40.636  26.263  26.453  1.00  0.00     0.134 A 
ATOM     66  C   UNL A   1      39.539  25.592  28.472  1.00  0.00     0.134 A 
ATOM     67  F   UNL A   1      41.365  27.129  25.735  1.00  0.00    -0.206 F 
ATOM     68  C   UNL A   1      40.206  25.092  25.824  1.00  0.00     0.040 A 
ATOM     69  C   UNL A   1      39.127  24.405  27.863  1.00  0.00     0.040 A 
ATOM     70  F   UNL A   1      39.200  25.789  29.756  1.00  0.00    -0.206 F 
ATOM     71  C   UNL A   1      39.457  24.155  26.533  1.00  0.00     0.006 A 
ENDBRANCH  50  64
BRANCH  51  72
ATOM     72  C   UNL A   1      42.817  35.130  32.205  1.00  0.00     0.057 A 
ATOM     73  C   UNL A   1      43.361  36.193  31.474  1.00  0.00     0.134 A 
ATOM     74  C   UNL A   1      42.617  35.326  33.576  1.00  0.00     0.134 A 
ATOM     75  F   UNL A   1      43.585  36.066  30.157  1.00  0.00    -0.206 F 
ATOM     76  C   UNL A   1      43.690  37.405  32.082  1.00  0.00     0.040 A 
ATOM     77  C   UNL A   1      42.913  36.543  34.192  1.00  0.00     0.040 A 
ATOM     78  F   UNL A   1      42.083  34.351  34.327  1.00  0.00    -0.206 F 
ATOM     79  C   UNL A   1      43.455  37.585  33.443  1.00  0.00     0.006 A 
ENDBRANCH  51  72
BRANCH  63  80
ATOM     80  C   UNL A   1      46.363  29.388  30.546  1.00  0.00     0.057 A 
ATOM     81  C   UNL A   1      47.309  29.681  29.555  1.00  0.00     0.134 A 
ATOM     82  C   UNL A   1      46.821  28.736  31.699  1.00  0.00     0.134 A 
ATOM     83  F   UNL A   1      46.940  30.297  28.421  1.00  0.00    -0.206 F 
ATOM     84  C   UNL A   1      48.655  29.341  29.704  1.00  0.00     0.040 A 
ATOM     85  C   UNL A   1      48.171  28.422  31.875  1.00  0.00     0.040 A 
ATOM     86  F   UNL A   1      45.973  28.442  32.696  1.00  0.00    -0.206 F 
ATOM     87  C   UNL A   1      49.091  28.720  30.873  1.00  0.00     0.006 A 
ENDBRANCH  63  80
ENDBRANCH  37  38
ENDBRANCH  30  32
ENDBRANCH  29  30
ENDBRANCH  28  29
ENDBRANCH  27  28
ENDBRANCH  26  27
ENDBRANCH   1  26
TORSDOF 18
ENDMDL
MODEL 3
REMARK VINA RESULT:      -9.0      5.622     11.540
REMARK SMILES CC(C)CCc1cc2c(cc1Cl)C=C(C(=O)OCCOCCOC(=O)c1ccc(-c3c4nc(c(-c5c(F)cccc5F)c5ccc([nH]5)c(-c5c(F)cccc5F)c5nc(c(-c6c(F)cccc6F)c6ccc3[nH]6)C=C5)C=C4)cc1)[C@@H](C(F)(F)F)O2
REMARK SMILES IDX 19 1 18 2 17 3 15 4 16 5 14 6 6 7 7 8 11 9 8 10 10 11 12 12
REMARK SMILES IDX 9 13 85 14 13 15 80 16 5 17 4 18 2 19 1 20 3 21 81 22 82 23
REMARK SMILES IDX 83 24 84 25 20 26 21 27 22 28 23 29 24 30 25 31 26 32 27 33
REMARK SMILES IDX 79 34 28 35 78 36 29 37 30 38 31 39 72 40 32 41 77 42 71 43
REMARK SMILES IDX 73 44 33 45 76 46 70 47 69 48 34 50 60 51 43 52 59 53 44 54
REMARK SMILES IDX 47 55 58 56 74 57 45 58 46 59 57 61 75 62 48 63 35 64 36 65
REMARK SMILES IDX 41 66 37 67 38 68 40 69 42 70 39 71 61 72 62 73 67 74 63 75
REMARK SMILES IDX 64 76 66 77 68 78 65 79 49 80 50 81 55 82 51 83 52 84 54 85
REMARK SMILES IDX 56 86 53 87
REMARK H PARENT 73 49 47 60
REMARK Flexibility Score: inf
ROOT
ATOM      1  C   UNL A   1      44.937  21.461  24.112  1.00  0.00     0.202 C 
ENDROOT
BRANCH   1   2
ATOM      2  C   UNL A   1      46.349  21.655  24.673  1.00  0.00     0.261 C 
BRANCH   2   3
ATOM      3  O   UNL A   1      46.472  22.878  25.412  1.00  0.00    -0.460 OA
BRANCH   3   4
ATOM      4  C   UNL A   1      46.820  23.951  24.661  1.00  0.00     0.338 C 
ATOM      5  O   UNL A   1      47.272  23.936  23.528  1.00  0.00    -0.246 OA
BRANCH   4   6
ATOM      6  C   UNL A   1      46.447  25.192  25.365  1.00  0.00     0.087 C 
ATOM      7  C   UNL A   1      44.064  29.401  26.698  1.00  0.00    -0.026 A 
ATOM      8  C   UNL A   1      45.354  28.881  26.927  1.00  0.00     0.052 A 
ATOM      9  C   UNL A   1      43.102  28.552  26.127  1.00  0.00     0.045 A 
ATOM     10  C   UNL A   1      45.704  27.600  26.498  1.00  0.00     0.128 A 
ATOM     11  C   UNL A   1      43.449  27.263  25.711  1.00  0.00     0.032 A 
ATOM     12  Cl  UNL A   1      41.460  29.032  25.882  1.00  0.00    -0.084 Cl
ATOM     13  C   UNL A   1      44.759  26.802  25.860  1.00  0.00     0.019 A 
ATOM     14  O   UNL A   1      46.990  27.209  26.733  1.00  0.00    -0.475 OA
ATOM     15  C   UNL A   1      45.153  25.528  25.295  1.00  0.00     0.027 C 
ATOM     16  C   UNL A   1      47.490  26.008  26.078  1.00  0.00     0.316 C 
BRANCH   7  17
ATOM     17  C   UNL A   1      43.784  30.846  27.050  1.00  0.00     0.037 C 
BRANCH  17  18
ATOM     18  C   UNL A   1      45.042  31.682  27.349  1.00  0.00     0.008 C 
BRANCH  18  19
ATOM     19  C   UNL A   1      45.263  32.909  26.435  1.00  0.00    -0.017 C 
ATOM     20  C   UNL A   1      43.964  33.409  25.804  1.00  0.00     0.007 C 
ATOM     21  C   UNL A   1      45.914  34.039  27.237  1.00  0.00     0.007 C 
ENDBRANCH  18  19
ENDBRANCH  17  18
ENDBRANCH   7  17
BRANCH  16  22
ATOM     22  C   UNL A   1      48.656  26.402  25.158  1.00  0.00     0.430 C 
ATOM     23  F   UNL A   1      48.224  26.664  23.901  1.00  0.00    -0.167 F 
ATOM     24  F   UNL A   1      49.279  27.524  25.592  1.00  0.00    -0.167 F 
ATOM     25  F   UNL A   1      49.590  25.427  25.075  1.00  0.00    -0.167 F 
ENDBRANCH  16  22
ENDBRANCH   4   6
ENDBRANCH   3   4
ENDBRANCH   2   3
ENDBRANCH   1   2
BRANCH   1  26
ATOM     26  O   UNL A   1      44.479  20.128  23.908  1.00  0.00    -0.374 OA
BRANCH  26  27
ATOM     27  C   UNL A   1      44.499  19.221  25.009  1.00  0.00     0.202 C 
BRANCH  27  28
ATOM     28  C   UNL A   1      43.176  18.898  25.717  1.00  0.00     0.261 C 
BRANCH  28  29
ATOM     29  O   UNL A   1      42.052  19.587  25.145  1.00  0.00    -0.460 OA
BRANCH  29  30
ATOM     30  C   UNL A   1      41.161  20.068  26.048  1.00  0.00     0.338 C 
ATOM     31  O   UNL A   1      40.146  19.521  26.452  1.00  0.00    -0.246 OA
BRANCH  30  32
ATOM     32  C   UNL A   1      41.693  21.304  26.646  1.00  0.00     0.060 A 
ATOM     33  C   UNL A   1      42.152  22.352  25.849  1.00  0.00     0.016 A 
ATOM     34  C   UNL A   1      41.676  21.422  28.043  1.00  0.00     0.016 A 
ATOM     35  C   UNL A   1      42.563  23.540  26.456  1.00  0.00     0.010 A 
ATOM     36  C   UNL A   1      42.088  22.609  28.647  1.00  0.00     0.010 A 
ATOM     37  C   UNL A   1      42.509  23.686  27.856  1.00  0.00    -0.014 A 
BRANCH  37  38
ATOM     38  C   UNL A   1      42.754  25.010  28.475  1.00  0.00     0.031 A 
ATOM     39  C   UNL A   1      41.668  26.035  28.595  1.00  0.00     0.074 A 
ATOM     40  C   UNL A   1      43.997  25.289  28.911  1.00  0.00     0.049 A 
ATOM     41  N   UNL A   1      41.712  27.219  29.154  1.00  0.00    -0.248 NA
ATOM     42  C   UNL A   1      40.366  25.693  28.005  1.00  0.00     0.031 C 
ATOM     43  C   UNL A   1      45.145  24.385  28.810  1.00  0.00     0.029 A 
ATOM     44  N   UNL A   1      44.503  26.404  29.527  1.00  0.00    -0.354 N 
ATOM     45  C   UNL A   1      40.441  27.756  29.006  1.00  0.00     0.074 A 
ATOM     46  C   UNL A   1      39.664  26.789  28.255  1.00  0.00     0.031 C 
ATOM     47  C   UNL A   1      46.213  24.968  29.374  1.00  0.00     0.029 A 
ATOM     48  C   UNL A   1      45.837  26.299  29.839  1.00  0.00     0.049 A 
ATOM     49  H   UNL A   1      43.964  27.203  29.726  1.00  0.00     0.167 HD
ATOM     50  C   UNL A   1      39.964  28.938  29.469  1.00  0.00     0.037 A 
ATOM     51  C   UNL A   1      46.664  27.179  30.432  1.00  0.00     0.037 A 
ATOM     52  C   UNL A   1      40.754  29.911  30.184  1.00  0.00     0.049 A 
ATOM     53  C   UNL A   1      46.124  28.510  30.871  1.00  0.00     0.074 A 
ATOM     54  C   UNL A   1      40.355  31.125  30.717  1.00  0.00     0.029 A 
ATOM     55  N   UNL A   1      42.111  29.791  30.447  1.00  0.00    -0.354 N 
ATOM     56  N   UNL A   1      44.899  28.973  30.799  1.00  0.00    -0.248 NA
ATOM     57  C   UNL A   1      47.084  29.442  31.479  1.00  0.00     0.031 C 
ATOM     58  C   UNL A   1      41.481  31.765  31.248  1.00  0.00     0.029 A 
ATOM     59  C   UNL A   1      42.571  30.924  31.103  1.00  0.00     0.049 A 
ATOM     60  H   UNL A   1      42.667  29.016  30.202  1.00  0.00     0.167 HD
ATOM     61  C   UNL A   1      44.936  30.237  31.376  1.00  0.00     0.074 A 
ATOM     62  C   UNL A   1      46.300  30.456  31.813  1.00  0.00     0.031 C 
ATOM     63  C   UNL A   1      43.933  31.136  31.528  1.00  0.00     0.037 A 
BRANCH  50  64
ATOM     64  C   UNL A   1      38.518  29.249  29.204  1.00  0.00     0.057 A 
ATOM     65  C   UNL A   1      37.556  29.120  30.214  1.00  0.00     0.134 A 
ATOM     66  C   UNL A   1      38.070  29.649  27.937  1.00  0.00     0.134 A 
ATOM     67  F   UNL A   1      37.911  28.730  31.447  1.00  0.00    -0.206 F 
ATOM     68  C   UNL A   1      36.204  29.379  29.974  1.00  0.00     0.040 A 
ATOM     69  C   UNL A   1      36.726  29.938  27.693  1.00  0.00     0.040 A 
ATOM     70  F   UNL A   1      38.939  29.799  26.925  1.00  0.00    -0.206 F 
ATOM     71  C   UNL A   1      35.789  29.798  28.712  1.00  0.00     0.006 A 
ENDBRANCH  50  64
BRANCH  51  72
ATOM     72  C   UNL A   1      48.090  26.832  30.656  1.00  0.00     0.057 A 
ATOM     73  C   UNL A   1      48.487  26.032  31.734  1.00  0.00     0.134 A 
ATOM     74  C   UNL A   1      49.087  27.265  29.774  1.00  0.00     0.134 A 
ATOM     75  F   UNL A   1      47.581  25.591  32.620  1.00  0.00    -0.206 F 
ATOM     76  C   UNL A   1      49.821  25.673  31.926  1.00  0.00     0.040 A 
ATOM     77  C   UNL A   1      50.421  26.889  29.936  1.00  0.00     0.040 A 
ATOM     78  F   UNL A   1      48.768  28.021  28.713  1.00  0.00    -0.206 F 
ATOM     79  C   UNL A   1      50.790  26.092  31.017  1.00  0.00     0.006 A 
ENDBRANCH  51  72
BRANCH  63  80
ATOM     80  C   UNL A   1      44.273  32.423  32.225  1.00  0.00     0.057 A 
ATOM     81  C   UNL A   1      44.218  32.515  33.622  1.00  0.00     0.134 A 
ATOM     82  C   UNL A   1      44.656  33.572  31.520  1.00  0.00     0.134 A 
ATOM     83  F   UNL A   1      43.852  31.457  34.361  1.00  0.00    -0.206 F 
ATOM     84  C   UNL A   1      44.533  33.699  34.291  1.00  0.00     0.040 A 
ATOM     85  C   UNL A   1      45.005  34.753  32.179  1.00  0.00     0.040 A 
ATOM     86  F   UNL A   1      44.746  33.550  30.181  1.00  0.00    -0.206 F 
ATOM     87  C   UNL A   1      44.940  34.819  33.569  1.00  0.00     0.006 A 
ENDBRANCH  63  80
ENDBRANCH  37  38
ENDBRANCH  30  32
ENDBRANCH  29  30
ENDBRANCH  28  29
ENDBRANCH  27  28
ENDBRANCH  26  27
ENDBRANCH   1  26
TORSDOF 18
ENDMDL
