MODEL 1
REMARK VINA RESULT:      -9.8      0.000      0.000
REMARK SMILES CC[C@@H]1CCCN1C(=O)N(CC(=O)OCCOCCOC(=O)c1ccc(-c2c3nc(c(-c4c(F)cccc4F)c4ccc([nH]4)c(-c4c(F)cccc4F)c4nc(c(-c5c(F)cccc5F)c5ccc2[nH]5)C=C4)C=C3)cc1)CC(F)(F)F
REMARK SMILES IDX 16 1 15 2 14 3 12 4 13 5 11 6 10 7 8 8 9 9 7 10 3 11 4 12
REMARK SMILES IDX 5 13 6 14 2 15 1 16 77 17 78 18 79 19 80 20 81 21 17 22
REMARK SMILES IDX 18 23 19 24 20 25 21 26 22 27 23 28 24 29 76 30 25 31 75 32
REMARK SMILES IDX 26 33 27 34 28 35 69 36 29 37 74 38 68 39 70 40 30 41 73 42
REMARK SMILES IDX 67 43 66 44 31 46 57 47 40 48 56 49 41 50 44 51 55 52 71 53
REMARK SMILES IDX 42 54 43 55 54 57 72 58 45 59 32 60 33 61 38 62 34 63 35 64
REMARK SMILES IDX 37 65 39 66 36 67 58 68 59 69 64 70 60 71 61 72 63 73 65 74
REMARK SMILES IDX 62 75 46 76 47 77 52 78 48 79 49 80 51 81 53 82 50 83
REMARK H PARENT 70 45 44 56
REMARK Flexibility Score: inf
ROOT
ATOM      1  C   UNL A   1      30.965  29.327  23.017  1.00  0.00     0.202 C 
ENDROOT
BRANCH   1   2
ATOM      2  C   UNL A   1      31.228  27.962  22.378  1.00  0.00     0.261 C 
BRANCH   2   3
ATOM      3  O   UNL A   1      32.463  27.347  22.796  1.00  0.00    -0.462 OA
BRANCH   3   4
ATOM      4  C   UNL A   1      32.820  26.217  22.120  1.00  0.00     0.325 C 
ATOM      5  O   UNL A   1      33.682  26.169  21.248  1.00  0.00    -0.250 OA
BRANCH   4   6
ATOM      6  C   UNL A   1      31.982  24.989  22.495  1.00  0.00     0.244 C 
BRANCH   6   7
ATOM      7  N   UNL A   1      32.542  24.024  23.442  1.00  0.00    -0.304 N 
BRANCH   7   8
ATOM      8  C   UNL A   1      33.448  23.035  23.167  1.00  0.00     0.321 C 
ATOM      9  O   UNL A   1      34.174  23.192  22.178  1.00  0.00    -0.248 OA
BRANCH   8  10
ATOM     10  N   UNL A   1      33.600  21.899  23.915  1.00  0.00    -0.322 N 
ATOM     11  C   UNL A   1      34.593  21.359  24.878  1.00  0.00     0.086 C 
ATOM     12  C   UNL A   1      34.206  19.874  25.000  1.00  0.00     0.027 C 
ATOM     13  C   UNL A   1      32.705  19.885  24.832  1.00  0.00     0.024 C 
ATOM     14  C   UNL A   1      32.522  20.918  23.743  1.00  0.00     0.122 C 
BRANCH  11  15
ATOM     15  C   UNL A   1      36.072  21.536  24.527  1.00  0.00     0.022 C 
ATOM     16  C   UNL A   1      36.752  22.837  24.929  1.00  0.00     0.006 C 
ENDBRANCH  11  15
ENDBRANCH   8  10
ENDBRANCH   7   8
BRANCH   7  17
ATOM     17  C   UNL A   1      32.437  24.426  24.871  1.00  0.00     0.237 C 
BRANCH  17  18
ATOM     18  C   UNL A   1      33.630  25.138  25.542  1.00  0.00     0.406 C 
ATOM     19  F   UNL A   1      33.290  26.251  26.221  1.00  0.00    -0.169 F 
ATOM     20  F   UNL A   1      34.176  24.299  26.465  1.00  0.00    -0.169 F 
ATOM     21  F   UNL A   1      34.611  25.441  24.667  1.00  0.00    -0.169 F 
ENDBRANCH  17  18
ENDBRANCH   7  17
ENDBRANCH   6   7
ENDBRANCH   4   6
ENDBRANCH   3   4
ENDBRANCH   2   3
ENDBRANCH   1   2
BRANCH   1  22
ATOM     22  O   UNL A   1      30.484  29.328  24.357  1.00  0.00    -0.374 OA
BRANCH  22  23
ATOM     23  C   UNL A   1      31.439  29.181  25.403  1.00  0.00     0.202 C 
BRANCH  23  24
ATOM     24  C   UNL A   1      32.299  30.408  25.737  1.00  0.00     0.261 C 
BRANCH  24  25
ATOM     25  O   UNL A   1      32.593  30.530  27.142  1.00  0.00    -0.460 OA
BRANCH  25  26
ATOM     26  C   UNL A   1      33.356  31.604  27.458  1.00  0.00     0.338 C 
ATOM     27  O   UNL A   1      32.975  32.761  27.595  1.00  0.00    -0.246 OA
BRANCH  26  28
ATOM     28  C   UNL A   1      34.742  31.221  27.785  1.00  0.00     0.060 A 
ATOM     29  C   UNL A   1      34.989  29.860  28.011  1.00  0.00     0.016 A 
ATOM     30  C   UNL A   1      35.740  32.167  28.026  1.00  0.00     0.016 A 
ATOM     31  C   UNL A   1      36.209  29.449  28.547  1.00  0.00     0.010 A 
ATOM     32  C   UNL A   1      36.965  31.752  28.566  1.00  0.00     0.010 A 
ATOM     33  C   UNL A   1      37.187  30.397  28.874  1.00  0.00    -0.014 A 
BRANCH  33  34
ATOM     34  C   UNL A   1      38.365  29.968  29.670  1.00  0.00     0.031 A 
ATOM     35  C   UNL A   1      38.539  30.484  31.075  1.00  0.00     0.074 A 
ATOM     36  C   UNL A   1      39.245  29.080  29.177  1.00  0.00     0.049 A 
ATOM     37  N   UNL A   1      39.459  30.193  31.960  1.00  0.00    -0.248 NA
ATOM     38  C   UNL A   1      37.540  31.457  31.543  1.00  0.00     0.031 C 
ATOM     39  C   UNL A   1      39.187  28.490  27.841  1.00  0.00     0.029 A 
ATOM     40  N   UNL A   1      40.362  28.520  29.746  1.00  0.00    -0.354 N 
ATOM     41  C   UNL A   1      39.154  30.947  33.086  1.00  0.00     0.074 A 
ATOM     42  C   UNL A   1      37.983  31.732  32.762  1.00  0.00     0.031 C 
ATOM     43  C   UNL A   1      40.230  27.656  27.689  1.00  0.00     0.029 A 
ATOM     44  C   UNL A   1      41.037  27.668  28.908  1.00  0.00     0.049 A 
ATOM     45  H   UNL A   1      40.651  28.712  30.667  1.00  0.00     0.167 HD
ATOM     46  C   UNL A   1      39.785  30.977  34.285  1.00  0.00     0.037 A 
ATOM     47  C   UNL A   1      42.183  26.985  29.096  1.00  0.00     0.037 A 
ATOM     48  C   UNL A   1      40.948  30.195  34.615  1.00  0.00     0.049 A 
ATOM     49  C   UNL A   1      42.891  27.062  30.422  1.00  0.00     0.074 A 
ATOM     50  C   UNL A   1      41.623  30.120  35.821  1.00  0.00     0.029 A 
ATOM     51  N   UNL A   1      41.616  29.363  33.730  1.00  0.00    -0.354 N 
ATOM     52  N   UNL A   1      42.557  27.730  31.499  1.00  0.00    -0.248 NA
ATOM     53  C   UNL A   1      44.129  26.282  30.561  1.00  0.00     0.031 C 
ATOM     54  C   UNL A   1      42.731  29.282  35.651  1.00  0.00     0.029 A 
ATOM     55  C   UNL A   1      42.717  28.797  34.353  1.00  0.00     0.049 A 
ATOM     56  H   UNL A   1      41.348  29.198  32.797  1.00  0.00     0.167 HD
ATOM     57  C   UNL A   1      43.532  27.439  32.447  1.00  0.00     0.074 A 
ATOM     58  C   UNL A   1      44.461  26.521  31.823  1.00  0.00     0.031 C 
ATOM     59  C   UNL A   1      43.642  27.891  33.721  1.00  0.00     0.037 A 
BRANCH  46  60
ATOM     60  C   UNL A   1      39.239  31.910  35.326  1.00  0.00     0.057 A 
ATOM     61  C   UNL A   1      38.301  31.493  36.277  1.00  0.00     0.134 A 
ATOM     62  C   UNL A   1      39.674  33.241  35.386  1.00  0.00     0.134 A 
ATOM     63  F   UNL A   1      37.836  30.234  36.268  1.00  0.00    -0.206 F 
ATOM     64  C   UNL A   1      37.793  32.372  37.236  1.00  0.00     0.040 A 
ATOM     65  C   UNL A   1      39.191  34.123  36.354  1.00  0.00     0.040 A 
ATOM     66  F   UNL A   1      40.577  33.702  34.508  1.00  0.00    -0.206 F 
ATOM     67  C   UNL A   1      38.242  33.690  37.279  1.00  0.00     0.006 A 
ENDBRANCH  46  60
BRANCH  47  68
ATOM     68  C   UNL A   1      42.740  26.172  27.987  1.00  0.00     0.057 A 
ATOM     69  C   UNL A   1      42.380  24.832  27.812  1.00  0.00     0.134 A 
ATOM     70  C   UNL A   1      43.644  26.724  27.071  1.00  0.00     0.134 A 
ATOM     71  F   UNL A   1      41.536  24.241  28.672  1.00  0.00    -0.206 F 
ATOM     72  C   UNL A   1      42.905  24.066  26.770  1.00  0.00     0.040 A 
ATOM     73  C   UNL A   1      44.159  25.977  26.013  1.00  0.00     0.040 A 
ATOM     74  F   UNL A   1      44.026  28.004  27.186  1.00  0.00    -0.206 F 
ATOM     75  C   UNL A   1      43.793  24.641  25.862  1.00  0.00     0.006 A 
ENDBRANCH  47  68
BRANCH  59  76
ATOM     76  C   UNL A   1      44.801  27.390  34.532  1.00  0.00     0.057 A 
ATOM     77  C   UNL A   1      44.724  26.204  35.273  1.00  0.00     0.134 A 
ATOM     78  C   UNL A   1      46.021  28.079  34.539  1.00  0.00     0.134 A 
ATOM     79  F   UNL A   1      43.581  25.503  35.319  1.00  0.00    -0.206 F 
ATOM     80  C   UNL A   1      45.815  25.730  36.007  1.00  0.00     0.040 A 
ATOM     81  C   UNL A   1      47.125  27.603  35.249  1.00  0.00     0.040 A 
ATOM     82  F   UNL A   1      46.164  29.218  33.845  1.00  0.00    -0.206 F 
ATOM     83  C   UNL A   1      47.021  26.427  35.991  1.00  0.00     0.006 A 
ENDBRANCH  59  76
ENDBRANCH  33  34
ENDBRANCH  26  28
ENDBRANCH  25  26
ENDBRANCH  24  25
ENDBRANCH  23  24
ENDBRANCH  22  23
ENDBRANCH   1  22
TORSDOF 20
ENDMDL
MODEL 2
REMARK VINA RESULT:      -9.6      4.047      7.091
REMARK SMILES CC[C@@H]1CCCN1C(=O)N(CC(=O)OCCOCCOC(=O)c1ccc(-c2c3nc(c(-c4c(F)cccc4F)c4ccc([nH]4)c(-c4c(F)cccc4F)c4nc(c(-c5c(F)cccc5F)c5ccc2[nH]5)C=C4)C=C3)cc1)CC(F)(F)F
REMARK SMILES IDX 16 1 15 2 14 3 12 4 13 5 11 6 10 7 8 8 9 9 7 10 3 11 4 12
REMARK SMILES IDX 5 13 6 14 2 15 1 16 77 17 78 18 79 19 80 20 81 21 17 22
REMARK SMILES IDX 18 23 19 24 20 25 21 26 22 27 23 28 24 29 76 30 25 31 75 32
REMARK SMILES IDX 26 33 27 34 28 35 69 36 29 37 74 38 68 39 70 40 30 41 73 42
REMARK SMILES IDX 67 43 66 44 31 46 57 47 40 48 56 49 41 50 44 51 55 52 71 53
REMARK SMILES IDX 42 54 43 55 54 57 72 58 45 59 32 60 33 61 38 62 34 63 35 64
REMARK SMILES IDX 37 65 39 66 36 67 58 68 59 69 64 70 60 71 61 72 63 73 65 74
REMARK SMILES IDX 62 75 46 76 47 77 52 78 48 79 49 80 51 81 53 82 50 83
REMARK H PARENT 70 45 44 56
REMARK Flexibility Score: inf
ROOT
ATOM      1  C   UNL A   1      34.607  21.536  26.380  1.00  0.00     0.202 C 
ENDROOT
BRANCH   1   2
ATOM      2  C   UNL A   1      34.241  22.901  26.966  1.00  0.00     0.261 C 
BRANCH   2   3
ATOM      3  O   UNL A   1      33.630  23.800  26.020  1.00  0.00    -0.462 OA
BRANCH   3   4
ATOM      4  C   UNL A   1      34.481  24.402  25.140  1.00  0.00     0.325 C 
ATOM      5  O   UNL A   1      35.647  24.695  25.387  1.00  0.00    -0.250 OA
BRANCH   4   6
ATOM      6  C   UNL A   1      33.826  24.761  23.802  1.00  0.00     0.244 C 
BRANCH   6   7
ATOM      7  N   UNL A   1      32.406  24.458  23.616  1.00  0.00    -0.304 N 
BRANCH   7   8
ATOM      8  C   UNL A   1      31.351  25.302  23.837  1.00  0.00     0.321 C 
ATOM      9  O   UNL A   1      30.222  24.797  23.886  1.00  0.00    -0.248 OA
BRANCH   8  10
ATOM     10  N   UNL A   1      31.468  26.655  24.010  1.00  0.00    -0.322 N 
ATOM     11  C   UNL A   1      31.896  27.577  25.093  1.00  0.00     0.086 C 
ATOM     12  C   UNL A   1      31.402  28.953  24.610  1.00  0.00     0.027 C 
ATOM     13  C   UNL A   1      31.521  28.864  23.107  1.00  0.00     0.024 C 
ATOM     14  C   UNL A   1      31.064  27.447  22.843  1.00  0.00     0.122 C 
BRANCH  11  15
ATOM     15  C   UNL A   1      31.410  27.261  26.510  1.00  0.00     0.022 C 
ATOM     16  C   UNL A   1      31.779  28.231  27.624  1.00  0.00     0.006 C 
ENDBRANCH  11  15
ENDBRANCH   8  10
ENDBRANCH   7   8
BRANCH   7  17
ATOM     17  C   UNL A   1      32.131  23.300  22.724  1.00  0.00     0.237 C 
BRANCH  17  18
ATOM     18  C   UNL A   1      32.368  21.870  23.252  1.00  0.00     0.406 C 
ATOM     19  F   UNL A   1      31.778  21.620  24.437  1.00  0.00    -0.169 F 
ATOM     20  F   UNL A   1      31.819  20.983  22.375  1.00  0.00    -0.169 F 
ATOM     21  F   UNL A   1      33.679  21.562  23.342  1.00  0.00    -0.169 F 
ENDBRANCH  17  18
ENDBRANCH   7  17
ENDBRANCH   6   7
ENDBRANCH   4   6
ENDBRANCH   3   4
ENDBRANCH   2   3
ENDBRANCH   1   2
BRANCH   1  22
ATOM     22  O   UNL A   1      35.936  21.381  25.895  1.00  0.00    -0.374 OA
BRANCH  22  23
ATOM     23  C   UNL A   1      36.199  20.286  25.023  1.00  0.00     0.202 C 
BRANCH  23  24
ATOM     24  C   UNL A   1      37.637  19.754  24.987  1.00  0.00     0.261 C 
BRANCH  24  25
ATOM     25  O   UNL A   1      38.630  20.792  25.085  1.00  0.00    -0.460 OA
BRANCH  25  26
ATOM     26  C   UNL A   1      39.527  20.610  26.084  1.00  0.00     0.338 C 
ATOM     27  O   UNL A   1      40.080  19.562  26.395  1.00  0.00    -0.246 OA
BRANCH  26  28
ATOM     28  C   UNL A   1      39.916  21.885  26.716  1.00  0.00     0.060 A 
ATOM     29  C   UNL A   1      39.302  23.048  26.233  1.00  0.00     0.016 A 
ATOM     30  C   UNL A   1      40.961  21.972  27.639  1.00  0.00     0.016 A 
ATOM     31  C   UNL A   1      39.779  24.302  26.612  1.00  0.00     0.010 A 
ATOM     32  C   UNL A   1      41.439  23.234  28.018  1.00  0.00     0.010 A 
ATOM     33  C   UNL A   1      40.883  24.404  27.469  1.00  0.00    -0.014 A 
BRANCH  33  34
ATOM     34  C   UNL A   1      41.526  25.729  27.656  1.00  0.00     0.031 A 
ATOM     35  C   UNL A   1      40.784  26.817  28.387  1.00  0.00     0.074 A 
ATOM     36  C   UNL A   1      42.784  25.951  27.235  1.00  0.00     0.049 A 
ATOM     37  N   UNL A   1      41.181  28.022  28.710  1.00  0.00    -0.248 NA
ATOM     38  C   UNL A   1      39.411  26.502  28.812  1.00  0.00     0.031 C 
ATOM     39  C   UNL A   1      43.620  24.982  26.530  1.00  0.00     0.029 A 
ATOM     40  N   UNL A   1      43.575  27.068  27.342  1.00  0.00    -0.354 N 
ATOM     41  C   UNL A   1      40.109  28.610  29.371  1.00  0.00     0.074 A 
ATOM     42  C   UNL A   1      39.035  27.641  29.375  1.00  0.00     0.031 C 
ATOM     43  C   UNL A   1      44.806  25.550  26.257  1.00  0.00     0.029 A 
ATOM     44  C   UNL A   1      44.807  26.926  26.753  1.00  0.00     0.049 A 
ATOM     45  H   UNL A   1      43.287  27.891  27.797  1.00  0.00     0.167 HD
ATOM     46  C   UNL A   1      40.029  29.841  29.932  1.00  0.00     0.037 A 
ATOM     47  C   UNL A   1      45.816  27.808  26.615  1.00  0.00     0.037 A 
ATOM     48  C   UNL A   1      41.096  30.807  29.935  1.00  0.00     0.049 A 
ATOM     49  C   UNL A   1      45.691  29.185  27.212  1.00  0.00     0.074 A 
ATOM     50  C   UNL A   1      41.124  32.059  30.525  1.00  0.00     0.029 A 
ATOM     51  N   UNL A   1      42.319  30.635  29.306  1.00  0.00    -0.354 N 
ATOM     52  N   UNL A   1      44.697  29.706  27.888  1.00  0.00    -0.248 NA
ATOM     53  C   UNL A   1      46.835  30.091  27.034  1.00  0.00     0.031 C 
ATOM     54  C   UNL A   1      42.346  32.665  30.208  1.00  0.00     0.029 A 
ATOM     55  C   UNL A   1      43.096  31.771  29.462  1.00  0.00     0.049 A 
ATOM     56  H   UNL A   1      42.595  29.825  28.818  1.00  0.00     0.167 HD
ATOM     57  C   UNL A   1      45.100  30.992  28.230  1.00  0.00     0.074 A 
ATOM     58  C   UNL A   1      46.436  31.166  27.701  1.00  0.00     0.031 C 
ATOM     59  C   UNL A   1      44.422  31.939  28.924  1.00  0.00     0.037 A 
BRANCH  46  60
ATOM     60  C   UNL A   1      38.726  30.221  30.571  1.00  0.00     0.057 A 
ATOM     61  C   UNL A   1      38.444  29.927  31.911  1.00  0.00     0.134 A 
ATOM     62  C   UNL A   1      37.748  30.907  29.840  1.00  0.00     0.134 A 
ATOM     63  F   UNL A   1      39.334  29.262  32.664  1.00  0.00    -0.206 F 
ATOM     64  C   UNL A   1      37.224  30.277  32.493  1.00  0.00     0.040 A 
ATOM     65  C   UNL A   1      36.535  31.284  30.417  1.00  0.00     0.040 A 
ATOM     66  F   UNL A   1      37.958  31.226  28.554  1.00  0.00    -0.206 F 
ATOM     67  C   UNL A   1      36.267  30.962  31.747  1.00  0.00     0.006 A 
ENDBRANCH  46  60
BRANCH  47  68
ATOM     68  C   UNL A   1      47.034  27.415  25.867  1.00  0.00     0.057 A 
ATOM     69  C   UNL A   1      47.131  27.594  24.483  1.00  0.00     0.134 A 
ATOM     70  C   UNL A   1      48.135  26.853  26.525  1.00  0.00     0.134 A 
ATOM     71  F   UNL A   1      46.100  28.106  23.795  1.00  0.00    -0.206 F 
ATOM     72  C   UNL A   1      48.276  27.223  23.777  1.00  0.00     0.040 A 
ATOM     73  C   UNL A   1      49.294  26.496  25.836  1.00  0.00     0.040 A 
ATOM     74  F   UNL A   1      48.103  26.656  27.850  1.00  0.00    -0.206 F 
ATOM     75  C   UNL A   1      49.366  26.678  24.456  1.00  0.00     0.006 A 
ENDBRANCH  47  68
BRANCH  59  76
ATOM     76  C   UNL A   1      45.118  33.248  29.164  1.00  0.00     0.057 A 
ATOM     77  C   UNL A   1      44.972  34.331  28.288  1.00  0.00     0.134 A 
ATOM     78  C   UNL A   1      45.908  33.440  30.304  1.00  0.00     0.134 A 
ATOM     79  F   UNL A   1      44.238  34.209  27.171  1.00  0.00    -0.206 F 
ATOM     80  C   UNL A   1      45.602  35.555  28.530  1.00  0.00     0.040 A 
ATOM     81  C   UNL A   1      46.524  34.665  30.569  1.00  0.00     0.040 A 
ATOM     82  F   UNL A   1      46.083  32.446  31.187  1.00  0.00    -0.206 F 
ATOM     83  C   UNL A   1      46.375  35.725  29.676  1.00  0.00     0.006 A 
ENDBRANCH  59  76
ENDBRANCH  33  34
ENDBRANCH  26  28
ENDBRANCH  25  26
ENDBRANCH  24  25
ENDBRANCH  23  24
ENDBRANCH  22  23
ENDBRANCH   1  22
TORSDOF 20
ENDMDL
MODEL 3
REMARK VINA RESULT:      -9.5      3.727      8.514
REMARK SMILES CC[C@@H]1CCCN1C(=O)N(CC(=O)OCCOCCOC(=O)c1ccc(-c2c3nc(c(-c4c(F)cccc4F)c4ccc([nH]4)c(-c4c(F)cccc4F)c4nc(c(-c5c(F)cccc5F)c5ccc2[nH]5)C=C4)C=C3)cc1)CC(F)(F)F
REMARK SMILES IDX 16 1 15 2 14 3 12 4 13 5 11 6 10 7 8 8 9 9 7 10 3 11 4 12
REMARK SMILES IDX 5 13 6 14 2 15 1 16 77 17 78 18 79 19 80 20 81 21 17 22
REMARK SMILES IDX 18 23 19 24 20 25 21 26 22 27 23 28 24 29 76 30 25 31 75 32
REMARK SMILES IDX 26 33 27 34 28 35 69 36 29 37 74 38 68 39 70 40 30 41 73 42
REMARK SMILES IDX 67 43 66 44 31 46 57 47 40 48 56 49 41 50 44 51 55 52 71 53
REMARK SMILES IDX 42 54 43 55 54 57 72 58 45 59 32 60 33 61 38 62 34 63 35 64
REMARK SMILES IDX 37 65 39 66 36 67 58 68 59 69 64 70 60 71 61 72 63 73 65 74
REMARK SMILES IDX 62 75 46 76 47 77 52 78 48 79 49 80 51 81 53 82 50 83
REMARK H PARENT 70 45 44 56
REMARK Flexibility Score: inf
ROOT
ATOM      1  C   UNL A   1      35.487  20.711  25.141  1.00  0.00     0.202 C 
ENDROOT
BRANCH   1   2
ATOM      2  C   UNL A   1      34.340  21.062  26.090  1.00  0.00     0.261 C 
BRANCH   2   3
ATOM      3  O   UNL A   1      33.036  20.701  25.592  1.00  0.00    -0.462 OA
BRANCH   3   4
ATOM      4  C   UNL A   1      32.458  21.599  24.743  1.00  0.00     0.325 C 
ATOM      5  O   UNL A   1      32.669  21.654  23.536  1.00  0.00    -0.250 OA
BRANCH   4   6
ATOM      6  C   UNL A   1      31.549  22.612  25.450  1.00  0.00     0.244 C 
BRANCH   6   7
ATOM      7  N   UNL A   1      32.009  23.996  25.570  1.00  0.00    -0.304 N 
BRANCH   7   8
ATOM      8  C   UNL A   1      31.227  25.113  25.698  1.00  0.00     0.321 C 
ATOM      9  O   UNL A   1      30.619  25.258  26.766  1.00  0.00    -0.248 OA
BRANCH   8  10
ATOM     10  N   UNL A   1      31.082  26.069  24.730  1.00  0.00    -0.322 N 
ATOM     11  C   UNL A   1      30.849  26.101  23.263  1.00  0.00     0.086 C 
ATOM     12  C   UNL A   1      31.158  27.560  22.881  1.00  0.00     0.027 C 
ATOM     13  C   UNL A   1      30.725  28.343  24.098  1.00  0.00     0.024 C 
ATOM     14  C   UNL A   1      31.186  27.446  25.225  1.00  0.00     0.122 C 
BRANCH  11  15
ATOM     15  C   UNL A   1      31.643  25.108  22.410  1.00  0.00     0.022 C 
ATOM     16  C   UNL A   1      32.784  25.648  21.560  1.00  0.00     0.006 C 
ENDBRANCH  11  15
ENDBRANCH   8  10
ENDBRANCH   7   8
BRANCH   7  17
ATOM     17  C   UNL A   1      33.423  24.144  26.009  1.00  0.00     0.237 C 
BRANCH  17  18
ATOM     18  C   UNL A   1      34.460  24.721  25.024  1.00  0.00     0.406 C 
ATOM     19  F   UNL A   1      34.245  26.011  24.697  1.00  0.00    -0.169 F 
ATOM     20  F   UNL A   1      35.687  24.694  25.616  1.00  0.00    -0.169 F 
ATOM     21  F   UNL A   1      34.562  23.994  23.892  1.00  0.00    -0.169 F 
ENDBRANCH  17  18
ENDBRANCH   7  17
ENDBRANCH   6   7
ENDBRANCH   4   6
ENDBRANCH   3   4
ENDBRANCH   2   3
ENDBRANCH   1   2
BRANCH   1  22
ATOM     22  O   UNL A   1      36.756  21.290  25.426  1.00  0.00    -0.374 OA
BRANCH  22  23
ATOM     23  C   UNL A   1      37.917  20.581  25.003  1.00  0.00     0.202 C 
BRANCH  23  24
ATOM     24  C   UNL A   1      39.255  21.002  25.625  1.00  0.00     0.261 C 
BRANCH  24  25
ATOM     25  O   UNL A   1      39.947  19.919  26.273  1.00  0.00    -0.460 OA
BRANCH  25  26
ATOM     26  C   UNL A   1      41.281  19.891  26.036  1.00  0.00     0.338 C 
ATOM     27  O   UNL A   1      41.891  19.069  25.362  1.00  0.00    -0.246 OA
BRANCH  26  28
ATOM     28  C   UNL A   1      41.962  21.085  26.570  1.00  0.00     0.060 A 
ATOM     29  C   UNL A   1      41.865  21.308  27.950  1.00  0.00     0.016 A 
ATOM     30  C   UNL A   1      42.540  22.048  25.740  1.00  0.00     0.016 A 
ATOM     31  C   UNL A   1      42.279  22.524  28.494  1.00  0.00     0.010 A 
ATOM     32  C   UNL A   1      42.954  23.270  26.289  1.00  0.00     0.010 A 
ATOM     33  C   UNL A   1      42.780  23.532  27.660  1.00  0.00    -0.014 A 
BRANCH  33  34
ATOM     34  C   UNL A   1      42.975  24.895  28.218  1.00  0.00     0.031 A 
ATOM     35  C   UNL A   1      44.357  25.340  28.621  1.00  0.00     0.074 A 
ATOM     36  C   UNL A   1      41.947  25.755  28.313  1.00  0.00     0.049 A 
ATOM     37  N   UNL A   1      44.757  26.502  29.073  1.00  0.00    -0.248 NA
ATOM     38  C   UNL A   1      45.429  24.342  28.495  1.00  0.00     0.031 C 
ATOM     39  C   UNL A   1      40.564  25.459  27.944  1.00  0.00     0.029 A 
ATOM     40  N   UNL A   1      41.910  27.056  28.750  1.00  0.00    -0.354 N 
ATOM     41  C   UNL A   1      46.123  26.374  29.289  1.00  0.00     0.074 A 
ATOM     42  C   UNL A   1      46.478  25.014  28.948  1.00  0.00     0.031 C 
ATOM     43  C   UNL A   1      39.810  26.546  28.180  1.00  0.00     0.029 A 
ATOM     44  C   UNL A   1      40.652  27.606  28.732  1.00  0.00     0.049 A 
ATOM     45  H   UNL A   1      42.709  27.547  29.048  1.00  0.00     0.167 HD
ATOM     46  C   UNL A   1      47.005  27.307  29.722  1.00  0.00     0.037 A 
ATOM     47  C   UNL A   1      40.225  28.821  29.128  1.00  0.00     0.037 A 
ATOM     48  C   UNL A   1      46.659  28.664  30.058  1.00  0.00     0.049 A 
ATOM     49  C   UNL A   1      41.216  29.830  29.643  1.00  0.00     0.074 A 
ATOM     50  C   UNL A   1      47.494  29.694  30.454  1.00  0.00     0.029 A 
ATOM     51  N   UNL A   1      45.371  29.175  30.050  1.00  0.00    -0.354 N 
ATOM     52  N   UNL A   1      42.514  29.717  29.783  1.00  0.00    -0.248 NA
ATOM     53  C   UNL A   1      40.681  31.139  30.046  1.00  0.00     0.031 C 
ATOM     54  C   UNL A   1      46.704  30.814  30.737  1.00  0.00     0.029 A 
ATOM     55  C   UNL A   1      45.383  30.495  30.469  1.00  0.00     0.049 A 
ATOM     56  H   UNL A   1      44.565  28.673  29.787  1.00  0.00     0.167 HD
ATOM     57  C   UNL A   1      42.953  30.942  30.273  1.00  0.00     0.074 A 
ATOM     58  C   UNL A   1      41.785  31.788  30.391  1.00  0.00     0.031 C 
ATOM     59  C   UNL A   1      44.213  31.328  30.592  1.00  0.00     0.037 A 
BRANCH  46  60
ATOM     60  C   UNL A   1      48.435  26.880  29.880  1.00  0.00     0.057 A 
ATOM     61  C   UNL A   1      48.900  26.261  31.047  1.00  0.00     0.134 A 
ATOM     62  C   UNL A   1      49.355  27.075  28.841  1.00  0.00     0.134 A 
ATOM     63  F   UNL A   1      48.073  26.054  32.083  1.00  0.00    -0.206 F 
ATOM     64  C   UNL A   1      50.235  25.877  31.186  1.00  0.00     0.040 A 
ATOM     65  C   UNL A   1      50.686  26.674  28.959  1.00  0.00     0.040 A 
ATOM     66  F   UNL A   1      48.972  27.656  27.694  1.00  0.00    -0.206 F 
ATOM     67  C   UNL A   1      51.131  26.078  30.138  1.00  0.00     0.006 A 
ENDBRANCH  46  60
BRANCH  47  68
ATOM     68  C   UNL A   1      38.780  29.145  29.060  1.00  0.00     0.057 A 
ATOM     69  C   UNL A   1      38.182  29.575  27.871  1.00  0.00     0.134 A 
ATOM     70  C   UNL A   1      37.960  29.024  30.189  1.00  0.00     0.134 A 
ATOM     71  F   UNL A   1      38.921  29.731  26.762  1.00  0.00    -0.206 F 
ATOM     72  C   UNL A   1      36.822  29.881  27.807  1.00  0.00     0.040 A 
ATOM     73  C   UNL A   1      36.596  29.307  30.135  1.00  0.00     0.040 A 
ATOM     74  F   UNL A   1      38.474  28.617  31.358  1.00  0.00    -0.206 F 
ATOM     75  C   UNL A   1      36.023  29.741  28.941  1.00  0.00     0.006 A 
ENDBRANCH  47  68
BRANCH  59  76
ATOM     76  C   UNL A   1      44.399  32.733  31.088  1.00  0.00     0.057 A 
ATOM     77  C   UNL A   1      44.381  33.040  32.454  1.00  0.00     0.134 A 
ATOM     78  C   UNL A   1      44.641  33.782  30.192  1.00  0.00     0.134 A 
ATOM     79  F   UNL A   1      44.143  32.084  33.364  1.00  0.00    -0.206 F 
ATOM     80  C   UNL A   1      44.580  34.346  32.911  1.00  0.00     0.040 A 
ATOM     81  C   UNL A   1      44.864  35.086  30.637  1.00  0.00     0.040 A 
ATOM     82  F   UNL A   1      44.679  33.555  28.871  1.00  0.00    -0.206 F 
ATOM     83  C   UNL A   1      44.828  35.372  32.001  1.00  0.00     0.006 A 
ENDBRANCH  59  76
ENDBRANCH  33  34
ENDBRANCH  26  28
ENDBRANCH  25  26
ENDBRANCH  24  25
ENDBRANCH  23  24
ENDBRANCH  22  23
ENDBRANCH   1  22
TORSDOF 20
ENDMDL
