MODEL 1
REMARK VINA RESULT:      -9.4      0.000      0.000
REMARK SMILES C/C(=N/OCC(=O)OCCOCCOC(=O)c1ccc(-c2c3nc(c(-c4c(F)cccc4F)c4ccc([nH]4)c(-c4c(F)cccc4F)c4nc(c(-c5c(F)cccc5F)c5ccc2[nH]5)C=C4)C=C3)cc1)c1ccc(C)cc1
REMARK SMILES IDX 10 1 9 2 8 3 6 4 7 5 5 6 4 7 3 8 1 9 2 10 71 11 72 12 77 13
REMARK SMILES IDX 73 14 76 15 74 16 75 17 11 18 12 19 13 20 14 21 15 22 16 23
REMARK SMILES IDX 17 24 18 25 70 26 19 27 69 28 20 29 21 30 22 31 63 32 23 33
REMARK SMILES IDX 68 34 62 35 64 36 24 37 67 38 61 39 60 40 25 42 51 43 34 44
REMARK SMILES IDX 50 45 35 46 38 47 49 48 65 49 36 50 37 51 48 53 66 54 39 55
REMARK SMILES IDX 26 56 27 57 32 58 28 59 29 60 31 61 33 62 30 63 52 64 53 65
REMARK SMILES IDX 58 66 54 67 55 68 57 69 59 70 56 71 40 72 41 73 46 74 42 75
REMARK SMILES IDX 43 76 45 77 47 78 44 79
REMARK H PARENT 64 41 38 52
REMARK Flexibility Score: inf
ROOT
ATOM      1  C   UNL A   1      32.989  36.634  29.555  1.00  0.00     0.202 C 
ENDROOT
BRANCH   1   2
ATOM      2  C   UNL A   1      32.595  36.414  31.018  1.00  0.00     0.261 C 
BRANCH   2   3
ATOM      3  O   UNL A   1      33.177  37.430  31.851  1.00  0.00    -0.461 OA
BRANCH   3   4
ATOM      4  C   UNL A   1      33.904  36.991  32.913  1.00  0.00     0.347 C 
ATOM      5  O   UNL A   1      34.069  37.617  33.956  1.00  0.00    -0.248 OA
BRANCH   4   6
ATOM      6  C   UNL A   1      34.487  35.604  32.695  1.00  0.00     0.386 C 
BRANCH   6   7
ATOM      7  O   UNL A   1      35.787  35.372  33.215  1.00  0.00    -0.384 OA
BRANCH   7   8
ATOM      8  N   UNL A   1      35.866  34.084  33.779  1.00  0.00    -0.091 NA
ATOM      9  C   UNL A   1      36.837  31.883  33.569  1.00  0.00     0.071 C 
ATOM     10  C   UNL A   1      36.745  33.339  33.173  1.00  0.00     0.084 C 
BRANCH  10  11
ATOM     11  C   UNL A   1      37.689  33.803  32.124  1.00  0.00    -0.001 A 
ATOM     12  C   UNL A   1      37.282  33.790  30.787  1.00  0.00     0.010 A 
ATOM     13  C   UNL A   1      38.964  34.256  32.468  1.00  0.00     0.010 A 
ATOM     14  C   UNL A   1      38.168  34.186  29.787  1.00  0.00     0.004 A 
ATOM     15  C   UNL A   1      39.848  34.656  31.463  1.00  0.00     0.004 A 
ATOM     16  C   UNL A   1      39.460  34.616  30.117  1.00  0.00    -0.051 A 
ATOM     17  C   UNL A   1      40.417  34.986  29.023  1.00  0.00     0.044 C 
ENDBRANCH  10  11
ENDBRANCH   7   8
ENDBRANCH   6   7
ENDBRANCH   4   6
ENDBRANCH   3   4
ENDBRANCH   2   3
ENDBRANCH   1   2
BRANCH   1  18
ATOM     18  O   UNL A   1      32.995  35.459  28.742  1.00  0.00    -0.374 OA
BRANCH  18  19
ATOM     19  C   UNL A   1      33.644  34.303  29.279  1.00  0.00     0.202 C 
BRANCH  19  20
ATOM     20  C   UNL A   1      34.009  33.224  28.255  1.00  0.00     0.261 C 
BRANCH  20  21
ATOM     21  O   UNL A   1      34.797  32.173  28.846  1.00  0.00    -0.460 OA
BRANCH  21  22
ATOM     22  C   UNL A   1      34.664  30.960  28.264  1.00  0.00     0.338 C 
ATOM     23  O   UNL A   1      33.711  30.541  27.622  1.00  0.00    -0.246 OA
BRANCH  22  24
ATOM     24  C   UNL A   1      35.927  30.208  28.366  1.00  0.00     0.060 A 
ATOM     25  C   UNL A   1      36.249  29.651  29.611  1.00  0.00     0.016 A 
ATOM     26  C   UNL A   1      36.824  30.129  27.299  1.00  0.00     0.016 A 
ATOM     27  C   UNL A   1      37.495  29.062  29.811  1.00  0.00     0.010 A 
ATOM     28  C   UNL A   1      38.080  29.546  27.504  1.00  0.00     0.010 A 
ATOM     29  C   UNL A   1      38.434  29.044  28.770  1.00  0.00    -0.014 A 
BRANCH  29  30
ATOM     30  C   UNL A   1      39.835  28.650  29.056  1.00  0.00     0.031 A 
ATOM     31  C   UNL A   1      40.718  29.602  29.815  1.00  0.00     0.074 A 
ATOM     32  C   UNL A   1      40.311  27.452  28.673  1.00  0.00     0.049 A 
ATOM     33  N   UNL A   1      41.981  29.489  30.136  1.00  0.00    -0.248 NA
ATOM     34  C   UNL A   1      40.088  30.850  30.277  1.00  0.00     0.031 C 
ATOM     35  C   UNL A   1      39.542  26.420  27.983  1.00  0.00     0.029 A 
ATOM     36  N   UNL A   1      41.563  26.909  28.811  1.00  0.00    -0.354 N 
ATOM     37  C   UNL A   1      42.300  30.651  30.827  1.00  0.00     0.074 A 
ATOM     38  C   UNL A   1      41.105  31.466  30.861  1.00  0.00     0.031 C 
ATOM     39  C   UNL A   1      40.343  25.364  27.753  1.00  0.00     0.029 A 
ATOM     40  C   UNL A   1      41.686  25.664  28.246  1.00  0.00     0.049 A 
ATOM     41  H   UNL A   1      42.302  27.367  29.271  1.00  0.00     0.167 HD
ATOM     42  C   UNL A   1      43.481  31.004  31.388  1.00  0.00     0.037 A 
ATOM     43  C   UNL A   1      42.766  24.868  28.124  1.00  0.00     0.037 A 
ATOM     44  C   UNL A   1      44.668  30.192  31.361  1.00  0.00     0.049 A 
ATOM     45  C   UNL A   1      44.091  25.324  28.672  1.00  0.00     0.074 A 
ATOM     46  C   UNL A   1      45.905  30.455  31.923  1.00  0.00     0.029 A 
ATOM     47  N   UNL A   1      44.766  28.962  30.731  1.00  0.00    -0.354 N 
ATOM     48  N   UNL A   1      44.380  26.417  29.337  1.00  0.00    -0.248 NA
ATOM     49  C   UNL A   1      45.244  24.440  28.445  1.00  0.00     0.031 C 
ATOM     50  C   UNL A   1      46.767  29.402  31.593  1.00  0.00     0.029 A 
ATOM     51  C   UNL A   1      46.052  28.465  30.862  1.00  0.00     0.049 A 
ATOM     52  H   UNL A   1      44.031  28.508  30.258  1.00  0.00     0.167 HD
ATOM     53  C   UNL A   1      45.734  26.336  29.635  1.00  0.00     0.074 A 
ATOM     54  C   UNL A   1      46.213  25.088  29.077  1.00  0.00     0.031 C 
ATOM     55  C   UNL A   1      46.511  27.216  30.314  1.00  0.00     0.037 A 
BRANCH  42  56
ATOM     56  C   UNL A   1      43.552  32.346  32.052  1.00  0.00     0.057 A 
ATOM     57  C   UNL A   1      43.294  32.511  33.419  1.00  0.00     0.134 A 
ATOM     58  C   UNL A   1      43.902  33.485  31.317  1.00  0.00     0.134 A 
ATOM     59  F   UNL A   1      42.940  31.461  34.175  1.00  0.00    -0.206 F 
ATOM     60  C   UNL A   1      43.359  33.766  34.026  1.00  0.00     0.040 A 
ATOM     61  C   UNL A   1      43.992  34.742  31.917  1.00  0.00     0.040 A 
ATOM     62  F   UNL A   1      44.164  33.396  30.004  1.00  0.00    -0.206 F 
ATOM     63  C   UNL A   1      43.714  34.886  33.276  1.00  0.00     0.006 A 
ENDBRANCH  42  56
BRANCH  43  64
ATOM     64  C   UNL A   1      42.647  23.556  27.439  1.00  0.00     0.057 A 
ATOM     65  C   UNL A   1      42.328  22.395  28.152  1.00  0.00     0.134 A 
ATOM     66  C   UNL A   1      42.864  23.431  26.062  1.00  0.00     0.134 A 
ATOM     67  F   UNL A   1      42.136  22.450  29.478  1.00  0.00    -0.206 F 
ATOM     68  C   UNL A   1      42.239  21.154  27.522  1.00  0.00     0.040 A 
ATOM     69  C   UNL A   1      42.757  22.199  25.415  1.00  0.00     0.040 A 
ATOM     70  F   UNL A   1      43.176  24.506  25.323  1.00  0.00    -0.206 F 
ATOM     71  C   UNL A   1      42.447  21.054  26.148  1.00  0.00     0.006 A 
ENDBRANCH  43  64
BRANCH  55  72
ATOM     72  C   UNL A   1      47.948  26.847  30.531  1.00  0.00     0.057 A 
ATOM     73  C   UNL A   1      48.344  26.002  31.574  1.00  0.00     0.134 A 
ATOM     74  C   UNL A   1      48.938  27.293  29.645  1.00  0.00     0.134 A 
ATOM     75  F   UNL A   1      47.445  25.551  32.462  1.00  0.00    -0.206 F 
ATOM     76  C   UNL A   1      49.677  25.622  31.737  1.00  0.00     0.040 A 
ATOM     77  C   UNL A   1      50.270  26.902  29.784  1.00  0.00     0.040 A 
ATOM     78  F   UNL A   1      48.621  28.098  28.620  1.00  0.00    -0.206 F 
ATOM     79  C   UNL A   1      50.643  26.065  30.834  1.00  0.00     0.006 A 
ENDBRANCH  55  72
ENDBRANCH  29  30
ENDBRANCH  22  24
ENDBRANCH  21  22
ENDBRANCH  20  21
ENDBRANCH  19  20
ENDBRANCH  18  19
ENDBRANCH   1  18
TORSDOF 17
ENDMDL
MODEL 2
REMARK VINA RESULT:      -9.3      5.126     11.140
REMARK SMILES C/C(=N/OCC(=O)OCCOCCOC(=O)c1ccc(-c2c3nc(c(-c4c(F)cccc4F)c4ccc([nH]4)c(-c4c(F)cccc4F)c4nc(c(-c5c(F)cccc5F)c5ccc2[nH]5)C=C4)C=C3)cc1)c1ccc(C)cc1
REMARK SMILES IDX 10 1 9 2 8 3 6 4 7 5 5 6 4 7 3 8 1 9 2 10 71 11 72 12 77 13
REMARK SMILES IDX 73 14 76 15 74 16 75 17 11 18 12 19 13 20 14 21 15 22 16 23
REMARK SMILES IDX 17 24 18 25 70 26 19 27 69 28 20 29 21 30 22 31 63 32 23 33
REMARK SMILES IDX 68 34 62 35 64 36 24 37 67 38 61 39 60 40 25 42 51 43 34 44
REMARK SMILES IDX 50 45 35 46 38 47 49 48 65 49 36 50 37 51 48 53 66 54 39 55
REMARK SMILES IDX 26 56 27 57 32 58 28 59 29 60 31 61 33 62 30 63 52 64 53 65
REMARK SMILES IDX 58 66 54 67 55 68 57 69 59 70 56 71 40 72 41 73 46 74 42 75
REMARK SMILES IDX 43 76 45 77 47 78 44 79
REMARK H PARENT 64 41 38 52
REMARK Flexibility Score: inf
ROOT
ATOM      1  C   UNL A   1      41.400  19.712  26.222  1.00  0.00     0.202 C 
ENDROOT
BRANCH   1   2
ATOM      2  C   UNL A   1      40.791  20.965  26.856  1.00  0.00     0.261 C 
BRANCH   2   3
ATOM      3  O   UNL A   1      40.203  21.801  25.846  1.00  0.00    -0.461 OA
BRANCH   3   4
ATOM      4  C   UNL A   1      38.975  22.311  26.130  1.00  0.00     0.347 C 
ATOM      5  O   UNL A   1      38.774  23.385  26.688  1.00  0.00    -0.248 OA
BRANCH   4   6
ATOM      6  C   UNL A   1      37.842  21.415  25.654  1.00  0.00     0.386 C 
BRANCH   6   7
ATOM      7  O   UNL A   1      36.557  22.011  25.562  1.00  0.00    -0.384 OA
BRANCH   7   8
ATOM      8  N   UNL A   1      35.593  21.044  25.216  1.00  0.00    -0.091 NA
ATOM      9  C   UNL A   1      33.273  20.668  24.661  1.00  0.00     0.071 C 
ATOM     10  C   UNL A   1      34.449  21.585  24.909  1.00  0.00     0.084 C 
BRANCH  10  11
ATOM     11  C   UNL A   1      34.197  23.041  24.763  1.00  0.00    -0.001 A 
ATOM     12  C   UNL A   1      33.741  23.768  25.867  1.00  0.00     0.010 A 
ATOM     13  C   UNL A   1      34.422  23.681  23.542  1.00  0.00     0.010 A 
ATOM     14  C   UNL A   1      33.464  25.128  25.737  1.00  0.00     0.004 A 
ATOM     15  C   UNL A   1      34.147  25.045  23.418  1.00  0.00     0.004 A 
ATOM     16  C   UNL A   1      33.659  25.775  24.510  1.00  0.00    -0.051 A 
ATOM     17  C   UNL A   1      33.304  27.226  24.376  1.00  0.00     0.044 C 
ENDBRANCH  10  11
ENDBRANCH   7   8
ENDBRANCH   6   7
ENDBRANCH   4   6
ENDBRANCH   3   4
ENDBRANCH   2   3
ENDBRANCH   1   2
BRANCH   1  18
ATOM     18  O   UNL A   1      42.522  19.945  25.369  1.00  0.00    -0.374 OA
BRANCH  18  19
ATOM     19  C   UNL A   1      43.523  20.849  25.847  1.00  0.00     0.202 C 
BRANCH  19  20
ATOM     20  C   UNL A   1      44.025  21.870  24.822  1.00  0.00     0.261 C 
BRANCH  20  21
ATOM     21  O   UNL A   1      43.243  23.079  24.846  1.00  0.00    -0.460 OA
BRANCH  21  22
ATOM     22  C   UNL A   1      43.940  24.207  25.108  1.00  0.00     0.338 C 
ATOM     23  O   UNL A   1      45.007  24.555  24.622  1.00  0.00    -0.246 OA
BRANCH  22  24
ATOM     24  C   UNL A   1      43.154  25.097  25.981  1.00  0.00     0.060 A 
ATOM     25  C   UNL A   1      43.520  26.449  26.023  1.00  0.00     0.016 A 
ATOM     26  C   UNL A   1      42.145  24.608  26.813  1.00  0.00     0.016 A 
ATOM     27  C   UNL A   1      42.917  27.307  26.940  1.00  0.00     0.010 A 
ATOM     28  C   UNL A   1      41.547  25.469  27.741  1.00  0.00     0.010 A 
ATOM     29  C   UNL A   1      41.958  26.812  27.834  1.00  0.00    -0.014 A 
BRANCH  29  30
ATOM     30  C   UNL A   1      41.506  27.658  28.965  1.00  0.00     0.031 A 
ATOM     31  C   UNL A   1      42.251  27.583  30.270  1.00  0.00     0.074 A 
ATOM     32  C   UNL A   1      40.469  28.502  28.831  1.00  0.00     0.049 A 
ATOM     33  N   UNL A   1      42.008  28.193  31.402  1.00  0.00    -0.248 NA
ATOM     34  C   UNL A   1      43.430  26.703  30.301  1.00  0.00     0.031 C 
ATOM     35  C   UNL A   1      39.703  28.709  27.604  1.00  0.00     0.029 A 
ATOM     36  N   UNL A   1      39.881  29.340  29.744  1.00  0.00    -0.354 N 
ATOM     37  C   UNL A   1      42.995  27.765  32.280  1.00  0.00     0.074 A 
ATOM     38  C   UNL A   1      43.829  26.828  31.558  1.00  0.00     0.031 C 
ATOM     39  C   UNL A   1      38.739  29.616  27.843  1.00  0.00     0.029 A 
ATOM     40  C   UNL A   1      38.800  30.023  29.246  1.00  0.00     0.049 A 
ATOM     41  H   UNL A   1      40.204  29.442  30.668  1.00  0.00     0.167 HD
ATOM     42  C   UNL A   1      43.194  28.125  33.571  1.00  0.00     0.037 A 
ATOM     43  C   UNL A   1      37.945  30.864  29.859  1.00  0.00     0.037 A 
ATOM     44  C   UNL A   1      42.371  29.061  34.288  1.00  0.00     0.049 A 
ATOM     45  C   UNL A   1      38.130  31.176  31.321  1.00  0.00     0.074 A 
ATOM     46  C   UNL A   1      42.507  29.508  35.591  1.00  0.00     0.029 A 
ATOM     47  N   UNL A   1      41.252  29.689  33.765  1.00  0.00    -0.354 N 
ATOM     48  N   UNL A   1      39.075  30.779  32.139  1.00  0.00    -0.248 NA
ATOM     49  C   UNL A   1      37.124  32.046  31.947  1.00  0.00     0.031 C 
ATOM     50  C   UNL A   1      41.443  30.373  35.870  1.00  0.00     0.029 A 
ATOM     51  C   UNL A   1      40.669  30.497  34.726  1.00  0.00     0.049 A 
ATOM     52  H   UNL A   1      40.920  29.578  32.844  1.00  0.00     0.167 HD
ATOM     53  C   UNL A   1      38.796  31.375  33.362  1.00  0.00     0.074 A 
ATOM     54  C   UNL A   1      37.593  32.160  33.182  1.00  0.00     0.031 C 
ATOM     55  C   UNL A   1      39.480  31.283  34.529  1.00  0.00     0.037 A 
BRANCH  42  56
ATOM     56  C   UNL A   1      44.332  27.475  34.299  1.00  0.00     0.057 A 
ATOM     57  C   UNL A   1      45.608  28.051  34.345  1.00  0.00     0.134 A 
ATOM     58  C   UNL A   1      44.142  26.265  34.978  1.00  0.00     0.134 A 
ATOM     59  F   UNL A   1      45.857  29.202  33.701  1.00  0.00    -0.206 F 
ATOM     60  C   UNL A   1      46.662  27.434  35.021  1.00  0.00     0.040 A 
ATOM     61  C   UNL A   1      45.182  25.650  35.677  1.00  0.00     0.040 A 
ATOM     62  F   UNL A   1      42.944  25.663  34.976  1.00  0.00    -0.206 F 
ATOM     63  C   UNL A   1      46.448  26.233  35.695  1.00  0.00     0.006 A 
ENDBRANCH  42  56
BRANCH  43  64
ATOM     64  C   UNL A   1      36.822  31.466  29.099  1.00  0.00     0.057 A 
ATOM     65  C   UNL A   1      36.859  32.805  28.694  1.00  0.00     0.134 A 
ATOM     66  C   UNL A   1      35.682  30.724  28.773  1.00  0.00     0.134 A 
ATOM     67  F   UNL A   1      37.915  33.574  29.002  1.00  0.00    -0.206 F 
ATOM     68  C   UNL A   1      35.798  33.388  28.001  1.00  0.00     0.040 A 
ATOM     69  C   UNL A   1      34.622  31.287  28.061  1.00  0.00     0.040 A 
ATOM     70  F   UNL A   1      35.584  29.436  29.136  1.00  0.00    -0.206 F 
ATOM     71  C   UNL A   1      34.677  32.626  27.676  1.00  0.00     0.006 A 
ENDBRANCH  43  64
BRANCH  55  72
ATOM     72  C   UNL A   1      38.972  32.080  35.693  1.00  0.00     0.057 A 
ATOM     73  C   UNL A   1      38.177  31.505  36.691  1.00  0.00     0.134 A 
ATOM     74  C   UNL A   1      39.337  33.424  35.848  1.00  0.00     0.134 A 
ATOM     75  F   UNL A   1      37.784  30.226  36.595  1.00  0.00    -0.206 F 
ATOM     76  C   UNL A   1      37.753  32.242  37.799  1.00  0.00     0.040 A 
ATOM     77  C   UNL A   1      38.938  34.165  36.961  1.00  0.00     0.040 A 
ATOM     78  F   UNL A   1      40.104  34.031  34.929  1.00  0.00    -0.206 F 
ATOM     79  C   UNL A   1      38.142  33.574  37.940  1.00  0.00     0.006 A 
ENDBRANCH  55  72
ENDBRANCH  29  30
ENDBRANCH  22  24
ENDBRANCH  21  22
ENDBRANCH  20  21
ENDBRANCH  19  20
ENDBRANCH  18  19
ENDBRANCH   1  18
TORSDOF 17
ENDMDL
MODEL 3
REMARK VINA RESULT:      -9.2      1.347      2.347
REMARK SMILES C/C(=N/OCC(=O)OCCOCCOC(=O)c1ccc(-c2c3nc(c(-c4c(F)cccc4F)c4ccc([nH]4)c(-c4c(F)cccc4F)c4nc(c(-c5c(F)cccc5F)c5ccc2[nH]5)C=C4)C=C3)cc1)c1ccc(C)cc1
REMARK SMILES IDX 10 1 9 2 8 3 6 4 7 5 5 6 4 7 3 8 1 9 2 10 71 11 72 12 77 13
REMARK SMILES IDX 73 14 76 15 74 16 75 17 11 18 12 19 13 20 14 21 15 22 16 23
REMARK SMILES IDX 17 24 18 25 70 26 19 27 69 28 20 29 21 30 22 31 63 32 23 33
REMARK SMILES IDX 68 34 62 35 64 36 24 37 67 38 61 39 60 40 25 42 51 43 34 44
REMARK SMILES IDX 50 45 35 46 38 47 49 48 65 49 36 50 37 51 48 53 66 54 39 55
REMARK SMILES IDX 26 56 27 57 32 58 28 59 29 60 31 61 33 62 30 63 52 64 53 65
REMARK SMILES IDX 58 66 54 67 55 68 57 69 59 70 56 71 40 72 41 73 46 74 42 75
REMARK SMILES IDX 43 76 45 77 47 78 44 79
REMARK H PARENT 64 41 38 52
REMARK Flexibility Score: inf
ROOT
ATOM      1  C   UNL A   1      32.857  35.811  29.197  1.00  0.00     0.202 C 
ENDROOT
BRANCH   1   2
ATOM      2  C   UNL A   1      33.506  36.873  30.090  1.00  0.00     0.261 C 
BRANCH   2   3
ATOM      3  O   UNL A   1      32.886  36.882  31.386  1.00  0.00    -0.461 OA
BRANCH   3   4
ATOM      4  C   UNL A   1      33.697  37.184  32.437  1.00  0.00     0.347 C 
ATOM      5  O   UNL A   1      33.954  38.322  32.818  1.00  0.00    -0.248 OA
BRANCH   4   6
ATOM      6  C   UNL A   1      34.247  35.948  33.129  1.00  0.00     0.386 C 
BRANCH   6   7
ATOM      7  O   UNL A   1      35.050  35.082  32.341  1.00  0.00    -0.384 OA
BRANCH   7   8
ATOM      8  N   UNL A   1      34.960  33.760  32.819  1.00  0.00    -0.091 NA
ATOM      9  C   UNL A   1      35.833  31.517  32.622  1.00  0.00     0.071 C 
ATOM     10  C   UNL A   1      35.890  32.997  32.320  1.00  0.00     0.084 C 
BRANCH  10  11
ATOM     11  C   UNL A   1      37.025  33.460  31.483  1.00  0.00    -0.001 A 
ATOM     12  C   UNL A   1      38.107  34.100  32.094  1.00  0.00     0.010 A 
ATOM     13  C   UNL A   1      37.018  33.252  30.102  1.00  0.00     0.010 A 
ATOM     14  C   UNL A   1      39.163  34.574  31.318  1.00  0.00     0.004 A 
ATOM     15  C   UNL A   1      38.081  33.726  29.327  1.00  0.00     0.004 A 
ATOM     16  C   UNL A   1      39.155  34.397  29.928  1.00  0.00    -0.051 A 
ATOM     17  C   UNL A   1      40.273  34.962  29.104  1.00  0.00     0.044 C 
ENDBRANCH  10  11
ENDBRANCH   7   8
ENDBRANCH   6   7
ENDBRANCH   4   6
ENDBRANCH   3   4
ENDBRANCH   2   3
ENDBRANCH   1   2
BRANCH   1  18
ATOM     18  O   UNL A   1      33.519  34.545  29.177  1.00  0.00    -0.374 OA
BRANCH  18  19
ATOM     19  C   UNL A   1      33.307  33.722  28.027  1.00  0.00     0.202 C 
BRANCH  19  20
ATOM     20  C   UNL A   1      34.342  32.612  27.818  1.00  0.00     0.261 C 
BRANCH  20  21
ATOM     21  O   UNL A   1      33.764  31.304  27.988  1.00  0.00    -0.460 OA
BRANCH  21  22
ATOM     22  C   UNL A   1      34.447  30.294  27.405  1.00  0.00     0.338 C 
ATOM     23  O   UNL A   1      34.149  29.680  26.390  1.00  0.00    -0.246 OA
BRANCH  22  24
ATOM     24  C   UNL A   1      35.743  30.102  28.081  1.00  0.00     0.060 A 
ATOM     25  C   UNL A   1      36.903  30.286  27.317  1.00  0.00     0.016 A 
ATOM     26  C   UNL A   1      35.825  29.658  29.402  1.00  0.00     0.016 A 
ATOM     27  C   UNL A   1      38.149  29.973  27.855  1.00  0.00     0.010 A 
ATOM     28  C   UNL A   1      37.076  29.333  29.937  1.00  0.00     0.010 A 
ATOM     29  C   UNL A   1      38.239  29.453  29.153  1.00  0.00    -0.014 A 
BRANCH  29  30
ATOM     30  C   UNL A   1      39.525  28.887  29.627  1.00  0.00     0.031 A 
ATOM     31  C   UNL A   1      40.264  29.589  30.733  1.00  0.00     0.074 A 
ATOM     32  C   UNL A   1      40.018  27.749  29.107  1.00  0.00     0.049 A 
ATOM     33  N   UNL A   1      41.422  29.303  31.272  1.00  0.00    -0.248 NA
ATOM     34  C   UNL A   1      39.607  30.774  31.308  1.00  0.00     0.031 C 
ATOM     35  C   UNL A   1      39.370  26.944  28.074  1.00  0.00     0.029 A 
ATOM     36  N   UNL A   1      41.184  27.079  29.379  1.00  0.00    -0.354 N 
ATOM     37  C   UNL A   1      41.636  30.275  32.242  1.00  0.00     0.074 A 
ATOM     38  C   UNL A   1      40.500  31.171  32.203  1.00  0.00     0.031 C 
ATOM     39  C   UNL A   1      40.153  25.886  27.795  1.00  0.00     0.029 A 
ATOM     40  C   UNL A   1      41.369  25.963  28.602  1.00  0.00     0.049 A 
ATOM     41  H   UNL A   1      41.825  27.372  30.065  1.00  0.00     0.167 HD
ATOM     42  C   UNL A   1      42.682  30.405  33.092  1.00  0.00     0.037 A 
ATOM     43  C   UNL A   1      42.412  25.113  28.537  1.00  0.00     0.037 A 
ATOM     44  C   UNL A   1      43.808  29.512  33.137  1.00  0.00     0.049 A 
ATOM     45  C   UNL A   1      43.607  25.334  29.426  1.00  0.00     0.074 A 
ATOM     46  C   UNL A   1      44.905  29.548  33.980  1.00  0.00     0.029 A 
ATOM     47  N   UNL A   1      43.985  28.425  32.296  1.00  0.00    -0.354 N 
ATOM     48  N   UNL A   1      43.794  26.245  30.350  1.00  0.00    -0.248 NA
ATOM     49  C   UNL A   1      44.740  24.411  29.258  1.00  0.00     0.031 C 
ATOM     50  C   UNL A   1      45.768  28.507  33.619  1.00  0.00     0.029 A 
ATOM     51  C   UNL A   1      45.187  27.799  32.578  1.00  0.00     0.049 A 
ATOM     52  H   UNL A   1      43.349  28.139  31.600  1.00  0.00     0.167 HD
ATOM     53  C   UNL A   1      45.046  25.987  30.893  1.00  0.00     0.074 A 
ATOM     54  C   UNL A   1      45.577  24.834  30.195  1.00  0.00     0.031 C 
ATOM     55  C   UNL A   1      45.696  26.644  31.885  1.00  0.00     0.037 A 
BRANCH  42  56
ATOM     56  C   UNL A   1      42.669  31.580  34.023  1.00  0.00     0.057 A 
ATOM     57  C   UNL A   1      43.332  32.775  33.718  1.00  0.00     0.134 A 
ATOM     58  C   UNL A   1      41.966  31.520  35.233  1.00  0.00     0.134 A 
ATOM     59  F   UNL A   1      44.035  32.890  32.580  1.00  0.00    -0.206 F 
ATOM     60  C   UNL A   1      43.317  33.862  34.594  1.00  0.00     0.040 A 
ATOM     61  C   UNL A   1      41.924  32.608  36.107  1.00  0.00     0.040 A 
ATOM     62  F   UNL A   1      41.308  30.406  35.584  1.00  0.00    -0.206 F 
ATOM     63  C   UNL A   1      42.606  33.781  35.790  1.00  0.00     0.006 A 
ENDBRANCH  42  56
BRANCH  43  64
ATOM     64  C   UNL A   1      42.385  23.977  27.583  1.00  0.00     0.057 A 
ATOM     65  C   UNL A   1      42.770  24.145  26.248  1.00  0.00     0.134 A 
ATOM     66  C   UNL A   1      41.961  22.703  27.978  1.00  0.00     0.134 A 
ATOM     67  F   UNL A   1      43.161  25.350  25.806  1.00  0.00    -0.206 F 
ATOM     68  C   UNL A   1      42.725  23.090  25.337  1.00  0.00     0.040 A 
ATOM     69  C   UNL A   1      41.931  21.633  27.082  1.00  0.00     0.040 A 
ATOM     70  F   UNL A   1      41.575  22.478  29.242  1.00  0.00    -0.206 F 
ATOM     71  C   UNL A   1      42.310  21.827  25.755  1.00  0.00     0.006 A 
ENDBRANCH  43  64
BRANCH  55  72
ATOM     72  C   UNL A   1      47.034  26.113  32.307  1.00  0.00     0.057 A 
ATOM     73  C   UNL A   1      48.223  26.552  31.714  1.00  0.00     0.134 A 
ATOM     74  C   UNL A   1      47.133  25.198  33.363  1.00  0.00     0.134 A 
ATOM     75  F   UNL A   1      48.193  27.418  30.690  1.00  0.00    -0.206 F 
ATOM     76  C   UNL A   1      49.466  26.091  32.150  1.00  0.00     0.040 A 
ATOM     77  C   UNL A   1      48.372  24.747  33.822  1.00  0.00     0.040 A 
ATOM     78  F   UNL A   1      46.030  24.745  33.979  1.00  0.00    -0.206 F 
ATOM     79  C   UNL A   1      49.543  25.192  33.213  1.00  0.00     0.006 A 
ENDBRANCH  55  72
ENDBRANCH  29  30
ENDBRANCH  22  24
ENDBRANCH  21  22
ENDBRANCH  20  21
ENDBRANCH  19  20
ENDBRANCH  18  19
ENDBRANCH   1  18
TORSDOF 17
ENDMDL
