MODEL 1
REMARK VINA RESULT:      -9.9      0.000      0.000
REMARK SMILES C#CC[N@H+](CC(=O)OCCOCCOC(=O)c1ccc(-c2c3nc(c(-c4c(F)cccc4F)c4ccc([nH]4)c(-c4c(F)cccc4F)c4nc(c(-c5c(F)cccc5F)c5ccc2[nH]5)C=C4)C=C3)cc1)[C@H](C)c1ccccc1[N+](=O)[O-]
REMARK SMILES IDX 10 1 9 2 8 3 6 4 7 5 5 6 4 7 3 9 2 10 1 11 71 12 72 13 73 14
REMARK SMILES IDX 74 15 78 16 75 17 77 18 76 19 79 20 80 21 81 22 11 23 12 24
REMARK SMILES IDX 13 25 14 26 15 27 16 28 17 29 18 30 70 31 19 32 69 33 20 34
REMARK SMILES IDX 21 35 22 36 63 37 23 38 68 39 62 40 64 41 24 42 67 43 61 44
REMARK SMILES IDX 60 45 25 47 51 48 34 49 50 50 35 51 38 52 49 53 65 54 36 55
REMARK SMILES IDX 37 56 48 58 66 59 39 60 26 61 27 62 32 63 28 64 29 65 31 66
REMARK SMILES IDX 33 67 30 68 52 69 53 70 58 71 54 72 55 73 57 74 59 75 56 76
REMARK SMILES IDX 40 77 41 78 46 79 42 80 43 81 45 82 47 83 44 84
REMARK H PARENT 4 8 64 46 38 57
REMARK Flexibility Score: inf
ROOT
ATOM      1  C   UNL A   1      31.516  28.116  26.564  1.00  0.00     0.202 C 
ENDROOT
BRANCH   1   2
ATOM      2  C   UNL A   1      32.134  26.719  26.525  1.00  0.00     0.261 C 
BRANCH   2   3
ATOM      3  O   UNL A   1      31.191  25.720  26.945  1.00  0.00    -0.459 OA
BRANCH   3   4
ATOM      4  C   UNL A   1      31.522  24.441  26.663  1.00  0.00     0.361 C 
ATOM      5  O   UNL A   1      31.218  23.483  27.372  1.00  0.00    -0.245 OA
BRANCH   4   6
ATOM      6  C   UNL A   1      32.399  24.249  25.435  1.00  0.00     0.387 C 
BRANCH   6   7
ATOM      7  N   UNL A   1      31.909  23.529  24.188  1.00  0.00    -0.309 N 
ATOM      8  H   UNL A   1      31.428  22.651  24.383  1.00  0.00     0.349 HD
BRANCH   7   9
ATOM      9  C   UNL A   1      30.895  24.367  23.510  1.00  0.00     0.354 C 
BRANCH   9  10
ATOM     10  C   UNL A   1      31.342  25.678  23.020  1.00  0.00    -0.047 C 
ATOM     11  C   UNL A   1      31.736  26.724  22.571  1.00  0.00     0.010 C 
ENDBRANCH   9  10
ENDBRANCH   7   9
BRANCH   7  12
ATOM     12  C   UNL A   1      33.137  23.188  23.361  1.00  0.00     0.220 C 
ATOM     13  C   UNL A   1      32.751  22.708  21.934  1.00  0.00     0.081 C 
BRANCH  12  14
ATOM     14  C   UNL A   1      34.209  22.288  24.021  1.00  0.00     0.087 A 
ATOM     15  C   UNL A   1      35.518  22.774  24.258  1.00  0.00     0.017 A 
ATOM     16  C   UNL A   1      33.986  20.963  24.453  1.00  0.00     0.278 A 
ATOM     17  C   UNL A   1      36.547  21.970  24.767  1.00  0.00     0.001 A 
ATOM     18  C   UNL A   1      35.027  20.131  24.924  1.00  0.00     0.086 A 
ATOM     19  C   UNL A   1      36.315  20.635  25.059  1.00  0.00     0.007 A 
BRANCH  16  20
ATOM     20  N   UNL A   1      32.656  20.376  24.475  1.00  0.00     0.063 N 
ATOM     21  O   UNL A   1      32.406  19.520  23.612  1.00  0.00    -0.258 OA
ATOM     22  O   UNL A   1      31.914  20.680  25.421  1.00  0.00    -0.258 OA
ENDBRANCH  16  20
ENDBRANCH  12  14
ENDBRANCH   7  12
ENDBRANCH   6   7
ENDBRANCH   4   6
ENDBRANCH   3   4
ENDBRANCH   2   3
ENDBRANCH   1   2
BRANCH   1  23
ATOM     23  O   UNL A   1      31.236  28.740  25.316  1.00  0.00    -0.374 OA
BRANCH  23  24
ATOM     24  C   UNL A   1      31.635  30.098  25.126  1.00  0.00     0.202 C 
BRANCH  24  25
ATOM     25  C   UNL A   1      31.743  30.991  26.362  1.00  0.00     0.261 C 
BRANCH  25  26
ATOM     26  O   UNL A   1      32.884  30.681  27.183  1.00  0.00    -0.460 OA
BRANCH  26  27
ATOM     27  C   UNL A   1      33.632  31.759  27.512  1.00  0.00     0.338 C 
ATOM     28  O   UNL A   1      33.249  32.905  27.686  1.00  0.00    -0.246 OA
BRANCH  27  29
ATOM     29  C   UNL A   1      35.005  31.360  27.869  1.00  0.00     0.060 A 
ATOM     30  C   UNL A   1      35.216  30.003  28.141  1.00  0.00     0.016 A 
ATOM     31  C   UNL A   1      36.015  32.296  28.092  1.00  0.00     0.016 A 
ATOM     32  C   UNL A   1      36.413  29.583  28.711  1.00  0.00     0.010 A 
ATOM     33  C   UNL A   1      37.221  31.870  28.666  1.00  0.00     0.010 A 
ATOM     34  C   UNL A   1      37.407  30.521  29.024  1.00  0.00    -0.014 A 
BRANCH  34  35
ATOM     35  C   UNL A   1      38.562  30.085  29.852  1.00  0.00     0.031 A 
ATOM     36  C   UNL A   1      38.684  30.569  31.273  1.00  0.00     0.074 A 
ATOM     37  C   UNL A   1      39.454  29.203  29.367  1.00  0.00     0.049 A 
ATOM     38  N   UNL A   1      39.600  30.296  32.168  1.00  0.00    -0.248 NA
ATOM     39  C   UNL A   1      37.633  31.483  31.752  1.00  0.00     0.031 C 
ATOM     40  C   UNL A   1      39.424  28.625  28.023  1.00  0.00     0.029 A 
ATOM     41  N   UNL A   1      40.558  28.634  29.952  1.00  0.00    -0.354 N 
ATOM     42  C   UNL A   1      39.246  31.011  33.307  1.00  0.00     0.074 A 
ATOM     43  C   UNL A   1      38.049  31.756  32.980  1.00  0.00     0.031 C 
ATOM     44  C   UNL A   1      40.463  27.785  27.886  1.00  0.00     0.029 A 
ATOM     45  C   UNL A   1      41.253  27.795  29.116  1.00  0.00     0.049 A 
ATOM     46  H   UNL A   1      40.826  28.811  30.883  1.00  0.00     0.167 HD
ATOM     47  C   UNL A   1      39.859  31.040  34.515  1.00  0.00     0.037 A 
ATOM     48  C   UNL A   1      42.407  27.130  29.310  1.00  0.00     0.037 A 
ATOM     49  C   UNL A   1      41.046  30.290  34.840  1.00  0.00     0.049 A 
ATOM     50  C   UNL A   1      43.101  27.227  30.644  1.00  0.00     0.074 A 
ATOM     51  C   UNL A   1      41.723  30.231  36.047  1.00  0.00     0.029 A 
ATOM     52  N   UNL A   1      41.740  29.479  33.955  1.00  0.00    -0.354 N 
ATOM     53  N   UNL A   1      42.742  27.885  31.720  1.00  0.00    -0.248 NA
ATOM     54  C   UNL A   1      44.357  26.479  30.792  1.00  0.00     0.031 C 
ATOM     55  C   UNL A   1      42.866  29.446  35.870  1.00  0.00     0.029 A 
ATOM     56  C   UNL A   1      42.857  28.946  34.579  1.00  0.00     0.049 A 
ATOM     57  H   UNL A   1      41.479  29.309  33.021  1.00  0.00     0.167 HD
ATOM     58  C   UNL A   1      43.704  27.599  32.682  1.00  0.00     0.074 A 
ATOM     59  C   UNL A   1      44.652  26.694  32.065  1.00  0.00     0.031 C 
ATOM     60  C   UNL A   1      43.794  28.041  33.960  1.00  0.00     0.037 A 
BRANCH  47  61
ATOM     61  C   UNL A   1      39.281  31.937  35.574  1.00  0.00     0.057 A 
ATOM     62  C   UNL A   1      38.378  31.474  36.539  1.00  0.00     0.134 A 
ATOM     63  C   UNL A   1      39.681  33.278  35.660  1.00  0.00     0.134 A 
ATOM     64  F   UNL A   1      37.944  30.204  36.511  1.00  0.00    -0.206 F 
ATOM     65  C   UNL A   1      37.877  32.314  37.536  1.00  0.00     0.040 A 
ATOM     66  C   UNL A   1      39.214  34.118  36.671  1.00  0.00     0.040 A 
ATOM     67  F   UNL A   1      40.550  33.788  34.774  1.00  0.00    -0.206 F 
ATOM     68  C   UNL A   1      38.305  33.639  37.609  1.00  0.00     0.006 A 
ENDBRANCH  47  61
BRANCH  48  69
ATOM     69  C   UNL A   1      43.003  26.329  28.206  1.00  0.00     0.057 A 
ATOM     70  C   UNL A   1      42.719  24.967  28.053  1.00  0.00     0.134 A 
ATOM     71  C   UNL A   1      43.906  26.903  27.302  1.00  0.00     0.134 A 
ATOM     72  F   UNL A   1      41.879  24.352  28.899  1.00  0.00    -0.206 F 
ATOM     73  C   UNL A   1      43.334  24.199  27.063  1.00  0.00     0.040 A 
ATOM     74  C   UNL A   1      44.501  26.155  26.286  1.00  0.00     0.040 A 
ATOM     75  F   UNL A   1      44.220  28.205  27.391  1.00  0.00    -0.206 F 
ATOM     76  C   UNL A   1      44.225  24.795  26.173  1.00  0.00     0.006 A 
ENDBRANCH  48  69
BRANCH  60  77
ATOM     77  C   UNL A   1      44.925  27.508  34.798  1.00  0.00     0.057 A 
ATOM     78  C   UNL A   1      46.160  28.163  34.898  1.00  0.00     0.134 A 
ATOM     79  C   UNL A   1      44.768  26.320  35.527  1.00  0.00     0.134 A 
ATOM     80  F   UNL A   1      46.384  29.300  34.223  1.00  0.00    -0.206 F 
ATOM     81  C   UNL A   1      47.209  27.633  35.653  1.00  0.00     0.040 A 
ATOM     82  C   UNL A   1      45.796  25.803  36.316  1.00  0.00     0.040 A 
ATOM     83  F   UNL A   1      43.608  25.647  35.492  1.00  0.00    -0.206 F 
ATOM     84  C   UNL A   1      47.027  26.452  36.369  1.00  0.00     0.006 A 
ENDBRANCH  60  77
ENDBRANCH  34  35
ENDBRANCH  27  29
ENDBRANCH  26  27
ENDBRANCH  25  26
ENDBRANCH  24  25
ENDBRANCH  23  24
ENDBRANCH   1  23
TORSDOF 20
ENDMDL
MODEL 2
REMARK VINA RESULT:      -9.9      3.880      6.833
REMARK SMILES C#CC[N@H+](CC(=O)OCCOCCOC(=O)c1ccc(-c2c3nc(c(-c4c(F)cccc4F)c4ccc([nH]4)c(-c4c(F)cccc4F)c4nc(c(-c5c(F)cccc5F)c5ccc2[nH]5)C=C4)C=C3)cc1)[C@H](C)c1ccccc1[N+](=O)[O-]
REMARK SMILES IDX 10 1 9 2 8 3 6 4 7 5 5 6 4 7 3 9 2 10 1 11 71 12 72 13 73 14
REMARK SMILES IDX 74 15 78 16 75 17 77 18 76 19 79 20 80 21 81 22 11 23 12 24
REMARK SMILES IDX 13 25 14 26 15 27 16 28 17 29 18 30 70 31 19 32 69 33 20 34
REMARK SMILES IDX 21 35 22 36 63 37 23 38 68 39 62 40 64 41 24 42 67 43 61 44
REMARK SMILES IDX 60 45 25 47 51 48 34 49 50 50 35 51 38 52 49 53 65 54 36 55
REMARK SMILES IDX 37 56 48 58 66 59 39 60 26 61 27 62 32 63 28 64 29 65 31 66
REMARK SMILES IDX 33 67 30 68 52 69 53 70 58 71 54 72 55 73 57 74 59 75 56 76
REMARK SMILES IDX 40 77 41 78 46 79 42 80 43 81 45 82 47 83 44 84
REMARK H PARENT 4 8 64 46 38 57
REMARK Flexibility Score: inf
ROOT
ATOM      1  C   UNL A   1      33.703  19.633  25.017  1.00  0.00     0.202 C 
ENDROOT
BRANCH   1   2
ATOM      2  C   UNL A   1      32.645  19.938  23.958  1.00  0.00     0.261 C 
BRANCH   2   3
ATOM      3  O   UNL A   1      31.934  21.148  24.264  1.00  0.00    -0.459 OA
BRANCH   3   4
ATOM      4  C   UNL A   1      32.057  22.149  23.365  1.00  0.00     0.361 C 
ATOM      5  O   UNL A   1      32.684  22.049  22.312  1.00  0.00    -0.245 OA
BRANCH   4   6
ATOM      6  C   UNL A   1      31.440  23.477  23.778  1.00  0.00     0.387 C 
BRANCH   6   7
ATOM      7  N   UNL A   1      31.823  24.188  25.065  1.00  0.00    -0.309 N 
ATOM      8  H   UNL A   1      31.188  24.945  25.321  1.00  0.00     0.349 HD
BRANCH   7   9
ATOM      9  C   UNL A   1      31.737  23.233  26.192  1.00  0.00     0.354 C 
BRANCH   9  10
ATOM     10  C   UNL A   1      30.413  23.047  26.800  1.00  0.00    -0.047 C 
ATOM     11  C   UNL A   1      29.354  22.858  27.342  1.00  0.00     0.010 C 
ENDBRANCH   9  10
ENDBRANCH   7   9
BRANCH   7  12
ATOM     12  C   UNL A   1      33.189  24.813  24.837  1.00  0.00     0.220 C 
ATOM     13  C   UNL A   1      34.244  24.266  25.840  1.00  0.00     0.081 C 
BRANCH  12  14
ATOM     14  C   UNL A   1      33.250  26.353  24.693  1.00  0.00     0.087 A 
ATOM     15  C   UNL A   1      33.644  27.167  25.783  1.00  0.00     0.017 A 
ATOM     16  C   UNL A   1      32.954  27.059  23.508  1.00  0.00     0.278 A 
ATOM     17  C   UNL A   1      33.626  28.567  25.731  1.00  0.00     0.001 A 
ATOM     18  C   UNL A   1      32.888  28.470  23.460  1.00  0.00     0.086 A 
ATOM     19  C   UNL A   1      33.206  29.221  24.584  1.00  0.00     0.007 A 
BRANCH  16  20
ATOM     20  N   UNL A   1      32.731  26.377  22.244  1.00  0.00     0.063 N 
ATOM     21  O   UNL A   1      31.575  26.391  21.795  1.00  0.00    -0.258 OA
ATOM     22  O   UNL A   1      33.727  25.939  21.648  1.00  0.00    -0.258 OA
ENDBRANCH  16  20
ENDBRANCH  12  14
ENDBRANCH   7  12
ENDBRANCH   6   7
ENDBRANCH   4   6
ENDBRANCH   3   4
ENDBRANCH   2   3
ENDBRANCH   1   2
BRANCH   1  23
ATOM     23  O   UNL A   1      34.478  20.726  25.497  1.00  0.00    -0.374 OA
BRANCH  23  24
ATOM     24  C   UNL A   1      35.639  21.116  24.763  1.00  0.00     0.202 C 
BRANCH  24  25
ATOM     25  C   UNL A   1      36.956  20.407  25.079  1.00  0.00     0.261 C 
BRANCH  25  26
ATOM     26  O   UNL A   1      38.098  21.279  25.004  1.00  0.00    -0.460 OA
BRANCH  26  27
ATOM     27  C   UNL A   1      39.087  20.963  25.871  1.00  0.00     0.338 C 
ATOM     28  O   UNL A   1      39.679  19.900  25.968  1.00  0.00    -0.246 OA
BRANCH  27  29
ATOM     29  C   UNL A   1      39.562  22.159  26.590  1.00  0.00     0.060 A 
ATOM     30  C   UNL A   1      39.008  23.386  26.205  1.00  0.00     0.016 A 
ATOM     31  C   UNL A   1      40.625  22.109  27.491  1.00  0.00     0.016 A 
ATOM     32  C   UNL A   1      39.565  24.576  26.660  1.00  0.00     0.010 A 
ATOM     33  C   UNL A   1      41.183  23.311  27.950  1.00  0.00     0.010 A 
ATOM     34  C   UNL A   1      40.688  24.549  27.498  1.00  0.00    -0.014 A 
BRANCH  34  35
ATOM     35  C   UNL A   1      41.408  25.821  27.765  1.00  0.00     0.031 A 
ATOM     36  C   UNL A   1      40.741  26.897  28.582  1.00  0.00     0.074 A 
ATOM     37  C   UNL A   1      42.677  25.986  27.351  1.00  0.00     0.049 A 
ATOM     38  N   UNL A   1      41.199  28.070  28.944  1.00  0.00    -0.248 NA
ATOM     39  C   UNL A   1      39.375  26.617  29.055  1.00  0.00     0.031 C 
ATOM     40  C   UNL A   1      43.450  25.005  26.590  1.00  0.00     0.029 A 
ATOM     41  N   UNL A   1      43.542  27.040  27.515  1.00  0.00    -0.354 N 
ATOM     42  C   UNL A   1      40.178  28.670  29.673  1.00  0.00     0.074 A 
ATOM     43  C   UNL A   1      39.064  27.746  29.674  1.00  0.00     0.031 C 
ATOM     44  C   UNL A   1      44.674  25.503  26.352  1.00  0.00     0.029 A 
ATOM     45  C   UNL A   1      44.759  26.852  26.908  1.00  0.00     0.049 A 
ATOM     46  H   UNL A   1      43.311  27.853  28.020  1.00  0.00     0.167 HD
ATOM     47  C   UNL A   1      40.172  29.876  30.289  1.00  0.00     0.037 A 
ATOM     48  C   UNL A   1      45.814  27.682  26.791  1.00  0.00     0.037 A 
ATOM     49  C   UNL A   1      41.286  30.790  30.294  1.00  0.00     0.049 A 
ATOM     50  C   UNL A   1      45.757  29.042  27.435  1.00  0.00     0.074 A 
ATOM     51  C   UNL A   1      41.385  32.023  30.917  1.00  0.00     0.029 A 
ATOM     52  N   UNL A   1      42.489  30.579  29.637  1.00  0.00    -0.354 N 
ATOM     53  N   UNL A   1      44.797  29.587  28.143  1.00  0.00    -0.248 NA
ATOM     54  C   UNL A   1      46.939  29.901  27.271  1.00  0.00     0.031 C 
ATOM     55  C   UNL A   1      42.617  32.590  30.574  1.00  0.00     0.029 A 
ATOM     56  C   UNL A   1      43.321  31.674  29.810  1.00  0.00     0.049 A 
ATOM     57  H   UNL A   1      42.718  29.770  29.124  1.00  0.00     0.167 HD
ATOM     58  C   UNL A   1      45.273  30.832  28.540  1.00  0.00     0.074 A 
ATOM     59  C   UNL A   1      46.614  30.952  28.008  1.00  0.00     0.031 C 
ATOM     60  C   UNL A   1      44.658  31.786  29.281  1.00  0.00     0.037 A 
BRANCH  47  61
ATOM     61  C   UNL A   1      38.909  30.302  30.985  1.00  0.00     0.057 A 
ATOM     62  C   UNL A   1      38.692  30.075  32.350  1.00  0.00     0.134 A 
ATOM     63  C   UNL A   1      37.917  31.002  30.284  1.00  0.00     0.134 A 
ATOM     64  F   UNL A   1      39.594  29.403  33.081  1.00  0.00    -0.206 F 
ATOM     65  C   UNL A   1      37.526  30.508  32.987  1.00  0.00     0.040 A 
ATOM     66  C   UNL A   1      36.765  31.470  30.916  1.00  0.00     0.040 A 
ATOM     67  F   UNL A   1      38.063  31.263  28.976  1.00  0.00    -0.206 F 
ATOM     68  C   UNL A   1      36.564  31.217  32.270  1.00  0.00     0.006 A 
ENDBRANCH  47  61
BRANCH  48  69
ATOM     69  C   UNL A   1      47.009  27.265  26.011  1.00  0.00     0.057 A 
ATOM     70  C   UNL A   1      47.088  27.463  24.628  1.00  0.00     0.134 A 
ATOM     71  C   UNL A   1      48.087  26.618  26.630  1.00  0.00     0.134 A 
ATOM     72  F   UNL A   1      46.080  28.057  23.972  1.00  0.00    -0.206 F 
ATOM     73  C   UNL A   1      48.177  27.006  23.884  1.00  0.00     0.040 A 
ATOM     74  C   UNL A   1      49.198  26.187  25.904  1.00  0.00     0.040 A 
ATOM     75  F   UNL A   1      48.078  26.399  27.953  1.00  0.00    -0.206 F 
ATOM     76  C   UNL A   1      49.239  26.370  24.524  1.00  0.00     0.006 A 
ENDBRANCH  48  69
BRANCH  60  77
ATOM     77  C   UNL A   1      45.450  33.023  29.610  1.00  0.00     0.057 A 
ATOM     78  C   UNL A   1      45.486  34.139  28.764  1.00  0.00     0.134 A 
ATOM     79  C   UNL A   1      46.181  33.098  30.804  1.00  0.00     0.134 A 
ATOM     80  F   UNL A   1      44.816  34.135  27.602  1.00  0.00    -0.206 F 
ATOM     81  C   UNL A   1      46.257  35.264  29.071  1.00  0.00     0.040 A 
ATOM     82  C   UNL A   1      46.923  34.232  31.139  1.00  0.00     0.040 A 
ATOM     83  F   UNL A   1      46.181  32.074  31.670  1.00  0.00    -0.206 F 
ATOM     84  C   UNL A   1      46.973  35.314  30.264  1.00  0.00     0.006 A 
ENDBRANCH  60  77
ENDBRANCH  34  35
ENDBRANCH  27  29
ENDBRANCH  26  27
ENDBRANCH  25  26
ENDBRANCH  24  25
ENDBRANCH  23  24
ENDBRANCH   1  23
TORSDOF 20
ENDMDL
MODEL 3
REMARK VINA RESULT:      -9.8      1.843      2.796
REMARK SMILES C#CC[N@H+](CC(=O)OCCOCCOC(=O)c1ccc(-c2c3nc(c(-c4c(F)cccc4F)c4ccc([nH]4)c(-c4c(F)cccc4F)c4nc(c(-c5c(F)cccc5F)c5ccc2[nH]5)C=C4)C=C3)cc1)[C@H](C)c1ccccc1[N+](=O)[O-]
REMARK SMILES IDX 10 1 9 2 8 3 6 4 7 5 5 6 4 7 3 9 2 10 1 11 71 12 72 13 73 14
REMARK SMILES IDX 74 15 78 16 75 17 77 18 76 19 79 20 80 21 81 22 11 23 12 24
REMARK SMILES IDX 13 25 14 26 15 27 16 28 17 29 18 30 70 31 19 32 69 33 20 34
REMARK SMILES IDX 21 35 22 36 63 37 23 38 68 39 62 40 64 41 24 42 67 43 61 44
REMARK SMILES IDX 60 45 25 47 51 48 34 49 50 50 35 51 38 52 49 53 65 54 36 55
REMARK SMILES IDX 37 56 48 58 66 59 39 60 26 61 27 62 32 63 28 64 29 65 31 66
REMARK SMILES IDX 33 67 30 68 52 69 53 70 58 71 54 72 55 73 57 74 59 75 56 76
REMARK SMILES IDX 40 77 41 78 46 79 42 80 43 81 45 82 47 83 44 84
REMARK H PARENT 4 8 64 46 38 57
REMARK Flexibility Score: inf
ROOT
ATOM      1  C   UNL A   1      33.577  29.744  26.077  1.00  0.00     0.202 C 
ENDROOT
BRANCH   1   2
ATOM      2  C   UNL A   1      33.709  28.705  27.189  1.00  0.00     0.261 C 
BRANCH   2   3
ATOM      3  O   UNL A   1      33.118  27.453  26.806  1.00  0.00    -0.459 OA
BRANCH   3   4
ATOM      4  C   UNL A   1      31.772  27.447  26.686  1.00  0.00     0.361 C 
ATOM      5  O   UNL A   1      31.000  27.516  27.639  1.00  0.00    -0.245 OA
BRANCH   4   6
ATOM      6  C   UNL A   1      31.245  27.250  25.273  1.00  0.00     0.387 C 
BRANCH   6   7
ATOM      7  N   UNL A   1      30.497  25.996  24.849  1.00  0.00    -0.309 N 
ATOM      8  H   UNL A   1      30.168  25.430  25.633  1.00  0.00     0.349 HD
BRANCH   7   9
ATOM      9  C   UNL A   1      29.266  26.385  24.127  1.00  0.00     0.354 C 
BRANCH   9  10
ATOM     10  C   UNL A   1      29.322  27.630  23.350  1.00  0.00    -0.047 C 
ATOM     11  C   UNL A   1      29.412  28.626  22.678  1.00  0.00     0.010 C 
ENDBRANCH   9  10
ENDBRANCH   7   9
BRANCH   7  12
ATOM     12  C   UNL A   1      31.476  25.139  24.064  1.00  0.00     0.220 C 
ATOM     13  C   UNL A   1      30.743  24.051  23.230  1.00  0.00     0.081 C 
BRANCH  12  14
ATOM     14  C   UNL A   1      32.699  24.578  24.829  1.00  0.00     0.087 A 
ATOM     15  C   UNL A   1      34.012  24.994  24.500  1.00  0.00     0.017 A 
ATOM     16  C   UNL A   1      32.623  23.657  25.895  1.00  0.00     0.278 A 
ATOM     17  C   UNL A   1      35.155  24.448  25.099  1.00  0.00     0.001 A 
ATOM     18  C   UNL A   1      33.770  23.066  26.472  1.00  0.00     0.086 A 
ATOM     19  C   UNL A   1      35.038  23.451  26.054  1.00  0.00     0.007 A 
BRANCH  16  20
ATOM     20  N   UNL A   1      31.354  23.279  26.495  1.00  0.00     0.063 N 
ATOM     21  O   UNL A   1      30.912  22.155  26.215  1.00  0.00    -0.258 OA
ATOM     22  O   UNL A   1      30.867  24.054  27.334  1.00  0.00    -0.258 OA
ENDBRANCH  16  20
ENDBRANCH  12  14
ENDBRANCH   7  12
ENDBRANCH   6   7
ENDBRANCH   4   6
ENDBRANCH   3   4
ENDBRANCH   2   3
ENDBRANCH   1   2
BRANCH   1  23
ATOM     23  O   UNL A   1      32.420  30.572  26.092  1.00  0.00    -0.374 OA
BRANCH  23  24
ATOM     24  C   UNL A   1      32.197  31.416  27.223  1.00  0.00     0.202 C 
BRANCH  24  25
ATOM     25  C   UNL A   1      32.128  32.925  26.985  1.00  0.00     0.261 C 
BRANCH  25  26
ATOM     26  O   UNL A   1      33.382  33.590  27.221  1.00  0.00    -0.460 OA
BRANCH  26  27
ATOM     27  C   UNL A   1      33.409  34.322  28.359  1.00  0.00     0.338 C 
ATOM     28  O   UNL A   1      32.572  35.121  28.749  1.00  0.00    -0.246 OA
BRANCH  27  29
ATOM     29  C   UNL A   1      34.506  33.886  29.241  1.00  0.00     0.060 A 
ATOM     30  C   UNL A   1      35.799  34.281  28.881  1.00  0.00     0.016 A 
ATOM     31  C   UNL A   1      34.302  32.989  30.290  1.00  0.00     0.016 A 
ATOM     32  C   UNL A   1      36.903  33.722  29.516  1.00  0.00     0.010 A 
ATOM     33  C   UNL A   1      35.416  32.428  30.930  1.00  0.00     0.010 A 
ATOM     34  C   UNL A   1      36.721  32.754  30.513  1.00  0.00    -0.014 A 
BRANCH  34  35
ATOM     35  C   UNL A   1      37.906  31.998  30.996  1.00  0.00     0.031 A 
ATOM     36  C   UNL A   1      38.468  32.287  32.363  1.00  0.00     0.074 A 
ATOM     37  C   UNL A   1      38.429  31.004  30.254  1.00  0.00     0.049 A 
ATOM     38  N   UNL A   1      39.481  31.732  32.980  1.00  0.00    -0.248 NA
ATOM     39  C   UNL A   1      37.801  33.344  33.141  1.00  0.00     0.031 C 
ATOM     40  C   UNL A   1      37.951  30.596  28.933  1.00  0.00     0.029 A 
ATOM     41  N   UNL A   1      39.478  30.156  30.509  1.00  0.00    -0.354 N 
ATOM     42  C   UNL A   1      39.581  32.377  34.207  1.00  0.00     0.074 A 
ATOM     43  C   UNL A   1      38.546  33.389  34.235  1.00  0.00     0.031 C 
ATOM     44  C   UNL A   1      38.705  29.576  28.493  1.00  0.00     0.029 A 
ATOM     45  C   UNL A   1      39.742  29.285  29.480  1.00  0.00     0.049 A 
ATOM     46  H   UNL A   1      39.991  30.170  31.348  1.00  0.00     0.167 HD
ATOM     47  C   UNL A   1      40.451  32.145  35.219  1.00  0.00     0.037 A 
ATOM     48  C   UNL A   1      40.724  28.374  29.339  1.00  0.00     0.037 A 
ATOM     49  C   UNL A   1      41.474  31.130  35.192  1.00  0.00     0.049 A 
ATOM     50  C   UNL A   1      41.715  28.177  30.456  1.00  0.00     0.074 A 
ATOM     51  C   UNL A   1      42.384  30.799  36.183  1.00  0.00     0.029 A 
ATOM     52  N   UNL A   1      41.733  30.293  34.118  1.00  0.00    -0.354 N 
ATOM     53  N   UNL A   1      41.783  28.775  31.621  1.00  0.00    -0.248 NA
ATOM     54  C   UNL A   1      42.763  27.169  30.240  1.00  0.00     0.031 C 
ATOM     55  C   UNL A   1      43.240  29.814  35.679  1.00  0.00     0.029 A 
ATOM     56  C   UNL A   1      42.811  29.471  34.409  1.00  0.00     0.049 A 
ATOM     57  H   UNL A   1      41.227  30.284  33.274  1.00  0.00     0.167 HD
ATOM     58  C   UNL A   1      42.852  28.190  32.290  1.00  0.00     0.074 A 
ATOM     59  C   UNL A   1      43.391  27.178  31.406  1.00  0.00     0.031 C 
ATOM     60  C   UNL A   1      43.341  28.462  33.525  1.00  0.00     0.037 A 
BRANCH  47  61
ATOM     61  C   UNL A   1      40.362  33.023  36.436  1.00  0.00     0.057 A 
ATOM     62  C   UNL A   1      41.179  34.146  36.613  1.00  0.00     0.134 A 
ATOM     63  C   UNL A   1      39.399  32.768  37.423  1.00  0.00     0.134 A 
ATOM     64  F   UNL A   1      42.129  34.445  35.713  1.00  0.00    -0.206 F 
ATOM     65  C   UNL A   1      41.059  34.970  37.735  1.00  0.00     0.040 A 
ATOM     66  C   UNL A   1      39.245  33.602  38.531  1.00  0.00     0.040 A 
ATOM     67  F   UNL A   1      38.575  31.713  37.315  1.00  0.00    -0.206 F 
ATOM     68  C   UNL A   1      40.081  34.703  38.692  1.00  0.00     0.006 A 
ENDBRANCH  47  61
BRANCH  48  69
ATOM     69  C   UNL A   1      40.841  27.591  28.080  1.00  0.00     0.057 A 
ATOM     70  C   UNL A   1      40.248  26.330  27.943  1.00  0.00     0.134 A 
ATOM     71  C   UNL A   1      41.586  28.071  26.995  1.00  0.00     0.134 A 
ATOM     72  F   UNL A   1      39.539  25.803  28.952  1.00  0.00    -0.206 F 
ATOM     73  C   UNL A   1      40.419  25.563  26.789  1.00  0.00     0.040 A 
ATOM     74  C   UNL A   1      41.736  27.330  25.823  1.00  0.00     0.040 A 
ATOM     75  F   UNL A   1      42.178  29.273  27.058  1.00  0.00    -0.206 F 
ATOM     76  C   UNL A   1      41.161  26.065  25.723  1.00  0.00     0.006 A 
ENDBRANCH  48  69
BRANCH  60  77
ATOM     77  C   UNL A   1      44.482  27.614  34.019  1.00  0.00     0.057 A 
ATOM     78  C   UNL A   1      44.282  26.389  34.668  1.00  0.00     0.134 A 
ATOM     79  C   UNL A   1      45.808  28.032  33.831  1.00  0.00     0.134 A 
ATOM     80  F   UNL A   1      43.041  25.930  34.888  1.00  0.00    -0.206 F 
ATOM     81  C   UNL A   1      45.354  25.634  35.151  1.00  0.00     0.040 A 
ATOM     82  C   UNL A   1      46.887  27.268  34.274  1.00  0.00     0.040 A 
ATOM     83  F   UNL A   1      46.076  29.188  33.204  1.00  0.00    -0.206 F 
ATOM     84  C   UNL A   1      46.661  26.071  34.950  1.00  0.00     0.006 A 
ENDBRANCH  60  77
ENDBRANCH  34  35
ENDBRANCH  27  29
ENDBRANCH  26  27
ENDBRANCH  25  26
ENDBRANCH  24  25
ENDBRANCH  23  24
ENDBRANCH   1  23
TORSDOF 20
ENDMDL
