MODEL 1
REMARK VINA RESULT:     -12.0      0.000      0.000
REMARK SMILES O=C(NC1(C(=O)OCCOCCOC(=O)c2ccc(-c3c4nc(c(-c5c(F)cccc5F)c5ccc([nH]5)c(-c5c(F)cccc5F)c5nc(c(-c6c(F)cccc6F)c6ccc3[nH]6)C=C5)C=C4)cc2)CC[NH2+]CC1)OCC1c2ccccc2-c2ccccc21
REMARK SMILES IDX 9 1 8 2 7 3 5 4 6 5 4 6 70 7 74 8 71 9 73 10 72 11 3 14 1 15
REMARK SMILES IDX 2 16 75 18 76 19 77 20 78 21 89 22 79 23 83 24 84 25 88 26
REMARK SMILES IDX 80 27 82 28 85 29 87 30 81 31 86 32 10 33 11 34 12 35 13 36
REMARK SMILES IDX 14 37 15 38 16 39 17 40 69 41 18 42 68 43 19 44 20 45 21 46
REMARK SMILES IDX 62 47 22 48 67 49 61 50 63 51 23 52 66 53 60 54 59 55 24 57
REMARK SMILES IDX 50 58 33 59 49 60 34 61 37 62 48 63 64 64 35 65 36 66 47 68
REMARK SMILES IDX 65 69 38 70 25 71 26 72 31 73 27 74 28 75 30 76 32 77 29 78
REMARK SMILES IDX 51 79 52 80 57 81 53 82 54 83 56 84 58 85 55 86 39 87 40 88
REMARK SMILES IDX 45 89 41 90 42 91 44 92 46 93 43 94
REMARK H PARENT 72 12 72 13 3 17 63 56 37 67
REMARK Flexibility Score: inf
ROOT
ATOM      1  C   UNL A   1      33.170  29.667  25.776  1.00  0.00     0.202 C 
ENDROOT
BRANCH   1   2
ATOM      2  C   UNL A   1      32.236  28.578  25.223  1.00  0.00     0.261 C 
BRANCH   2   3
ATOM      3  O   UNL A   1      32.526  27.248  25.704  1.00  0.00    -0.461 OA
BRANCH   3   4
ATOM      4  C   UNL A   1      31.448  26.483  26.044  1.00  0.00     0.332 C 
ATOM      5  O   UNL A   1      30.668  26.758  26.951  1.00  0.00    -0.249 OA
BRANCH   4   6
ATOM      6  C   UNL A   1      31.256  25.236  25.141  1.00  0.00     0.151 C 
ATOM      7  C   UNL A   1      30.667  25.498  23.781  1.00  0.00     0.102 C 
ATOM      8  C   UNL A   1      32.683  24.754  24.737  1.00  0.00     0.102 C 
ATOM      9  C   UNL A   1      30.486  24.162  23.052  1.00  0.00     0.263 C 
ATOM     10  C   UNL A   1      32.767  23.728  23.575  1.00  0.00     0.263 C 
ATOM     11  N   UNL A   1      31.779  23.826  22.498  1.00  0.00    -0.346 N 
ATOM     12  H   UNL A   1      32.065  24.551  21.839  1.00  0.00     0.346 HD
ATOM     13  H   UNL A   1      31.717  22.930  22.012  1.00  0.00     0.346 HD
BRANCH   6  14
ATOM     14  N   UNL A   1      30.394  24.257  25.880  1.00  0.00    -0.305 N 
ATOM     15  O   UNL A   1      29.992  22.890  27.682  1.00  0.00    -0.225 OA
ATOM     16  C   UNL A   1      30.789  23.437  26.940  1.00  0.00     0.408 C 
ATOM     17  H   UNL A   1      29.455  24.184  25.588  1.00  0.00     0.168 HD
BRANCH  16  18
ATOM     18  O   UNL A   1      32.133  23.337  27.067  1.00  0.00    -0.449 OA
BRANCH  18  19
ATOM     19  C   UNL A   1      32.934  22.308  27.807  1.00  0.00     0.248 C 
BRANCH  19  20
ATOM     20  C   UNL A   1      33.910  21.695  26.731  1.00  0.00     0.088 C 
ATOM     21  C   UNL A   1      35.194  22.247  26.158  1.00  0.00    -0.029 A 
ATOM     22  C   UNL A   1      33.548  20.715  25.596  1.00  0.00    -0.029 A 
ATOM     23  C   UNL A   1      35.770  23.494  26.214  1.00  0.00     0.005 A 
ATOM     24  C   UNL A   1      35.756  21.198  25.351  1.00  0.00    -0.014 A 
ATOM     25  C   UNL A   1      34.765  20.153  25.179  1.00  0.00    -0.014 A 
ATOM     26  C   UNL A   1      32.405  20.313  24.940  1.00  0.00     0.005 A 
ATOM     27  C   UNL A   1      36.885  23.710  25.399  1.00  0.00     0.000 A 
ATOM     28  C   UNL A   1      36.883  21.403  24.587  1.00  0.00     0.009 A 
ATOM     29  C   UNL A   1      34.813  18.903  24.590  1.00  0.00     0.009 A 
ATOM     30  C   UNL A   1      32.423  19.067  24.295  1.00  0.00     0.000 A 
ATOM     31  C   UNL A   1      37.422  22.685  24.587  1.00  0.00     0.001 A 
ATOM     32  C   UNL A   1      33.606  18.316  24.221  1.00  0.00     0.001 A 
ENDBRANCH  19  20
ENDBRANCH  18  19
ENDBRANCH  16  18
ENDBRANCH   6  14
ENDBRANCH   4   6
ENDBRANCH   3   4
ENDBRANCH   2   3
ENDBRANCH   1   2
BRANCH   1  33
ATOM     33  O   UNL A   1      33.056  29.931  27.174  1.00  0.00    -0.374 OA
BRANCH  33  34
ATOM     34  C   UNL A   1      33.244  31.300  27.528  1.00  0.00     0.202 C 
BRANCH  34  35
ATOM     35  C   UNL A   1      34.613  31.651  28.119  1.00  0.00     0.261 C 
BRANCH  35  36
ATOM     36  O   UNL A   1      35.337  30.482  28.540  1.00  0.00    -0.460 OA
BRANCH  36  37
ATOM     37  C   UNL A   1      36.175  30.679  29.588  1.00  0.00     0.338 C 
ATOM     38  O   UNL A   1      35.920  31.199  30.659  1.00  0.00    -0.246 OA
BRANCH  37  39
ATOM     39  C   UNL A   1      37.483  30.066  29.295  1.00  0.00     0.060 A 
ATOM     40  C   UNL A   1      38.343  29.760  30.355  1.00  0.00     0.016 A 
ATOM     41  C   UNL A   1      37.897  29.873  27.982  1.00  0.00     0.016 A 
ATOM     42  C   UNL A   1      39.630  29.273  30.098  1.00  0.00     0.010 A 
ATOM     43  C   UNL A   1      39.178  29.372  27.734  1.00  0.00     0.010 A 
ATOM     44  C   UNL A   1      40.070  29.082  28.780  1.00  0.00    -0.014 A 
BRANCH  44  45
ATOM     45  C   UNL A   1      41.478  28.696  28.472  1.00  0.00     0.031 A 
ATOM     46  C   UNL A   1      41.788  27.268  28.085  1.00  0.00     0.074 A 
ATOM     47  C   UNL A   1      42.488  29.587  28.551  1.00  0.00     0.049 A 
ATOM     48  N   UNL A   1      42.944  26.702  27.841  1.00  0.00    -0.248 NA
ATOM     49  C   UNL A   1      40.645  26.346  27.996  1.00  0.00     0.031 C 
ATOM     50  C   UNL A   1      42.356  30.992  28.940  1.00  0.00     0.029 A 
ATOM     51  N   UNL A   1      43.834  29.438  28.307  1.00  0.00    -0.354 N 
ATOM     52  C   UNL A   1      42.666  25.360  27.602  1.00  0.00     0.074 A 
ATOM     53  C   UNL A   1      41.244  25.183  27.798  1.00  0.00     0.031 C 
ATOM     54  C   UNL A   1      43.563  31.581  28.877  1.00  0.00     0.029 A 
ATOM     55  C   UNL A   1      44.562  30.591  28.481  1.00  0.00     0.049 A 
ATOM     56  H   UNL A   1      44.238  28.584  28.033  1.00  0.00     0.167 HD
ATOM     57  C   UNL A   1      43.502  24.367  27.219  1.00  0.00     0.037 A 
ATOM     58  C   UNL A   1      45.884  30.825  28.341  1.00  0.00     0.037 A 
ATOM     59  C   UNL A   1      44.908  24.542  26.967  1.00  0.00     0.049 A 
ATOM     60  C   UNL A   1      46.799  29.703  27.921  1.00  0.00     0.074 A 
ATOM     61  C   UNL A   1      45.823  23.610  26.510  1.00  0.00     0.029 A 
ATOM     62  N   UNL A   1      45.600  25.729  27.147  1.00  0.00    -0.354 N 
ATOM     63  N   UNL A   1      46.509  28.456  27.640  1.00  0.00    -0.248 NA
ATOM     64  C   UNL A   1      48.230  30.025  27.793  1.00  0.00     0.031 C 
ATOM     65  C   UNL A   1      47.080  24.220  26.461  1.00  0.00     0.029 A 
ATOM     66  C   UNL A   1      46.937  25.547  26.833  1.00  0.00     0.049 A 
ATOM     67  H   UNL A   1      45.201  26.576  27.454  1.00  0.00     0.167 HD
ATOM     68  C   UNL A   1      47.709  27.857  27.271  1.00  0.00     0.074 A 
ATOM     69  C   UNL A   1      48.730  28.880  27.351  1.00  0.00     0.031 C 
ATOM     70  C   UNL A   1      47.943  26.574  26.900  1.00  0.00     0.037 A 
BRANCH  57  71
ATOM     71  C   UNL A   1      42.915  22.996  27.042  1.00  0.00     0.057 A 
ATOM     72  C   UNL A   1      42.603  22.174  28.135  1.00  0.00     0.134 A 
ATOM     73  C   UNL A   1      42.634  22.499  25.763  1.00  0.00     0.134 A 
ATOM     74  F   UNL A   1      42.856  22.584  29.387  1.00  0.00    -0.206 F 
ATOM     75  C   UNL A   1      42.069  20.897  27.961  1.00  0.00     0.040 A 
ATOM     76  C   UNL A   1      42.068  21.236  25.578  1.00  0.00     0.040 A 
ATOM     77  F   UNL A   1      42.898  23.235  24.672  1.00  0.00    -0.206 F 
ATOM     78  C   UNL A   1      41.793  20.427  26.678  1.00  0.00     0.006 A 
ENDBRANCH  57  71
BRANCH  58  79
ATOM     79  C   UNL A   1      46.435  32.185  28.582  1.00  0.00     0.057 A 
ATOM     80  C   UNL A   1      46.575  33.105  27.535  1.00  0.00     0.134 A 
ATOM     81  C   UNL A   1      46.872  32.586  29.850  1.00  0.00     0.134 A 
ATOM     82  F   UNL A   1      46.200  32.773  26.291  1.00  0.00    -0.206 F 
ATOM     83  C   UNL A   1      47.148  34.363  27.734  1.00  0.00     0.040 A 
ATOM     84  C   UNL A   1      47.422  33.851  30.070  1.00  0.00     0.040 A 
ATOM     85  F   UNL A   1      46.766  31.755  30.897  1.00  0.00    -0.206 F 
ATOM     86  C   UNL A   1      47.571  34.740  29.008  1.00  0.00     0.006 A 
ENDBRANCH  58  79
BRANCH  70  87
ATOM     87  C   UNL A   1      49.346  26.208  26.504  1.00  0.00     0.057 A 
ATOM     88  C   UNL A   1      49.845  26.456  25.219  1.00  0.00     0.134 A 
ATOM     89  C   UNL A   1      50.224  25.644  27.440  1.00  0.00     0.134 A 
ATOM     90  F   UNL A   1      49.055  26.984  24.272  1.00  0.00    -0.206 F 
ATOM     91  C   UNL A   1      51.160  26.137  24.874  1.00  0.00     0.040 A 
ATOM     92  C   UNL A   1      51.548  25.349  27.115  1.00  0.00     0.040 A 
ATOM     93  F   UNL A   1      49.815  25.392  28.692  1.00  0.00    -0.206 F 
ATOM     94  C   UNL A   1      52.018  25.589  25.826  1.00  0.00     0.006 A 
ENDBRANCH  70  87
ENDBRANCH  44  45
ENDBRANCH  37  39
ENDBRANCH  36  37
ENDBRANCH  35  36
ENDBRANCH  34  35
ENDBRANCH  33  34
ENDBRANCH   1  33
TORSDOF 18
ENDMDL
MODEL 2
REMARK VINA RESULT:     -12.0      4.333      7.940
REMARK SMILES O=C(NC1(C(=O)OCCOCCOC(=O)c2ccc(-c3c4nc(c(-c5c(F)cccc5F)c5ccc([nH]5)c(-c5c(F)cccc5F)c5nc(c(-c6c(F)cccc6F)c6ccc3[nH]6)C=C5)C=C4)cc2)CC[NH2+]CC1)OCC1c2ccccc2-c2ccccc21
REMARK SMILES IDX 9 1 8 2 7 3 5 4 6 5 4 6 70 7 74 8 71 9 73 10 72 11 3 14 1 15
REMARK SMILES IDX 2 16 75 18 76 19 77 20 78 21 89 22 79 23 83 24 84 25 88 26
REMARK SMILES IDX 80 27 82 28 85 29 87 30 81 31 86 32 10 33 11 34 12 35 13 36
REMARK SMILES IDX 14 37 15 38 16 39 17 40 69 41 18 42 68 43 19 44 20 45 21 46
REMARK SMILES IDX 62 47 22 48 67 49 61 50 63 51 23 52 66 53 60 54 59 55 24 57
REMARK SMILES IDX 50 58 33 59 49 60 34 61 37 62 48 63 64 64 35 65 36 66 47 68
REMARK SMILES IDX 65 69 38 70 25 71 26 72 31 73 27 74 28 75 30 76 32 77 29 78
REMARK SMILES IDX 51 79 52 80 57 81 53 82 54 83 56 84 58 85 55 86 39 87 40 88
REMARK SMILES IDX 45 89 41 90 42 91 44 92 46 93 43 94
REMARK H PARENT 72 12 72 13 3 17 63 56 37 67
REMARK Flexibility Score: inf
ROOT
ATOM      1  C   UNL A   1      33.552  29.630  27.223  1.00  0.00     0.202 C 
ENDROOT
BRANCH   1   2
ATOM      2  C   UNL A   1      32.632  28.445  27.558  1.00  0.00     0.261 C 
BRANCH   2   3
ATOM      3  O   UNL A   1      32.741  27.333  26.644  1.00  0.00    -0.461 OA
BRANCH   3   4
ATOM      4  C   UNL A   1      31.589  26.950  26.020  1.00  0.00     0.332 C 
ATOM      5  O   UNL A   1      30.657  26.385  26.585  1.00  0.00    -0.249 OA
BRANCH   4   6
ATOM      6  C   UNL A   1      31.530  27.339  24.519  1.00  0.00     0.151 C 
ATOM      7  C   UNL A   1      30.845  28.642  24.208  1.00  0.00     0.102 C 
ATOM      8  C   UNL A   1      32.990  27.685  24.092  1.00  0.00     0.102 C 
ATOM      9  C   UNL A   1      30.818  28.838  22.688  1.00  0.00     0.263 C 
ATOM     10  C   UNL A   1      33.161  28.419  22.735  1.00  0.00     0.263 C 
ATOM     11  N   UNL A   1      32.118  29.362  22.326  1.00  0.00    -0.346 N 
ATOM     12  H   UNL A   1      32.266  30.257  22.795  1.00  0.00     0.346 HD
ATOM     13  H   UNL A   1      32.159  29.497  21.315  1.00  0.00     0.346 HD
BRANCH   6  14
ATOM     14  N   UNL A   1      30.853  26.227  23.778  1.00  0.00    -0.305 N 
ATOM     15  O   UNL A   1      30.657  24.006  23.221  1.00  0.00    -0.225 OA
ATOM     16  C   UNL A   1      31.358  24.941  23.564  1.00  0.00     0.408 C 
ATOM     17  H   UNL A   1      29.962  26.420  23.405  1.00  0.00     0.168 HD
BRANCH  16  18
ATOM     18  O   UNL A   1      32.688  24.845  23.799  1.00  0.00    -0.449 OA
BRANCH  18  19
ATOM     19  C   UNL A   1      33.772  24.358  22.883  1.00  0.00     0.248 C 
BRANCH  19  20
ATOM     20  C   UNL A   1      34.410  23.120  23.624  1.00  0.00     0.088 C 
ATOM     21  C   UNL A   1      33.816  21.769  23.945  1.00  0.00    -0.029 A 
ATOM     22  C   UNL A   1      35.528  23.145  24.686  1.00  0.00    -0.029 A 
ATOM     23  C   UNL A   1      32.527  21.294  23.907  1.00  0.00     0.005 A 
ATOM     24  C   UNL A   1      34.892  20.973  24.469  1.00  0.00    -0.014 A 
ATOM     25  C   UNL A   1      36.028  21.835  24.741  1.00  0.00    -0.014 A 
ATOM     26  C   UNL A   1      36.087  24.074  25.537  1.00  0.00     0.005 A 
ATOM     27  C   UNL A   1      32.304  20.030  24.461  1.00  0.00     0.000 A 
ATOM     28  C   UNL A   1      34.675  19.709  24.970  1.00  0.00     0.009 A 
ATOM     29  C   UNL A   1      37.323  21.577  25.149  1.00  0.00     0.009 A 
ATOM     30  C   UNL A   1      37.388  23.833  26.007  1.00  0.00     0.000 A 
ATOM     31  C   UNL A   1      33.360  19.258  24.998  1.00  0.00     0.001 A 
ATOM     32  C   UNL A   1      38.042  22.627  25.714  1.00  0.00     0.001 A 
ENDBRANCH  19  20
ENDBRANCH  18  19
ENDBRANCH  16  18
ENDBRANCH   6  14
ENDBRANCH   4   6
ENDBRANCH   3   4
ENDBRANCH   2   3
ENDBRANCH   1   2
BRANCH   1  33
ATOM     33  O   UNL A   1      33.001  30.617  26.352  1.00  0.00    -0.374 OA
BRANCH  33  34
ATOM     34  C   UNL A   1      31.749  31.147  26.785  1.00  0.00     0.202 C 
BRANCH  34  35
ATOM     35  C   UNL A   1      31.657  32.676  26.834  1.00  0.00     0.261 C 
BRANCH  35  36
ATOM     36  O   UNL A   1      32.953  33.297  26.875  1.00  0.00    -0.460 OA
BRANCH  36  37
ATOM     37  C   UNL A   1      33.197  34.032  27.987  1.00  0.00     0.338 C 
ATOM     38  O   UNL A   1      32.557  34.977  28.411  1.00  0.00    -0.246 OA
BRANCH  37  39
ATOM     39  C   UNL A   1      34.343  33.459  28.716  1.00  0.00     0.060 A 
ATOM     40  C   UNL A   1      35.632  33.914  28.420  1.00  0.00     0.016 A 
ATOM     41  C   UNL A   1      34.160  32.422  29.622  1.00  0.00     0.016 A 
ATOM     42  C   UNL A   1      36.745  33.316  29.023  1.00  0.00     0.010 A 
ATOM     43  C   UNL A   1      35.275  31.839  30.232  1.00  0.00     0.010 A 
ATOM     44  C   UNL A   1      36.581  32.260  29.931  1.00  0.00    -0.014 A 
BRANCH  44  45
ATOM     45  C   UNL A   1      37.749  31.513  30.484  1.00  0.00     0.031 A 
ATOM     46  C   UNL A   1      38.182  31.763  31.911  1.00  0.00     0.074 A 
ATOM     47  C   UNL A   1      38.444  30.633  29.734  1.00  0.00     0.049 A 
ATOM     48  N   UNL A   1      39.204  31.276  32.571  1.00  0.00    -0.248 NA
ATOM     49  C   UNL A   1      37.375  32.718  32.687  1.00  0.00     0.031 C 
ATOM     50  C   UNL A   1      38.172  30.307  28.333  1.00  0.00     0.029 A 
ATOM     51  N   UNL A   1      39.531  29.851  30.049  1.00  0.00    -0.354 N 
ATOM     52  C   UNL A   1      39.174  31.888  33.819  1.00  0.00     0.074 A 
ATOM     53  C   UNL A   1      38.078  32.830  33.802  1.00  0.00     0.031 C 
ATOM     54  C   UNL A   1      39.045  29.370  27.923  1.00  0.00     0.029 A 
ATOM     55  C   UNL A   1      39.963  29.056  29.014  1.00  0.00     0.049 A 
ATOM     56  H   UNL A   1      39.960  29.860  30.935  1.00  0.00     0.167 HD
ATOM     57  C   UNL A   1      39.959  31.666  34.900  1.00  0.00     0.037 A 
ATOM     58  C   UNL A   1      40.985  28.176  28.950  1.00  0.00     0.037 A 
ATOM     59  C   UNL A   1      41.017  30.692  34.948  1.00  0.00     0.049 A 
ATOM     60  C   UNL A   1      41.852  27.950  30.162  1.00  0.00     0.074 A 
ATOM     61  C   UNL A   1      41.822  30.348  36.020  1.00  0.00     0.029 A 
ATOM     62  N   UNL A   1      41.414  29.904  33.880  1.00  0.00    -0.354 N 
ATOM     63  N   UNL A   1      41.772  28.492  31.353  1.00  0.00    -0.248 NA
ATOM     64  C   UNL A   1      42.953  26.983  30.022  1.00  0.00     0.031 C 
ATOM     65  C   UNL A   1      42.740  29.387  35.586  1.00  0.00     0.029 A 
ATOM     66  C   UNL A   1      42.468  29.091  34.261  1.00  0.00     0.049 A 
ATOM     67  H   UNL A   1      41.006  29.920  32.983  1.00  0.00     0.167 HD
ATOM     68  C   UNL A   1      42.783  27.910  32.109  1.00  0.00     0.074 A 
ATOM     69  C   UNL A   1      43.457  26.962  31.247  1.00  0.00     0.031 C 
ATOM     70  C   UNL A   1      43.123  28.139  33.401  1.00  0.00     0.037 A 
BRANCH  57  71
ATOM     71  C   UNL A   1      39.698  32.493  36.127  1.00  0.00     0.057 A 
ATOM     72  C   UNL A   1      40.428  33.656  36.409  1.00  0.00     0.134 A 
ATOM     73  C   UNL A   1      38.687  32.134  37.027  1.00  0.00     0.134 A 
ATOM     74  F   UNL A   1      41.419  34.051  35.594  1.00  0.00    -0.206 F 
ATOM     75  C   UNL A   1      40.187  34.410  37.558  1.00  0.00     0.040 A 
ATOM     76  C   UNL A   1      38.413  32.900  38.162  1.00  0.00     0.040 A 
ATOM     77  F   UNL A   1      37.942  31.038  36.816  1.00  0.00    -0.206 F 
ATOM     78  C   UNL A   1      39.171  34.037  38.435  1.00  0.00     0.006 A 
ENDBRANCH  57  71
BRANCH  58  79
ATOM     79  C   UNL A   1      41.247  27.420  27.697  1.00  0.00     0.057 A 
ATOM     80  C   UNL A   1      40.683  26.155  27.484  1.00  0.00     0.134 A 
ATOM     81  C   UNL A   1      42.093  27.920  26.700  1.00  0.00     0.134 A 
ATOM     82  F   UNL A   1      39.885  25.608  28.412  1.00  0.00    -0.206 F 
ATOM     83  C   UNL A   1      40.969  25.407  26.340  1.00  0.00     0.040 A 
ATOM     84  C   UNL A   1      42.366  27.194  25.538  1.00  0.00     0.040 A 
ATOM     85  F   UNL A   1      42.664  29.126  26.838  1.00  0.00    -0.206 F 
ATOM     86  C   UNL A   1      41.811  25.929  25.360  1.00  0.00     0.006 A 
ENDBRANCH  58  79
BRANCH  70  87
ATOM     87  C   UNL A   1      44.242  27.323  33.984  1.00  0.00     0.057 A 
ATOM     88  C   UNL A   1      44.020  26.076  34.582  1.00  0.00     0.134 A 
ATOM     89  C   UNL A   1      45.568  27.771  33.899  1.00  0.00     0.134 A 
ATOM     90  F   UNL A   1      42.775  25.592  34.705  1.00  0.00    -0.206 F 
ATOM     91  C   UNL A   1      45.074  25.315  35.093  1.00  0.00     0.040 A 
ATOM     92  C   UNL A   1      46.631  27.006  34.379  1.00  0.00     0.040 A 
ATOM     93  F   UNL A   1      45.853  28.951  33.328  1.00  0.00    -0.206 F 
ATOM     94  C   UNL A   1      46.384  25.776  34.985  1.00  0.00     0.006 A 
ENDBRANCH  70  87
ENDBRANCH  44  45
ENDBRANCH  37  39
ENDBRANCH  36  37
ENDBRANCH  35  36
ENDBRANCH  34  35
ENDBRANCH  33  34
ENDBRANCH   1  33
TORSDOF 18
ENDMDL
MODEL 3
REMARK VINA RESULT:     -11.9      3.689      5.280
REMARK SMILES O=C(NC1(C(=O)OCCOCCOC(=O)c2ccc(-c3c4nc(c(-c5c(F)cccc5F)c5ccc([nH]5)c(-c5c(F)cccc5F)c5nc(c(-c6c(F)cccc6F)c6ccc3[nH]6)C=C5)C=C4)cc2)CC[NH2+]CC1)OCC1c2ccccc2-c2ccccc21
REMARK SMILES IDX 9 1 8 2 7 3 5 4 6 5 4 6 70 7 74 8 71 9 73 10 72 11 3 14 1 15
REMARK SMILES IDX 2 16 75 18 76 19 77 20 78 21 89 22 79 23 83 24 84 25 88 26
REMARK SMILES IDX 80 27 82 28 85 29 87 30 81 31 86 32 10 33 11 34 12 35 13 36
REMARK SMILES IDX 14 37 15 38 16 39 17 40 69 41 18 42 68 43 19 44 20 45 21 46
REMARK SMILES IDX 62 47 22 48 67 49 61 50 63 51 23 52 66 53 60 54 59 55 24 57
REMARK SMILES IDX 50 58 33 59 49 60 34 61 37 62 48 63 64 64 35 65 36 66 47 68
REMARK SMILES IDX 65 69 38 70 25 71 26 72 31 73 27 74 28 75 30 76 32 77 29 78
REMARK SMILES IDX 51 79 52 80 57 81 53 82 54 83 56 84 58 85 55 86 39 87 40 88
REMARK SMILES IDX 45 89 41 90 42 91 44 92 46 93 43 94
REMARK H PARENT 72 12 72 13 3 17 63 56 37 67
REMARK Flexibility Score: inf
ROOT
ATOM      1  C   UNL A   1      32.698  29.310  25.349  1.00  0.00     0.202 C 
ENDROOT
BRANCH   1   2
ATOM      2  C   UNL A   1      33.281  28.420  26.457  1.00  0.00     0.261 C 
BRANCH   2   3
ATOM      3  O   UNL A   1      33.036  27.009  26.275  1.00  0.00    -0.461 OA
BRANCH   3   4
ATOM      4  C   UNL A   1      31.737  26.604  26.389  1.00  0.00     0.332 C 
ATOM      5  O   UNL A   1      30.954  27.035  27.230  1.00  0.00    -0.249 OA
BRANCH   4   6
ATOM      6  C   UNL A   1      31.308  25.569  25.316  1.00  0.00     0.151 C 
ATOM      7  C   UNL A   1      30.654  26.136  24.085  1.00  0.00     0.102 C 
ATOM      8  C   UNL A   1      32.621  25.000  24.696  1.00  0.00     0.102 C 
ATOM      9  C   UNL A   1      30.237  24.981  23.167  1.00  0.00     0.263 C 
ATOM     10  C   UNL A   1      32.474  24.194  23.377  1.00  0.00     0.263 C 
ATOM     11  N   UNL A   1      31.425  24.597  22.437  1.00  0.00    -0.346 N 
ATOM     12  H   UNL A   1      31.754  25.388  21.882  1.00  0.00     0.346 HD
ATOM     13  H   UNL A   1      31.205  23.816  21.818  1.00  0.00     0.346 HD
BRANCH   6  14
ATOM     14  N   UNL A   1      30.383  24.584  25.966  1.00  0.00    -0.305 N 
ATOM     15  O   UNL A   1      29.929  23.014  27.580  1.00  0.00    -0.225 OA
ATOM     16  C   UNL A   1      30.740  23.580  26.871  1.00  0.00     0.408 C 
ATOM     17  H   UNL A   1      29.428  24.651  25.732  1.00  0.00     0.168 HD
BRANCH  16  18
ATOM     18  O   UNL A   1      32.070  23.327  26.890  1.00  0.00    -0.449 OA
BRANCH  18  19
ATOM     19  C   UNL A   1      32.814  22.264  27.642  1.00  0.00     0.248 C 
BRANCH  19  20
ATOM     20  C   UNL A   1      33.820  21.649  26.595  1.00  0.00     0.088 C 
ATOM     21  C   UNL A   1      35.092  22.224  26.016  1.00  0.00    -0.029 A 
ATOM     22  C   UNL A   1      33.502  20.620  25.491  1.00  0.00    -0.029 A 
ATOM     23  C   UNL A   1      35.625  23.491  26.036  1.00  0.00     0.005 A 
ATOM     24  C   UNL A   1      35.696  21.169  25.249  1.00  0.00    -0.014 A 
ATOM     25  C   UNL A   1      34.741  20.086  25.103  1.00  0.00    -0.014 A 
ATOM     26  C   UNL A   1      32.380  20.160  24.838  1.00  0.00     0.005 A 
ATOM     27  C   UNL A   1      36.740  23.717  25.224  1.00  0.00     0.000 A 
ATOM     28  C   UNL A   1      36.823  21.385  24.489  1.00  0.00     0.009 A 
ATOM     29  C   UNL A   1      34.836  18.820  24.556  1.00  0.00     0.009 A 
ATOM     30  C   UNL A   1      32.445  18.894  24.235  1.00  0.00     0.000 A 
ATOM     31  C   UNL A   1      37.319  22.683  24.451  1.00  0.00     0.001 A 
ATOM     32  C   UNL A   1      33.652  18.181  24.197  1.00  0.00     0.001 A 
ENDBRANCH  19  20
ENDBRANCH  18  19
ENDBRANCH  16  18
ENDBRANCH   6  14
ENDBRANCH   4   6
ENDBRANCH   3   4
ENDBRANCH   2   3
ENDBRANCH   1   2
BRANCH   1  33
ATOM     33  O   UNL A   1      31.912  30.417  25.790  1.00  0.00    -0.374 OA
BRANCH  33  34
ATOM     34  C   UNL A   1      32.468  31.126  26.896  1.00  0.00     0.202 C 
BRANCH  34  35
ATOM     35  C   UNL A   1      31.740  32.414  27.293  1.00  0.00     0.261 C 
BRANCH  35  36
ATOM     36  O   UNL A   1      32.560  33.581  27.107  1.00  0.00    -0.460 OA
BRANCH  36  37
ATOM     37  C   UNL A   1      33.035  34.131  28.252  1.00  0.00     0.338 C 
ATOM     38  O   UNL A   1      32.508  34.984  28.942  1.00  0.00    -0.246 OA
BRANCH  37  39
ATOM     39  C   UNL A   1      34.294  33.467  28.633  1.00  0.00     0.060 A 
ATOM     40  C   UNL A   1      34.333  32.707  29.806  1.00  0.00     0.016 A 
ATOM     41  C   UNL A   1      35.451  33.658  27.886  1.00  0.00     0.016 A 
ATOM     42  C   UNL A   1      35.541  32.151  30.244  1.00  0.00     0.010 A 
ATOM     43  C   UNL A   1      36.650  33.088  28.321  1.00  0.00     0.010 A 
ATOM     44  C   UNL A   1      36.721  32.343  29.511  1.00  0.00    -0.014 A 
BRANCH  44  45
ATOM     45  C   UNL A   1      38.046  31.881  30.021  1.00  0.00     0.031 A 
ATOM     46  C   UNL A   1      38.634  30.592  29.495  1.00  0.00     0.074 A 
ATOM     47  C   UNL A   1      38.722  32.575  30.959  1.00  0.00     0.049 A 
ATOM     48  N   UNL A   1      39.735  29.973  29.845  1.00  0.00    -0.248 NA
ATOM     49  C   UNL A   1      37.861  29.888  28.459  1.00  0.00     0.031 C 
ATOM     50  C   UNL A   1      38.274  33.818  31.588  1.00  0.00     0.029 A 
ATOM     51  N   UNL A   1      39.940  32.328  31.550  1.00  0.00    -0.354 N 
ATOM     52  C   UNL A   1      39.763  28.801  29.097  1.00  0.00     0.074 A 
ATOM     53  C   UNL A   1      38.541  28.761  28.327  1.00  0.00     0.031 C 
ATOM     54  C   UNL A   1      39.216  34.240  32.450  1.00  0.00     0.029 A 
ATOM     55  C   UNL A   1      40.318  33.281  32.466  1.00  0.00     0.049 A 
ATOM     56  H   UNL A   1      40.490  31.540  31.337  1.00  0.00     0.167 HD
ATOM     57  C   UNL A   1      40.731  27.856  29.023  1.00  0.00     0.037 A 
ATOM     58  C   UNL A   1      41.424  33.371  33.234  1.00  0.00     0.037 A 
ATOM     59  C   UNL A   1      41.976  27.911  29.742  1.00  0.00     0.049 A 
ATOM     60  C   UNL A   1      42.486  32.305  33.142  1.00  0.00     0.074 A 
ATOM     61  C   UNL A   1      43.046  27.036  29.679  1.00  0.00     0.029 A 
ATOM     62  N   UNL A   1      42.319  28.899  30.651  1.00  0.00    -0.354 N 
ATOM     63  N   UNL A   1      42.525  31.236  32.384  1.00  0.00    -0.248 NA
ATOM     64  C   UNL A   1      43.663  32.461  34.011  1.00  0.00     0.031 C 
ATOM     65  C   UNL A   1      44.016  27.467  30.588  1.00  0.00     0.029 A 
ATOM     66  C   UNL A   1      43.575  28.642  31.174  1.00  0.00     0.049 A 
ATOM     67  H   UNL A   1      41.754  29.670  30.889  1.00  0.00     0.167 HD
ATOM     68  C   UNL A   1      43.738  30.614  32.659  1.00  0.00     0.074 A 
ATOM     69  C   UNL A   1      44.413  31.432  33.644  1.00  0.00     0.031 C 
ATOM     70  C   UNL A   1      44.247  29.469  32.142  1.00  0.00     0.037 A 
BRANCH  57  71
ATOM     71  C   UNL A   1      40.481  26.678  28.124  1.00  0.00     0.057 A 
ATOM     72  C   UNL A   1      39.613  25.638  28.485  1.00  0.00     0.134 A 
ATOM     73  C   UNL A   1      41.099  26.594  26.870  1.00  0.00     0.134 A 
ATOM     74  F   UNL A   1      38.997  25.650  29.678  1.00  0.00    -0.206 F 
ATOM     75  C   UNL A   1      39.397  24.542  27.650  1.00  0.00     0.040 A 
ATOM     76  C   UNL A   1      40.864  25.519  26.011  1.00  0.00     0.040 A 
ATOM     77  F   UNL A   1      41.935  27.558  26.455  1.00  0.00    -0.206 F 
ATOM     78  C   UNL A   1      40.019  24.484  26.404  1.00  0.00     0.006 A 
ENDBRANCH  57  71
BRANCH  58  79
ATOM     79  C   UNL A   1      41.607  34.525  34.155  1.00  0.00     0.057 A 
ATOM     80  C   UNL A   1      41.125  34.484  35.470  1.00  0.00     0.134 A 
ATOM     81  C   UNL A   1      42.229  35.707  33.736  1.00  0.00     0.134 A 
ATOM     82  F   UNL A   1      40.496  33.391  35.923  1.00  0.00    -0.206 F 
ATOM     83  C   UNL A   1      41.234  35.582  36.326  1.00  0.00     0.040 A 
ATOM     84  C   UNL A   1      42.369  36.803  34.591  1.00  0.00     0.040 A 
ATOM     85  F   UNL A   1      42.715  35.813  32.491  1.00  0.00    -0.206 F 
ATOM     86  C   UNL A   1      41.862  36.746  35.887  1.00  0.00     0.006 A 
ENDBRANCH  58  79
BRANCH  70  87
ATOM     87  C   UNL A   1      45.619  29.051  32.590  1.00  0.00     0.057 A 
ATOM     88  C   UNL A   1      45.816  28.190  33.677  1.00  0.00     0.134 A 
ATOM     89  C   UNL A   1      46.756  29.475  31.889  1.00  0.00     0.134 A 
ATOM     90  F   UNL A   1      44.771  27.754  34.398  1.00  0.00    -0.206 F 
ATOM     91  C   UNL A   1      47.095  27.785  34.064  1.00  0.00     0.040 A 
ATOM     92  C   UNL A   1      48.036  29.054  32.248  1.00  0.00     0.040 A 
ATOM     93  F   UNL A   1      46.639  30.291  30.830  1.00  0.00    -0.206 F 
ATOM     94  C   UNL A   1      48.209  28.211  33.344  1.00  0.00     0.006 A 
ENDBRANCH  70  87
ENDBRANCH  44  45
ENDBRANCH  37  39
ENDBRANCH  36  37
ENDBRANCH  35  36
ENDBRANCH  34  35
ENDBRANCH  33  34
ENDBRANCH   1  33
TORSDOF 18
ENDMDL
