MODEL 1
REMARK VINA RESULT:     -12.5      0.000      0.000
REMARK SMILES CS(=O)(=O)c1ccc(/C=C(/C(=O)OCCOCCOC(=O)c2ccc(-c3c4nc(c(-c5c(F)cccc5F)c5ccc([nH]5)c(-c5c(F)cccc5F)c5nc(c(-c6c(F)cccc6F)c6ccc3[nH]6)C=C5)C=C4)cc2)c2ccc(-c3ccc(F)cc3F)cc2)cc1
REMARK SMILES IDX 16 1 15 2 14 3 13 4 11 5 12 6 10 7 9 8 8 9 5 10 6 11 91 12
REMARK SMILES IDX 7 13 90 14 2 15 1 16 3 17 4 18 76 19 77 20 89 21 78 22 88 23
REMARK SMILES IDX 79 24 80 25 81 26 86 27 82 28 85 29 87 30 83 31 84 32 17 33
REMARK SMILES IDX 18 34 19 35 20 36 21 37 22 38 23 39 75 40 24 41 74 42 25 43
REMARK SMILES IDX 26 44 27 45 68 46 28 47 73 48 67 49 69 50 29 51 72 52 66 53
REMARK SMILES IDX 65 54 30 56 56 57 39 58 55 59 40 60 43 61 54 62 70 63 41 64
REMARK SMILES IDX 42 65 53 67 71 68 44 69 31 70 32 71 37 72 33 73 34 74 36 75
REMARK SMILES IDX 38 76 35 77 57 78 58 79 63 80 59 81 60 82 62 83 64 84 61 85
REMARK SMILES IDX 45 86 46 87 51 88 47 89 48 90 50 91 52 92 49 93
REMARK H PARENT 69 55 43 66
REMARK Flexibility Score: inf
ROOT
ATOM      1  O   UNL A   1      34.912  22.949  24.021  1.00  0.00    -0.374 OA
ENDROOT
BRANCH   1   2
ATOM      2  C   UNL A   1      34.006  21.963  24.513  1.00  0.00     0.202 C 
BRANCH   2   3
ATOM      3  C   UNL A   1      33.286  22.230  25.839  1.00  0.00     0.261 C 
BRANCH   3   4
ATOM      4  O   UNL A   1      31.915  22.622  25.640  1.00  0.00    -0.460 OA
BRANCH   4   5
ATOM      5  C   UNL A   1      31.526  23.686  26.392  1.00  0.00     0.338 C 
ATOM      6  O   UNL A   1      31.478  23.709  27.614  1.00  0.00    -0.246 OA
BRANCH   5   7
ATOM      7  C   UNL A   1      31.287  24.911  25.563  1.00  0.00     0.067 C 
ATOM      8  C   UNL A   1      30.420  24.883  24.523  1.00  0.00     0.024 C 
BRANCH   8   9
ATOM      9  C   UNL A   1      29.860  26.043  23.781  1.00  0.00    -0.025 A 
ATOM     10  C   UNL A   1      28.791  28.496  22.910  1.00  0.00     0.067 A 
ATOM     11  C   UNL A   1      30.118  28.186  22.637  1.00  0.00     0.021 A 
ATOM     12  C   UNL A   1      27.958  27.543  23.501  1.00  0.00     0.021 A 
ATOM     13  C   UNL A   1      30.626  26.945  23.030  1.00  0.00     0.009 A 
ATOM     14  C   UNL A   1      28.493  26.324  23.934  1.00  0.00     0.009 A 
BRANCH  10  15
ATOM     15  S   UNL A   1      28.118  30.109  22.599  1.00  0.00     0.175 S 
ATOM     16  C   UNL A   1      29.260  31.295  23.254  1.00  0.00     0.163 C 
ATOM     17  O   UNL A   1      26.904  30.201  23.388  1.00  0.00    -0.224 OA
ATOM     18  O   UNL A   1      28.093  30.272  21.158  1.00  0.00    -0.224 OA
ENDBRANCH  10  15
ENDBRANCH   8   9
BRANCH   7  19
ATOM     19  C   UNL A   1      31.991  26.125  26.020  1.00  0.00    -0.011 A 
ATOM     20  C   UNL A   1      33.288  26.373  25.555  1.00  0.00     0.009 A 
ATOM     21  C   UNL A   1      31.392  27.047  26.877  1.00  0.00     0.009 A 
ATOM     22  C   UNL A   1      33.980  27.518  25.949  1.00  0.00     0.009 A 
ATOM     23  C   UNL A   1      32.079  28.209  27.244  1.00  0.00     0.009 A 
ATOM     24  C   UNL A   1      33.390  28.464  26.798  1.00  0.00    -0.015 A 
BRANCH  24  25
ATOM     25  C   UNL A   1      34.143  29.665  27.213  1.00  0.00     0.018 A 
ATOM     26  C   UNL A   1      35.488  29.570  27.627  1.00  0.00     0.015 A 
ATOM     27  C   UNL A   1      33.546  30.938  27.256  1.00  0.00     0.133 A 
ATOM     28  C   UNL A   1      36.186  30.692  28.083  1.00  0.00     0.040 A 
ATOM     29  C   UNL A   1      34.235  32.061  27.701  1.00  0.00     0.079 A 
ATOM     30  F   UNL A   1      32.267  31.101  26.886  1.00  0.00    -0.206 F 
ATOM     31  C   UNL A   1      35.549  31.925  28.119  1.00  0.00     0.126 A 
ATOM     32  F   UNL A   1      36.216  32.996  28.565  1.00  0.00    -0.207 F 
ENDBRANCH  24  25
ENDBRANCH   7  19
ENDBRANCH   5   7
ENDBRANCH   4   5
ENDBRANCH   3   4
ENDBRANCH   2   3
ENDBRANCH   1   2
BRANCH   1  33
ATOM     33  C   UNL A   1      36.248  22.542  23.751  1.00  0.00     0.202 C 
BRANCH  33  34
ATOM     34  C   UNL A   1      36.883  21.451  24.622  1.00  0.00     0.261 C 
BRANCH  34  35
ATOM     35  O   UNL A   1      37.424  21.949  25.851  1.00  0.00    -0.460 OA
BRANCH  35  36
ATOM     36  C   UNL A   1      38.710  21.590  26.082  1.00  0.00     0.338 C 
ATOM     37  O   UNL A   1      39.256  20.538  25.784  1.00  0.00    -0.246 OA
BRANCH  36  38
ATOM     38  C   UNL A   1      39.446  22.753  26.596  1.00  0.00     0.060 A 
ATOM     39  C   UNL A   1      39.095  24.019  26.107  1.00  0.00     0.016 A 
ATOM     40  C   UNL A   1      40.475  22.606  27.528  1.00  0.00     0.016 A 
ATOM     41  C   UNL A   1      39.779  25.147  26.545  1.00  0.00     0.010 A 
ATOM     42  C   UNL A   1      41.173  23.738  27.951  1.00  0.00     0.010 A 
ATOM     43  C   UNL A   1      40.838  25.009  27.451  1.00  0.00    -0.014 A 
BRANCH  43  44
ATOM     44  C   UNL A   1      41.663  26.183  27.810  1.00  0.00     0.031 A 
ATOM     45  C   UNL A   1      41.071  27.259  28.670  1.00  0.00     0.074 A 
ATOM     46  C   UNL A   1      42.927  26.284  27.363  1.00  0.00     0.049 A 
ATOM     47  N   UNL A   1      41.584  28.404  29.036  1.00  0.00    -0.248 NA
ATOM     48  C   UNL A   1      39.715  27.011  29.181  1.00  0.00     0.031 C 
ATOM     49  C   UNL A   1      43.620  25.278  26.561  1.00  0.00     0.029 A 
ATOM     50  N   UNL A   1      43.845  27.291  27.512  1.00  0.00    -0.354 N 
ATOM     51  C   UNL A   1      40.614  29.017  29.817  1.00  0.00     0.074 A 
ATOM     52  C   UNL A   1      39.469  28.132  29.842  1.00  0.00     0.031 C 
ATOM     53  C   UNL A   1      44.856  25.724  26.280  1.00  0.00     0.029 A 
ATOM     54  C   UNL A   1      45.021  27.061  26.845  1.00  0.00     0.049 A 
ATOM     55  H   UNL A   1      43.676  28.100  28.047  1.00  0.00     0.167 HD
ATOM     56  C   UNL A   1      40.677  30.208  30.459  1.00  0.00     0.037 A 
ATOM     57  C   UNL A   1      46.097  27.855  26.685  1.00  0.00     0.037 A 
ATOM     58  C   UNL A   1      41.816  31.088  30.413  1.00  0.00     0.049 A 
ATOM     59  C   UNL A   1      46.101  29.222  27.314  1.00  0.00     0.074 A 
ATOM     60  C   UNL A   1      41.992  32.307  31.042  1.00  0.00     0.029 A 
ATOM     61  N   UNL A   1      42.970  30.849  29.678  1.00  0.00    -0.354 N 
ATOM     62  N   UNL A   1      45.193  29.786  28.074  1.00  0.00    -0.248 NA
ATOM     63  C   UNL A   1      47.276  30.067  27.055  1.00  0.00     0.031 C 
ATOM     64  C   UNL A   1      43.223  32.834  30.638  1.00  0.00     0.029 A 
ATOM     65  C   UNL A   1      43.843  31.917  29.804  1.00  0.00     0.049 A 
ATOM     66  H   UNL A   1      43.142  30.038  29.146  1.00  0.00     0.167 HD
ATOM     67  C   UNL A   1      45.694  31.039  28.403  1.00  0.00     0.074 A 
ATOM     68  C   UNL A   1      46.994  31.147  27.770  1.00  0.00     0.031 C 
ATOM     69  C   UNL A   1      45.131  32.013  29.160  1.00  0.00     0.037 A 
BRANCH  56  70
ATOM     70  C   UNL A   1      39.462  30.639  31.228  1.00  0.00     0.057 A 
ATOM     71  C   UNL A   1      38.535  31.553  30.707  1.00  0.00     0.134 A 
ATOM     72  C   UNL A   1      39.212  30.131  32.509  1.00  0.00     0.134 A 
ATOM     73  F   UNL A   1      38.720  32.090  29.491  1.00  0.00    -0.206 F 
ATOM     74  C   UNL A   1      37.427  31.973  31.446  1.00  0.00     0.040 A 
ATOM     75  C   UNL A   1      38.093  30.520  33.245  1.00  0.00     0.040 A 
ATOM     76  F   UNL A   1      40.054  29.248  33.069  1.00  0.00    -0.206 F 
ATOM     77  C   UNL A   1      37.201  31.452  32.719  1.00  0.00     0.006 A 
ENDBRANCH  56  70
BRANCH  57  78
ATOM     78  C   UNL A   1      47.252  27.379  25.884  1.00  0.00     0.057 A 
ATOM     79  C   UNL A   1      48.323  26.713  26.492  1.00  0.00     0.134 A 
ATOM     80  C   UNL A   1      47.312  27.569  24.498  1.00  0.00     0.134 A 
ATOM     81  F   UNL A   1      48.332  26.520  27.818  1.00  0.00    -0.206 F 
ATOM     82  C   UNL A   1      49.414  26.258  25.750  1.00  0.00     0.040 A 
ATOM     83  C   UNL A   1      48.385  27.097  23.742  1.00  0.00     0.040 A 
ATOM     84  F   UNL A   1      46.317  28.199  23.857  1.00  0.00    -0.206 F 
ATOM     85  C   UNL A   1      49.443  26.442  24.369  1.00  0.00     0.006 A 
ENDBRANCH  57  78
BRANCH  69  86
ATOM     86  C   UNL A   1      45.921  33.274  29.364  1.00  0.00     0.057 A 
ATOM     87  C   UNL A   1      45.778  34.379  28.515  1.00  0.00     0.134 A 
ATOM     88  C   UNL A   1      46.798  33.402  30.449  1.00  0.00     0.134 A 
ATOM     89  F   UNL A   1      44.966  34.319  27.449  1.00  0.00    -0.206 F 
ATOM     90  C   UNL A   1      46.491  35.561  28.730  1.00  0.00     0.040 A 
ATOM     91  C   UNL A   1      47.494  34.587  30.691  1.00  0.00     0.040 A 
ATOM     92  F   UNL A   1      46.975  32.384  31.305  1.00  0.00    -0.206 F 
ATOM     93  C   UNL A   1      47.345  35.670  29.826  1.00  0.00     0.006 A 
ENDBRANCH  69  86
ENDBRANCH  43  44
ENDBRANCH  36  38
ENDBRANCH  35  36
ENDBRANCH  34  35
ENDBRANCH  33  34
ENDBRANCH   1  33
TORSDOF 18
ENDMDL
MODEL 2
REMARK VINA RESULT:     -12.2      0.807      6.012
REMARK SMILES CS(=O)(=O)c1ccc(/C=C(/C(=O)OCCOCCOC(=O)c2ccc(-c3c4nc(c(-c5c(F)cccc5F)c5ccc([nH]5)c(-c5c(F)cccc5F)c5nc(c(-c6c(F)cccc6F)c6ccc3[nH]6)C=C5)C=C4)cc2)c2ccc(-c3ccc(F)cc3F)cc2)cc1
REMARK SMILES IDX 16 1 15 2 14 3 13 4 11 5 12 6 10 7 9 8 8 9 5 10 6 11 91 12
REMARK SMILES IDX 7 13 90 14 2 15 1 16 3 17 4 18 76 19 77 20 89 21 78 22 88 23
REMARK SMILES IDX 79 24 80 25 81 26 86 27 82 28 85 29 87 30 83 31 84 32 17 33
REMARK SMILES IDX 18 34 19 35 20 36 21 37 22 38 23 39 75 40 24 41 74 42 25 43
REMARK SMILES IDX 26 44 27 45 68 46 28 47 73 48 67 49 69 50 29 51 72 52 66 53
REMARK SMILES IDX 65 54 30 56 56 57 39 58 55 59 40 60 43 61 54 62 70 63 41 64
REMARK SMILES IDX 42 65 53 67 71 68 44 69 31 70 32 71 37 72 33 73 34 74 36 75
REMARK SMILES IDX 38 76 35 77 57 78 58 79 63 80 59 81 60 82 62 83 64 84 61 85
REMARK SMILES IDX 45 86 46 87 51 88 47 89 48 90 50 91 52 92 49 93
REMARK H PARENT 69 55 43 66
REMARK Flexibility Score: inf
ROOT
ATOM      1  O   UNL A   1      35.402  21.303  25.666  1.00  0.00    -0.374 OA
ENDROOT
BRANCH   1   2
ATOM      2  C   UNL A   1      34.013  21.500  25.407  1.00  0.00     0.202 C 
BRANCH   2   3
ATOM      3  C   UNL A   1      33.345  22.775  25.935  1.00  0.00     0.261 C 
BRANCH   3   4
ATOM      4  O   UNL A   1      31.975  22.884  25.506  1.00  0.00    -0.460 OA
BRANCH   4   5
ATOM      5  C   UNL A   1      31.249  23.808  26.190  1.00  0.00     0.338 C 
ATOM      6  O   UNL A   1      30.862  23.691  27.345  1.00  0.00    -0.246 OA
BRANCH   5   7
ATOM      7  C   UNL A   1      31.081  25.083  25.420  1.00  0.00     0.067 C 
ATOM      8  C   UNL A   1      30.229  25.147  24.369  1.00  0.00     0.024 C 
BRANCH   8   9
ATOM      9  C   UNL A   1      29.734  26.368  23.680  1.00  0.00    -0.025 A 
ATOM     10  C   UNL A   1      28.816  28.916  22.917  1.00  0.00     0.067 A 
ATOM     11  C   UNL A   1      30.116  28.531  22.610  1.00  0.00     0.021 A 
ATOM     12  C   UNL A   1      27.931  27.997  23.486  1.00  0.00     0.021 A 
ATOM     13  C   UNL A   1      30.547  27.246  22.950  1.00  0.00     0.009 A 
ATOM     14  C   UNL A   1      28.391  26.731  23.866  1.00  0.00     0.009 A 
BRANCH  10  15
ATOM     15  S   UNL A   1      28.246  30.580  22.676  1.00  0.00     0.175 S 
ATOM     16  C   UNL A   1      28.000  30.809  20.936  1.00  0.00     0.163 C 
ATOM     17  O   UNL A   1      29.341  31.445  23.072  1.00  0.00    -0.224 OA
ATOM     18  O   UNL A   1      26.948  30.666  23.318  1.00  0.00    -0.224 OA
ENDBRANCH  10  15
ENDBRANCH   8   9
BRANCH   7  19
ATOM     19  C   UNL A   1      31.835  26.237  25.946  1.00  0.00    -0.011 A 
ATOM     20  C   UNL A   1      33.139  26.462  25.487  1.00  0.00     0.009 A 
ATOM     21  C   UNL A   1      31.278  27.128  26.861  1.00  0.00     0.009 A 
ATOM     22  C   UNL A   1      33.878  27.551  25.945  1.00  0.00     0.009 A 
ATOM     23  C   UNL A   1      32.013  28.237  27.294  1.00  0.00     0.009 A 
ATOM     24  C   UNL A   1      33.331  28.466  26.855  1.00  0.00    -0.015 A 
BRANCH  24  25
ATOM     25  C   UNL A   1      34.134  29.608  27.336  1.00  0.00     0.018 A 
ATOM     26  C   UNL A   1      35.457  29.425  27.788  1.00  0.00     0.015 A 
ATOM     27  C   UNL A   1      33.605  30.910  27.408  1.00  0.00     0.133 A 
ATOM     28  C   UNL A   1      36.199  30.490  28.307  1.00  0.00     0.040 A 
ATOM     29  C   UNL A   1      34.339  31.977  27.915  1.00  0.00     0.079 A 
ATOM     30  F   UNL A   1      32.349  31.157  27.005  1.00  0.00    -0.206 F 
ATOM     31  C   UNL A   1      35.629  31.754  28.368  1.00  0.00     0.126 A 
ATOM     32  F   UNL A   1      36.338  32.771  28.874  1.00  0.00    -0.207 F 
ENDBRANCH  24  25
ENDBRANCH   7  19
ENDBRANCH   5   7
ENDBRANCH   4   5
ENDBRANCH   3   4
ENDBRANCH   2   3
ENDBRANCH   1   2
BRANCH   1  33
ATOM     33  C   UNL A   1      36.056  20.242  24.982  1.00  0.00     0.202 C 
BRANCH  33  34
ATOM     34  C   UNL A   1      37.588  20.238  24.910  1.00  0.00     0.261 C 
BRANCH  34  35
ATOM     35  O   UNL A   1      38.191  21.359  25.567  1.00  0.00    -0.460 OA
BRANCH  35  36
ATOM     36  C   UNL A   1      39.394  21.095  26.133  1.00  0.00     0.338 C 
ATOM     37  O   UNL A   1      40.023  20.049  26.094  1.00  0.00    -0.246 OA
BRANCH  36  38
ATOM     38  C   UNL A   1      39.954  22.344  26.668  1.00  0.00     0.060 A 
ATOM     39  C   UNL A   1      39.480  23.553  26.142  1.00  0.00     0.016 A 
ATOM     40  C   UNL A   1      40.941  22.331  27.655  1.00  0.00     0.016 A 
ATOM     41  C   UNL A   1      39.997  24.760  26.599  1.00  0.00     0.010 A 
ATOM     42  C   UNL A   1      41.473  23.543  28.098  1.00  0.00     0.010 A 
ATOM     43  C   UNL A   1      41.014  24.759  27.562  1.00  0.00    -0.014 A 
BRANCH  43  44
ATOM     44  C   UNL A   1      41.669  26.028  27.946  1.00  0.00     0.031 A 
ATOM     45  C   UNL A   1      43.069  26.299  27.483  1.00  0.00     0.074 A 
ATOM     46  C   UNL A   1      41.016  26.924  28.707  1.00  0.00     0.049 A 
ATOM     47  N   UNL A   1      43.857  27.303  27.768  1.00  0.00    -0.248 NA
ATOM     48  C   UNL A   1      43.661  25.300  26.582  1.00  0.00     0.031 C 
ATOM     49  C   UNL A   1      39.638  26.787  29.174  1.00  0.00     0.029 A 
ATOM     50  N   UNL A   1      41.434  28.120  29.230  1.00  0.00    -0.354 N 
ATOM     51  C   UNL A   1      45.041  27.056  27.085  1.00  0.00     0.074 A 
ATOM     52  C   UNL A   1      44.878  25.791  26.401  1.00  0.00     0.031 C 
ATOM     53  C   UNL A   1      39.327  27.857  29.924  1.00  0.00     0.029 A 
ATOM     54  C   UNL A   1      40.496  28.728  30.024  1.00  0.00     0.049 A 
ATOM     55  H   UNL A   1      42.323  28.506  29.051  1.00  0.00     0.167 HD
ATOM     56  C   UNL A   1      46.157  27.820  27.031  1.00  0.00     0.037 A 
ATOM     57  C   UNL A   1      40.584  29.845  30.770  1.00  0.00     0.037 A 
ATOM     58  C   UNL A   1      46.312  29.070  27.729  1.00  0.00     0.049 A 
ATOM     59  C   UNL A   1      41.873  30.621  30.784  1.00  0.00     0.074 A 
ATOM     60  C   UNL A   1      47.395  29.932  27.726  1.00  0.00     0.029 A 
ATOM     61  N   UNL A   1      45.361  29.626  28.573  1.00  0.00    -0.354 N 
ATOM     62  N   UNL A   1      42.980  30.398  30.116  1.00  0.00    -0.248 NA
ATOM     63  C   UNL A   1      41.930  31.797  31.663  1.00  0.00     0.031 C 
ATOM     64  C   UNL A   1      47.123  30.976  28.617  1.00  0.00     0.029 A 
ATOM     65  C   UNL A   1      45.847  30.798  29.129  1.00  0.00     0.049 A 
ATOM     66  H   UNL A   1      44.471  29.245  28.749  1.00  0.00     0.167 HD
ATOM     67  C   UNL A   1      43.855  31.415  30.474  1.00  0.00     0.074 A 
ATOM     68  C   UNL A   1      43.144  32.265  31.409  1.00  0.00     0.031 C 
ATOM     69  C   UNL A   1      45.130  31.629  30.066  1.00  0.00     0.037 A 
BRANCH  56  70
ATOM     70  C   UNL A   1      47.308  27.297  26.220  1.00  0.00     0.057 A 
ATOM     71  C   UNL A   1      48.326  26.518  26.786  1.00  0.00     0.134 A 
ATOM     72  C   UNL A   1      47.399  27.576  24.850  1.00  0.00     0.134 A 
ATOM     73  F   UNL A   1      48.309  26.224  28.096  1.00  0.00    -0.206 F 
ATOM     74  C   UNL A   1      49.409  26.067  26.029  1.00  0.00     0.040 A 
ATOM     75  C   UNL A   1      48.460  27.106  24.076  1.00  0.00     0.040 A 
ATOM     76  F   UNL A   1      46.456  28.312  24.240  1.00  0.00    -0.206 F 
ATOM     77  C   UNL A   1      49.476  26.358  24.667  1.00  0.00     0.006 A 
ENDBRANCH  56  70
BRANCH  57  78
ATOM     78  C   UNL A   1      39.418  30.288  31.575  1.00  0.00     0.057 A 
ATOM     79  C   UNL A   1      38.544  31.271  31.095  1.00  0.00     0.134 A 
ATOM     80  C   UNL A   1      39.142  29.738  32.833  1.00  0.00     0.134 A 
ATOM     81  F   UNL A   1      38.768  31.850  29.907  1.00  0.00    -0.206 F 
ATOM     82  C   UNL A   1      37.443  31.694  31.840  1.00  0.00     0.040 A 
ATOM     83  C   UNL A   1      38.031  30.134  33.577  1.00  0.00     0.040 A 
ATOM     84  F   UNL A   1      39.941  28.791  33.347  1.00  0.00    -0.206 F 
ATOM     85  C   UNL A   1      37.179  31.119  33.082  1.00  0.00     0.006 A 
ENDBRANCH  57  78
BRANCH  69  86
ATOM     86  C   UNL A   1      45.837  32.836  30.613  1.00  0.00     0.057 A 
ATOM     87  C   UNL A   1      46.596  32.777  31.789  1.00  0.00     0.134 A 
ATOM     88  C   UNL A   1      45.800  34.058  29.929  1.00  0.00     0.134 A 
ATOM     89  F   UNL A   1      46.663  31.642  32.500  1.00  0.00    -0.206 F 
ATOM     90  C   UNL A   1      47.278  33.895  32.273  1.00  0.00     0.040 A 
ATOM     91  C   UNL A   1      46.500  35.175  30.387  1.00  0.00     0.040 A 
ATOM     92  F   UNL A   1      45.098  34.181  28.792  1.00  0.00    -0.206 F 
ATOM     93  C   UNL A   1      47.239  35.096  31.566  1.00  0.00     0.006 A 
ENDBRANCH  69  86
ENDBRANCH  43  44
ENDBRANCH  36  38
ENDBRANCH  35  36
ENDBRANCH  34  35
ENDBRANCH  33  34
ENDBRANCH   1  33
TORSDOF 18
ENDMDL
MODEL 3
REMARK VINA RESULT:     -11.4      4.430      8.740
REMARK SMILES CS(=O)(=O)c1ccc(/C=C(/C(=O)OCCOCCOC(=O)c2ccc(-c3c4nc(c(-c5c(F)cccc5F)c5ccc([nH]5)c(-c5c(F)cccc5F)c5nc(c(-c6c(F)cccc6F)c6ccc3[nH]6)C=C5)C=C4)cc2)c2ccc(-c3ccc(F)cc3F)cc2)cc1
REMARK SMILES IDX 16 1 15 2 14 3 13 4 11 5 12 6 10 7 9 8 8 9 5 10 6 11 91 12
REMARK SMILES IDX 7 13 90 14 2 15 1 16 3 17 4 18 76 19 77 20 89 21 78 22 88 23
REMARK SMILES IDX 79 24 80 25 81 26 86 27 82 28 85 29 87 30 83 31 84 32 17 33
REMARK SMILES IDX 18 34 19 35 20 36 21 37 22 38 23 39 75 40 24 41 74 42 25 43
REMARK SMILES IDX 26 44 27 45 68 46 28 47 73 48 67 49 69 50 29 51 72 52 66 53
REMARK SMILES IDX 65 54 30 56 56 57 39 58 55 59 40 60 43 61 54 62 70 63 41 64
REMARK SMILES IDX 42 65 53 67 71 68 44 69 31 70 32 71 37 72 33 73 34 74 36 75
REMARK SMILES IDX 38 76 35 77 57 78 58 79 63 80 59 81 60 82 62 83 64 84 61 85
REMARK SMILES IDX 45 86 46 87 51 88 47 89 48 90 50 91 52 92 49 93
REMARK H PARENT 69 55 43 66
REMARK Flexibility Score: inf
ROOT
ATOM      1  O   UNL A   1      42.595  21.300  27.039  1.00  0.00    -0.374 OA
ENDROOT
BRANCH   1   2
ATOM      2  C   UNL A   1      41.180  21.187  27.178  1.00  0.00     0.202 C 
BRANCH   2   3
ATOM      3  C   UNL A   1      40.286  22.083  26.312  1.00  0.00     0.261 C 
BRANCH   3   4
ATOM      4  O   UNL A   1      39.107  22.512  27.017  1.00  0.00    -0.460 OA
BRANCH   4   5
ATOM      5  C   UNL A   1      38.306  23.349  26.305  1.00  0.00     0.338 C 
ATOM      6  O   UNL A   1      38.495  24.547  26.149  1.00  0.00    -0.246 OA
BRANCH   5   7
ATOM      7  C   UNL A   1      37.212  22.616  25.590  1.00  0.00     0.067 C 
ATOM      8  C   UNL A   1      37.338  21.298  25.301  1.00  0.00     0.024 C 
BRANCH   8   9
ATOM      9  C   UNL A   1      36.270  20.363  24.859  1.00  0.00    -0.025 A 
ATOM     10  C   UNL A   1      34.272  18.402  24.581  1.00  0.00     0.067 A 
ATOM     11  C   UNL A   1      33.917  19.745  24.636  1.00  0.00     0.021 A 
ATOM     12  C   UNL A   1      35.619  18.036  24.536  1.00  0.00     0.021 A 
ATOM     13  C   UNL A   1      34.920  20.714  24.724  1.00  0.00     0.009 A 
ATOM     14  C   UNL A   1      36.611  19.014  24.676  1.00  0.00     0.009 A 
BRANCH  10  15
ATOM     15  S   UNL A   1      33.060  17.106  24.641  1.00  0.00     0.175 S 
ATOM     16  C   UNL A   1      33.771  15.756  25.541  1.00  0.00     0.163 C 
ATOM     17  O   UNL A   1      32.876  16.660  23.272  1.00  0.00    -0.224 OA
ATOM     18  O   UNL A   1      31.950  17.618  25.421  1.00  0.00    -0.224 OA
ENDBRANCH  10  15
ENDBRANCH   8   9
BRANCH   7  19
ATOM     19  C   UNL A   1      35.999  23.410  25.316  1.00  0.00    -0.011 A 
ATOM     20  C   UNL A   1      35.738  23.821  24.004  1.00  0.00     0.009 A 
ATOM     21  C   UNL A   1      35.090  23.738  26.321  1.00  0.00     0.009 A 
ATOM     22  C   UNL A   1      34.593  24.557  23.701  1.00  0.00     0.009 A 
ATOM     23  C   UNL A   1      33.927  24.451  26.006  1.00  0.00     0.009 A 
ATOM     24  C   UNL A   1      33.660  24.884  24.694  1.00  0.00    -0.015 A 
BRANCH  24  25
ATOM     25  C   UNL A   1      32.459  25.675  24.355  1.00  0.00     0.018 A 
ATOM     26  C   UNL A   1      32.535  27.072  24.184  1.00  0.00     0.015 A 
ATOM     27  C   UNL A   1      31.189  25.081  24.233  1.00  0.00     0.133 A 
ATOM     28  C   UNL A   1      31.391  27.834  23.930  1.00  0.00     0.040 A 
ATOM     29  C   UNL A   1      30.047  25.830  23.972  1.00  0.00     0.079 A 
ATOM     30  F   UNL A   1      31.040  23.757  24.393  1.00  0.00    -0.206 F 
ATOM     31  C   UNL A   1      30.158  27.203  23.830  1.00  0.00     0.126 A 
ATOM     32  F   UNL A   1      29.063  27.935  23.595  1.00  0.00    -0.207 F 
ENDBRANCH  24  25
ENDBRANCH   7  19
ENDBRANCH   5   7
ENDBRANCH   4   5
ENDBRANCH   3   4
ENDBRANCH   2   3
ENDBRANCH   1   2
BRANCH   1  33
ATOM     33  C   UNL A   1      43.161  20.976  25.775  1.00  0.00     0.202 C 
BRANCH  33  34
ATOM     34  C   UNL A   1      43.918  22.062  25.001  1.00  0.00     0.261 C 
BRANCH  34  35
ATOM     35  O   UNL A   1      43.263  23.336  25.021  1.00  0.00    -0.460 OA
BRANCH  35  36
ATOM     36  C   UNL A   1      44.087  24.385  25.256  1.00  0.00     0.338 C 
ATOM     37  O   UNL A   1      45.105  24.684  24.650  1.00  0.00    -0.246 OA
BRANCH  36  38
ATOM     38  C   UNL A   1      43.469  25.262  26.261  1.00  0.00     0.060 A 
ATOM     39  C   UNL A   1      43.891  26.598  26.312  1.00  0.00     0.016 A 
ATOM     40  C   UNL A   1      42.508  24.780  27.151  1.00  0.00     0.016 A 
ATOM     41  C   UNL A   1      43.353  27.460  27.261  1.00  0.00     0.010 A 
ATOM     42  C   UNL A   1      41.984  25.642  28.115  1.00  0.00     0.010 A 
ATOM     43  C   UNL A   1      42.415  26.979  28.183  1.00  0.00    -0.014 A 
BRANCH  43  44
ATOM     44  C   UNL A   1      41.948  27.849  29.285  1.00  0.00     0.031 A 
ATOM     45  C   UNL A   1      42.683  27.835  30.591  1.00  0.00     0.074 A 
ATOM     46  C   UNL A   1      40.873  28.638  29.114  1.00  0.00     0.049 A 
ATOM     47  N   UNL A   1      42.400  28.452  31.708  1.00  0.00    -0.248 NA
ATOM     48  C   UNL A   1      43.897  27.007  30.646  1.00  0.00     0.031 C 
ATOM     49  C   UNL A   1      40.111  28.769  27.874  1.00  0.00     0.029 A 
ATOM     50  N   UNL A   1      40.231  29.469  29.996  1.00  0.00    -0.354 N 
ATOM     51  C   UNL A   1      43.398  28.085  32.602  1.00  0.00     0.074 A 
ATOM     52  C   UNL A   1      44.273  27.165  31.906  1.00  0.00     0.031 C 
ATOM     53  C   UNL A   1      39.096  29.625  28.077  1.00  0.00     0.029 A 
ATOM     54  C   UNL A   1      39.113  30.065  29.470  1.00  0.00     0.049 A 
ATOM     55  H   UNL A   1      40.543  29.623  30.917  1.00  0.00     0.167 HD
ATOM     56  C   UNL A   1      43.570  28.487  33.884  1.00  0.00     0.037 A 
ATOM     57  C   UNL A   1      38.194  30.853  30.058  1.00  0.00     0.037 A 
ATOM     58  C   UNL A   1      42.684  29.391  34.570  1.00  0.00     0.049 A 
ATOM     59  C   UNL A   1      38.343  31.197  31.515  1.00  0.00     0.074 A 
ATOM     60  C   UNL A   1      42.778  29.878  35.862  1.00  0.00     0.029 A 
ATOM     61  N   UNL A   1      41.527  29.930  34.024  1.00  0.00    -0.354 N 
ATOM     62  N   UNL A   1      39.302  30.871  32.348  1.00  0.00    -0.248 NA
ATOM     63  C   UNL A   1      37.277  32.011  32.116  1.00  0.00     0.031 C 
ATOM     64  C   UNL A   1      41.646  30.659  36.117  1.00  0.00     0.029 A 
ATOM     65  C   UNL A   1      40.876  30.710  34.965  1.00  0.00     0.049 A 
ATOM     66  H   UNL A   1      41.216  29.781  33.102  1.00  0.00     0.167 HD
ATOM     67  C   UNL A   1      38.970  31.456  33.563  1.00  0.00     0.074 A 
ATOM     68  C   UNL A   1      37.725  32.169  33.354  1.00  0.00     0.031 C 
ATOM     69  C   UNL A   1      39.633  31.408  34.745  1.00  0.00     0.037 A 
BRANCH  56  70
ATOM     70  C   UNL A   1      44.739  27.914  34.632  1.00  0.00     0.057 A 
ATOM     71  C   UNL A   1      44.694  26.644  35.225  1.00  0.00     0.134 A 
ATOM     72  C   UNL A   1      45.930  28.641  34.759  1.00  0.00     0.134 A 
ATOM     73  F   UNL A   1      43.581  25.899  35.153  1.00  0.00    -0.206 F 
ATOM     74  C   UNL A   1      45.777  26.137  35.948  1.00  0.00     0.040 A 
ATOM     75  C   UNL A   1      47.028  28.132  35.453  1.00  0.00     0.040 A 
ATOM     76  F   UNL A   1      46.045  29.861  34.211  1.00  0.00    -0.206 F 
ATOM     77  C   UNL A   1      46.950  26.880  36.059  1.00  0.00     0.006 A 
ENDBRANCH  56  70
BRANCH  57  78
ATOM     78  C   UNL A   1      37.044  31.360  29.267  1.00  0.00     0.057 A 
ATOM     79  C   UNL A   1      37.036  32.666  28.763  1.00  0.00     0.134 A 
ATOM     80  C   UNL A   1      35.933  30.554  28.989  1.00  0.00     0.134 A 
ATOM     81  F   UNL A   1      38.062  33.492  29.015  1.00  0.00    -0.206 F 
ATOM     82  C   UNL A   1      35.963  33.153  28.017  1.00  0.00     0.040 A 
ATOM     83  C   UNL A   1      34.865  31.021  28.223  1.00  0.00     0.040 A 
ATOM     84  F   UNL A   1      35.880  29.293  29.443  1.00  0.00    -0.206 F 
ATOM     85  C   UNL A   1      34.876  32.327  27.738  1.00  0.00     0.006 A 
ENDBRANCH  57  78
BRANCH  69  86
ATOM     86  C   UNL A   1      39.039  32.160  35.901  1.00  0.00     0.057 A 
ATOM     87  C   UNL A   1      38.194  31.540  36.829  1.00  0.00     0.134 A 
ATOM     88  C   UNL A   1      39.356  33.508  36.116  1.00  0.00     0.134 A 
ATOM     89  F   UNL A   1      37.839  30.256  36.675  1.00  0.00    -0.206 F 
ATOM     90  C   UNL A   1      37.672  32.237  37.921  1.00  0.00     0.040 A 
ATOM     91  C   UNL A   1      38.864  34.208  37.219  1.00  0.00     0.040 A 
ATOM     92  F   UNL A   1      40.166  34.161  35.269  1.00  0.00    -0.206 F 
ATOM     93  C   UNL A   1      38.016  33.573  38.123  1.00  0.00     0.006 A 
ENDBRANCH  69  86
ENDBRANCH  43  44
ENDBRANCH  36  38
ENDBRANCH  35  36
ENDBRANCH  34  35
ENDBRANCH  33  34
ENDBRANCH   1  33
TORSDOF 18
ENDMDL
