MODEL 1
REMARK VINA RESULT:     -11.7      0.000      0.000
REMARK SMILES C[C@@H]1Cc2ccccc2N1S(=O)(=O)c1cccc(C(=O)OCCOCCOC(=O)c2ccc(-c3c4nc(c(-c5c(F)cccc5F)c5ccc([nH]5)c(-c5c(F)cccc5F)c5nc(c(-c6c(F)cccc6F)c6ccc3[nH]6)C=C5)C=C4)cc2)c1
REMARK SMILES IDX 24 1 23 2 22 3 21 4 19 5 20 6 18 7 14 8 15 9 84 10 16 11
REMARK SMILES IDX 17 12 11 13 12 14 13 15 10 16 1 17 2 18 3 19 4 20 9 21 5 22
REMARK SMILES IDX 8 23 6 24 7 25 25 26 26 27 27 28 28 29 29 30 30 31 31 32
REMARK SMILES IDX 83 33 32 34 82 35 33 36 34 37 35 38 76 39 36 40 81 41 75 42
REMARK SMILES IDX 77 43 37 44 80 45 74 46 73 47 38 49 64 50 47 51 63 52 48 53
REMARK SMILES IDX 51 54 62 55 78 56 49 57 50 58 61 60 79 61 52 62 39 63 40 64
REMARK SMILES IDX 45 65 41 66 42 67 44 68 46 69 43 70 65 71 66 72 71 73 67 74
REMARK SMILES IDX 68 75 70 76 72 77 69 78 53 79 54 80 59 81 55 82 56 83 58 84
REMARK SMILES IDX 60 85 57 86
REMARK H PARENT 77 48 51 59
REMARK Flexibility Score: inf
ROOT
ATOM      1  O   UNL A   1      42.431  21.464  26.634  1.00  0.00    -0.374 OA
ENDROOT
BRANCH   1   2
ATOM      2  C   UNL A   1      41.079  21.258  26.233  1.00  0.00     0.202 C 
BRANCH   2   3
ATOM      3  C   UNL A   1      40.006  22.163  26.846  1.00  0.00     0.261 C 
BRANCH   3   4
ATOM      4  O   UNL A   1      38.777  22.133  26.102  1.00  0.00    -0.460 OA
BRANCH   4   5
ATOM      5  C   UNL A   1      38.057  23.279  26.173  1.00  0.00     0.338 C 
ATOM      6  O   UNL A   1      38.398  24.317  26.719  1.00  0.00    -0.246 OA
BRANCH   5   7
ATOM      7  C   UNL A   1      36.829  23.192  25.346  1.00  0.00     0.061 A 
ATOM      8  C   UNL A   1      34.448  23.230  24.971  1.00  0.00     0.088 A 
ATOM      9  C   UNL A   1      34.663  23.094  23.588  1.00  0.00     0.022 A 
ATOM     10  C   UNL A   1      35.529  23.304  25.861  1.00  0.00     0.038 A 
ATOM     11  C   UNL A   1      35.950  22.932  23.093  1.00  0.00     0.002 A 
ATOM     12  C   UNL A   1      37.027  22.978  23.970  1.00  0.00     0.016 A 
BRANCH   8  13
ATOM     13  S   UNL A   1      32.773  23.443  25.521  1.00  0.00     0.264 S 
ATOM     14  O   UNL A   1      32.828  23.514  26.970  1.00  0.00    -0.201 OA
ATOM     15  O   UNL A   1      31.980  22.411  24.885  1.00  0.00    -0.201 OA
BRANCH  13  16
ATOM     16  N   UNL A   1      32.196  24.954  24.933  1.00  0.00    -0.263 N 
ATOM     17  C   UNL A   1      30.288  24.488  23.360  1.00  0.00     0.032 C 
ATOM     18  C   UNL A   1      30.672  24.922  24.770  1.00  0.00     0.101 C 
ATOM     19  C   UNL A   1      30.152  26.325  25.150  1.00  0.00     0.063 C 
ATOM     20  C   UNL A   1      31.348  26.967  25.766  1.00  0.00    -0.021 A 
ATOM     21  C   UNL A   1      32.488  26.182  25.620  1.00  0.00     0.055 A 
ATOM     22  C   UNL A   1      31.403  28.237  26.330  1.00  0.00     0.006 A 
ATOM     23  C   UNL A   1      33.728  26.719  25.926  1.00  0.00     0.027 A 
ATOM     24  C   UNL A   1      32.641  28.738  26.729  1.00  0.00     0.000 A 
ATOM     25  C   UNL A   1      33.800  27.986  26.517  1.00  0.00     0.002 A 
ENDBRANCH  13  16
ENDBRANCH   8  13
ENDBRANCH   5   7
ENDBRANCH   4   5
ENDBRANCH   3   4
ENDBRANCH   2   3
ENDBRANCH   1   2
BRANCH   1  26
ATOM     26  C   UNL A   1      43.467  21.036  25.750  1.00  0.00     0.202 C 
BRANCH  26  27
ATOM     27  C   UNL A   1      44.202  22.109  24.935  1.00  0.00     0.261 C 
BRANCH  27  28
ATOM     28  O   UNL A   1      43.500  23.363  24.914  1.00  0.00    -0.460 OA
BRANCH  28  29
ATOM     29  C   UNL A   1      44.257  24.452  25.199  1.00  0.00     0.338 C 
ATOM     30  O   UNL A   1      45.262  24.829  24.620  1.00  0.00    -0.246 OA
BRANCH  29  31
ATOM     31  C   UNL A   1      43.564  25.265  26.217  1.00  0.00     0.060 A 
ATOM     32  C   UNL A   1      42.495  24.748  26.951  1.00  0.00     0.016 A 
ATOM     33  C   UNL A   1      44.023  26.570  26.448  1.00  0.00     0.016 A 
ATOM     34  C   UNL A   1      41.906  25.535  27.942  1.00  0.00     0.010 A 
ATOM     35  C   UNL A   1      43.433  27.353  27.439  1.00  0.00     0.010 A 
ATOM     36  C   UNL A   1      42.384  26.833  28.210  1.00  0.00    -0.014 A 
BRANCH  36  37
ATOM     37  C   UNL A   1      41.881  27.573  29.392  1.00  0.00     0.031 A 
ATOM     38  C   UNL A   1      42.540  27.469  30.734  1.00  0.00     0.074 A 
ATOM     39  C   UNL A   1      40.791  28.348  29.237  1.00  0.00     0.049 A 
ATOM     40  N   UNL A   1      42.274  28.129  31.834  1.00  0.00    -0.248 NA
ATOM     41  C   UNL A   1      43.627  26.490  30.864  1.00  0.00     0.031 C 
ATOM     42  C   UNL A   1      40.030  28.485  27.993  1.00  0.00     0.029 A 
ATOM     43  N   UNL A   1      40.142  29.172  30.119  1.00  0.00    -0.354 N 
ATOM     44  C   UNL A   1      43.175  27.666  32.782  1.00  0.00     0.074 A 
ATOM     45  C   UNL A   1      43.956  26.626  32.142  1.00  0.00     0.031 C 
ATOM     46  C   UNL A   1      39.040  29.372  28.182  1.00  0.00     0.029 A 
ATOM     47  C   UNL A   1      39.077  29.838  29.564  1.00  0.00     0.049 A 
ATOM     48  H   UNL A   1      40.412  29.276  31.060  1.00  0.00     0.167 HD
ATOM     49  C   UNL A   1      43.345  28.083  34.062  1.00  0.00     0.037 A 
ATOM     50  C   UNL A   1      38.228  30.730  30.105  1.00  0.00     0.037 A 
ATOM     51  C   UNL A   1      42.541  29.097  34.702  1.00  0.00     0.049 A 
ATOM     52  C   UNL A   1      38.410  31.139  31.539  1.00  0.00     0.074 A 
ATOM     53  C   UNL A   1      42.665  29.620  35.979  1.00  0.00     0.029 A 
ATOM     54  N   UNL A   1      41.447  29.724  34.122  1.00  0.00    -0.354 N 
ATOM     55  N   UNL A   1      39.330  30.769  32.396  1.00  0.00    -0.248 NA
ATOM     56  C   UNL A   1      37.437  32.099  32.077  1.00  0.00     0.031 C 
ATOM     57  C   UNL A   1      41.609  30.514  36.194  1.00  0.00     0.029 A 
ATOM     58  C   UNL A   1      40.863  30.598  35.029  1.00  0.00     0.049 A 
ATOM     59  H   UNL A   1      41.130  29.572  33.203  1.00  0.00     0.167 HD
ATOM     60  C   UNL A   1      39.059  31.465  33.568  1.00  0.00     0.074 A 
ATOM     61  C   UNL A   1      37.908  32.301  33.299  1.00  0.00     0.031 C 
ATOM     62  C   UNL A   1      39.706  31.415  34.759  1.00  0.00     0.037 A 
BRANCH  49  63
ATOM     63  C   UNL A   1      44.439  27.430  34.861  1.00  0.00     0.057 A 
ATOM     64  C   UNL A   1      44.195  26.263  35.595  1.00  0.00     0.134 A 
ATOM     65  C   UNL A   1      45.728  27.976  34.930  1.00  0.00     0.134 A 
ATOM     66  F   UNL A   1      42.980  25.694  35.588  1.00  0.00    -0.206 F 
ATOM     67  C   UNL A   1      45.193  25.658  36.362  1.00  0.00     0.040 A 
ATOM     68  C   UNL A   1      46.744  27.363  35.668  1.00  0.00     0.040 A 
ATOM     69  F   UNL A   1      46.033  29.092  34.249  1.00  0.00    -0.206 F 
ATOM     70  C   UNL A   1      46.476  26.204  36.391  1.00  0.00     0.006 A 
ENDBRANCH  49  63
BRANCH  50  71
ATOM     71  C   UNL A   1      37.134  31.308  29.285  1.00  0.00     0.057 A 
ATOM     72  C   UNL A   1      35.970  30.582  29.008  1.00  0.00     0.134 A 
ATOM     73  C   UNL A   1      37.217  32.611  28.780  1.00  0.00     0.134 A 
ATOM     74  F   UNL A   1      35.833  29.325  29.456  1.00  0.00    -0.206 F 
ATOM     75  C   UNL A   1      34.928  31.128  28.257  1.00  0.00     0.040 A 
ATOM     76  C   UNL A   1      36.171  33.180  28.053  1.00  0.00     0.040 A 
ATOM     77  F   UNL A   1      38.300  33.362  29.025  1.00  0.00    -0.206 F 
ATOM     78  C   UNL A   1      35.023  32.436  27.787  1.00  0.00     0.006 A 
ENDBRANCH  50  71
BRANCH  62  79
ATOM     79  C   UNL A   1      39.185  32.307  35.852  1.00  0.00     0.057 A 
ATOM     80  C   UNL A   1      39.619  33.635  35.961  1.00  0.00     0.134 A 
ATOM     81  C   UNL A   1      38.249  31.858  36.795  1.00  0.00     0.134 A 
ATOM     82  F   UNL A   1      40.519  34.130  35.098  1.00  0.00    -0.206 F 
ATOM     83  C   UNL A   1      39.139  34.482  36.961  1.00  0.00     0.040 A 
ATOM     84  C   UNL A   1      37.737  32.706  37.778  1.00  0.00     0.040 A 
ATOM     85  F   UNL A   1      37.778  30.603  36.740  1.00  0.00    -0.206 F 
ATOM     86  C   UNL A   1      38.185  34.022  37.866  1.00  0.00     0.006 A 
ENDBRANCH  62  79
ENDBRANCH  36  37
ENDBRANCH  29  31
ENDBRANCH  28  29
ENDBRANCH  27  28
ENDBRANCH  26  27
ENDBRANCH   1  26
TORSDOF 16
ENDMDL
MODEL 2
REMARK VINA RESULT:     -11.7      1.634      3.301
REMARK SMILES C[C@@H]1Cc2ccccc2N1S(=O)(=O)c1cccc(C(=O)OCCOCCOC(=O)c2ccc(-c3c4nc(c(-c5c(F)cccc5F)c5ccc([nH]5)c(-c5c(F)cccc5F)c5nc(c(-c6c(F)cccc6F)c6ccc3[nH]6)C=C5)C=C4)cc2)c1
REMARK SMILES IDX 24 1 23 2 22 3 21 4 19 5 20 6 18 7 14 8 15 9 84 10 16 11
REMARK SMILES IDX 17 12 11 13 12 14 13 15 10 16 1 17 2 18 3 19 4 20 9 21 5 22
REMARK SMILES IDX 8 23 6 24 7 25 25 26 26 27 27 28 28 29 29 30 30 31 31 32
REMARK SMILES IDX 83 33 32 34 82 35 33 36 34 37 35 38 76 39 36 40 81 41 75 42
REMARK SMILES IDX 77 43 37 44 80 45 74 46 73 47 38 49 64 50 47 51 63 52 48 53
REMARK SMILES IDX 51 54 62 55 78 56 49 57 50 58 61 60 79 61 52 62 39 63 40 64
REMARK SMILES IDX 45 65 41 66 42 67 44 68 46 69 43 70 65 71 66 72 71 73 67 74
REMARK SMILES IDX 68 75 70 76 72 77 69 78 53 79 54 80 59 81 55 82 56 83 58 84
REMARK SMILES IDX 60 85 57 86
REMARK H PARENT 77 48 51 59
REMARK Flexibility Score: inf
ROOT
ATOM      1  O   UNL A   1      44.348  20.097  25.592  1.00  0.00    -0.374 OA
ENDROOT
BRANCH   1   2
ATOM      2  C   UNL A   1      43.078  19.452  25.529  1.00  0.00     0.202 C 
BRANCH   2   3
ATOM      3  C   UNL A   1      42.082  19.728  26.659  1.00  0.00     0.261 C 
BRANCH   3   4
ATOM      4  O   UNL A   1      41.247  20.866  26.384  1.00  0.00    -0.460 OA
BRANCH   4   5
ATOM      5  C   UNL A   1      40.003  20.548  25.950  1.00  0.00     0.338 C 
ATOM      6  O   UNL A   1      39.583  19.427  25.707  1.00  0.00    -0.246 OA
BRANCH   5   7
ATOM      7  C   UNL A   1      39.114  21.736  25.956  1.00  0.00     0.061 A 
ATOM      8  C   UNL A   1      37.144  22.985  25.352  1.00  0.00     0.088 A 
ATOM      9  C   UNL A   1      37.552  24.038  26.190  1.00  0.00     0.022 A 
ATOM     10  C   UNL A   1      37.908  21.815  25.244  1.00  0.00     0.038 A 
ATOM     11  C   UNL A   1      38.772  23.973  26.850  1.00  0.00     0.002 A 
ATOM     12  C   UNL A   1      39.551  22.827  26.730  1.00  0.00     0.016 A 
BRANCH   8  13
ATOM     13  S   UNL A   1      35.566  23.142  24.553  1.00  0.00     0.264 S 
ATOM     14  O   UNL A   1      35.759  22.705  23.182  1.00  0.00    -0.201 OA
ATOM     15  O   UNL A   1      35.085  24.485  24.814  1.00  0.00    -0.201 OA
BRANCH  13  16
ATOM     16  N   UNL A   1      34.463  22.058  25.309  1.00  0.00    -0.263 N 
ATOM     17  C   UNL A   1      32.722  23.436  26.492  1.00  0.00     0.032 C 
ATOM     18  C   UNL A   1      33.035  22.613  25.249  1.00  0.00     0.101 C 
ATOM     19  C   UNL A   1      32.095  21.405  25.051  1.00  0.00     0.063 C 
ATOM     20  C   UNL A   1      33.040  20.296  24.731  1.00  0.00    -0.021 A 
ATOM     21  C   UNL A   1      34.366  20.685  24.896  1.00  0.00     0.055 A 
ATOM     22  C   UNL A   1      32.696  18.987  24.411  1.00  0.00     0.006 A 
ATOM     23  C   UNL A   1      35.365  19.726  24.865  1.00  0.00     0.027 A 
ATOM     24  C   UNL A   1      33.713  18.043  24.284  1.00  0.00     0.000 A 
ATOM     25  C   UNL A   1      35.042  18.409  24.522  1.00  0.00     0.002 A 
ENDBRANCH  13  16
ENDBRANCH   8  13
ENDBRANCH   5   7
ENDBRANCH   4   5
ENDBRANCH   3   4
ENDBRANCH   2   3
ENDBRANCH   1   2
BRANCH   1  26
ATOM     26  C   UNL A   1      44.375  21.520  25.703  1.00  0.00     0.202 C 
BRANCH  26  27
ATOM     27  C   UNL A   1      44.190  22.342  24.420  1.00  0.00     0.261 C 
BRANCH  27  28
ATOM     28  O   UNL A   1      43.545  23.603  24.660  1.00  0.00    -0.460 OA
BRANCH  28  29
ATOM     29  C   UNL A   1      44.363  24.597  25.087  1.00  0.00     0.338 C 
ATOM     30  O   UNL A   1      45.434  24.932  24.609  1.00  0.00    -0.246 OA
BRANCH  29  31
ATOM     31  C   UNL A   1      43.665  25.383  26.122  1.00  0.00     0.060 A 
ATOM     32  C   UNL A   1      42.621  24.832  26.867  1.00  0.00     0.016 A 
ATOM     33  C   UNL A   1      44.094  26.697  26.360  1.00  0.00     0.016 A 
ATOM     34  C   UNL A   1      42.027  25.595  27.875  1.00  0.00     0.010 A 
ATOM     35  C   UNL A   1      43.500  27.455  27.367  1.00  0.00     0.010 A 
ATOM     36  C   UNL A   1      42.476  26.901  28.148  1.00  0.00    -0.014 A 
BRANCH  36  37
ATOM     37  C   UNL A   1      41.972  27.618  29.345  1.00  0.00     0.031 A 
ATOM     38  C   UNL A   1      42.646  27.508  30.678  1.00  0.00     0.074 A 
ATOM     39  C   UNL A   1      40.866  28.375  29.211  1.00  0.00     0.049 A 
ATOM     40  N   UNL A   1      42.381  28.150  31.789  1.00  0.00    -0.248 NA
ATOM     41  C   UNL A   1      43.752  26.548  30.784  1.00  0.00     0.031 C 
ATOM     42  C   UNL A   1      40.090  28.514  27.976  1.00  0.00     0.029 A 
ATOM     43  N   UNL A   1      40.212  29.176  30.110  1.00  0.00    -0.354 N 
ATOM     44  C   UNL A   1      43.300  27.691  32.722  1.00  0.00     0.074 A 
ATOM     45  C   UNL A   1      44.092  26.674  32.061  1.00  0.00     0.031 C 
ATOM     46  C   UNL A   1      39.087  29.380  28.186  1.00  0.00     0.029 A 
ATOM     47  C   UNL A   1      39.130  29.830  29.574  1.00  0.00     0.049 A 
ATOM     48  H   UNL A   1      40.490  29.273  31.050  1.00  0.00     0.167 HD
ATOM     49  C   UNL A   1      43.476  28.095  34.006  1.00  0.00     0.037 A 
ATOM     50  C   UNL A   1      38.271  30.699  30.136  1.00  0.00     0.037 A 
ATOM     51  C   UNL A   1      42.660  29.086  34.667  1.00  0.00     0.049 A 
ATOM     52  C   UNL A   1      38.461  31.093  31.573  1.00  0.00     0.074 A 
ATOM     53  C   UNL A   1      42.788  29.595  35.949  1.00  0.00     0.029 A 
ATOM     54  N   UNL A   1      41.549  29.701  34.106  1.00  0.00    -0.354 N 
ATOM     55  N   UNL A   1      39.396  30.729  32.416  1.00  0.00    -0.248 NA
ATOM     56  C   UNL A   1      37.476  32.029  32.133  1.00  0.00     0.031 C 
ATOM     57  C   UNL A   1      41.718  30.467  36.186  1.00  0.00     0.029 A 
ATOM     58  C   UNL A   1      40.960  30.553  35.030  1.00  0.00     0.049 A 
ATOM     59  H   UNL A   1      41.226  29.554  33.188  1.00  0.00     0.167 HD
ATOM     60  C   UNL A   1      39.126  31.406  33.598  1.00  0.00     0.074 A 
ATOM     61  C   UNL A   1      37.956  32.224  33.352  1.00  0.00     0.031 C 
ATOM     62  C   UNL A   1      39.785  31.352  34.782  1.00  0.00     0.037 A 
BRANCH  49  63
ATOM     63  C   UNL A   1      44.589  27.452  34.785  1.00  0.00     0.057 A 
ATOM     64  C   UNL A   1      45.892  27.965  34.735  1.00  0.00     0.134 A 
ATOM     65  C   UNL A   1      44.379  26.305  35.563  1.00  0.00     0.134 A 
ATOM     66  F   UNL A   1      46.169  29.052  34.001  1.00  0.00    -0.206 F 
ATOM     67  C   UNL A   1      46.941  27.365  35.434  1.00  0.00     0.040 A 
ATOM     68  C   UNL A   1      45.414  25.713  36.290  1.00  0.00     0.040 A 
ATOM     69  F   UNL A   1      43.155  25.762  35.658  1.00  0.00    -0.206 F 
ATOM     70  C   UNL A   1      46.701  26.241  36.222  1.00  0.00     0.006 A 
ENDBRANCH  49  63
BRANCH  50  71
ATOM     71  C   UNL A   1      37.158  31.268  29.334  1.00  0.00     0.057 A 
ATOM     72  C   UNL A   1      37.227  32.564  28.810  1.00  0.00     0.134 A 
ATOM     73  C   UNL A   1      36.011  30.517  29.052  1.00  0.00     0.134 A 
ATOM     74  F   UNL A   1      38.295  33.337  29.052  1.00  0.00    -0.206 F 
ATOM     75  C   UNL A   1      36.193  33.095  28.036  1.00  0.00     0.040 A 
ATOM     76  C   UNL A   1      34.985  31.023  28.254  1.00  0.00     0.040 A 
ATOM     77  F   UNL A   1      35.895  29.262  29.512  1.00  0.00    -0.206 F 
ATOM     78  C   UNL A   1      35.073  32.319  27.747  1.00  0.00     0.006 A 
ENDBRANCH  50  71
BRANCH  62  79
ATOM     79  C   UNL A   1      39.260  32.221  35.892  1.00  0.00     0.057 A 
ATOM     80  C   UNL A   1      38.321  31.727  36.806  1.00  0.00     0.134 A 
ATOM     81  C   UNL A   1      39.689  33.545  36.064  1.00  0.00     0.134 A 
ATOM     82  F   UNL A   1      37.861  30.472  36.699  1.00  0.00    -0.206 F 
ATOM     83  C   UNL A   1      37.831  32.514  37.850  1.00  0.00     0.040 A 
ATOM     84  C   UNL A   1      39.232  34.331  37.123  1.00  0.00     0.040 A 
ATOM     85  F   UNL A   1      40.600  34.078  35.234  1.00  0.00    -0.206 F 
ATOM     86  C   UNL A   1      38.296  33.816  38.018  1.00  0.00     0.006 A 
ENDBRANCH  62  79
ENDBRANCH  36  37
ENDBRANCH  29  31
ENDBRANCH  28  29
ENDBRANCH  27  28
ENDBRANCH  26  27
ENDBRANCH   1  26
TORSDOF 16
ENDMDL
MODEL 3
REMARK VINA RESULT:     -11.6      1.104      6.188
REMARK SMILES C[C@@H]1Cc2ccccc2N1S(=O)(=O)c1cccc(C(=O)OCCOCCOC(=O)c2ccc(-c3c4nc(c(-c5c(F)cccc5F)c5ccc([nH]5)c(-c5c(F)cccc5F)c5nc(c(-c6c(F)cccc6F)c6ccc3[nH]6)C=C5)C=C4)cc2)c1
REMARK SMILES IDX 24 1 23 2 22 3 21 4 19 5 20 6 18 7 14 8 15 9 84 10 16 11
REMARK SMILES IDX 17 12 11 13 12 14 13 15 10 16 1 17 2 18 3 19 4 20 9 21 5 22
REMARK SMILES IDX 8 23 6 24 7 25 25 26 26 27 27 28 28 29 29 30 30 31 31 32
REMARK SMILES IDX 83 33 32 34 82 35 33 36 34 37 35 38 76 39 36 40 81 41 75 42
REMARK SMILES IDX 77 43 37 44 80 45 74 46 73 47 38 49 64 50 47 51 63 52 48 53
REMARK SMILES IDX 51 54 62 55 78 56 49 57 50 58 61 60 79 61 52 62 39 63 40 64
REMARK SMILES IDX 45 65 41 66 42 67 44 68 46 69 43 70 65 71 66 72 71 73 67 74
REMARK SMILES IDX 68 75 70 76 72 77 69 78 53 79 54 80 59 81 55 82 56 83 58 84
REMARK SMILES IDX 60 85 57 86
REMARK H PARENT 77 48 51 59
REMARK Flexibility Score: inf
ROOT
ATOM      1  O   UNL A   1      41.733  20.144  25.855  1.00  0.00    -0.374 OA
ENDROOT
BRANCH   1   2
ATOM      2  C   UNL A   1      40.407  20.306  26.353  1.00  0.00     0.202 C 
BRANCH   2   3
ATOM      3  C   UNL A   1      39.732  21.666  26.153  1.00  0.00     0.261 C 
BRANCH   3   4
ATOM      4  O   UNL A   1      38.506  21.561  25.408  1.00  0.00    -0.460 OA
BRANCH   4   5
ATOM      5  C   UNL A   1      37.627  22.566  25.643  1.00  0.00     0.338 C 
ATOM      6  O   UNL A   1      37.893  23.676  26.076  1.00  0.00    -0.246 OA
BRANCH   5   7
ATOM      7  C   UNL A   1      36.273  22.219  25.146  1.00  0.00     0.061 A 
ATOM      8  C   UNL A   1      34.188  22.659  24.020  1.00  0.00     0.088 A 
ATOM      9  C   UNL A   1      33.799  21.322  24.215  1.00  0.00     0.022 A 
ATOM     10  C   UNL A   1      35.438  23.115  24.462  1.00  0.00     0.038 A 
ATOM     11  C   UNL A   1      34.609  20.457  24.938  1.00  0.00     0.002 A 
ATOM     12  C   UNL A   1      35.840  20.906  25.404  1.00  0.00     0.016 A 
BRANCH   8  13
ATOM     13  S   UNL A   1      33.100  23.697  23.075  1.00  0.00     0.264 S 
ATOM     14  O   UNL A   1      32.034  22.837  22.594  1.00  0.00    -0.201 OA
ATOM     15  O   UNL A   1      33.919  24.421  22.123  1.00  0.00    -0.201 OA
BRANCH  13  16
ATOM     16  N   UNL A   1      32.409  24.865  24.133  1.00  0.00    -0.263 N 
ATOM     17  C   UNL A   1      30.763  23.676  25.619  1.00  0.00     0.032 C 
ATOM     18  C   UNL A   1      32.167  24.259  25.521  1.00  0.00     0.101 C 
ATOM     19  C   UNL A   1      32.450  25.374  26.551  1.00  0.00     0.063 C 
ATOM     20  C   UNL A   1      33.096  26.434  25.725  1.00  0.00    -0.021 A 
ATOM     21  C   UNL A   1      33.049  26.131  24.367  1.00  0.00     0.055 A 
ATOM     22  C   UNL A   1      33.598  27.646  26.185  1.00  0.00     0.006 A 
ATOM     23  C   UNL A   1      33.393  27.101  23.440  1.00  0.00     0.027 A 
ATOM     24  C   UNL A   1      34.037  28.584  25.253  1.00  0.00     0.000 A 
ATOM     25  C   UNL A   1      33.923  28.317  23.885  1.00  0.00     0.002 A 
ENDBRANCH  13  16
ENDBRANCH   8  13
ENDBRANCH   5   7
ENDBRANCH   4   5
ENDBRANCH   3   4
ENDBRANCH   2   3
ENDBRANCH   1   2
BRANCH   1  26
ATOM     26  C   UNL A   1      42.748  21.018  26.349  1.00  0.00     0.202 C 
BRANCH  26  27
ATOM     27  C   UNL A   1      43.462  21.928  25.340  1.00  0.00     0.261 C 
BRANCH  27  28
ATOM     28  O   UNL A   1      42.790  23.185  25.159  1.00  0.00    -0.460 OA
BRANCH  28  29
ATOM     29  C   UNL A   1      43.572  24.283  25.304  1.00  0.00     0.338 C 
ATOM     30  O   UNL A   1      44.548  24.592  24.640  1.00  0.00    -0.246 OA
BRANCH  29  31
ATOM     31  C   UNL A   1      42.944  25.194  26.280  1.00  0.00     0.060 A 
ATOM     32  C   UNL A   1      41.955  24.746  27.156  1.00  0.00     0.016 A 
ATOM     33  C   UNL A   1      43.387  26.524  26.325  1.00  0.00     0.016 A 
ATOM     34  C   UNL A   1      41.429  25.630  28.100  1.00  0.00     0.010 A 
ATOM     35  C   UNL A   1      42.861  27.404  27.270  1.00  0.00     0.010 A 
ATOM     36  C   UNL A   1      41.894  26.957  28.180  1.00  0.00    -0.014 A 
BRANCH  36  37
ATOM     37  C   UNL A   1      41.470  27.817  29.311  1.00  0.00     0.031 A 
ATOM     38  C   UNL A   1      40.281  28.724  29.216  1.00  0.00     0.074 A 
ATOM     39  C   UNL A   1      42.195  27.776  30.445  1.00  0.00     0.049 A 
ATOM     40  N   UNL A   1      39.731  29.460  30.150  1.00  0.00    -0.248 NA
ATOM     41  C   UNL A   1      39.632  28.830  27.903  1.00  0.00     0.031 C 
ATOM     42  C   UNL A   1      43.406  26.975  30.637  1.00  0.00     0.029 A 
ATOM     43  N   UNL A   1      42.017  28.408  31.648  1.00  0.00    -0.354 N 
ATOM     44  C   UNL A   1      38.657  30.100  29.548  1.00  0.00     0.074 A 
ATOM     45  C   UNL A   1      38.669  29.708  28.152  1.00  0.00     0.031 C 
ATOM     46  C   UNL A   1      43.840  27.134  31.897  1.00  0.00     0.029 A 
ATOM     47  C   UNL A   1      42.960  28.071  32.588  1.00  0.00     0.049 A 
ATOM     48  H   UNL A   1      41.285  29.043  31.822  1.00  0.00     0.167 HD
ATOM     49  C   UNL A   1      37.737  30.923  30.112  1.00  0.00     0.037 A 
ATOM     50  C   UNL A   1      43.098  28.468  33.866  1.00  0.00     0.037 A 
ATOM     51  C   UNL A   1      37.753  31.334  31.496  1.00  0.00     0.049 A 
ATOM     52  C   UNL A   1      42.092  29.417  34.452  1.00  0.00     0.074 A 
ATOM     53  C   UNL A   1      36.840  32.127  32.172  1.00  0.00     0.029 A 
ATOM     54  N   UNL A   1      38.743  31.003  32.411  1.00  0.00    -0.354 N 
ATOM     55  N   UNL A   1      41.022  29.935  33.901  1.00  0.00    -0.248 NA
ATOM     56  C   UNL A   1      42.312  29.830  35.845  1.00  0.00     0.031 C 
ATOM     57  C   UNL A   1      37.312  32.330  33.475  1.00  0.00     0.029 A 
ATOM     58  C   UNL A   1      38.485  31.610  33.632  1.00  0.00     0.049 A 
ATOM     59  H   UNL A   1      39.517  30.425  32.221  1.00  0.00     0.167 HD
ATOM     60  C   UNL A   1      40.429  30.718  34.883  1.00  0.00     0.074 A 
ATOM     61  C   UNL A   1      41.244  30.580  36.073  1.00  0.00     0.031 C 
ATOM     62  C   UNL A   1      39.312  31.482  34.807  1.00  0.00     0.037 A 
BRANCH  49  63
ATOM     63  C   UNL A   1      36.642  31.445  29.225  1.00  0.00     0.057 A 
ATOM     64  C   UNL A   1      35.601  30.610  28.800  1.00  0.00     0.134 A 
ATOM     65  C   UNL A   1      36.633  32.769  28.764  1.00  0.00     0.134 A 
ATOM     66  F   UNL A   1      35.552  29.328  29.191  1.00  0.00    -0.206 F 
ATOM     67  C   UNL A   1      34.589  31.073  27.957  1.00  0.00     0.040 A 
ATOM     68  C   UNL A   1      35.611  33.252  27.945  1.00  0.00     0.040 A 
ATOM     69  F   UNL A   1      37.599  33.624  29.134  1.00  0.00    -0.206 F 
ATOM     70  C   UNL A   1      34.587  32.401  27.535  1.00  0.00     0.006 A 
ENDBRANCH  49  63
BRANCH  50  71
ATOM     71  C   UNL A   1      44.228  27.960  34.684  1.00  0.00     0.057 A 
ATOM     72  C   UNL A   1      45.431  28.668  34.785  1.00  0.00     0.134 A 
ATOM     73  C   UNL A   1      44.120  26.765  35.406  1.00  0.00     0.134 A 
ATOM     74  F   UNL A   1      45.600  29.814  34.110  1.00  0.00    -0.206 F 
ATOM     75  C   UNL A   1      46.487  28.206  35.571  1.00  0.00     0.040 A 
ATOM     76  C   UNL A   1      45.156  26.307  36.219  1.00  0.00     0.040 A 
ATOM     77  F   UNL A   1      42.985  26.050  35.363  1.00  0.00    -0.206 F 
ATOM     78  C   UNL A   1      46.347  27.028  36.300  1.00  0.00     0.006 A 
ENDBRANCH  50  71
BRANCH  62  79
ATOM     79  C   UNL A   1      38.902  32.212  36.056  1.00  0.00     0.057 A 
ATOM     80  C   UNL A   1      39.277  33.546  36.263  1.00  0.00     0.134 A 
ATOM     81  C   UNL A   1      38.128  31.600  37.054  1.00  0.00     0.134 A 
ATOM     82  F   UNL A   1      40.022  34.193  35.355  1.00  0.00    -0.206 F 
ATOM     83  C   UNL A   1      38.896  34.244  37.410  1.00  0.00     0.040 A 
ATOM     84  C   UNL A   1      37.713  32.298  38.189  1.00  0.00     0.040 A 
ATOM     85  F   UNL A   1      37.720  30.329  36.914  1.00  0.00    -0.206 F 
ATOM     86  C   UNL A   1      38.101  33.624  38.372  1.00  0.00     0.006 A 
ENDBRANCH  62  79
ENDBRANCH  36  37
ENDBRANCH  29  31
ENDBRANCH  28  29
ENDBRANCH  27  28
ENDBRANCH  26  27
ENDBRANCH   1  26
TORSDOF 16
ENDMDL
