MODEL 1
REMARK VINA RESULT:     -11.8      0.000      0.000
REMARK SMILES Cc1ccccc1N(CCC(=O)OCCOCCOC(=O)c1ccc(-c2c3nc(c(-c4c(F)cccc4F)c4ccc([nH]4)c(-c4c(F)cccc4F)c4nc(c(-c5c(F)cccc5F)c5ccc2[nH]5)C=C4)C=C3)cc1)C(=O)[C@@H]1C=C[C@H]([NH3+])C1
REMARK SMILES IDX 14 1 13 2 11 3 12 4 10 5 9 6 8 7 7 8 1 9 2 10 3 11 4 12 6 13
REMARK SMILES IDX 5 14 76 15 77 16 78 17 79 18 83 19 80 20 81 21 82 22 15 26
REMARK SMILES IDX 16 27 17 28 18 29 19 30 20 31 21 32 22 33 23 34 75 35 24 36
REMARK SMILES IDX 74 37 25 38 26 39 27 40 68 41 28 42 73 43 67 44 69 45 29 46
REMARK SMILES IDX 72 47 66 48 65 49 30 51 56 52 39 53 55 54 40 55 43 56 54 57
REMARK SMILES IDX 70 58 41 59 42 60 53 62 71 63 44 64 31 65 32 66 37 67 33 68
REMARK SMILES IDX 34 69 36 70 38 71 35 72 57 73 58 74 63 75 59 76 60 77 62 78
REMARK SMILES IDX 64 79 61 80 45 81 46 82 51 83 47 84 48 85 50 86 52 87 49 88
REMARK H PARENT 82 23 82 24 82 25 69 50 43 61
REMARK Flexibility Score: inf
ROOT
ATOM      1  C   UNL A   1      37.743  22.407  25.728  1.00  0.00     0.261 C 
ENDROOT
BRANCH   1   2
ATOM      2  O   UNL A   1      36.545  21.731  26.022  1.00  0.00    -0.463 OA
BRANCH   2   3
ATOM      3  C   UNL A   1      35.428  22.203  25.439  1.00  0.00     0.307 C 
ATOM      4  O   UNL A   1      34.848  21.700  24.490  1.00  0.00    -0.252 OA
BRANCH   3   5
ATOM      5  C   UNL A   1      34.975  23.426  26.166  1.00  0.00     0.144 C 
BRANCH   5   6
ATOM      6  C   UNL A   1      35.062  24.690  25.300  1.00  0.00     0.137 C 
BRANCH   6   7
ATOM      7  N   UNL A   1      33.806  25.185  24.706  1.00  0.00    -0.311 N 
BRANCH   7   8
ATOM      8  C   UNL A   1      33.149  26.194  25.650  1.00  0.00     0.047 A 
ATOM      9  C   UNL A   1      30.796  25.121  25.758  1.00  0.00     0.046 C 
ATOM     10  C   UNL A   1      31.804  26.178  26.081  1.00  0.00    -0.027 A 
ATOM     11  C   UNL A   1      31.280  27.244  26.872  1.00  0.00     0.005 A 
ATOM     12  C   UNL A   1      32.051  28.321  27.280  1.00  0.00     0.000 A 
ATOM     13  C   UNL A   1      33.907  27.299  26.151  1.00  0.00     0.026 A 
ATOM     14  C   UNL A   1      33.377  28.346  26.919  1.00  0.00     0.002 A 
ENDBRANCH   7   8
BRANCH   7  15
ATOM     15  C   UNL A   1      33.803  25.420  23.287  1.00  0.00     0.234 C 
ATOM     16  O   UNL A   1      34.285  24.484  22.627  1.00  0.00    -0.274 OA
BRANCH  15  17
ATOM     17  C   UNL A   1      33.260  26.940  22.378  1.00  0.00     0.108 C 
ATOM     18  C   UNL A   1      32.875  28.881  23.036  1.00  0.00    -0.012 C 
ATOM     19  C   UNL A   1      31.366  26.200  22.152  1.00  0.00     0.087 C 
ATOM     20  C   UNL A   1      31.264  29.211  23.248  1.00  0.00     0.033 C 
ATOM     21  C   UNL A   1      30.109  27.702  22.721  1.00  0.00     0.205 C 
BRANCH  21  22
ATOM     22  N   UNL A   1      29.004  27.228  23.560  1.00  0.00    -0.352 N 
ATOM     23  H   UNL A   1      28.126  27.615  23.215  1.00  0.00     0.345 HD
ATOM     24  H   UNL A   1      29.153  27.529  24.522  1.00  0.00     0.345 HD
ATOM     25  H   UNL A   1      28.963  26.209  23.524  1.00  0.00     0.345 HD
ENDBRANCH  21  22
ENDBRANCH  15  17
ENDBRANCH   7  15
ENDBRANCH   6   7
ENDBRANCH   5   6
ENDBRANCH   3   5
ENDBRANCH   2   3
ENDBRANCH   1   2
BRANCH   1  26
ATOM     26  C   UNL A   1      39.054  21.719  26.136  1.00  0.00     0.202 C 
BRANCH  26  27
ATOM     27  O   UNL A   1      39.686  20.581  25.548  1.00  0.00    -0.374 OA
BRANCH  27  28
ATOM     28  C   UNL A   1      40.616  19.791  26.256  1.00  0.00     0.202 C 
BRANCH  28  29
ATOM     29  C   UNL A   1      42.146  20.289  26.404  1.00  0.00     0.261 C 
BRANCH  29  30
ATOM     30  O   UNL A   1      42.787  21.492  27.225  1.00  0.00    -0.460 OA
BRANCH  30  31
ATOM     31  C   UNL A   1      43.040  23.128  27.213  1.00  0.00     0.338 C 
ATOM     32  O   UNL A   1      44.298  23.137  27.336  1.00  0.00    -0.246 OA
BRANCH  31  33
ATOM     33  C   UNL A   1      41.462  24.587  27.096  1.00  0.00     0.060 A 
ATOM     34  C   UNL A   1      41.122  25.739  26.180  1.00  0.00     0.016 A 
ATOM     35  C   UNL A   1      40.187  24.713  27.869  1.00  0.00     0.016 A 
ATOM     36  C   UNL A   1      40.551  26.976  26.533  1.00  0.00     0.010 A 
ATOM     37  C   UNL A   1      39.552  25.889  28.239  1.00  0.00     0.010 A 
ATOM     38  C   UNL A   1      40.049  27.067  27.778  1.00  0.00    -0.014 A 
BRANCH  38  39
ATOM     39  C   UNL A   1      40.229  28.184  28.687  1.00  0.00     0.031 A 
ATOM     40  C   UNL A   1      39.207  29.257  28.689  1.00  0.00     0.074 A 
ATOM     41  C   UNL A   1      41.121  27.962  29.703  1.00  0.00     0.049 A 
ATOM     42  N   UNL A   1      39.339  30.338  29.360  1.00  0.00    -0.248 NA
ATOM     43  C   UNL A   1      37.943  29.249  27.940  1.00  0.00     0.031 C 
ATOM     44  C   UNL A   1      41.222  28.586  31.028  1.00  0.00     0.029 A 
ATOM     45  N   UNL A   1      42.164  27.006  29.753  1.00  0.00    -0.354 N 
ATOM     46  C   UNL A   1      38.121  30.984  29.401  1.00  0.00     0.074 A 
ATOM     47  C   UNL A   1      37.315  30.327  28.417  1.00  0.00     0.031 C 
ATOM     48  C   UNL A   1      42.391  28.238  31.607  1.00  0.00     0.029 A 
ATOM     49  C   UNL A   1      43.163  27.495  30.617  1.00  0.00     0.049 A 
ATOM     50  H   UNL A   1      42.187  26.150  29.268  1.00  0.00     0.167 HD
ATOM     51  C   UNL A   1      37.945  31.917  30.376  1.00  0.00     0.037 A 
ATOM     52  C   UNL A   1      44.356  27.907  30.089  1.00  0.00     0.037 A 
ATOM     53  C   UNL A   1      39.221  32.103  31.078  1.00  0.00     0.049 A 
ATOM     54  C   UNL A   1      44.425  29.417  30.110  1.00  0.00     0.074 A 
ATOM     55  C   UNL A   1      39.698  31.654  32.296  1.00  0.00     0.029 A 
ATOM     56  N   UNL A   1      40.339  32.485  30.336  1.00  0.00    -0.354 N 
ATOM     57  N   UNL A   1      43.357  30.169  30.153  1.00  0.00    -0.248 NA
ATOM     58  C   UNL A   1      45.658  30.193  30.170  1.00  0.00     0.031 C 
ATOM     59  C   UNL A   1      41.125  31.692  32.238  1.00  0.00     0.029 A 
ATOM     60  C   UNL A   1      41.513  32.173  30.995  1.00  0.00     0.049 A 
ATOM     61  H   UNL A   1      40.296  32.923  29.456  1.00  0.00     0.167 HD
ATOM     62  C   UNL A   1      43.716  31.471  30.287  1.00  0.00     0.074 A 
ATOM     63  C   UNL A   1      45.168  31.443  30.270  1.00  0.00     0.031 C 
ATOM     64  C   UNL A   1      42.799  32.476  30.373  1.00  0.00     0.037 A 
BRANCH  51  65
ATOM     65  C   UNL A   1      36.640  32.523  30.856  1.00  0.00     0.057 A 
ATOM     66  C   UNL A   1      36.050  33.563  30.106  1.00  0.00     0.134 A 
ATOM     67  C   UNL A   1      35.942  32.218  32.044  1.00  0.00     0.134 A 
ATOM     68  F   UNL A   1      36.569  33.965  28.938  1.00  0.00    -0.206 F 
ATOM     69  C   UNL A   1      34.898  34.254  30.511  1.00  0.00     0.040 A 
ATOM     70  C   UNL A   1      34.774  32.887  32.450  1.00  0.00     0.040 A 
ATOM     71  F   UNL A   1      36.343  31.272  32.895  1.00  0.00    -0.206 F 
ATOM     72  C   UNL A   1      34.252  33.917  31.687  1.00  0.00     0.006 A 
ENDBRANCH  51  65
BRANCH  52  73
ATOM     73  C   UNL A   1      44.840  27.012  28.992  1.00  0.00     0.057 A 
ATOM     74  C   UNL A   1      44.625  27.408  27.660  1.00  0.00     0.134 A 
ATOM     75  C   UNL A   1      45.855  26.075  29.206  1.00  0.00     0.134 A 
ATOM     76  F   UNL A   1      43.661  28.296  27.372  1.00  0.00    -0.206 F 
ATOM     77  C   UNL A   1      45.470  27.003  26.616  1.00  0.00     0.040 A 
ATOM     78  C   UNL A   1      46.711  25.671  28.167  1.00  0.00     0.040 A 
ATOM     79  F   UNL A   1      46.149  25.665  30.447  1.00  0.00    -0.206 F 
ATOM     80  C   UNL A   1      46.553  26.173  26.880  1.00  0.00     0.006 A 
ENDBRANCH  52  73
BRANCH  64  81
ATOM     81  C   UNL A   1      43.099  33.865  29.888  1.00  0.00     0.057 A 
ATOM     82  C   UNL A   1      43.146  34.981  30.740  1.00  0.00     0.134 A 
ATOM     83  C   UNL A   1      43.525  34.103  28.565  1.00  0.00     0.134 A 
ATOM     84  F   UNL A   1      42.958  34.873  32.063  1.00  0.00    -0.206 F 
ATOM     85  C   UNL A   1      43.449  36.261  30.280  1.00  0.00     0.040 A 
ATOM     86  C   UNL A   1      43.922  35.361  28.118  1.00  0.00     0.040 A 
ATOM     87  F   UNL A   1      43.609  33.124  27.654  1.00  0.00    -0.206 F 
ATOM     88  C   UNL A   1      43.843  36.455  28.964  1.00  0.00     0.006 A 
ENDBRANCH  64  81
ENDBRANCH  38  39
ENDBRANCH  31  33
ENDBRANCH  30  31
ENDBRANCH  29  30
ENDBRANCH  28  29
ENDBRANCH  27  28
ENDBRANCH  26  27
ENDBRANCH   1  26
TORSDOF 20
ENDMDL
MODEL 2
REMARK VINA RESULT:     -11.5      3.228      8.521
REMARK SMILES Cc1ccccc1N(CCC(=O)OCCOCCOC(=O)c1ccc(-c2c3nc(c(-c4c(F)cccc4F)c4ccc([nH]4)c(-c4c(F)cccc4F)c4nc(c(-c5c(F)cccc5F)c5ccc2[nH]5)C=C4)C=C3)cc1)C(=O)[C@@H]1C=C[C@H]([NH3+])C1
REMARK SMILES IDX 14 1 13 2 11 3 12 4 10 5 9 6 8 7 7 8 1 9 2 10 3 11 4 12 6 13
REMARK SMILES IDX 5 14 76 15 77 16 78 17 79 18 83 19 80 20 81 21 82 22 15 26
REMARK SMILES IDX 16 27 17 28 18 29 19 30 20 31 21 32 22 33 23 34 75 35 24 36
REMARK SMILES IDX 74 37 25 38 26 39 27 40 68 41 28 42 73 43 67 44 69 45 29 46
REMARK SMILES IDX 72 47 66 48 65 49 30 51 56 52 39 53 55 54 40 55 43 56 54 57
REMARK SMILES IDX 70 58 41 59 42 60 53 62 71 63 44 64 31 65 32 66 37 67 33 68
REMARK SMILES IDX 34 69 36 70 38 71 35 72 57 73 58 74 63 75 59 76 60 77 62 78
REMARK SMILES IDX 64 79 61 80 45 81 46 82 51 83 47 84 48 85 50 86 52 87 49 88
REMARK H PARENT 82 23 82 24 82 25 69 50 43 61
REMARK Flexibility Score: inf
ROOT
ATOM      1  C   UNL A   1      33.362  29.284  27.156  1.00  0.00     0.261 C 
ENDROOT
BRANCH   1   2
ATOM      2  O   UNL A   1      33.251  28.560  25.955  1.00  0.00    -0.463 OA
BRANCH   2   3
ATOM      3  C   UNL A   1      33.047  27.235  26.067  1.00  0.00     0.307 C 
ATOM      4  O   UNL A   1      32.218  26.695  26.782  1.00  0.00    -0.252 OA
BRANCH   3   5
ATOM      5  C   UNL A   1      33.971  26.517  25.138  1.00  0.00     0.144 C 
BRANCH   5   6
ATOM      6  C   UNL A   1      33.513  25.081  24.847  1.00  0.00     0.137 C 
BRANCH   6   7
ATOM      7  N   UNL A   1      34.076  24.427  23.651  1.00  0.00    -0.311 N 
BRANCH   7   8
ATOM      8  C   UNL A   1      34.816  23.151  24.057  1.00  0.00     0.047 A 
ATOM      9  C   UNL A   1      32.760  21.723  24.713  1.00  0.00     0.046 C 
ATOM     10  C   UNL A   1      34.227  21.971  24.561  1.00  0.00    -0.027 A 
ATOM     11  C   UNL A   1      35.039  20.888  25.013  1.00  0.00     0.005 A 
ATOM     12  C   UNL A   1      36.424  20.918  24.957  1.00  0.00     0.000 A 
ATOM     13  C   UNL A   1      36.243  23.099  23.970  1.00  0.00     0.026 A 
ATOM     14  C   UNL A   1      37.030  22.031  24.427  1.00  0.00     0.002 A 
ENDBRANCH   7   8
BRANCH   7  15
ATOM     15  C   UNL A   1      33.270  24.442  22.459  1.00  0.00     0.234 C 
ATOM     16  O   UNL A   1      33.626  23.610  21.607  1.00  0.00    -0.274 OA
BRANCH  15  17
ATOM     17  C   UNL A   1      31.872  25.581  22.035  1.00  0.00     0.108 C 
ATOM     18  C   UNL A   1      31.478  27.553  22.587  1.00  0.00    -0.012 C 
ATOM     19  C   UNL A   1      30.587  24.551  23.250  1.00  0.00     0.087 C 
ATOM     20  C   UNL A   1      30.377  27.699  23.819  1.00  0.00     0.033 C 
ATOM     21  C   UNL A   1      29.641  25.958  24.382  1.00  0.00     0.205 C 
BRANCH  21  22
ATOM     22  N   UNL A   1      29.530  25.571  25.791  1.00  0.00    -0.352 N 
ATOM     23  H   UNL A   1      30.462  25.432  26.180  1.00  0.00     0.345 HD
ATOM     24  H   UNL A   1      28.998  24.705  25.866  1.00  0.00     0.345 HD
ATOM     25  H   UNL A   1      29.052  26.309  26.310  1.00  0.00     0.345 HD
ENDBRANCH  21  22
ENDBRANCH  15  17
ENDBRANCH   7  15
ENDBRANCH   6   7
ENDBRANCH   5   6
ENDBRANCH   3   5
ENDBRANCH   2   3
ENDBRANCH   1   2
BRANCH   1  26
ATOM     26  C   UNL A   1      33.336  30.816  27.055  1.00  0.00     0.202 C 
BRANCH  26  27
ATOM     27  O   UNL A   1      33.778  31.781  28.011  1.00  0.00    -0.374 OA
BRANCH  27  28
ATOM     28  C   UNL A   1      33.316  33.114  27.998  1.00  0.00     0.202 C 
BRANCH  28  29
ATOM     29  C   UNL A   1      33.919  34.185  29.047  1.00  0.00     0.261 C 
BRANCH  29  30
ATOM     30  O   UNL A   1      35.287  34.206  29.859  1.00  0.00    -0.460 OA
BRANCH  30  31
ATOM     31  C   UNL A   1      36.526  33.254  30.407  1.00  0.00     0.338 C 
ATOM     32  O   UNL A   1      37.102  34.090  31.161  1.00  0.00    -0.246 OA
BRANCH  31  33
ATOM     33  C   UNL A   1      36.857  31.226  29.767  1.00  0.00     0.060 A 
ATOM     34  C   UNL A   1      36.711  29.859  30.393  1.00  0.00     0.016 A 
ATOM     35  C   UNL A   1      37.199  30.669  28.422  1.00  0.00     0.016 A 
ATOM     36  C   UNL A   1      37.543  28.739  30.210  1.00  0.00     0.010 A 
ATOM     37  C   UNL A   1      37.993  29.562  28.158  1.00  0.00     0.010 A 
ATOM     38  C   UNL A   1      38.435  28.817  29.206  1.00  0.00    -0.014 A 
BRANCH  38  39
ATOM     39  C   UNL A   1      39.827  28.412  29.272  1.00  0.00     0.031 A 
ATOM     40  C   UNL A   1      40.184  27.052  28.803  1.00  0.00     0.074 A 
ATOM     41  C   UNL A   1      40.720  29.441  29.416  1.00  0.00     0.049 A 
ATOM     42  N   UNL A   1      41.357  26.559  28.936  1.00  0.00    -0.248 NA
ATOM     43  C   UNL A   1      39.278  26.096  28.152  1.00  0.00     0.031 C 
ATOM     44  C   UNL A   1      42.140  29.520  29.050  1.00  0.00     0.029 A 
ATOM     45  N   UNL A   1      40.476  30.743  29.915  1.00  0.00    -0.354 N 
ATOM     46  C   UNL A   1      41.454  25.430  28.149  1.00  0.00     0.074 A 
ATOM     47  C   UNL A   1      40.108  25.123  27.767  1.00  0.00     0.031 C 
ATOM     48  C   UNL A   1      42.687  30.631  29.591  1.00  0.00     0.029 A 
ATOM     49  C   UNL A   1      41.680  31.236  30.455  1.00  0.00     0.049 A 
ATOM     50  H   UNL A   1      39.615  31.219  29.890  1.00  0.00     0.167 HD
ATOM     51  C   UNL A   1      42.705  24.997  27.835  1.00  0.00     0.037 A 
ATOM     52  C   UNL A   1      41.794  31.371  31.812  1.00  0.00     0.037 A 
ATOM     53  C   UNL A   1      43.678  25.808  28.578  1.00  0.00     0.049 A 
ATOM     54  C   UNL A   1      42.684  30.277  32.355  1.00  0.00     0.074 A 
ATOM     55  C   UNL A   1      44.498  26.860  28.214  1.00  0.00     0.029 A 
ATOM     56  N   UNL A   1      43.589  25.844  29.969  1.00  0.00    -0.354 N 
ATOM     57  N   UNL A   1      42.879  29.149  31.724  1.00  0.00    -0.248 NA
ATOM     58  C   UNL A   1      43.477  30.378  33.575  1.00  0.00     0.031 C 
ATOM     59  C   UNL A   1      44.828  27.579  29.403  1.00  0.00     0.029 A 
ATOM     60  C   UNL A   1      44.221  26.959  30.486  1.00  0.00     0.049 A 
ATOM     61  H   UNL A   1      43.135  25.161  30.513  1.00  0.00     0.167 HD
ATOM     62  C   UNL A   1      43.812  28.411  32.377  1.00  0.00     0.074 A 
ATOM     63  C   UNL A   1      44.142  29.209  33.545  1.00  0.00     0.031 C 
ATOM     64  C   UNL A   1      44.222  27.191  31.929  1.00  0.00     0.037 A 
BRANCH  51  65
ATOM     65  C   UNL A   1      43.103  24.016  26.748  1.00  0.00     0.057 A 
ATOM     66  C   UNL A   1      42.949  22.633  26.984  1.00  0.00     0.134 A 
ATOM     67  C   UNL A   1      43.695  24.314  25.503  1.00  0.00     0.134 A 
ATOM     68  F   UNL A   1      42.381  22.173  28.107  1.00  0.00    -0.206 F 
ATOM     69  C   UNL A   1      43.373  21.642  26.086  1.00  0.00     0.040 A 
ATOM     70  C   UNL A   1      44.104  23.332  24.585  1.00  0.00     0.040 A 
ATOM     71  F   UNL A   1      43.935  25.563  25.097  1.00  0.00    -0.206 F 
ATOM     72  C   UNL A   1      43.952  21.988  24.878  1.00  0.00     0.006 A 
ENDBRANCH  51  65
BRANCH  52  73
ATOM     73  C   UNL A   1      40.545  31.895  32.445  1.00  0.00     0.057 A 
ATOM     74  C   UNL A   1      39.669  30.983  33.058  1.00  0.00     0.134 A 
ATOM     75  C   UNL A   1      40.433  33.230  32.850  1.00  0.00     0.134 A 
ATOM     76  F   UNL A   1      39.707  29.685  32.716  1.00  0.00    -0.206 F 
ATOM     77  C   UNL A   1      38.828  31.351  34.119  1.00  0.00     0.040 A 
ATOM     78  C   UNL A   1      39.600  33.606  33.917  1.00  0.00     0.040 A 
ATOM     79  F   UNL A   1      41.250  34.162  32.341  1.00  0.00    -0.206 F 
ATOM     80  C   UNL A   1      38.833  32.659  34.588  1.00  0.00     0.006 A 
ENDBRANCH  52  73
BRANCH  64  81
ATOM     81  C   UNL A   1      44.704  26.123  32.869  1.00  0.00     0.057 A 
ATOM     82  C   UNL A   1      46.020  25.634  32.862  1.00  0.00     0.134 A 
ATOM     83  C   UNL A   1      43.901  25.670  33.935  1.00  0.00     0.134 A 
ATOM     84  F   UNL A   1      46.954  26.117  32.031  1.00  0.00    -0.206 F 
ATOM     85  C   UNL A   1      46.460  24.658  33.756  1.00  0.00     0.040 A 
ATOM     86  C   UNL A   1      44.360  24.768  34.891  1.00  0.00     0.040 A 
ATOM     87  F   UNL A   1      42.647  26.106  34.121  1.00  0.00    -0.206 F 
ATOM     88  C   UNL A   1      45.630  24.224  34.779  1.00  0.00     0.006 A 
ENDBRANCH  64  81
ENDBRANCH  38  39
ENDBRANCH  31  33
ENDBRANCH  30  31
ENDBRANCH  29  30
ENDBRANCH  28  29
ENDBRANCH  27  28
ENDBRANCH  26  27
ENDBRANCH   1  26
TORSDOF 20
ENDMDL
MODEL 3
REMARK VINA RESULT:     -11.4      3.145      8.501
REMARK SMILES Cc1ccccc1N(CCC(=O)OCCOCCOC(=O)c1ccc(-c2c3nc(c(-c4c(F)cccc4F)c4ccc([nH]4)c(-c4c(F)cccc4F)c4nc(c(-c5c(F)cccc5F)c5ccc2[nH]5)C=C4)C=C3)cc1)C(=O)[C@@H]1C=C[C@H]([NH3+])C1
REMARK SMILES IDX 14 1 13 2 11 3 12 4 10 5 9 6 8 7 7 8 1 9 2 10 3 11 4 12 6 13
REMARK SMILES IDX 5 14 76 15 77 16 78 17 79 18 83 19 80 20 81 21 82 22 15 26
REMARK SMILES IDX 16 27 17 28 18 29 19 30 20 31 21 32 22 33 23 34 75 35 24 36
REMARK SMILES IDX 74 37 25 38 26 39 27 40 68 41 28 42 73 43 67 44 69 45 29 46
REMARK SMILES IDX 72 47 66 48 65 49 30 51 56 52 39 53 55 54 40 55 43 56 54 57
REMARK SMILES IDX 70 58 41 59 42 60 53 62 71 63 44 64 31 65 32 66 37 67 33 68
REMARK SMILES IDX 34 69 36 70 38 71 35 72 57 73 58 74 63 75 59 76 60 77 62 78
REMARK SMILES IDX 64 79 61 80 45 81 46 82 51 83 47 84 48 85 50 86 52 87 49 88
REMARK H PARENT 82 23 82 24 82 25 69 50 43 61
REMARK Flexibility Score: inf
ROOT
ATOM      1  C   UNL A   1      32.361  25.396  23.992  1.00  0.00     0.261 C 
ENDROOT
BRANCH   1   2
ATOM      2  O   UNL A   1      33.108  25.408  22.800  1.00  0.00    -0.463 OA
BRANCH   2   3
ATOM      3  C   UNL A   1      33.264  24.228  22.174  1.00  0.00     0.307 C 
ATOM      4  O   UNL A   1      33.229  24.046  20.967  1.00  0.00    -0.252 OA
BRANCH   3   5
ATOM      5  C   UNL A   1      33.533  23.166  23.190  1.00  0.00     0.144 C 
BRANCH   5   6
ATOM      6  C   UNL A   1      35.033  22.889  23.367  1.00  0.00     0.137 C 
BRANCH   6   7
ATOM      7  N   UNL A   1      35.411  21.827  24.318  1.00  0.00    -0.311 N 
BRANCH   7   8
ATOM      8  C   UNL A   1      36.747  22.172  24.977  1.00  0.00     0.047 A 
ATOM      9  C   UNL A   1      37.832  19.825  24.864  1.00  0.00     0.046 C 
ATOM     10  C   UNL A   1      37.800  21.271  25.248  1.00  0.00    -0.027 A 
ATOM     11  C   UNL A   1      38.953  21.695  25.973  1.00  0.00     0.005 A 
ATOM     12  C   UNL A   1      39.118  22.997  26.420  1.00  0.00     0.000 A 
ATOM     13  C   UNL A   1      37.002  23.511  25.411  1.00  0.00     0.026 A 
ATOM     14  C   UNL A   1      38.136  23.913  26.132  1.00  0.00     0.002 A 
ENDBRANCH   7   8
BRANCH   7  15
ATOM     15  C   UNL A   1      34.353  21.244  25.100  1.00  0.00     0.234 C 
ATOM     16  O   UNL A   1      33.749  22.065  25.810  1.00  0.00    -0.274 OA
BRANCH  15  17
ATOM     17  C   UNL A   1      33.869  19.460  25.225  1.00  0.00     0.108 C 
ATOM     18  C   UNL A   1      34.734  17.734  24.436  1.00  0.00    -0.012 C 
ATOM     19  C   UNL A   1      32.285  19.740  23.960  1.00  0.00     0.087 C 
ATOM     20  C   UNL A   1      33.989  17.177  23.063  1.00  0.00     0.033 C 
ATOM     21  C   UNL A   1      32.399  18.241  22.583  1.00  0.00     0.205 C 
BRANCH  21  22
ATOM     22  N   UNL A   1      32.150  18.708  21.216  1.00  0.00    -0.352 N 
ATOM     23  H   UNL A   1      32.458  17.997  20.552  1.00  0.00     0.345 HD
ATOM     24  H   UNL A   1      32.665  19.572  21.051  1.00  0.00     0.345 HD
ATOM     25  H   UNL A   1      31.151  18.879  21.091  1.00  0.00     0.345 HD
ENDBRANCH  21  22
ENDBRANCH  15  17
ENDBRANCH   7  15
ENDBRANCH   6   7
ENDBRANCH   5   6
ENDBRANCH   3   5
ENDBRANCH   2   3
ENDBRANCH   1   2
BRANCH   1  26
ATOM     26  C   UNL A   1      31.023  26.148  23.988  1.00  0.00     0.202 C 
BRANCH  26  27
ATOM     27  O   UNL A   1      30.766  27.515  24.314  1.00  0.00    -0.374 OA
BRANCH  27  28
ATOM     28  C   UNL A   1      31.389  28.578  23.626  1.00  0.00     0.202 C 
BRANCH  28  29
ATOM     29  C   UNL A   1      32.912  28.985  23.982  1.00  0.00     0.261 C 
BRANCH  29  30
ATOM     30  O   UNL A   1      33.610  29.341  25.367  1.00  0.00    -0.460 OA
BRANCH  30  31
ATOM     31  C   UNL A   1      34.430  28.693  26.651  1.00  0.00     0.338 C 
ATOM     32  O   UNL A   1      34.071  27.487  26.528  1.00  0.00    -0.246 OA
BRANCH  31  33
ATOM     33  C   UNL A   1      35.623  29.846  28.022  1.00  0.00     0.060 A 
ATOM     34  C   UNL A   1      36.479  31.087  27.928  1.00  0.00     0.016 A 
ATOM     35  C   UNL A   1      35.774  29.749  29.507  1.00  0.00     0.016 A 
ATOM     36  C   UNL A   1      37.688  31.348  28.600  1.00  0.00     0.010 A 
ATOM     37  C   UNL A   1      36.920  30.006  30.244  1.00  0.00     0.010 A 
ATOM     38  C   UNL A   1      38.008  30.505  29.599  1.00  0.00    -0.014 A 
BRANCH  38  39
ATOM     39  C   UNL A   1      39.320  29.934  29.842  1.00  0.00     0.031 A 
ATOM     40  C   UNL A   1      39.614  28.591  29.287  1.00  0.00     0.074 A 
ATOM     41  C   UNL A   1      40.274  30.832  30.242  1.00  0.00     0.049 A 
ATOM     42  N   UNL A   1      40.690  27.953  29.551  1.00  0.00    -0.248 NA
ATOM     43  C   UNL A   1      38.742  27.814  28.396  1.00  0.00     0.031 C 
ATOM     44  C   UNL A   1      41.736  30.777  30.121  1.00  0.00     0.029 A 
ATOM     45  N   UNL A   1      40.080  32.101  30.839  1.00  0.00    -0.354 N 
ATOM     46  C   UNL A   1      40.807  26.899  28.667  1.00  0.00     0.074 A 
ATOM     47  C   UNL A   1      39.523  26.791  28.042  1.00  0.00     0.031 C 
ATOM     48  C   UNL A   1      42.291  31.759  30.864  1.00  0.00     0.029 A 
ATOM     49  C   UNL A   1      41.216  32.395  31.617  1.00  0.00     0.049 A 
ATOM     50  H   UNL A   1      39.289  32.676  30.729  1.00  0.00     0.167 HD
ATOM     51  C   UNL A   1      42.043  26.353  28.512  1.00  0.00     0.037 A 
ATOM     52  C   UNL A   1      41.108  32.388  32.981  1.00  0.00     0.037 A 
ATOM     53  C   UNL A   1      42.951  26.969  29.488  1.00  0.00     0.049 A 
ATOM     54  C   UNL A   1      41.776  31.150  33.535  1.00  0.00     0.074 A 
ATOM     55  C   UNL A   1      43.922  27.947  29.381  1.00  0.00     0.029 A 
ATOM     56  N   UNL A   1      42.627  26.885  30.842  1.00  0.00    -0.354 N 
ATOM     57  N   UNL A   1      41.963  30.072  32.820  1.00  0.00    -0.248 NA
ATOM     58  C   UNL A   1      42.353  31.042  34.870  1.00  0.00     0.031 C 
ATOM     59  C   UNL A   1      44.114  28.507  30.681  1.00  0.00     0.029 A 
ATOM     60  C   UNL A   1      43.269  27.864  31.576  1.00  0.00     0.049 A 
ATOM     61  H   UNL A   1      42.020  26.212  31.226  1.00  0.00     0.167 HD
ATOM     62  C   UNL A   1      42.690  29.170  33.528  1.00  0.00     0.074 A 
ATOM     63  C   UNL A   1      42.893  29.811  34.816  1.00  0.00     0.031 C 
ATOM     64  C   UNL A   1      43.046  27.958  33.017  1.00  0.00     0.037 A 
BRANCH  51  65
ATOM     65  C   UNL A   1      42.521  25.438  27.400  1.00  0.00     0.057 A 
ATOM     66  C   UNL A   1      42.945  26.006  26.179  1.00  0.00     0.134 A 
ATOM     67  C   UNL A   1      42.534  24.027  27.401  1.00  0.00     0.134 A 
ATOM     68  F   UNL A   1      43.016  27.334  26.013  1.00  0.00    -0.206 F 
ATOM     69  C   UNL A   1      43.313  25.248  25.059  1.00  0.00     0.040 A 
ATOM     70  C   UNL A   1      42.923  23.256  26.292  1.00  0.00     0.040 A 
ATOM     71  F   UNL A   1      42.161  23.301  28.457  1.00  0.00    -0.206 F 
ATOM     72  C   UNL A   1      43.306  23.866  25.110  1.00  0.00     0.006 A 
ENDBRANCH  51  65
BRANCH  52  73
ATOM     73  C   UNL A   1      39.828  32.995  33.461  1.00  0.00     0.057 A 
ATOM     74  C   UNL A   1      38.778  32.138  33.835  1.00  0.00     0.134 A 
ATOM     75  C   UNL A   1      39.781  34.295  33.973  1.00  0.00     0.134 A 
ATOM     76  F   UNL A   1      38.747  30.877  33.376  1.00  0.00    -0.206 F 
ATOM     77  C   UNL A   1      37.813  32.509  34.783  1.00  0.00     0.040 A 
ATOM     78  C   UNL A   1      38.822  34.673  34.929  1.00  0.00     0.040 A 
ATOM     79  F   UNL A   1      40.757  35.169  33.693  1.00  0.00    -0.206 F 
ATOM     80  C   UNL A   1      37.867  33.766  35.374  1.00  0.00     0.006 A 
ENDBRANCH  52  73
BRANCH  64  81
ATOM     81  C   UNL A   1      43.249  26.757  33.896  1.00  0.00     0.057 A 
ATOM     82  C   UNL A   1      42.229  26.210  34.692  1.00  0.00     0.134 A 
ATOM     83  C   UNL A   1      44.437  26.000  33.839  1.00  0.00     0.134 A 
ATOM     84  F   UNL A   1      40.984  26.708  34.694  1.00  0.00    -0.206 F 
ATOM     85  C   UNL A   1      42.424  25.080  35.485  1.00  0.00     0.040 A 
ATOM     86  C   UNL A   1      44.609  24.817  34.553  1.00  0.00     0.040 A 
ATOM     87  F   UNL A   1      45.472  26.352  33.064  1.00  0.00    -0.206 F 
ATOM     88  C   UNL A   1      43.618  24.376  35.415  1.00  0.00     0.006 A 
ENDBRANCH  64  81
ENDBRANCH  38  39
ENDBRANCH  31  33
ENDBRANCH  30  31
ENDBRANCH  29  30
ENDBRANCH  28  29
ENDBRANCH  27  28
ENDBRANCH  26  27
ENDBRANCH   1  26
TORSDOF 20
ENDMDL
