MODEL 1
REMARK VINA RESULT:     -10.9      0.000      0.000
REMARK SMILES CC(C)[C@H]1CC[C@@H](C)C/C1=C(\F)C(=O)OCCOCCOC(=O)c1ccc(-c2c3nc(c(-c4c(F)cccc4F)c4ccc([nH]4)c(-c4c(F)cccc4F)c4nc(c(-c5c(F)cccc5F)c5ccc2[nH]5)C=C4)C=C3)cc1
REMARK SMILES IDX 19 1 18 2 17 3 16 4 15 5 13 6 14 7 11 8 4 9 5 10 10 11 6 12
REMARK SMILES IDX 9 13 7 14 12 15 8 16 2 17 1 18 3 19 20 20 21 21 22 22 23 23
REMARK SMILES IDX 24 24 25 25 77 26 26 27 76 28 27 29 28 30 29 31 70 32 30 33
REMARK SMILES IDX 75 34 69 35 71 36 31 37 74 38 68 39 67 40 32 42 58 43 41 44
REMARK SMILES IDX 57 45 42 46 45 47 56 48 72 49 43 50 44 51 55 53 73 54 46 55
REMARK SMILES IDX 33 56 34 57 39 58 35 59 36 60 38 61 40 62 37 63 59 64 60 65
REMARK SMILES IDX 65 66 61 67 62 68 64 69 66 70 63 71 47 72 48 73 53 74 49 75
REMARK SMILES IDX 50 76 52 77 54 78 51 79
REMARK H PARENT 71 41 45 52
REMARK Flexibility Score: inf
ROOT
ATOM      1  C   UNL A   1      36.068  20.465  25.081  1.00  0.00     0.202 C 
ENDROOT
BRANCH   1   2
ATOM      2  O   UNL A   1      35.667  21.648  25.772  1.00  0.00    -0.374 OA
BRANCH   2   3
ATOM      3  C   UNL A   1      34.282  21.929  25.925  1.00  0.00     0.202 C 
BRANCH   3   4
ATOM      4  C   UNL A   1      33.843  23.094  26.825  1.00  0.00     0.261 C 
BRANCH   4   5
ATOM      5  O   UNL A   1      33.173  24.130  26.104  1.00  0.00    -0.458 OA
BRANCH   5   6
ATOM      6  C   UNL A   1      31.839  24.219  26.344  1.00  0.00     0.367 C 
ATOM      7  O   UNL A   1      31.270  23.937  27.385  1.00  0.00    -0.243 OA
BRANCH   6   8
ATOM      8  C   UNL A   1      31.156  24.710  25.126  1.00  0.00     0.207 C 
ATOM      9  C   UNL A   1      31.381  27.340  25.308  1.00  0.00     0.021 C 
ATOM     10  C   UNL A   1      32.018  28.189  24.175  1.00  0.00     0.009 C 
ATOM     11  C   UNL A   1      30.928  25.978  24.714  1.00  0.00    -0.023 C 
ATOM     12  C   UNL A   1      31.101  28.361  22.965  1.00  0.00     0.004 C 
ATOM     13  C   UNL A   1      30.048  26.144  23.475  1.00  0.00     0.038 C 
ATOM     14  C   UNL A   1      30.653  27.025  22.376  1.00  0.00    -0.010 C 
ATOM     15  F   UNL A   1      30.720  23.680  24.360  1.00  0.00    -0.199 F 
ATOM     16  C   UNL A   1      31.788  26.328  21.623  1.00  0.00     0.008 C 
BRANCH   9  17
ATOM     17  C   UNL A   1      32.269  27.335  26.598  1.00  0.00    -0.010 C 
ATOM     18  C   UNL A   1      33.720  27.813  26.421  1.00  0.00     0.008 C 
ATOM     19  C   UNL A   1      31.636  28.203  27.696  1.00  0.00     0.008 C 
ENDBRANCH   9  17
ENDBRANCH   6   8
ENDBRANCH   5   6
ENDBRANCH   4   5
ENDBRANCH   3   4
ENDBRANCH   2   3
ENDBRANCH   1   2
BRANCH   1  20
ATOM     20  C   UNL A   1      37.551  20.098  25.001  1.00  0.00     0.261 C 
BRANCH  20  21
ATOM     21  O   UNL A   1      38.426  21.214  25.211  1.00  0.00    -0.460 OA
BRANCH  21  22
ATOM     22  C   UNL A   1      39.433  20.971  26.082  1.00  0.00     0.338 C 
ATOM     23  O   UNL A   1      40.049  19.928  26.238  1.00  0.00    -0.246 OA
BRANCH  22  24
ATOM     24  C   UNL A   1      39.838  22.228  26.726  1.00  0.00     0.060 A 
ATOM     25  C   UNL A   1      39.175  23.397  26.333  1.00  0.00     0.016 A 
ATOM     26  C   UNL A   1      40.900  22.272  27.632  1.00  0.00     0.016 A 
ATOM     27  C   UNL A   1      39.608  24.629  26.805  1.00  0.00     0.010 A 
ATOM     28  C   UNL A   1      41.341  23.512  28.096  1.00  0.00     0.010 A 
ATOM     29  C   UNL A   1      40.723  24.694  27.651  1.00  0.00    -0.014 A 
BRANCH  29  30
ATOM     30  C   UNL A   1      41.331  26.012  27.928  1.00  0.00     0.031 A 
ATOM     31  C   UNL A   1      42.713  26.294  27.408  1.00  0.00     0.074 A 
ATOM     32  C   UNL A   1      40.635  26.956  28.584  1.00  0.00     0.049 A 
ATOM     33  N   UNL A   1      43.435  27.378  27.520  1.00  0.00    -0.248 NA
ATOM     34  C   UNL A   1      43.367  25.207  26.662  1.00  0.00     0.031 C 
ATOM     35  C   UNL A   1      39.277  26.798  29.098  1.00  0.00     0.029 A 
ATOM     36  N   UNL A   1      40.982  28.237  28.926  1.00  0.00    -0.354 N 
ATOM     37  C   UNL A   1      44.628  27.103  26.863  1.00  0.00     0.074 A 
ATOM     38  C   UNL A   1      44.548  25.740  26.386  1.00  0.00     0.031 C 
ATOM     39  C   UNL A   1      38.903  27.941  29.699  1.00  0.00     0.029 A 
ATOM     40  C   UNL A   1      40.007  28.896  29.633  1.00  0.00     0.049 A 
ATOM     41  H   UNL A   1      41.846  28.645  28.689  1.00  0.00     0.167 HD
ATOM     42  C   UNL A   1      45.691  27.919  26.669  1.00  0.00     0.037 A 
ATOM     43  C   UNL A   1      40.018  30.128  30.178  1.00  0.00     0.037 A 
ATOM     44  C   UNL A   1      45.759  29.274  27.148  1.00  0.00     0.049 A 
ATOM     45  C   UNL A   1      41.235  30.994  29.997  1.00  0.00     0.074 A 
ATOM     46  C   UNL A   1      46.780  30.194  26.992  1.00  0.00     0.029 A 
ATOM     47  N   UNL A   1      44.766  29.898  27.888  1.00  0.00    -0.354 N 
ATOM     48  N   UNL A   1      42.347  30.737  29.350  1.00  0.00    -0.248 NA
ATOM     49  C   UNL A   1      41.195  32.325  30.616  1.00  0.00     0.031 C 
ATOM     50  C   UNL A   1      46.426  31.359  27.681  1.00  0.00     0.029 A 
ATOM     51  C   UNL A   1      45.160  31.184  28.218  1.00  0.00     0.049 A 
ATOM     52  H   UNL A   1      43.906  29.489  28.140  1.00  0.00     0.167 HD
ATOM     53  C   UNL A   1      43.126  31.883  29.460  1.00  0.00     0.074 A 
ATOM     54  C   UNL A   1      42.350  32.841  30.221  1.00  0.00     0.031 C 
ATOM     55  C   UNL A   1      44.369  32.122  28.975  1.00  0.00     0.037 A 
BRANCH  42  56
ATOM     56  C   UNL A   1      46.871  27.358  25.930  1.00  0.00     0.057 A 
ATOM     57  C   UNL A   1      47.039  27.540  24.550  1.00  0.00     0.134 A 
ATOM     58  C   UNL A   1      47.867  26.650  26.613  1.00  0.00     0.134 A 
ATOM     59  F   UNL A   1      46.114  28.194  23.833  1.00  0.00    -0.206 F 
ATOM     60  C   UNL A   1      48.146  27.019  23.876  1.00  0.00     0.040 A 
ATOM     61  C   UNL A   1      48.991  26.149  25.954  1.00  0.00     0.040 A 
ATOM     62  F   UNL A   1      47.769  26.441  27.935  1.00  0.00    -0.206 F 
ATOM     63  C   UNL A   1      49.130  26.328  24.580  1.00  0.00     0.006 A 
ENDBRANCH  42  56
BRANCH  43  64
ATOM     64  C   UNL A   1      38.845  30.609  30.951  1.00  0.00     0.057 A 
ATOM     65  C   UNL A   1      38.708  30.333  32.315  1.00  0.00     0.134 A 
ATOM     66  C   UNL A   1      37.822  31.342  30.336  1.00  0.00     0.134 A 
ATOM     67  F   UNL A   1      39.645  29.617  32.956  1.00  0.00    -0.206 F 
ATOM     68  C   UNL A   1      37.588  30.748  33.038  1.00  0.00     0.040 A 
ATOM     69  C   UNL A   1      36.710  31.788  31.052  1.00  0.00     0.040 A 
ATOM     70  F   UNL A   1      37.894  31.643  29.031  1.00  0.00    -0.206 F 
ATOM     71  C   UNL A   1      36.587  31.484  32.405  1.00  0.00     0.006 A 
ENDBRANCH  43  64
BRANCH  55  72
ATOM     72  C   UNL A   1      44.950  33.485  29.225  1.00  0.00     0.057 A 
ATOM     73  C   UNL A   1      45.760  33.753  30.337  1.00  0.00     0.134 A 
ATOM     74  C   UNL A   1      44.716  34.534  28.327  1.00  0.00     0.134 A 
ATOM     75  F   UNL A   1      46.013  32.796  31.241  1.00  0.00    -0.206 F 
ATOM     76  C   UNL A   1      46.289  35.025  30.562  1.00  0.00     0.040 A 
ATOM     77  C   UNL A   1      45.265  35.801  28.524  1.00  0.00     0.040 A 
ATOM     78  F   UNL A   1      43.959  34.341  27.235  1.00  0.00    -0.206 F 
ATOM     79  C   UNL A   1      46.047  36.051  29.650  1.00  0.00     0.006 A 
ENDBRANCH  55  72
ENDBRANCH  29  30
ENDBRANCH  22  24
ENDBRANCH  21  22
ENDBRANCH  20  21
ENDBRANCH   1  20
TORSDOF 15
ENDMDL
MODEL 2
REMARK VINA RESULT:     -10.9      0.968      1.901
REMARK SMILES CC(C)[C@H]1CC[C@@H](C)C/C1=C(\F)C(=O)OCCOCCOC(=O)c1ccc(-c2c3nc(c(-c4c(F)cccc4F)c4ccc([nH]4)c(-c4c(F)cccc4F)c4nc(c(-c5c(F)cccc5F)c5ccc2[nH]5)C=C4)C=C3)cc1
REMARK SMILES IDX 19 1 18 2 17 3 16 4 15 5 13 6 14 7 11 8 4 9 5 10 10 11 6 12
REMARK SMILES IDX 9 13 7 14 12 15 8 16 2 17 1 18 3 19 20 20 21 21 22 22 23 23
REMARK SMILES IDX 24 24 25 25 77 26 26 27 76 28 27 29 28 30 29 31 70 32 30 33
REMARK SMILES IDX 75 34 69 35 71 36 31 37 74 38 68 39 67 40 32 42 58 43 41 44
REMARK SMILES IDX 57 45 42 46 45 47 56 48 72 49 43 50 44 51 55 53 73 54 46 55
REMARK SMILES IDX 33 56 34 57 39 58 35 59 36 60 38 61 40 62 37 63 59 64 60 65
REMARK SMILES IDX 65 66 61 67 62 68 64 69 66 70 63 71 47 72 48 73 53 74 49 75
REMARK SMILES IDX 50 76 52 77 54 78 51 79
REMARK H PARENT 71 41 45 52
REMARK Flexibility Score: inf
ROOT
ATOM      1  C   UNL A   1      36.352  19.689  25.002  1.00  0.00     0.202 C 
ENDROOT
BRANCH   1   2
ATOM      2  O   UNL A   1      35.218  20.497  24.687  1.00  0.00    -0.374 OA
BRANCH   2   3
ATOM      3  C   UNL A   1      33.914  20.010  24.977  1.00  0.00     0.202 C 
BRANCH   3   4
ATOM      4  C   UNL A   1      32.786  20.221  23.957  1.00  0.00     0.261 C 
BRANCH   4   5
ATOM      5  O   UNL A   1      31.960  21.346  24.268  1.00  0.00    -0.458 OA
BRANCH   5   6
ATOM      6  C   UNL A   1      32.251  22.475  23.572  1.00  0.00     0.367 C 
ATOM      7  O   UNL A   1      33.083  22.587  22.688  1.00  0.00    -0.243 OA
BRANCH   6   8
ATOM      8  C   UNL A   1      31.399  23.582  24.061  1.00  0.00     0.207 C 
ATOM      9  C   UNL A   1      32.793  24.594  26.069  1.00  0.00     0.021 C 
ATOM     10  C   UNL A   1      33.178  26.097  26.125  1.00  0.00     0.009 C 
ATOM     11  C   UNL A   1      31.590  24.425  25.102  1.00  0.00    -0.023 C 
ATOM     12  C   UNL A   1      32.006  27.005  26.494  1.00  0.00     0.004 C 
ATOM     13  C   UNL A   1      30.432  25.364  25.439  1.00  0.00     0.038 C 
ATOM     14  C   UNL A   1      30.821  26.844  25.545  1.00  0.00    -0.010 C 
ATOM     15  F   UNL A   1      30.279  23.707  23.309  1.00  0.00    -0.199 F 
ATOM     16  C   UNL A   1      31.095  27.479  24.180  1.00  0.00     0.008 C 
BRANCH   9  17
ATOM     17  C   UNL A   1      34.050  23.680  25.869  1.00  0.00    -0.010 C 
ATOM     18  C   UNL A   1      35.326  24.385  25.379  1.00  0.00     0.008 C 
ATOM     19  C   UNL A   1      34.405  22.952  27.173  1.00  0.00     0.008 C 
ENDBRANCH   9  17
ENDBRANCH   6   8
ENDBRANCH   5   6
ENDBRANCH   4   5
ENDBRANCH   3   4
ENDBRANCH   2   3
ENDBRANCH   1   2
BRANCH   1  20
ATOM     20  C   UNL A   1      37.756  20.179  24.643  1.00  0.00     0.261 C 
BRANCH  20  21
ATOM     21  O   UNL A   1      38.184  21.301  25.424  1.00  0.00    -0.460 OA
BRANCH  21  22
ATOM     22  C   UNL A   1      39.327  21.089  26.118  1.00  0.00     0.338 C 
ATOM     23  O   UNL A   1      40.021  20.084  26.122  1.00  0.00    -0.246 OA
BRANCH  22  24
ATOM     24  C   UNL A   1      39.752  22.341  26.759  1.00  0.00     0.060 A 
ATOM     25  C   UNL A   1      39.083  23.514  26.390  1.00  0.00     0.016 A 
ATOM     26  C   UNL A   1      40.836  22.377  27.637  1.00  0.00     0.016 A 
ATOM     27  C   UNL A   1      39.531  24.742  26.858  1.00  0.00     0.010 A 
ATOM     28  C   UNL A   1      41.293  23.613  28.098  1.00  0.00     0.010 A 
ATOM     29  C   UNL A   1      40.666  24.799  27.676  1.00  0.00    -0.014 A 
BRANCH  29  30
ATOM     30  C   UNL A   1      41.285  26.115  27.944  1.00  0.00     0.031 A 
ATOM     31  C   UNL A   1      42.671  26.380  27.429  1.00  0.00     0.074 A 
ATOM     32  C   UNL A   1      40.594  27.070  28.589  1.00  0.00     0.049 A 
ATOM     33  N   UNL A   1      43.403  27.458  27.535  1.00  0.00    -0.248 NA
ATOM     34  C   UNL A   1      43.319  25.281  26.695  1.00  0.00     0.031 C 
ATOM     35  C   UNL A   1      39.232  26.928  29.099  1.00  0.00     0.029 A 
ATOM     36  N   UNL A   1      40.950  28.350  28.923  1.00  0.00    -0.354 N 
ATOM     37  C   UNL A   1      44.596  27.167  26.887  1.00  0.00     0.074 A 
ATOM     38  C   UNL A   1      44.507  25.801  26.420  1.00  0.00     0.031 C 
ATOM     39  C   UNL A   1      38.865  28.079  29.688  1.00  0.00     0.029 A 
ATOM     40  C   UNL A   1      39.978  29.023  29.620  1.00  0.00     0.049 A 
ATOM     41  H   UNL A   1      41.819  28.749  28.687  1.00  0.00     0.167 HD
ATOM     42  C   UNL A   1      45.667  27.972  26.691  1.00  0.00     0.037 A 
ATOM     43  C   UNL A   1      39.997  30.259  30.155  1.00  0.00     0.037 A 
ATOM     44  C   UNL A   1      45.745  29.331  27.160  1.00  0.00     0.049 A 
ATOM     45  C   UNL A   1      41.223  31.114  29.973  1.00  0.00     0.074 A 
ATOM     46  C   UNL A   1      46.775  30.241  27.001  1.00  0.00     0.029 A 
ATOM     47  N   UNL A   1      44.753  29.970  27.890  1.00  0.00    -0.354 N 
ATOM     48  N   UNL A   1      42.335  30.842  29.334  1.00  0.00    -0.248 NA
ATOM     49  C   UNL A   1      41.192  32.450  30.581  1.00  0.00     0.031 C 
ATOM     50  C   UNL A   1      46.428  31.415  27.679  1.00  0.00     0.029 A 
ATOM     51  C   UNL A   1      45.157  31.255  28.211  1.00  0.00     0.049 A 
ATOM     52  H   UNL A   1      43.889  29.570  28.141  1.00  0.00     0.167 HD
ATOM     53  C   UNL A   1      43.123  31.981  29.437  1.00  0.00     0.074 A 
ATOM     54  C   UNL A   1      42.353  32.952  30.187  1.00  0.00     0.031 C 
ATOM     55  C   UNL A   1      44.372  32.206  28.957  1.00  0.00     0.037 A 
BRANCH  42  56
ATOM     56  C   UNL A   1      46.845  27.396  25.962  1.00  0.00     0.057 A 
ATOM     57  C   UNL A   1      47.854  26.682  26.625  1.00  0.00     0.134 A 
ATOM     58  C   UNL A   1      46.959  27.532  24.573  1.00  0.00     0.134 A 
ATOM     59  F   UNL A   1      47.815  26.530  27.957  1.00  0.00    -0.206 F 
ATOM     60  C   UNL A   1      48.941  26.144  25.934  1.00  0.00     0.040 A 
ATOM     61  C   UNL A   1      48.027  26.975  23.869  1.00  0.00     0.040 A 
ATOM     62  F   UNL A   1      46.028  28.202  23.876  1.00  0.00    -0.206 F 
ATOM     63  C   UNL A   1      49.026  26.283  24.550  1.00  0.00     0.006 A 
ENDBRANCH  42  56
BRANCH  43  64
ATOM     64  C   UNL A   1      38.825  30.757  30.919  1.00  0.00     0.057 A 
ATOM     65  C   UNL A   1      38.679  30.492  32.284  1.00  0.00     0.134 A 
ATOM     66  C   UNL A   1      37.812  31.495  30.293  1.00  0.00     0.134 A 
ATOM     67  F   UNL A   1      39.605  29.773  32.935  1.00  0.00    -0.206 F 
ATOM     68  C   UNL A   1      37.559  30.923  32.998  1.00  0.00     0.040 A 
ATOM     69  C   UNL A   1      36.700  31.957  31.000  1.00  0.00     0.040 A 
ATOM     70  F   UNL A   1      37.893  31.786  28.986  1.00  0.00    -0.206 F 
ATOM     71  C   UNL A   1      36.567  31.663  32.355  1.00  0.00     0.006 A 
ENDBRANCH  43  64
BRANCH  55  72
ATOM     72  C   UNL A   1      44.962  33.566  29.199  1.00  0.00     0.057 A 
ATOM     73  C   UNL A   1      45.770  33.836  30.312  1.00  0.00     0.134 A 
ATOM     74  C   UNL A   1      44.743  34.609  28.291  1.00  0.00     0.134 A 
ATOM     75  F   UNL A   1      46.010  32.884  31.225  1.00  0.00    -0.206 F 
ATOM     76  C   UNL A   1      46.309  35.105  30.529  1.00  0.00     0.040 A 
ATOM     77  C   UNL A   1      45.301  35.873  28.481  1.00  0.00     0.040 A 
ATOM     78  F   UNL A   1      43.989  34.414  27.197  1.00  0.00    -0.206 F 
ATOM     79  C   UNL A   1      46.080  36.125  29.608  1.00  0.00     0.006 A 
ENDBRANCH  55  72
ENDBRANCH  29  30
ENDBRANCH  22  24
ENDBRANCH  21  22
ENDBRANCH  20  21
ENDBRANCH   1  20
TORSDOF 15
ENDMDL
MODEL 3
REMARK VINA RESULT:     -10.8      4.230      6.814
REMARK SMILES CC(C)[C@H]1CC[C@@H](C)C/C1=C(\F)C(=O)OCCOCCOC(=O)c1ccc(-c2c3nc(c(-c4c(F)cccc4F)c4ccc([nH]4)c(-c4c(F)cccc4F)c4nc(c(-c5c(F)cccc5F)c5ccc2[nH]5)C=C4)C=C3)cc1
REMARK SMILES IDX 19 1 18 2 17 3 16 4 15 5 13 6 14 7 11 8 4 9 5 10 10 11 6 12
REMARK SMILES IDX 9 13 7 14 12 15 8 16 2 17 1 18 3 19 20 20 21 21 22 22 23 23
REMARK SMILES IDX 24 24 25 25 77 26 26 27 76 28 27 29 28 30 29 31 70 32 30 33
REMARK SMILES IDX 75 34 69 35 71 36 31 37 74 38 68 39 67 40 32 42 58 43 41 44
REMARK SMILES IDX 57 45 42 46 45 47 56 48 72 49 43 50 44 51 55 53 73 54 46 55
REMARK SMILES IDX 33 56 34 57 39 58 35 59 36 60 38 61 40 62 37 63 59 64 60 65
REMARK SMILES IDX 65 66 61 67 62 68 64 69 66 70 63 71 47 72 48 73 53 74 49 75
REMARK SMILES IDX 50 76 52 77 54 78 51 79
REMARK H PARENT 71 41 45 52
REMARK Flexibility Score: inf
ROOT
ATOM      1  C   UNL A   1      31.040  30.065  25.015  1.00  0.00     0.202 C 
ENDROOT
BRANCH   1   2
ATOM      2  O   UNL A   1      29.992  30.363  24.093  1.00  0.00    -0.374 OA
BRANCH   2   3
ATOM      3  C   UNL A   1      29.847  29.570  22.922  1.00  0.00     0.202 C 
BRANCH   3   4
ATOM      4  C   UNL A   1      29.314  28.135  23.044  1.00  0.00     0.261 C 
BRANCH   4   5
ATOM      5  O   UNL A   1      30.336  27.148  22.889  1.00  0.00    -0.458 OA
BRANCH   5   6
ATOM      6  C   UNL A   1      30.343  26.181  23.843  1.00  0.00     0.367 C 
ATOM      7  O   UNL A   1      29.821  26.245  24.942  1.00  0.00    -0.243 OA
BRANCH   6   8
ATOM      8  C   UNL A   1      31.105  25.013  23.347  1.00  0.00     0.207 C 
ATOM      9  C   UNL A   1      33.628  25.712  23.726  1.00  0.00     0.021 C 
ATOM     10  C   UNL A   1      34.607  24.834  24.551  1.00  0.00     0.009 C 
ATOM     11  C   UNL A   1      32.442  24.826  23.256  1.00  0.00    -0.023 C 
ATOM     12  C   UNL A   1      35.076  23.589  23.800  1.00  0.00     0.004 C 
ATOM     13  C   UNL A   1      32.907  23.556  22.546  1.00  0.00     0.038 C 
ATOM     14  C   UNL A   1      33.914  22.714  23.337  1.00  0.00    -0.010 C 
ATOM     15  F   UNL A   1      30.273  24.024  22.936  1.00  0.00    -0.199 F 
ATOM     16  C   UNL A   1      33.265  21.966  24.504  1.00  0.00     0.008 C 
BRANCH   9  17
ATOM     17  C   UNL A   1      33.312  27.065  24.451  1.00  0.00    -0.010 C 
ATOM     18  C   UNL A   1      33.715  27.148  25.932  1.00  0.00     0.008 C 
ATOM     19  C   UNL A   1      33.990  28.238  23.728  1.00  0.00     0.008 C 
ENDBRANCH   9  17
ENDBRANCH   6   8
ENDBRANCH   5   6
ENDBRANCH   4   5
ENDBRANCH   3   4
ENDBRANCH   2   3
ENDBRANCH   1   2
BRANCH   1  20
ATOM     20  C   UNL A   1      31.403  31.075  26.105  1.00  0.00     0.261 C 
BRANCH  20  21
ATOM     21  O   UNL A   1      32.626  30.765  26.784  1.00  0.00    -0.460 OA
BRANCH  21  22
ATOM     22  C   UNL A   1      33.273  31.846  27.279  1.00  0.00     0.338 C 
ATOM     23  O   UNL A   1      32.819  32.963  27.471  1.00  0.00    -0.246 OA
BRANCH  22  24
ATOM     24  C   UNL A   1      34.606  31.446  27.751  1.00  0.00     0.060 A 
ATOM     25  C   UNL A   1      34.804  30.094  28.057  1.00  0.00     0.016 A 
ATOM     26  C   UNL A   1      35.613  32.387  27.968  1.00  0.00     0.016 A 
ATOM     27  C   UNL A   1      35.996  29.683  28.636  1.00  0.00     0.010 A 
ATOM     28  C   UNL A   1      36.808  31.975  28.561  1.00  0.00     0.010 A 
ATOM     29  C   UNL A   1      36.985  30.630  28.933  1.00  0.00    -0.014 A 
BRANCH  29  30
ATOM     30  C   UNL A   1      38.125  30.228  29.783  1.00  0.00     0.031 A 
ATOM     31  C   UNL A   1      39.149  29.284  29.219  1.00  0.00     0.074 A 
ATOM     32  C   UNL A   1      38.266  30.743  31.016  1.00  0.00     0.049 A 
ATOM     33  N   UNL A   1      40.231  28.806  29.776  1.00  0.00    -0.248 NA
ATOM     34  C   UNL A   1      38.922  28.817  27.843  1.00  0.00     0.031 C 
ATOM     35  C   UNL A   1      37.350  31.693  31.644  1.00  0.00     0.029 A 
ATOM     36  N   UNL A   1      39.240  30.537  31.958  1.00  0.00    -0.354 N 
ATOM     37  C   UNL A   1      40.811  27.980  28.821  1.00  0.00     0.074 A 
ATOM     38  C   UNL A   1      39.945  27.993  27.663  1.00  0.00     0.031 C 
ATOM     39  C   UNL A   1      37.803  31.985  32.876  1.00  0.00     0.029 A 
ATOM     40  C   UNL A   1      39.023  31.222  33.128  1.00  0.00     0.049 A 
ATOM     41  H   UNL A   1      40.019  29.953  31.811  1.00  0.00     0.167 HD
ATOM     42  C   UNL A   1      41.967  27.281  28.902  1.00  0.00     0.037 A 
ATOM     43  C   UNL A   1      39.726  31.215  34.276  1.00  0.00     0.037 A 
ATOM     44  C   UNL A   1      42.822  27.276  30.061  1.00  0.00     0.049 A 
ATOM     45  C   UNL A   1      40.978  30.384  34.360  1.00  0.00     0.074 A 
ATOM     46  C   UNL A   1      44.025  26.618  30.243  1.00  0.00     0.029 A 
ATOM     47  N   UNL A   1      42.554  27.957  31.239  1.00  0.00    -0.354 N 
ATOM     48  N   UNL A   1      41.535  29.629  33.443  1.00  0.00    -0.248 NA
ATOM     49  C   UNL A   1      41.703  30.410  35.637  1.00  0.00     0.031 C 
ATOM     50  C   UNL A   1      44.460  26.859  31.550  1.00  0.00     0.029 A 
ATOM     51  C   UNL A   1      43.557  27.714  32.163  1.00  0.00     0.049 A 
ATOM     52  H   UNL A   1      41.768  28.529  31.396  1.00  0.00     0.167 HD
ATOM     53  C   UNL A   1      42.688  29.114  34.021  1.00  0.00     0.074 A 
ATOM     54  C   UNL A   1      42.758  29.657  35.362  1.00  0.00     0.031 C 
ATOM     55  C   UNL A   1      43.608  28.269  33.493  1.00  0.00     0.037 A 
BRANCH  42  56
ATOM     56  C   UNL A   1      42.359  26.448  27.718  1.00  0.00     0.057 A 
ATOM     57  C   UNL A   1      43.140  26.960  26.673  1.00  0.00     0.134 A 
ATOM     58  C   UNL A   1      41.972  25.104  27.634  1.00  0.00     0.134 A 
ATOM     59  F   UNL A   1      43.530  28.243  26.682  1.00  0.00    -0.206 F 
ATOM     60  C   UNL A   1      43.504  26.171  25.579  1.00  0.00     0.040 A 
ATOM     61  C   UNL A   1      42.353  24.299  26.559  1.00  0.00     0.040 A 
ATOM     62  F   UNL A   1      41.224  24.549  28.600  1.00  0.00    -0.206 F 
ATOM     63  C   UNL A   1      43.117  24.835  25.524  1.00  0.00     0.006 A 
ENDBRANCH  42  56
BRANCH  43  64
ATOM     64  C   UNL A   1      39.259  32.013  35.438  1.00  0.00     0.057 A 
ATOM     65  C   UNL A   1      38.424  31.459  36.414  1.00  0.00     0.134 A 
ATOM     66  C   UNL A   1      39.623  33.357  35.589  1.00  0.00     0.134 A 
ATOM     67  F   UNL A   1      38.025  30.182  36.315  1.00  0.00    -0.206 F 
ATOM     68  C   UNL A   1      37.950  32.215  37.487  1.00  0.00     0.040 A 
ATOM     69  C   UNL A   1      39.179  34.118  36.672  1.00  0.00     0.040 A 
ATOM     70  F   UNL A   1      40.423  33.948  34.689  1.00  0.00    -0.206 F 
ATOM     71  C   UNL A   1      38.332  33.550  37.620  1.00  0.00     0.006 A 
ENDBRANCH  43  64
BRANCH  55  72
ATOM     72  C   UNL A   1      44.783  27.911  34.356  1.00  0.00     0.057 A 
ATOM     73  C   UNL A   1      45.944  28.695  34.390  1.00  0.00     0.134 A 
ATOM     74  C   UNL A   1      44.740  26.783  35.184  1.00  0.00     0.134 A 
ATOM     75  F   UNL A   1      46.054  29.782  33.613  1.00  0.00    -0.206 F 
ATOM     76  C   UNL A   1      47.033  28.349  35.193  1.00  0.00     0.040 A 
ATOM     77  C   UNL A   1      45.809  26.444  36.014  1.00  0.00     0.040 A 
ATOM     78  F   UNL A   1      43.653  25.995  35.209  1.00  0.00    -0.206 F 
ATOM     79  C   UNL A   1      46.963  27.224  36.013  1.00  0.00     0.006 A 
ENDBRANCH  55  72
ENDBRANCH  29  30
ENDBRANCH  22  24
ENDBRANCH  21  22
ENDBRANCH  20  21
ENDBRANCH   1  20
TORSDOF 15
ENDMDL
