MODEL 1
REMARK VINA RESULT:     -10.9      0.000      0.000
REMARK SMILES O=C(Nc1nc(C2CC2)cs1)N[C@@H]1C=C[C@@H](C(=O)OCCOCCOC(=O)c2ccc(-c3c4nc(c(-c5c(F)cccc5F)c5ccc([nH]5)c(-c5c(F)cccc5F)c5nc(c(-c6c(F)cccc6F)c6ccc3[nH]6)C=C5)C=C4)cc2)C1
REMARK SMILES IDX 21 1 20 2 19 3 17 4 18 5 16 6 13 7 14 8 82 9 15 10 12 11
REMARK SMILES IDX 1 12 2 13 3 14 4 17 5 18 11 19 6 20 10 21 7 22 8 23 9 24
REMARK SMILES IDX 22 25 23 26 24 27 25 28 26 29 27 30 28 31 29 32 81 33 30 34
REMARK SMILES IDX 80 35 31 36 32 37 33 38 74 39 34 40 79 41 73 42 75 43 35 44
REMARK SMILES IDX 78 45 72 46 71 47 36 49 62 50 45 51 61 52 46 53 49 54 60 55
REMARK SMILES IDX 76 56 47 57 48 58 59 60 77 61 50 62 37 63 38 64 43 65 39 66
REMARK SMILES IDX 40 67 42 68 44 69 41 70 63 71 64 72 69 73 65 74 66 75 68 76
REMARK SMILES IDX 70 77 67 78 51 79 52 80 57 81 53 82 54 83 56 84 58 85 55 86
REMARK H PARENT 3 15 12 16 75 48 49 59
REMARK Flexibility Score: inf
ROOT
ATOM      1  C   UNL A   1      40.849  21.423  25.795  1.00  0.00     0.202 C 
ENDROOT
BRANCH   1   2
ATOM      2  C   UNL A   1      39.617  21.710  26.655  1.00  0.00     0.261 C 
BRANCH   2   3
ATOM      3  O   UNL A   1      38.508  22.086  25.824  1.00  0.00    -0.463 OA
BRANCH   3   4
ATOM      4  C   UNL A   1      38.041  23.350  25.995  1.00  0.00     0.312 C 
ATOM      5  O   UNL A   1      38.658  24.243  26.568  1.00  0.00    -0.252 OA
BRANCH   4   6
ATOM      6  C   UNL A   1      36.669  23.568  25.367  1.00  0.00     0.124 C 
ATOM      7  C   UNL A   1      35.135  22.814  23.625  1.00  0.00     0.107 C 
ATOM      8  C   UNL A   1      34.885  22.107  24.918  1.00  0.00    -0.006 C 
ATOM      9  C   UNL A   1      36.538  23.395  23.846  1.00  0.00     0.048 C 
ATOM     10  C   UNL A   1      35.713  22.529  25.881  1.00  0.00    -0.014 C 
BRANCH   7  11
ATOM     11  N   UNL A   1      34.013  23.703  23.412  1.00  0.00    -0.332 N 
ATOM     12  O   UNL A   1      33.486  23.359  21.208  1.00  0.00    -0.248 OA
ATOM     13  C   UNL A   1      33.274  23.902  22.288  1.00  0.00     0.321 C 
ATOM     14  N   UNL A   1      32.163  24.684  22.418  1.00  0.00    -0.284 N 
ATOM     15  H   UNL A   1      31.551  24.725  21.647  1.00  0.00     0.174 HD
ATOM     16  H   UNL A   1      33.747  24.239  24.192  1.00  0.00     0.165 HD
BRANCH  14  17
ATOM     17  C   UNL A   1      31.821  25.416  23.517  1.00  0.00     0.191 A 
ATOM     18  N   UNL A   1      32.605  26.132  24.285  1.00  0.00    -0.225 NA
ATOM     19  S   UNL A   1      30.172  25.350  23.945  1.00  0.00    -0.105 S 
ATOM     20  C   UNL A   1      31.851  26.669  25.311  1.00  0.00     0.057 A 
ATOM     21  C   UNL A   1      30.527  26.280  25.345  1.00  0.00     0.092 A 
BRANCH  20  22
ATOM     22  C   UNL A   1      32.435  27.645  26.324  1.00  0.00     0.039 C 
ATOM     23  C   UNL A   1      33.888  28.053  26.209  1.00  0.00     0.011 C 
ATOM     24  C   UNL A   1      32.821  29.020  25.820  1.00  0.00     0.011 C 
ENDBRANCH  20  22
ENDBRANCH  14  17
ENDBRANCH   7  11
ENDBRANCH   4   6
ENDBRANCH   3   4
ENDBRANCH   2   3
ENDBRANCH   1   2
BRANCH   1  25
ATOM     25  O   UNL A   1      42.068  21.218  26.510  1.00  0.00    -0.374 OA
BRANCH  25  26
ATOM     26  C   UNL A   1      43.211  20.803  25.759  1.00  0.00     0.202 C 
BRANCH  26  27
ATOM     27  C   UNL A   1      44.177  21.915  25.328  1.00  0.00     0.261 C 
BRANCH  27  28
ATOM     28  O   UNL A   1      43.492  23.104  24.887  1.00  0.00    -0.460 OA
BRANCH  28  29
ATOM     29  C   UNL A   1      44.162  24.260  25.104  1.00  0.00     0.338 C 
ATOM     30  O   UNL A   1      45.191  24.637  24.558  1.00  0.00    -0.246 OA
BRANCH  29  31
ATOM     31  C   UNL A   1      43.397  25.136  26.009  1.00  0.00     0.060 A 
ATOM     32  C   UNL A   1      43.832  26.461  26.150  1.00  0.00     0.016 A 
ATOM     33  C   UNL A   1      42.335  24.654  26.778  1.00  0.00     0.016 A 
ATOM     34  C   UNL A   1      43.236  27.296  27.093  1.00  0.00     0.010 A 
ATOM     35  C   UNL A   1      41.745  25.492  27.732  1.00  0.00     0.010 A 
ATOM     36  C   UNL A   1      42.214  26.806  27.917  1.00  0.00    -0.014 A 
BRANCH  36  37
ATOM     37  C   UNL A   1      41.737  27.627  29.056  1.00  0.00     0.031 A 
ATOM     38  C   UNL A   1      42.460  27.546  30.373  1.00  0.00     0.074 A 
ATOM     39  C   UNL A   1      40.693  28.462  28.913  1.00  0.00     0.049 A 
ATOM     40  N   UNL A   1      42.202  28.157  31.501  1.00  0.00    -0.248 NA
ATOM     41  C   UNL A   1      43.633  26.658  30.424  1.00  0.00     0.031 C 
ATOM     42  C   UNL A   1      39.933  28.661  27.680  1.00  0.00     0.029 A 
ATOM     43  N   UNL A   1      40.091  29.299  29.820  1.00  0.00    -0.354 N 
ATOM     44  C   UNL A   1      43.176  27.730  32.394  1.00  0.00     0.074 A 
ATOM     45  C   UNL A   1      44.014  26.785  31.687  1.00  0.00     0.031 C 
ATOM     46  C   UNL A   1      38.957  29.556  27.912  1.00  0.00     0.029 A 
ATOM     47  C   UNL A   1      39.007  29.971  29.313  1.00  0.00     0.049 A 
ATOM     48  H   UNL A   1      40.406  29.406  30.747  1.00  0.00     0.167 HD
ATOM     49  C   UNL A   1      43.362  28.097  33.684  1.00  0.00     0.037 A 
ATOM     50  C   UNL A   1      38.144  30.812  29.916  1.00  0.00     0.037 A 
ATOM     51  C   UNL A   1      42.532  29.037  34.390  1.00  0.00     0.049 A 
ATOM     52  C   UNL A   1      38.332  31.151  31.371  1.00  0.00     0.074 A 
ATOM     53  C   UNL A   1      42.652  29.483  35.695  1.00  0.00     0.029 A 
ATOM     54  N   UNL A   1      41.425  29.673  33.850  1.00  0.00    -0.354 N 
ATOM     55  N   UNL A   1      39.268  30.757  32.199  1.00  0.00    -0.248 NA
ATOM     56  C   UNL A   1      37.341  32.056  31.973  1.00  0.00     0.031 C 
ATOM     57  C   UNL A   1      41.593  30.358  35.958  1.00  0.00     0.029 A 
ATOM     58  C   UNL A   1      40.839  30.490  34.803  1.00  0.00     0.049 A 
ATOM     59  H   UNL A   1      41.103  29.560  32.927  1.00  0.00     0.167 HD
ATOM     60  C   UNL A   1      38.996  31.382  33.409  1.00  0.00     0.074 A 
ATOM     61  C   UNL A   1      37.812  32.192  33.205  1.00  0.00     0.031 C 
ATOM     62  C   UNL A   1      39.666  31.296  34.583  1.00  0.00     0.037 A 
BRANCH  49  63
ATOM     63  C   UNL A   1      44.503  27.466  34.425  1.00  0.00     0.057 A 
ATOM     64  C   UNL A   1      45.758  28.081  34.507  1.00  0.00     0.134 A 
ATOM     65  C   UNL A   1      44.332  26.249  35.096  1.00  0.00     0.134 A 
ATOM     66  F   UNL A   1      45.990  29.241  33.875  1.00  0.00    -0.206 F 
ATOM     67  C   UNL A   1      46.809  27.499  35.219  1.00  0.00     0.040 A 
ATOM     68  C   UNL A   1      45.368  25.668  35.828  1.00  0.00     0.040 A 
ATOM     69  F   UNL A   1      43.152  25.611  35.059  1.00  0.00    -0.206 F 
ATOM     70  C   UNL A   1      46.613  26.292  35.888  1.00  0.00     0.006 A 
ENDBRANCH  49  63
BRANCH  50  71
ATOM     71  C   UNL A   1      37.008  31.385  29.152  1.00  0.00     0.057 A 
ATOM     72  C   UNL A   1      37.033  32.706  28.694  1.00  0.00     0.134 A 
ATOM     73  C   UNL A   1      35.856  30.632  28.891  1.00  0.00     0.134 A 
ATOM     74  F   UNL A   1      38.098  33.484  28.935  1.00  0.00    -0.206 F 
ATOM     75  C   UNL A   1      35.949  33.265  28.015  1.00  0.00     0.040 A 
ATOM     76  C   UNL A   1      34.773  31.170  28.195  1.00  0.00     0.040 A 
ATOM     77  F   UNL A   1      35.770  29.360  29.307  1.00  0.00    -0.206 F 
ATOM     78  C   UNL A   1      34.815  32.493  27.761  1.00  0.00     0.006 A 
ENDBRANCH  50  71
BRANCH  62  79
ATOM     79  C   UNL A   1      39.158  32.120  35.730  1.00  0.00     0.057 A 
ATOM     80  C   UNL A   1      39.518  33.464  35.890  1.00  0.00     0.134 A 
ATOM     81  C   UNL A   1      38.266  31.573  36.662  1.00  0.00     0.134 A 
ATOM     82  F   UNL A   1      40.379  34.043  35.038  1.00  0.00    -0.206 F 
ATOM     83  C   UNL A   1      39.024  34.229  36.947  1.00  0.00     0.040 A 
ATOM     84  C   UNL A   1      37.747  32.335  37.709  1.00  0.00     0.040 A 
ATOM     85  F   UNL A   1      37.874  30.295  36.560  1.00  0.00    -0.206 F 
ATOM     86  C   UNL A   1      38.130  33.667  37.857  1.00  0.00     0.006 A 
ENDBRANCH  62  79
ENDBRANCH  36  37
ENDBRANCH  29  31
ENDBRANCH  28  29
ENDBRANCH  27  28
ENDBRANCH  26  27
ENDBRANCH  25  26
ENDBRANCH   1  25
TORSDOF 17
ENDMDL
MODEL 2
REMARK VINA RESULT:     -10.7      4.676      9.718
REMARK SMILES O=C(Nc1nc(C2CC2)cs1)N[C@@H]1C=C[C@@H](C(=O)OCCOCCOC(=O)c2ccc(-c3c4nc(c(-c5c(F)cccc5F)c5ccc([nH]5)c(-c5c(F)cccc5F)c5nc(c(-c6c(F)cccc6F)c6ccc3[nH]6)C=C5)C=C4)cc2)C1
REMARK SMILES IDX 21 1 20 2 19 3 17 4 18 5 16 6 13 7 14 8 82 9 15 10 12 11
REMARK SMILES IDX 1 12 2 13 3 14 4 17 5 18 11 19 6 20 10 21 7 22 8 23 9 24
REMARK SMILES IDX 22 25 23 26 24 27 25 28 26 29 27 30 28 31 29 32 81 33 30 34
REMARK SMILES IDX 80 35 31 36 32 37 33 38 74 39 34 40 79 41 73 42 75 43 35 44
REMARK SMILES IDX 78 45 72 46 71 47 36 49 62 50 45 51 61 52 46 53 49 54 60 55
REMARK SMILES IDX 76 56 47 57 48 58 59 60 77 61 50 62 37 63 38 64 43 65 39 66
REMARK SMILES IDX 40 67 42 68 44 69 41 70 63 71 64 72 69 73 65 74 66 75 68 76
REMARK SMILES IDX 70 77 67 78 51 79 52 80 57 81 53 82 54 83 56 84 58 85 55 86
REMARK H PARENT 3 15 12 16 75 48 49 59
REMARK Flexibility Score: inf
ROOT
ATOM      1  C   UNL A   1      35.005  33.416  28.247  1.00  0.00     0.202 C 
ENDROOT
BRANCH   1   2
ATOM      2  C   UNL A   1      35.442  32.065  27.678  1.00  0.00     0.261 C 
BRANCH   2   3
ATOM      3  O   UNL A   1      34.384  31.104  27.812  1.00  0.00    -0.463 OA
BRANCH   3   4
ATOM      4  C   UNL A   1      34.677  29.840  27.410  1.00  0.00     0.312 C 
ATOM      5  O   UNL A   1      35.750  29.281  27.615  1.00  0.00    -0.252 OA
BRANCH   4   6
ATOM      6  C   UNL A   1      33.516  29.158  26.695  1.00  0.00     0.124 C 
ATOM      7  C   UNL A   1      32.221  27.097  26.519  1.00  0.00     0.107 C 
ATOM      8  C   UNL A   1      31.601  28.052  27.488  1.00  0.00    -0.006 C 
ATOM      9  C   UNL A   1      33.642  27.659  26.383  1.00  0.00     0.048 C 
ATOM     10  C   UNL A   1      32.298  29.190  27.575  1.00  0.00    -0.014 C 
BRANCH   7  11
ATOM     11  N   UNL A   1      31.351  27.052  25.364  1.00  0.00    -0.332 N 
ATOM     12  O   UNL A   1      30.909  24.815  25.130  1.00  0.00    -0.248 OA
ATOM     13  C   UNL A   1      30.755  25.981  24.775  1.00  0.00     0.321 C 
ATOM     14  N   UNL A   1      29.848  26.249  23.791  1.00  0.00    -0.284 N 
ATOM     15  H   UNL A   1      29.316  25.492  23.454  1.00  0.00     0.174 HD
ATOM     16  H   UNL A   1      31.164  27.922  24.943  1.00  0.00     0.165 HD
BRANCH  14  17
ATOM     17  C   UNL A   1      29.611  27.469  23.230  1.00  0.00     0.191 A 
ATOM     18  N   UNL A   1      28.500  28.164  23.252  1.00  0.00    -0.225 NA
ATOM     19  S   UNL A   1      30.923  28.139  22.373  1.00  0.00    -0.105 S 
ATOM     20  C   UNL A   1      28.687  29.322  22.521  1.00  0.00     0.057 A 
ATOM     21  C   UNL A   1      29.909  29.439  21.891  1.00  0.00     0.092 A 
BRANCH  20  22
ATOM     22  C   UNL A   1      27.623  30.409  22.434  1.00  0.00     0.039 C 
ATOM     23  C   UNL A   1      27.491  31.409  23.562  1.00  0.00     0.011 C 
ATOM     24  C   UNL A   1      28.102  31.837  22.269  1.00  0.00     0.011 C 
ENDBRANCH  20  22
ENDBRANCH  14  17
ENDBRANCH   7  11
ENDBRANCH   4   6
ENDBRANCH   3   4
ENDBRANCH   2   3
ENDBRANCH   1   2
BRANCH   1  25
ATOM     25  O   UNL A   1      34.268  33.362  29.469  1.00  0.00    -0.374 OA
BRANCH  25  26
ATOM     26  C   UNL A   1      34.626  34.289  30.496  1.00  0.00     0.202 C 
BRANCH  26  27
ATOM     27  C   UNL A   1      34.489  33.785  31.939  1.00  0.00     0.261 C 
BRANCH  27  28
ATOM     28  O   UNL A   1      34.850  32.397  32.077  1.00  0.00    -0.460 OA
BRANCH  28  29
ATOM     29  C   UNL A   1      35.944  32.166  32.841  1.00  0.00     0.338 C 
ATOM     30  O   UNL A   1      36.090  32.425  34.029  1.00  0.00    -0.246 OA
BRANCH  29  31
ATOM     31  C   UNL A   1      36.943  31.389  32.087  1.00  0.00     0.060 A 
ATOM     32  C   UNL A   1      38.053  30.904  32.792  1.00  0.00     0.016 A 
ATOM     33  C   UNL A   1      36.853  31.217  30.704  1.00  0.00     0.016 A 
ATOM     34  C   UNL A   1      39.098  30.283  32.111  1.00  0.00     0.010 A 
ATOM     35  C   UNL A   1      37.909  30.603  30.020  1.00  0.00     0.010 A 
ATOM     36  C   UNL A   1      39.051  30.163  30.715  1.00  0.00    -0.014 A 
BRANCH  36  37
ATOM     37  C   UNL A   1      40.253  29.700  29.980  1.00  0.00     0.031 A 
ATOM     38  C   UNL A   1      41.392  30.658  29.760  1.00  0.00     0.074 A 
ATOM     39  C   UNL A   1      40.348  28.432  29.544  1.00  0.00     0.049 A 
ATOM     40  N   UNL A   1      42.523  30.473  29.129  1.00  0.00    -0.248 NA
ATOM     41  C   UNL A   1      41.234  32.007  30.329  1.00  0.00     0.031 C 
ATOM     42  C   UNL A   1      39.333  27.397  29.727  1.00  0.00     0.029 A 
ATOM     43  N   UNL A   1      41.351  27.802  28.850  1.00  0.00    -0.354 N 
ATOM     44  C   UNL A   1      43.211  31.675  29.224  1.00  0.00     0.074 A 
ATOM     45  C   UNL A   1      42.359  32.595  29.948  1.00  0.00     0.031 C 
ATOM     46  C   UNL A   1      39.761  26.261  29.150  1.00  0.00     0.029 A 
ATOM     47  C   UNL A   1      41.066  26.497  28.535  1.00  0.00     0.049 A 
ATOM     48  H   UNL A   1      42.196  28.244  28.602  1.00  0.00     0.167 HD
ATOM     49  C   UNL A   1      44.445  31.985  28.758  1.00  0.00     0.037 A 
ATOM     50  C   UNL A   1      41.771  25.601  27.816  1.00  0.00     0.037 A 
ATOM     51  C   UNL A   1      45.295  31.073  28.039  1.00  0.00     0.049 A 
ATOM     52  C   UNL A   1      43.109  25.992  27.250  1.00  0.00     0.074 A 
ATOM     53  C   UNL A   1      46.568  31.293  27.541  1.00  0.00     0.029 A 
ATOM     54  N   UNL A   1      44.957  29.770  27.713  1.00  0.00    -0.354 N 
ATOM     55  N   UNL A   1      43.758  27.125  27.363  1.00  0.00    -0.248 NA
ATOM     56  C   UNL A   1      43.815  24.974  26.455  1.00  0.00     0.031 C 
ATOM     57  C   UNL A   1      46.983  30.134  26.876  1.00  0.00     0.029 A 
ATOM     58  C   UNL A   1      45.986  29.179  26.999  1.00  0.00     0.049 A 
ATOM     59  H   UNL A   1      44.110  29.329  27.952  1.00  0.00     0.167 HD
ATOM     60  C   UNL A   1      44.955  26.950  26.680  1.00  0.00     0.074 A 
ATOM     61  C   UNL A   1      44.949  25.597  26.163  1.00  0.00     0.031 C 
ATOM     62  C   UNL A   1      45.969  27.829  26.497  1.00  0.00     0.037 A 
BRANCH  49  63
ATOM     63  C   UNL A   1      44.945  33.378  28.999  1.00  0.00     0.057 A 
ATOM     64  C   UNL A   1      45.713  33.701  30.124  1.00  0.00     0.134 A 
ATOM     65  C   UNL A   1      44.688  34.398  28.074  1.00  0.00     0.134 A 
ATOM     66  F   UNL A   1      45.983  32.772  31.052  1.00  0.00    -0.206 F 
ATOM     67  C   UNL A   1      46.197  34.995  30.329  1.00  0.00     0.040 A 
ATOM     68  C   UNL A   1      45.183  35.690  28.257  1.00  0.00     0.040 A 
ATOM     69  F   UNL A   1      43.961  34.152  26.973  1.00  0.00    -0.206 F 
ATOM     70  C   UNL A   1      45.937  35.992  29.390  1.00  0.00     0.006 A 
ENDBRANCH  49  63
BRANCH  50  71
ATOM     71  C   UNL A   1      41.219  24.244  27.573  1.00  0.00     0.057 A 
ATOM     72  C   UNL A   1      40.187  24.034  26.654  1.00  0.00     0.134 A 
ATOM     73  C   UNL A   1      41.693  23.132  28.280  1.00  0.00     0.134 A 
ATOM     74  F   UNL A   1      39.674  25.065  25.966  1.00  0.00    -0.206 F 
ATOM     75  C   UNL A   1      39.632  22.769  26.455  1.00  0.00     0.040 A 
ATOM     76  C   UNL A   1      41.163  21.857  28.075  1.00  0.00     0.040 A 
ATOM     77  F   UNL A   1      42.679  23.269  29.177  1.00  0.00    -0.206 F 
ATOM     78  C   UNL A   1      40.124  21.675  27.165  1.00  0.00     0.006 A 
ENDBRANCH  50  71
BRANCH  62  79
ATOM     79  C   UNL A   1      47.170  27.350  25.737  1.00  0.00     0.057 A 
ATOM     80  C   UNL A   1      47.305  27.562  24.359  1.00  0.00     0.134 A 
ATOM     81  C   UNL A   1      48.223  26.703  26.398  1.00  0.00     0.134 A 
ATOM     82  F   UNL A   1      46.326  28.164  23.665  1.00  0.00    -0.206 F 
ATOM     83  C   UNL A   1      48.435  27.131  23.663  1.00  0.00     0.040 A 
ATOM     84  C   UNL A   1      49.368  26.289  25.717  1.00  0.00     0.040 A 
ATOM     85  F   UNL A   1      48.160  26.477  27.719  1.00  0.00    -0.206 F 
ATOM     86  C   UNL A   1      49.474  26.498  24.343  1.00  0.00     0.006 A 
ENDBRANCH  62  79
ENDBRANCH  36  37
ENDBRANCH  29  31
ENDBRANCH  28  29
ENDBRANCH  27  28
ENDBRANCH  26  27
ENDBRANCH  25  26
ENDBRANCH   1  25
TORSDOF 17
ENDMDL
MODEL 3
REMARK VINA RESULT:     -10.4      3.865      8.881
REMARK SMILES O=C(Nc1nc(C2CC2)cs1)N[C@@H]1C=C[C@@H](C(=O)OCCOCCOC(=O)c2ccc(-c3c4nc(c(-c5c(F)cccc5F)c5ccc([nH]5)c(-c5c(F)cccc5F)c5nc(c(-c6c(F)cccc6F)c6ccc3[nH]6)C=C5)C=C4)cc2)C1
REMARK SMILES IDX 21 1 20 2 19 3 17 4 18 5 16 6 13 7 14 8 82 9 15 10 12 11
REMARK SMILES IDX 1 12 2 13 3 14 4 17 5 18 11 19 6 20 10 21 7 22 8 23 9 24
REMARK SMILES IDX 22 25 23 26 24 27 25 28 26 29 27 30 28 31 29 32 81 33 30 34
REMARK SMILES IDX 80 35 31 36 32 37 33 38 74 39 34 40 79 41 73 42 75 43 35 44
REMARK SMILES IDX 78 45 72 46 71 47 36 49 62 50 45 51 61 52 46 53 49 54 60 55
REMARK SMILES IDX 76 56 47 57 48 58 59 60 77 61 50 62 37 63 38 64 43 65 39 66
REMARK SMILES IDX 40 67 42 68 44 69 41 70 63 71 64 72 69 73 65 74 66 75 68 76
REMARK SMILES IDX 70 77 67 78 51 79 52 80 57 81 53 82 54 83 56 84 58 85 55 86
REMARK H PARENT 3 15 12 16 75 48 49 59
REMARK Flexibility Score: inf
ROOT
ATOM      1  C   UNL A   1      35.159  33.704  28.847  1.00  0.00     0.202 C 
ENDROOT
BRANCH   1   2
ATOM      2  C   UNL A   1      34.752  32.288  29.259  1.00  0.00     0.261 C 
BRANCH   2   3
ATOM      3  O   UNL A   1      33.980  31.671  28.217  1.00  0.00    -0.463 OA
BRANCH   3   4
ATOM      4  C   UNL A   1      34.602  30.679  27.528  1.00  0.00     0.312 C 
ATOM      5  O   UNL A   1      35.799  30.422  27.615  1.00  0.00    -0.252 OA
BRANCH   4   6
ATOM      6  C   UNL A   1      33.650  29.881  26.645  1.00  0.00     0.124 C 
ATOM      7  C   UNL A   1      32.742  27.660  26.195  1.00  0.00     0.107 C 
ATOM      8  C   UNL A   1      31.876  28.424  27.145  1.00  0.00    -0.006 C 
ATOM      9  C   UNL A   1      34.055  28.450  26.257  1.00  0.00     0.048 C 
ATOM     10  C   UNL A   1      32.360  29.648  27.381  1.00  0.00    -0.014 C 
BRANCH   7  11
ATOM     11  N   UNL A   1      32.014  27.570  24.948  1.00  0.00    -0.332 N 
ATOM     12  O   UNL A   1      33.376  26.269  23.642  1.00  0.00    -0.248 OA
ATOM     13  C   UNL A   1      32.336  26.900  23.809  1.00  0.00     0.321 C 
ATOM     14  N   UNL A   1      31.380  26.853  22.836  1.00  0.00    -0.284 N 
ATOM     15  H   UNL A   1      31.553  26.261  22.068  1.00  0.00     0.174 HD
ATOM     16  H   UNL A   1      31.164  28.064  24.920  1.00  0.00     0.165 HD
BRANCH  14  17
ATOM     17  C   UNL A   1      30.209  27.551  22.828  1.00  0.00     0.191 A 
ATOM     18  N   UNL A   1      29.979  28.735  22.315  1.00  0.00    -0.225 NA
ATOM     19  S   UNL A   1      28.906  26.785  23.617  1.00  0.00    -0.105 S 
ATOM     20  C   UNL A   1      28.666  29.082  22.572  1.00  0.00     0.057 A 
ATOM     21  C   UNL A   1      27.954  28.190  23.348  1.00  0.00     0.092 A 
BRANCH  20  22
ATOM     22  C   UNL A   1      28.038  30.354  22.018  1.00  0.00     0.039 C 
ATOM     23  C   UNL A   1      27.665  31.472  22.967  1.00  0.00     0.011 C 
ATOM     24  C   UNL A   1      28.862  31.623  22.090  1.00  0.00     0.011 C 
ENDBRANCH  20  22
ENDBRANCH  14  17
ENDBRANCH   7  11
ENDBRANCH   4   6
ENDBRANCH   3   4
ENDBRANCH   2   3
ENDBRANCH   1   2
BRANCH   1  25
ATOM     25  O   UNL A   1      34.162  34.458  28.158  1.00  0.00    -0.374 OA
BRANCH  25  26
ATOM     26  C   UNL A   1      34.021  35.837  28.505  1.00  0.00     0.202 C 
BRANCH  26  27
ATOM     27  C   UNL A   1      32.857  36.183  29.442  1.00  0.00     0.261 C 
BRANCH  27  28
ATOM     28  O   UNL A   1      32.622  35.164  30.434  1.00  0.00    -0.460 OA
BRANCH  28  29
ATOM     29  C   UNL A   1      32.756  35.576  31.717  1.00  0.00     0.338 C 
ATOM     30  O   UNL A   1      31.996  36.297  32.349  1.00  0.00    -0.246 OA
BRANCH  29  31
ATOM     31  C   UNL A   1      33.901  34.904  32.356  1.00  0.00     0.060 A 
ATOM     32  C   UNL A   1      35.150  35.537  32.276  1.00  0.00     0.016 A 
ATOM     33  C   UNL A   1      33.785  33.640  32.937  1.00  0.00     0.016 A 
ATOM     34  C   UNL A   1      36.293  34.888  32.738  1.00  0.00     0.010 A 
ATOM     35  C   UNL A   1      34.936  32.986  33.391  1.00  0.00     0.010 A 
ATOM     36  C   UNL A   1      36.199  33.592  33.264  1.00  0.00    -0.014 A 
BRANCH  36  37
ATOM     37  C   UNL A   1      37.438  32.829  33.552  1.00  0.00     0.031 A 
ATOM     38  C   UNL A   1      38.197  33.110  34.820  1.00  0.00     0.074 A 
ATOM     39  C   UNL A   1      37.866  31.870  32.712  1.00  0.00     0.049 A 
ATOM     40  N   UNL A   1      39.309  32.579  35.258  1.00  0.00    -0.248 NA
ATOM     41  C   UNL A   1      37.622  34.128  35.715  1.00  0.00     0.031 C 
ATOM     42  C   UNL A   1      37.201  31.474  31.472  1.00  0.00     0.029 A 
ATOM     43  N   UNL A   1      38.969  31.055  32.778  1.00  0.00    -0.354 N 
ATOM     44  C   UNL A   1      39.568  33.194  36.476  1.00  0.00     0.074 A 
ATOM     45  C   UNL A   1      38.514  34.161  36.695  1.00  0.00     0.031 C 
ATOM     46  C   UNL A   1      37.917  30.498  30.888  1.00  0.00     0.029 A 
ATOM     47  C   UNL A   1      39.102  30.221  31.698  1.00  0.00     0.049 A 
ATOM     48  H   UNL A   1      39.606  31.070  33.530  1.00  0.00     0.167 HD
ATOM     49  C   UNL A   1      40.588  32.969  37.338  1.00  0.00     0.037 A 
ATOM     50  C   UNL A   1      40.079  29.344  31.389  1.00  0.00     0.037 A 
ATOM     51  C   UNL A   1      41.637  32.008  37.124  1.00  0.00     0.049 A 
ATOM     52  C   UNL A   1      41.238  29.162  32.332  1.00  0.00     0.074 A 
ATOM     53  C   UNL A   1      42.705  31.699  37.950  1.00  0.00     0.029 A 
ATOM     54  N   UNL A   1      41.753  31.203  36.002  1.00  0.00    -0.354 N 
ATOM     55  N   UNL A   1      41.462  29.735  33.489  1.00  0.00    -0.248 NA
ATOM     56  C   UNL A   1      42.281  28.209  31.923  1.00  0.00     0.031 C 
ATOM     57  C   UNL A   1      43.491  30.736  37.307  1.00  0.00     0.029 A 
ATOM     58  C   UNL A   1      42.888  30.414  36.102  1.00  0.00     0.049 A 
ATOM     59  H   UNL A   1      41.124  31.194  35.245  1.00  0.00     0.167 HD
ATOM     60  C   UNL A   1      42.652  29.194  33.959  1.00  0.00     0.074 A 
ATOM     61  C   UNL A   1      43.100  28.239  32.966  1.00  0.00     0.031 C 
ATOM     62  C   UNL A   1      43.316  29.463  35.109  1.00  0.00     0.037 A 
BRANCH  49  63
ATOM     63  C   UNL A   1      40.627  33.791  38.592  1.00  0.00     0.057 A 
ATOM     64  C   UNL A   1      39.911  33.423  39.737  1.00  0.00     0.134 A 
ATOM     65  C   UNL A   1      41.421  34.942  38.666  1.00  0.00     0.134 A 
ATOM     66  F   UNL A   1      39.122  32.338  39.727  1.00  0.00    -0.206 F 
ATOM     67  C   UNL A   1      39.972  34.180  40.909  1.00  0.00     0.040 A 
ATOM     68  C   UNL A   1      41.506  35.695  39.837  1.00  0.00     0.040 A 
ATOM     69  F   UNL A   1      42.135  35.346  37.604  1.00  0.00    -0.206 F 
ATOM     70  C   UNL A   1      40.777  35.316  40.963  1.00  0.00     0.006 A 
ENDBRANCH  49  63
BRANCH  50  71
ATOM     71  C   UNL A   1      40.016  28.578  30.119  1.00  0.00     0.057 A 
ATOM     72  C   UNL A   1      40.651  29.038  28.961  1.00  0.00     0.134 A 
ATOM     73  C   UNL A   1      39.291  27.383  30.028  1.00  0.00     0.134 A 
ATOM     74  F   UNL A   1      41.339  30.189  28.980  1.00  0.00    -0.206 F 
ATOM     75  C   UNL A   1      40.557  28.346  27.752  1.00  0.00     0.040 A 
ATOM     76  C   UNL A   1      39.207  26.670  28.832  1.00  0.00     0.040 A 
ATOM     77  F   UNL A   1      38.658  26.892  31.102  1.00  0.00    -0.206 F 
ATOM     78  C   UNL A   1      39.835  27.155  27.687  1.00  0.00     0.006 A 
ENDBRANCH  50  71
BRANCH  62  79
ATOM     79  C   UNL A   1      44.576  28.693  35.374  1.00  0.00     0.057 A 
ATOM     80  C   UNL A   1      44.563  27.461  36.039  1.00  0.00     0.134 A 
ATOM     81  C   UNL A   1      45.813  29.172  34.924  1.00  0.00     0.134 A 
ATOM     82  F   UNL A   1      43.412  26.953  36.506  1.00  0.00    -0.206 F 
ATOM     83  C   UNL A   1      45.737  26.741  36.263  1.00  0.00     0.040 A 
ATOM     84  C   UNL A   1      46.991  28.451  35.121  1.00  0.00     0.040 A 
ATOM     85  F   UNL A   1      45.894  30.342  34.272  1.00  0.00    -0.206 F 
ATOM     86  C   UNL A   1      46.956  27.233  35.797  1.00  0.00     0.006 A 
ENDBRANCH  62  79
ENDBRANCH  36  37
ENDBRANCH  29  31
ENDBRANCH  28  29
ENDBRANCH  27  28
ENDBRANCH  26  27
ENDBRANCH  25  26
ENDBRANCH   1  25
TORSDOF 17
ENDMDL
