MODEL 1
REMARK VINA RESULT:     -10.9      0.000      0.000
REMARK SMILES CC(C)[NH2+][C@@]1(C(=O)OCCOCCOC(=O)c2ccc(-c3c4nc(c(-c5c(F)cccc5F)c5ccc([nH]5)c(-c5c(F)cccc5F)c5nc(c(-c6c(F)cccc6F)c6ccc3[nH]6)C=C5)C=C4)cc2)CCC[C@@H]1CCOC1CCOCC1
REMARK SMILES IDX 10 1 9 2 8 3 6 4 7 5 5 6 71 7 74 8 72 9 73 10 4 11 2 14 1 15
REMARK SMILES IDX 3 16 75 17 76 18 77 19 78 20 79 21 83 22 80 23 82 24 81 25
REMARK SMILES IDX 11 26 12 27 13 28 14 29 15 30 16 31 17 32 18 33 70 34 19 35
REMARK SMILES IDX 69 36 20 37 21 38 22 39 63 40 23 41 68 42 62 43 64 44 24 45
REMARK SMILES IDX 67 46 61 47 60 48 25 50 51 51 34 52 50 53 35 54 38 55 49 56
REMARK SMILES IDX 65 57 36 58 37 59 48 61 66 62 39 63 26 64 27 65 32 66 28 67
REMARK SMILES IDX 29 68 31 69 33 70 30 71 52 72 53 73 58 74 54 75 55 76 57 77
REMARK SMILES IDX 59 78 56 79 40 80 41 81 46 82 42 83 43 84 45 85 47 86 44 87
REMARK H PARENT 4 12 4 13 64 49 38 60
REMARK Flexibility Score: inf
ROOT
ATOM      1  C   UNL A   1      34.235  22.900  25.350  1.00  0.00     0.202 C 
ENDROOT
BRANCH   1   2
ATOM      2  C   UNL A   1      34.651  24.091  24.488  1.00  0.00     0.261 C 
BRANCH   2   3
ATOM      3  O   UNL A   1      34.431  25.348  25.147  1.00  0.00    -0.459 OA
BRANCH   3   4
ATOM      4  C   UNL A   1      33.675  26.226  24.438  1.00  0.00     0.368 C 
ATOM      5  O   UNL A   1      33.629  26.242  23.209  1.00  0.00    -0.245 OA
BRANCH   4   6
ATOM      6  C   UNL A   1      32.869  27.233  25.322  1.00  0.00     0.197 C 
ATOM      7  C   UNL A   1      32.412  26.393  26.538  1.00  0.00     0.081 C 
ATOM      8  C   UNL A   1      31.427  27.678  24.830  1.00  0.00     0.065 C 
ATOM      9  C   UNL A   1      31.187  25.607  26.046  1.00  0.00     0.008 C 
ATOM     10  C   UNL A   1      30.650  26.355  24.824  1.00  0.00     0.011 C 
BRANCH   6  11
ATOM     11  N   UNL A   1      33.731  28.401  25.648  1.00  0.00    -0.330 N 
ATOM     12  H   UNL A   1      34.695  28.103  25.497  1.00  0.00     0.347 HD
ATOM     13  H   UNL A   1      33.355  29.135  25.047  1.00  0.00     0.347 HD
BRANCH  11  14
ATOM     14  C   UNL A   1      33.688  29.022  26.988  1.00  0.00     0.176 C 
ATOM     15  C   UNL A   1      35.128  29.371  27.414  1.00  0.00     0.075 C 
ATOM     16  C   UNL A   1      32.871  30.313  27.060  1.00  0.00     0.075 C 
ENDBRANCH  11  14
ENDBRANCH   6  11
BRANCH   8  17
ATOM     17  C   UNL A   1      31.193  28.544  23.582  1.00  0.00     0.039 C 
BRANCH  17  18
ATOM     18  C   UNL A   1      29.891  28.365  22.754  1.00  0.00     0.161 C 
BRANCH  18  19
ATOM     19  O   UNL A   1      28.830  29.254  23.082  1.00  0.00    -0.378 OA
BRANCH  19  20
ATOM     20  C   UNL A   1      28.828  30.586  22.547  1.00  0.00     0.122 C 
ATOM     21  C   UNL A   1      28.517  31.724  23.511  1.00  0.00     0.060 C 
ATOM     22  C   UNL A   1      27.976  30.782  21.288  1.00  0.00     0.060 C 
ATOM     23  C   UNL A   1      28.754  33.068  22.870  1.00  0.00     0.163 C 
ATOM     24  C   UNL A   1      28.237  32.193  20.740  1.00  0.00     0.163 C 
ATOM     25  O   UNL A   1      27.941  33.198  21.712  1.00  0.00    -0.381 OA
ENDBRANCH  19  20
ENDBRANCH  18  19
ENDBRANCH  17  18
ENDBRANCH   8  17
ENDBRANCH   4   6
ENDBRANCH   3   4
ENDBRANCH   2   3
ENDBRANCH   1   2
BRANCH   1  26
ATOM     26  O   UNL A   1      35.277  22.132  25.944  1.00  0.00    -0.374 OA
BRANCH  26  27
ATOM     27  C   UNL A   1      35.595  20.873  25.343  1.00  0.00     0.202 C 
BRANCH  27  28
ATOM     28  C   UNL A   1      36.996  20.734  24.719  1.00  0.00     0.261 C 
BRANCH  28  29
ATOM     29  O   UNL A   1      37.892  21.786  25.149  1.00  0.00    -0.460 OA
BRANCH  29  30
ATOM     30  C   UNL A   1      38.950  21.372  25.888  1.00  0.00     0.338 C 
ATOM     31  O   UNL A   1      39.550  20.316  25.788  1.00  0.00    -0.246 OA
BRANCH  30  32
ATOM     32  C   UNL A   1      39.469  22.491  26.703  1.00  0.00     0.060 A 
ATOM     33  C   UNL A   1      38.886  23.746  26.492  1.00  0.00     0.016 A 
ATOM     34  C   UNL A   1      40.560  22.355  27.564  1.00  0.00     0.016 A 
ATOM     35  C   UNL A   1      39.429  24.879  27.089  1.00  0.00     0.010 A 
ATOM     36  C   UNL A   1      41.110  23.501  28.161  1.00  0.00     0.010 A 
ATOM     37  C   UNL A   1      40.578  24.774  27.886  1.00  0.00    -0.014 A 
BRANCH  37  38
ATOM     38  C   UNL A   1      41.273  26.036  28.258  1.00  0.00     0.031 A 
ATOM     39  C   UNL A   1      42.673  26.280  27.757  1.00  0.00     0.074 A 
ATOM     40  C   UNL A   1      40.614  27.019  28.899  1.00  0.00     0.049 A 
ATOM     41  N   UNL A   1      43.390  27.376  27.797  1.00  0.00    -0.248 NA
ATOM     42  C   UNL A   1      43.352  25.144  27.117  1.00  0.00     0.031 C 
ATOM     43  C   UNL A   1      39.248  26.925  29.409  1.00  0.00     0.029 A 
ATOM     44  N   UNL A   1      40.998  28.304  29.198  1.00  0.00    -0.354 N 
ATOM     45  C   UNL A   1      44.594  27.066  27.177  1.00  0.00     0.074 A 
ATOM     46  C   UNL A   1      44.531  25.666  26.812  1.00  0.00     0.031 C 
ATOM     47  C   UNL A   1      38.897  28.110  29.936  1.00  0.00     0.029 A 
ATOM     48  C   UNL A   1      40.017  29.041  29.814  1.00  0.00     0.049 A 
ATOM     49  H   UNL A   1      41.892  28.661  28.990  1.00  0.00     0.167 HD
ATOM     50  C   UNL A   1      45.651  27.872  26.916  1.00  0.00     0.037 A 
ATOM     51  C   UNL A   1      40.018  30.325  30.224  1.00  0.00     0.037 A 
ATOM     52  C   UNL A   1      45.723  29.264  27.278  1.00  0.00     0.049 A 
ATOM     53  C   UNL A   1      41.224  31.188  29.966  1.00  0.00     0.074 A 
ATOM     54  C   UNL A   1      46.749  30.165  27.046  1.00  0.00     0.029 A 
ATOM     55  N   UNL A   1      44.732  29.957  27.956  1.00  0.00    -0.354 N 
ATOM     56  N   UNL A   1      42.340  30.891  29.345  1.00  0.00    -0.248 NA
ATOM     57  C   UNL A   1      41.162  32.573  30.455  1.00  0.00     0.031 C 
ATOM     58  C   UNL A   1      46.401  31.388  27.630  1.00  0.00     0.029 A 
ATOM     59  C   UNL A   1      45.132  31.266  28.172  1.00  0.00     0.049 A 
ATOM     60  H   UNL A   1      43.870  29.575  28.242  1.00  0.00     0.167 HD
ATOM     61  C   UNL A   1      43.098  32.057  29.342  1.00  0.00     0.074 A 
ATOM     62  C   UNL A   1      42.304  33.071  30.005  1.00  0.00     0.031 C 
ATOM     63  C   UNL A   1      44.338  32.269  28.836  1.00  0.00     0.037 A 
BRANCH  50  64
ATOM     64  C   UNL A   1      46.833  27.259  26.220  1.00  0.00     0.057 A 
ATOM     65  C   UNL A   1      47.832  26.568  26.921  1.00  0.00     0.134 A 
ATOM     66  C   UNL A   1      46.957  27.331  24.827  1.00  0.00     0.134 A 
ATOM     67  F   UNL A   1      47.782  26.474  28.259  1.00  0.00    -0.206 F 
ATOM     68  C   UNL A   1      48.921  25.993  26.264  1.00  0.00     0.040 A 
ATOM     69  C   UNL A   1      48.026  26.737  24.155  1.00  0.00     0.040 A 
ATOM     70  F   UNL A   1      46.034  27.973  24.094  1.00  0.00    -0.206 F 
ATOM     71  C   UNL A   1      49.016  26.070  24.876  1.00  0.00     0.006 A 
ENDBRANCH  50  64
BRANCH  51  72
ATOM     72  C   UNL A   1      38.828  30.884  30.919  1.00  0.00     0.057 A 
ATOM     73  C   UNL A   1      37.799  31.519  30.212  1.00  0.00     0.134 A 
ATOM     74  C   UNL A   1      38.709  30.821  32.312  1.00  0.00     0.134 A 
ATOM     75  F   UNL A   1      37.867  31.635  28.878  1.00  0.00    -0.206 F 
ATOM     76  C   UNL A   1      36.707  32.091  30.868  1.00  0.00     0.040 A 
ATOM     77  C   UNL A   1      37.609  31.363  32.978  1.00  0.00     0.040 A 
ATOM     78  F   UNL A   1      39.660  30.226  33.046  1.00  0.00    -0.206 F 
ATOM     79  C   UNL A   1      36.607  32.008  32.256  1.00  0.00     0.006 A 
ENDBRANCH  51  72
BRANCH  63  80
ATOM     80  C   UNL A   1      44.897  33.660  28.950  1.00  0.00     0.057 A 
ATOM     81  C   UNL A   1      44.682  34.633  27.965  1.00  0.00     0.134 A 
ATOM     82  C   UNL A   1      45.660  34.032  30.066  1.00  0.00     0.134 A 
ATOM     83  F   UNL A   1      43.968  34.342  26.866  1.00  0.00    -0.206 F 
ATOM     84  C   UNL A   1      45.239  35.910  28.064  1.00  0.00     0.040 A 
ATOM     85  C   UNL A   1      46.196  35.316  30.190  1.00  0.00     0.040 A 
ATOM     86  F   UNL A   1      45.895  33.157  31.054  1.00  0.00    -0.206 F 
ATOM     87  C   UNL A   1      45.996  36.255  29.182  1.00  0.00     0.006 A 
ENDBRANCH  63  80
ENDBRANCH  37  38
ENDBRANCH  30  32
ENDBRANCH  29  30
ENDBRANCH  28  29
ENDBRANCH  27  28
ENDBRANCH  26  27
ENDBRANCH   1  26
TORSDOF 20
ENDMDL
MODEL 2
REMARK VINA RESULT:     -10.4      2.231      3.390
REMARK SMILES CC(C)[NH2+][C@@]1(C(=O)OCCOCCOC(=O)c2ccc(-c3c4nc(c(-c5c(F)cccc5F)c5ccc([nH]5)c(-c5c(F)cccc5F)c5nc(c(-c6c(F)cccc6F)c6ccc3[nH]6)C=C5)C=C4)cc2)CCC[C@@H]1CCOC1CCOCC1
REMARK SMILES IDX 10 1 9 2 8 3 6 4 7 5 5 6 71 7 74 8 72 9 73 10 4 11 2 14 1 15
REMARK SMILES IDX 3 16 75 17 76 18 77 19 78 20 79 21 83 22 80 23 82 24 81 25
REMARK SMILES IDX 11 26 12 27 13 28 14 29 15 30 16 31 17 32 18 33 70 34 19 35
REMARK SMILES IDX 69 36 20 37 21 38 22 39 63 40 23 41 68 42 62 43 64 44 24 45
REMARK SMILES IDX 67 46 61 47 60 48 25 50 51 51 34 52 50 53 35 54 38 55 49 56
REMARK SMILES IDX 65 57 36 58 37 59 48 61 66 62 39 63 26 64 27 65 32 66 28 67
REMARK SMILES IDX 29 68 31 69 33 70 30 71 52 72 53 73 58 74 54 75 55 76 57 77
REMARK SMILES IDX 59 78 56 79 40 80 41 81 46 82 42 83 43 84 45 85 47 86 44 87
REMARK H PARENT 4 12 4 13 64 49 38 60
REMARK Flexibility Score: inf
ROOT
ATOM      1  C   UNL A   1      35.722  22.961  26.172  1.00  0.00     0.202 C 
ENDROOT
BRANCH   1   2
ATOM      2  C   UNL A   1      35.948  23.686  24.846  1.00  0.00     0.261 C 
BRANCH   2   3
ATOM      3  O   UNL A   1      34.794  24.430  24.425  1.00  0.00    -0.459 OA
BRANCH   3   4
ATOM      4  C   UNL A   1      34.229  23.982  23.274  1.00  0.00     0.368 C 
ATOM      5  O   UNL A   1      34.848  23.362  22.412  1.00  0.00    -0.245 OA
BRANCH   4   6
ATOM      6  C   UNL A   1      32.713  24.335  23.129  1.00  0.00     0.197 C 
ATOM      7  C   UNL A   1      32.566  24.797  21.660  1.00  0.00     0.081 C 
ATOM      8  C   UNL A   1      32.182  25.665  23.814  1.00  0.00     0.065 C 
ATOM      9  C   UNL A   1      33.063  26.251  21.645  1.00  0.00     0.008 C 
ATOM     10  C   UNL A   1      32.974  26.758  23.086  1.00  0.00     0.011 C 
BRANCH   6  11
ATOM     11  N   UNL A   1      31.893  23.151  23.505  1.00  0.00    -0.330 N 
ATOM     12  H   UNL A   1      30.990  23.509  23.815  1.00  0.00     0.347 HD
ATOM     13  H   UNL A   1      31.919  22.580  22.660  1.00  0.00     0.347 HD
BRANCH  11  14
ATOM     14  C   UNL A   1      32.354  22.213  24.548  1.00  0.00     0.176 C 
ATOM     15  C   UNL A   1      31.332  22.219  25.702  1.00  0.00     0.075 C 
ATOM     16  C   UNL A   1      32.494  20.764  24.078  1.00  0.00     0.075 C 
ENDBRANCH  11  14
ENDBRANCH   6  11
BRANCH   8  17
ATOM     17  C   UNL A   1      32.110  25.857  25.338  1.00  0.00     0.039 C 
BRANCH  17  18
ATOM     18  C   UNL A   1      32.196  27.287  25.937  1.00  0.00     0.161 C 
BRANCH  18  19
ATOM     19  O   UNL A   1      33.450  27.637  26.509  1.00  0.00    -0.378 OA
BRANCH  19  20
ATOM     20  C   UNL A   1      33.751  29.016  26.771  1.00  0.00     0.122 C 
ATOM     21  C   UNL A   1      34.942  29.310  27.675  1.00  0.00     0.060 C 
ATOM     22  C   UNL A   1      32.567  29.862  27.254  1.00  0.00     0.060 C 
ATOM     23  C   UNL A   1      35.267  30.782  27.693  1.00  0.00     0.163 C 
ATOM     24  C   UNL A   1      33.008  31.333  27.297  1.00  0.00     0.163 C 
ATOM     25  O   UNL A   1      34.140  31.518  28.148  1.00  0.00    -0.381 OA
ENDBRANCH  19  20
ENDBRANCH  18  19
ENDBRANCH  17  18
ENDBRANCH   8  17
ENDBRANCH   4   6
ENDBRANCH   3   4
ENDBRANCH   2   3
ENDBRANCH   1   2
BRANCH   1  26
ATOM     26  O   UNL A   1      35.618  21.541  26.126  1.00  0.00    -0.374 OA
BRANCH  26  27
ATOM     27  C   UNL A   1      36.095  20.881  24.950  1.00  0.00     0.202 C 
BRANCH  27  28
ATOM     28  C   UNL A   1      37.533  20.330  24.997  1.00  0.00     0.261 C 
BRANCH  28  29
ATOM     29  O   UNL A   1      38.508  21.370  25.242  1.00  0.00    -0.460 OA
BRANCH  29  30
ATOM     30  C   UNL A   1      39.508  21.030  26.093  1.00  0.00     0.338 C 
ATOM     31  O   UNL A   1      40.127  19.981  26.119  1.00  0.00    -0.246 OA
BRANCH  30  32
ATOM     32  C   UNL A   1      39.944  22.214  26.862  1.00  0.00     0.060 A 
ATOM     33  C   UNL A   1      39.372  23.441  26.507  1.00  0.00     0.016 A 
ATOM     34  C   UNL A   1      40.957  22.159  27.821  1.00  0.00     0.016 A 
ATOM     35  C   UNL A   1      39.852  24.623  27.061  1.00  0.00     0.010 A 
ATOM     36  C   UNL A   1      41.445  23.355  28.375  1.00  0.00     0.010 A 
ATOM     37  C   UNL A   1      40.927  24.596  27.960  1.00  0.00    -0.014 A 
BRANCH  37  38
ATOM     38  C   UNL A   1      41.578  25.892  28.293  1.00  0.00     0.031 A 
ATOM     39  C   UNL A   1      42.945  26.194  27.738  1.00  0.00     0.074 A 
ATOM     40  C   UNL A   1      40.898  26.851  28.948  1.00  0.00     0.049 A 
ATOM     41  N   UNL A   1      43.613  27.321  27.741  1.00  0.00    -0.248 NA
ATOM     42  C   UNL A   1      43.652  25.082  27.085  1.00  0.00     0.031 C 
ATOM     43  C   UNL A   1      39.557  26.702  29.509  1.00  0.00     0.029 A 
ATOM     44  N   UNL A   1      41.234  28.156  29.221  1.00  0.00    -0.354 N 
ATOM     45  C   UNL A   1      44.807  27.059  27.080  1.00  0.00     0.074 A 
ATOM     46  C   UNL A   1      44.794  25.654  26.732  1.00  0.00     0.031 C 
ATOM     47  C   UNL A   1      39.172  27.875  30.037  1.00  0.00     0.029 A 
ATOM     48  C   UNL A   1      40.243  28.855  29.865  1.00  0.00     0.049 A 
ATOM     49  H   UNL A   1      42.102  28.551  28.976  1.00  0.00     0.167 HD
ATOM     50  C   UNL A   1      45.816  27.909  26.773  1.00  0.00     0.037 A 
ATOM     51  C   UNL A   1      40.200  30.142  30.262  1.00  0.00     0.037 A 
ATOM     52  C   UNL A   1      45.836  29.307  27.118  1.00  0.00     0.049 A 
ATOM     53  C   UNL A   1      41.355  31.056  29.951  1.00  0.00     0.074 A 
ATOM     54  C   UNL A   1      46.811  30.251  26.839  1.00  0.00     0.029 A 
ATOM     55  N   UNL A   1      44.840  29.962  27.825  1.00  0.00    -0.354 N 
ATOM     56  N   UNL A   1      42.460  30.802  29.292  1.00  0.00    -0.248 NA
ATOM     57  C   UNL A   1      41.247  32.443  30.428  1.00  0.00     0.031 C 
ATOM     58  C   UNL A   1      46.429  31.463  27.423  1.00  0.00     0.029 A 
ATOM     59  C   UNL A   1      45.188  31.290  28.014  1.00  0.00     0.049 A 
ATOM     60  H   UNL A   1      44.008  29.545  28.146  1.00  0.00     0.167 HD
ATOM     61  C   UNL A   1      43.163  32.002  29.250  1.00  0.00     0.074 A 
ATOM     62  C   UNL A   1      42.349  32.986  29.931  1.00  0.00     0.031 C 
ATOM     63  C   UNL A   1      44.373  32.264  28.696  1.00  0.00     0.037 A 
BRANCH  50  64
ATOM     64  C   UNL A   1      46.998  27.342  26.039  1.00  0.00     0.057 A 
ATOM     65  C   UNL A   1      47.089  27.373  24.641  1.00  0.00     0.134 A 
ATOM     66  C   UNL A   1      48.076  26.789  26.743  1.00  0.00     0.134 A 
ATOM     67  F   UNL A   1      46.085  27.875  23.905  1.00  0.00    -0.206 F 
ATOM     68  C   UNL A   1      48.197  26.853  23.969  1.00  0.00     0.040 A 
ATOM     69  C   UNL A   1      49.202  26.292  26.084  1.00  0.00     0.040 A 
ATOM     70  F   UNL A   1      48.057  26.733  28.083  1.00  0.00    -0.206 F 
ATOM     71  C   UNL A   1      49.261  26.318  24.692  1.00  0.00     0.006 A 
ENDBRANCH  50  64
BRANCH  51  72
ATOM     72  C   UNL A   1      39.011  30.655  30.994  1.00  0.00     0.057 A 
ATOM     73  C   UNL A   1      37.977  31.327  30.332  1.00  0.00     0.134 A 
ATOM     74  C   UNL A   1      38.900  30.509  32.381  1.00  0.00     0.134 A 
ATOM     75  F   UNL A   1      38.038  31.522  29.006  1.00  0.00    -0.206 F 
ATOM     76  C   UNL A   1      36.886  31.855  31.025  1.00  0.00     0.040 A 
ATOM     77  C   UNL A   1      37.801  31.006  33.084  1.00  0.00     0.040 A 
ATOM     78  F   UNL A   1      39.857  29.874  33.075  1.00  0.00    -0.206 F 
ATOM     79  C   UNL A   1      36.794  31.689  32.407  1.00  0.00     0.006 A 
ENDBRANCH  51  72
BRANCH  63  80
ATOM     80  C   UNL A   1      44.872  33.680  28.776  1.00  0.00     0.057 A 
ATOM     81  C   UNL A   1      45.674  34.129  29.834  1.00  0.00     0.134 A 
ATOM     82  C   UNL A   1      44.545  34.608  27.778  1.00  0.00     0.134 A 
ATOM     83  F   UNL A   1      46.016  33.295  30.829  1.00  0.00    -0.206 F 
ATOM     84  C   UNL A   1      46.097  35.457  29.918  1.00  0.00     0.040 A 
ATOM     85  C   UNL A   1      44.989  35.931  27.836  1.00  0.00     0.040 A 
ATOM     86  F   UNL A   1      43.792  34.246  26.729  1.00  0.00    -0.206 F 
ATOM     87  C   UNL A   1      45.757  36.362  28.914  1.00  0.00     0.006 A 
ENDBRANCH  63  80
ENDBRANCH  37  38
ENDBRANCH  30  32
ENDBRANCH  29  30
ENDBRANCH  28  29
ENDBRANCH  27  28
ENDBRANCH  26  27
ENDBRANCH   1  26
TORSDOF 20
ENDMDL
MODEL 3
REMARK VINA RESULT:     -10.4      3.848      8.780
REMARK SMILES CC(C)[NH2+][C@@]1(C(=O)OCCOCCOC(=O)c2ccc(-c3c4nc(c(-c5c(F)cccc5F)c5ccc([nH]5)c(-c5c(F)cccc5F)c5nc(c(-c6c(F)cccc6F)c6ccc3[nH]6)C=C5)C=C4)cc2)CCC[C@@H]1CCOC1CCOCC1
REMARK SMILES IDX 10 1 9 2 8 3 6 4 7 5 5 6 71 7 74 8 72 9 73 10 4 11 2 14 1 15
REMARK SMILES IDX 3 16 75 17 76 18 77 19 78 20 79 21 83 22 80 23 82 24 81 25
REMARK SMILES IDX 11 26 12 27 13 28 14 29 15 30 16 31 17 32 18 33 70 34 19 35
REMARK SMILES IDX 69 36 20 37 21 38 22 39 63 40 23 41 68 42 62 43 64 44 24 45
REMARK SMILES IDX 67 46 61 47 60 48 25 50 51 51 34 52 50 53 35 54 38 55 49 56
REMARK SMILES IDX 65 57 36 58 37 59 48 61 66 62 39 63 26 64 27 65 32 66 28 67
REMARK SMILES IDX 29 68 31 69 33 70 30 71 52 72 53 73 58 74 54 75 55 76 57 77
REMARK SMILES IDX 59 78 56 79 40 80 41 81 46 82 42 83 43 84 45 85 47 86 44 87
REMARK H PARENT 4 12 4 13 64 49 38 60
REMARK Flexibility Score: inf
ROOT
ATOM      1  C   UNL A   1      33.180  29.130  26.844  1.00  0.00     0.202 C 
ENDROOT
BRANCH   1   2
ATOM      2  C   UNL A   1      32.412  27.944  26.261  1.00  0.00     0.261 C 
BRANCH   2   3
ATOM      3  O   UNL A   1      32.833  27.620  24.927  1.00  0.00    -0.459 OA
BRANCH   3   4
ATOM      4  C   UNL A   1      32.993  26.291  24.698  1.00  0.00     0.368 C 
ATOM      5  O   UNL A   1      34.060  25.701  24.852  1.00  0.00    -0.245 OA
BRANCH   4   6
ATOM      6  C   UNL A   1      31.696  25.569  24.204  1.00  0.00     0.197 C 
ATOM      7  C   UNL A   1      32.190  24.614  23.093  1.00  0.00     0.081 C 
ATOM      8  C   UNL A   1      30.668  26.394  23.321  1.00  0.00     0.065 C 
ATOM      9  C   UNL A   1      32.355  25.497  21.847  1.00  0.00     0.008 C 
ATOM     10  C   UNL A   1      31.495  26.741  22.077  1.00  0.00     0.011 C 
BRANCH   6  11
ATOM     11  N   UNL A   1      31.031  24.908  25.359  1.00  0.00    -0.330 N 
ATOM     12  H   UNL A   1      31.181  25.512  26.168  1.00  0.00     0.347 HD
ATOM     13  H   UNL A   1      30.076  24.779  25.028  1.00  0.00     0.347 HD
BRANCH  11  14
ATOM     14  C   UNL A   1      31.420  23.545  25.777  1.00  0.00     0.176 C 
ATOM     15  C   UNL A   1      32.518  23.654  26.853  1.00  0.00     0.075 C 
ATOM     16  C   UNL A   1      30.280  22.719  26.377  1.00  0.00     0.075 C 
ENDBRANCH  11  14
ENDBRANCH   6  11
BRANCH   8  17
ATOM     17  C   UNL A   1      29.839  27.569  23.867  1.00  0.00     0.039 C 
BRANCH  17  18
ATOM     18  C   UNL A   1      28.800  28.269  22.950  1.00  0.00     0.161 C 
BRANCH  18  19
ATOM     19  O   UNL A   1      29.343  29.062  21.902  1.00  0.00    -0.378 OA
BRANCH  19  20
ATOM     20  C   UNL A   1      29.100  30.476  21.882  1.00  0.00     0.122 C 
ATOM     21  C   UNL A   1      28.881  31.164  23.224  1.00  0.00     0.060 C 
ATOM     22  C   UNL A   1      27.993  30.934  20.926  1.00  0.00     0.060 C 
ATOM     23  C   UNL A   1      28.847  32.664  23.073  1.00  0.00     0.163 C 
ATOM     24  C   UNL A   1      27.995  32.470  20.881  1.00  0.00     0.163 C 
ATOM     25  O   UNL A   1      27.806  33.034  22.180  1.00  0.00    -0.381 OA
ENDBRANCH  19  20
ENDBRANCH  18  19
ENDBRANCH  17  18
ENDBRANCH   8  17
ENDBRANCH   4   6
ENDBRANCH   3   4
ENDBRANCH   2   3
ENDBRANCH   1   2
BRANCH   1  26
ATOM     26  O   UNL A   1      32.410  30.186  27.411  1.00  0.00    -0.374 OA
BRANCH  26  27
ATOM     27  C   UNL A   1      31.913  31.192  26.524  1.00  0.00     0.202 C 
BRANCH  27  28
ATOM     28  C   UNL A   1      31.577  32.561  27.144  1.00  0.00     0.261 C 
BRANCH  28  29
ATOM     29  O   UNL A   1      32.697  33.476  27.086  1.00  0.00    -0.460 OA
BRANCH  29  30
ATOM     30  C   UNL A   1      33.240  33.794  28.287  1.00  0.00     0.338 C 
ATOM     31  O   UNL A   1      32.700  34.385  29.205  1.00  0.00    -0.246 OA
BRANCH  30  32
ATOM     32  C   UNL A   1      34.535  33.103  28.457  1.00  0.00     0.060 A 
ATOM     33  C   UNL A   1      34.514  31.885  29.147  1.00  0.00     0.016 A 
ATOM     34  C   UNL A   1      35.749  33.667  28.060  1.00  0.00     0.016 A 
ATOM     35  C   UNL A   1      35.705  31.259  29.498  1.00  0.00     0.010 A 
ATOM     36  C   UNL A   1      36.951  33.037  28.422  1.00  0.00     0.010 A 
ATOM     37  C   UNL A   1      36.934  31.855  29.186  1.00  0.00    -0.014 A 
BRANCH  37  38
ATOM     38  C   UNL A   1      38.153  31.295  29.830  1.00  0.00     0.031 A 
ATOM     39  C   UNL A   1      38.433  31.611  31.276  1.00  0.00     0.074 A 
ATOM     40  C   UNL A   1      38.915  30.391  29.186  1.00  0.00     0.049 A 
ATOM     41  N   UNL A   1      39.321  31.086  32.085  1.00  0.00    -0.248 NA
ATOM     42  C   UNL A   1      37.597  32.649  31.898  1.00  0.00     0.031 C 
ATOM     43  C   UNL A   1      38.735  29.972  27.798  1.00  0.00     0.029 A 
ATOM     44  N   UNL A   1      39.974  29.637  29.632  1.00  0.00    -0.354 N 
ATOM     45  C   UNL A   1      39.140  31.717  33.309  1.00  0.00     0.074 A 
ATOM     46  C   UNL A   1      38.092  32.698  33.126  1.00  0.00     0.031 C 
ATOM     47  C   UNL A   1      39.635  29.017  27.511  1.00  0.00     0.029 A 
ATOM     48  C   UNL A   1      40.464  28.767  28.689  1.00  0.00     0.049 A 
ATOM     49  H   UNL A   1      40.345  29.713  30.541  1.00  0.00     0.167 HD
ATOM     50  C   UNL A   1      39.773  31.493  34.486  1.00  0.00     0.037 A 
ATOM     51  C   UNL A   1      41.461  27.864  28.769  1.00  0.00     0.037 A 
ATOM     52  C   UNL A   1      40.819  30.520  34.675  1.00  0.00     0.049 A 
ATOM     53  C   UNL A   1      42.183  27.666  30.075  1.00  0.00     0.074 A 
ATOM     54  C   UNL A   1      41.513  30.213  35.834  1.00  0.00     0.029 A 
ATOM     55  N   UNL A   1      41.328  29.702  33.678  1.00  0.00    -0.354 N 
ATOM     56  N   UNL A   1      41.975  28.244  31.234  1.00  0.00    -0.248 NA
ATOM     57  C   UNL A   1      43.270  26.676  30.086  1.00  0.00     0.031 C 
ATOM     58  C   UNL A   1      42.477  29.247  35.526  1.00  0.00     0.029 A 
ATOM     59  C   UNL A   1      42.343  28.909  34.190  1.00  0.00     0.049 A 
ATOM     60  H   UNL A   1      41.014  29.687  32.745  1.00  0.00     0.167 HD
ATOM     61  C   UNL A   1      42.883  27.667  32.116  1.00  0.00     0.074 A 
ATOM     62  C   UNL A   1      43.627  26.680  31.361  1.00  0.00     0.031 C 
ATOM     63  C   UNL A   1      43.082  27.930  33.432  1.00  0.00     0.037 A 
BRANCH  50  64
ATOM     64  C   UNL A   1      39.365  32.333  35.663  1.00  0.00     0.057 A 
ATOM     65  C   UNL A   1      39.915  33.600  35.896  1.00  0.00     0.134 A 
ATOM     66  C   UNL A   1      38.384  31.882  36.555  1.00  0.00     0.134 A 
ATOM     67  F   UNL A   1      40.870  34.087  35.088  1.00  0.00    -0.206 F 
ATOM     68  C   UNL A   1      39.522  34.378  36.987  1.00  0.00     0.040 A 
ATOM     69  C   UNL A   1      37.962  32.661  37.633  1.00  0.00     0.040 A 
ATOM     70  F   UNL A   1      37.813  30.679  36.388  1.00  0.00    -0.206 F 
ATOM     71  C   UNL A   1      38.537  33.912  37.855  1.00  0.00     0.006 A 
ENDBRANCH  50  64
BRANCH  51  72
ATOM     72  C   UNL A   1      41.836  27.063  27.574  1.00  0.00     0.057 A 
ATOM     73  C   UNL A   1      41.323  25.777  27.364  1.00  0.00     0.134 A 
ATOM     74  C   UNL A   1      42.742  27.557  26.628  1.00  0.00     0.134 A 
ATOM     75  F   UNL A   1      40.471  25.236  28.247  1.00  0.00    -0.206 F 
ATOM     76  C   UNL A   1      41.715  25.003  26.269  1.00  0.00     0.040 A 
ATOM     77  C   UNL A   1      43.120  26.806  25.515  1.00  0.00     0.040 A 
ATOM     78  F   UNL A   1      43.269  28.782  26.771  1.00  0.00    -0.206 F 
ATOM     79  C   UNL A   1      42.613  25.522  25.337  1.00  0.00     0.006 A 
ENDBRANCH  51  72
BRANCH  63  80
ATOM     80  C   UNL A   1      44.124  27.114  34.144  1.00  0.00     0.057 A 
ATOM     81  C   UNL A   1      43.822  25.889  34.754  1.00  0.00     0.134 A 
ATOM     82  C   UNL A   1      45.450  27.560  34.220  1.00  0.00     0.134 A 
ATOM     83  F   UNL A   1      42.569  25.407  34.728  1.00  0.00    -0.206 F 
ATOM     84  C   UNL A   1      44.790  25.159  35.447  1.00  0.00     0.040 A 
ATOM     85  C   UNL A   1      46.433  26.823  34.884  1.00  0.00     0.040 A 
ATOM     86  F   UNL A   1      45.815  28.718  33.649  1.00  0.00    -0.206 F 
ATOM     87  C   UNL A   1      46.102  25.625  35.510  1.00  0.00     0.006 A 
ENDBRANCH  63  80
ENDBRANCH  37  38
ENDBRANCH  30  32
ENDBRANCH  29  30
ENDBRANCH  28  29
ENDBRANCH  27  28
ENDBRANCH  26  27
ENDBRANCH   1  26
TORSDOF 20
ENDMDL
