MODEL 1
REMARK VINA RESULT:     -11.1      0.000      0.000
REMARK SMILES CCCCCCNC(=O)Oc1cccc(-c2ccc([C@@H](C)C(=O)OCCOCCOC(=O)c3ccc(-c4c5nc(c(-c6c(F)cccc6F)c6ccc([nH]6)c(-c6c(F)cccc6F)c6nc(c(-c7c(F)cccc7F)c7ccc4[nH]7)C=C6)C=C5)cc3)cc2C)c1
REMARK SMILES IDX 22 1 23 2 20 3 21 4 19 5 16 6 17 7 88 8 18 9 87 10 89 11
REMARK SMILES IDX 15 12 11 13 12 14 90 15 13 16 14 17 10 18 8 19 7 20 9 22
REMARK SMILES IDX 6 23 5 24 4 25 3 26 2 27 1 28 24 29 25 30 26 31 27 32 28 33
REMARK SMILES IDX 29 34 30 35 31 36 32 37 33 38 34 39 86 40 35 41 85 42 36 43
REMARK SMILES IDX 37 44 38 45 79 46 39 47 84 48 78 49 80 50 40 51 83 52 77 53
REMARK SMILES IDX 76 54 41 56 67 57 50 58 66 59 51 60 54 61 65 62 81 63 52 64
REMARK SMILES IDX 53 65 64 67 82 68 55 69 42 70 43 71 48 72 44 73 45 74 47 75
REMARK SMILES IDX 49 76 46 77 68 78 69 79 74 80 70 81 71 82 73 83 75 84 72 85
REMARK SMILES IDX 56 86 57 87 62 88 58 89 59 90 61 91 63 92 60 93
REMARK H PARENT 7 21 80 55 54 66
REMARK Flexibility Score: inf
ROOT
ATOM      1  C   UNL A   1      41.738  19.860  26.721  1.00  0.00     0.313 C 
ATOM      2  O   UNL A   1      41.533  19.184  27.727  1.00  0.00    -0.252 OA
ENDROOT
BRANCH   1   3
ATOM      3  C   UNL A   1      41.488  21.359  26.704  1.00  0.00     0.126 C 
ATOM      4  C   UNL A   1      42.061  21.977  27.976  1.00  0.00     0.025 C 
BRANCH   3   5
ATOM      5  C   UNL A   1      40.072  21.851  26.419  1.00  0.00    -0.034 A 
ATOM      6  C   UNL A   1      37.462  22.734  25.654  1.00  0.00    -0.015 A 
ATOM      7  C   UNL A   1      38.372  23.588  26.307  1.00  0.00     0.009 A 
ATOM      8  C   UNL A   1      37.874  21.411  25.389  1.00  0.00    -0.043 A 
ATOM      9  C   UNL A   1      39.655  23.160  26.676  1.00  0.00     0.005 A 
ATOM     10  C   UNL A   1      39.158  20.985  25.796  1.00  0.00     0.008 A 
ATOM     11  C   UNL A   1      37.003  20.402  24.684  1.00  0.00     0.045 C 
BRANCH   6  12
ATOM     12  C   UNL A   1      36.156  23.267  25.214  1.00  0.00    -0.014 A 
ATOM     13  C   UNL A   1      33.817  23.787  25.617  1.00  0.00     0.133 A 
ATOM     14  C   UNL A   1      33.637  24.148  24.284  1.00  0.00     0.047 A 
ATOM     15  C   UNL A   1      35.059  23.352  26.088  1.00  0.00     0.056 A 
ATOM     16  C   UNL A   1      34.720  24.096  23.413  1.00  0.00     0.004 A 
ATOM     17  C   UNL A   1      35.965  23.658  23.874  1.00  0.00     0.009 A 
BRANCH  13  18
ATOM     18  O   UNL A   1      32.660  23.745  26.417  1.00  0.00    -0.410 OA
BRANCH  18  19
ATOM     19  C   UNL A   1      31.588  22.970  26.007  1.00  0.00     0.412 C 
ATOM     20  N   UNL A   1      30.425  23.676  25.878  1.00  0.00    -0.321 N 
ATOM     21  H   UNL A   1      29.637  23.170  25.577  1.00  0.00     0.167 HD
ATOM     22  O   UNL A   1      31.620  21.761  25.779  1.00  0.00    -0.224 OA
BRANCH  20  23
ATOM     23  C   UNL A   1      30.226  25.091  26.135  1.00  0.00     0.119 C 
BRANCH  23  24
ATOM     24  C   UNL A   1      29.892  25.868  24.861  1.00  0.00     0.021 C 
BRANCH  24  25
ATOM     25  C   UNL A   1      31.036  26.725  24.303  1.00  0.00     0.002 C 
BRANCH  25  26
ATOM     26  C   UNL A   1      31.423  27.945  25.146  1.00  0.00    -0.000 C 
BRANCH  26  27
ATOM     27  C   UNL A   1      32.608  27.744  26.093  1.00  0.00    -0.003 C 
ATOM     28  C   UNL A   1      32.359  28.283  27.494  1.00  0.00     0.004 C 
ENDBRANCH  26  27
ENDBRANCH  25  26
ENDBRANCH  24  25
ENDBRANCH  23  24
ENDBRANCH  20  23
ENDBRANCH  18  19
ENDBRANCH  13  18
ENDBRANCH   6  12
ENDBRANCH   3   5
ENDBRANCH   1   3
BRANCH   1  29
ATOM     29  O   UNL A   1      42.162  19.355  25.534  1.00  0.00    -0.463 OA
BRANCH  29  30
ATOM     30  C   UNL A   1      43.308  18.486  25.592  1.00  0.00     0.261 C 
BRANCH  30  31
ATOM     31  C   UNL A   1      44.541  19.158  24.983  1.00  0.00     0.202 C 
BRANCH  31  32
ATOM     32  O   UNL A   1      44.311  20.380  24.282  1.00  0.00    -0.374 OA
BRANCH  32  33
ATOM     33  C   UNL A   1      44.836  21.577  24.854  1.00  0.00     0.202 C 
BRANCH  33  34
ATOM     34  C   UNL A   1      44.866  22.817  23.953  1.00  0.00     0.261 C 
BRANCH  34  35
ATOM     35  O   UNL A   1      44.022  23.873  24.442  1.00  0.00    -0.460 OA
BRANCH  35  36
ATOM     36  C   UNL A   1      44.684  24.908  25.013  1.00  0.00     0.338 C 
ATOM     37  O   UNL A   1      45.805  25.307  24.748  1.00  0.00    -0.246 OA
BRANCH  36  38
ATOM     38  C   UNL A   1      43.779  25.654  25.910  1.00  0.00     0.060 A 
ATOM     39  C   UNL A   1      44.036  27.020  26.082  1.00  0.00     0.016 A 
ATOM     40  C   UNL A   1      42.763  25.026  26.634  1.00  0.00     0.016 A 
ATOM     41  C   UNL A   1      43.323  27.750  27.028  1.00  0.00     0.010 A 
ATOM     42  C   UNL A   1      42.048  25.762  27.587  1.00  0.00     0.010 A 
ATOM     43  C   UNL A   1      42.357  27.116  27.819  1.00  0.00    -0.014 A 
BRANCH  43  44
ATOM     44  C   UNL A   1      41.804  27.837  28.992  1.00  0.00     0.031 A 
ATOM     45  C   UNL A   1      42.535  27.764  30.305  1.00  0.00     0.074 A 
ATOM     46  C   UNL A   1      40.707  28.607  28.877  1.00  0.00     0.049 A 
ATOM     47  N   UNL A   1      42.258  28.346  31.445  1.00  0.00    -0.248 NA
ATOM     48  C   UNL A   1      43.743  26.924  30.336  1.00  0.00     0.031 C 
ATOM     49  C   UNL A   1      39.935  28.797  27.652  1.00  0.00     0.029 A 
ATOM     50  N   UNL A   1      40.060  29.379  29.808  1.00  0.00    -0.354 N 
ATOM     51  C   UNL A   1      43.255  27.943  32.325  1.00  0.00     0.074 A 
ATOM     52  C   UNL A   1      44.121  27.037  31.599  1.00  0.00     0.031 C 
ATOM     53  C   UNL A   1      38.920  29.640  27.905  1.00  0.00     0.029 A 
ATOM     54  C   UNL A   1      38.956  30.027  29.315  1.00  0.00     0.049 A 
ATOM     55  H   UNL A   1      40.359  29.460  30.743  1.00  0.00     0.167 HD
ATOM     56  C   UNL A   1      43.443  28.304  33.617  1.00  0.00     0.037 A 
ATOM     57  C   UNL A   1      38.072  30.834  29.932  1.00  0.00     0.037 A 
ATOM     58  C   UNL A   1      42.584  29.203  34.342  1.00  0.00     0.049 A 
ATOM     59  C   UNL A   1      38.255  31.158  31.390  1.00  0.00     0.074 A 
ATOM     60  C   UNL A   1      42.699  29.641  35.649  1.00  0.00     0.029 A 
ATOM     61  N   UNL A   1      41.441  29.792  33.821  1.00  0.00    -0.354 N 
ATOM     62  N   UNL A   1      39.213  30.793  32.205  1.00  0.00    -0.248 NA
ATOM     63  C   UNL A   1      37.232  32.013  32.012  1.00  0.00     0.031 C 
ATOM     64  C   UNL A   1      41.600  30.458  35.935  1.00  0.00     0.029 A 
ATOM     65  C   UNL A   1      40.827  30.569  34.789  1.00  0.00     0.049 A 
ATOM     66  H   UNL A   1      41.116  29.675  32.899  1.00  0.00     0.167 HD
ATOM     67  C   UNL A   1      38.927  31.392  33.426  1.00  0.00     0.074 A 
ATOM     68  C   UNL A   1      37.708  32.154  33.241  1.00  0.00     0.031 C 
ATOM     69  C   UNL A   1      39.614  31.323  34.593  1.00  0.00     0.037 A 
BRANCH  56  70
ATOM     70  C   UNL A   1      44.617  27.700  34.332  1.00  0.00     0.057 A 
ATOM     71  C   UNL A   1      45.869  28.328  34.365  1.00  0.00     0.134 A 
ATOM     72  C   UNL A   1      44.491  26.476  35.003  1.00  0.00     0.134 A 
ATOM     73  F   UNL A   1      46.060  29.495  33.732  1.00  0.00    -0.206 F 
ATOM     74  C   UNL A   1      46.961  27.746  35.010  1.00  0.00     0.040 A 
ATOM     75  C   UNL A   1      45.568  25.897  35.674  1.00  0.00     0.040 A 
ATOM     76  F   UNL A   1      43.318  25.825  35.016  1.00  0.00    -0.206 F 
ATOM     77  C   UNL A   1      46.811  26.529  35.672  1.00  0.00     0.006 A 
ENDBRANCH  56  70
BRANCH  57  78
ATOM     78  C   UNL A   1      36.932  31.400  29.169  1.00  0.00     0.057 A 
ATOM     79  C   UNL A   1      36.945  32.728  28.727  1.00  0.00     0.134 A 
ATOM     80  C   UNL A   1      35.802  30.630  28.867  1.00  0.00     0.134 A 
ATOM     81  F   UNL A   1      37.989  33.522  29.007  1.00  0.00    -0.206 F 
ATOM     82  C   UNL A   1      35.873  33.274  28.020  1.00  0.00     0.040 A 
ATOM     83  C   UNL A   1      34.732  31.156  28.141  1.00  0.00     0.040 A 
ATOM     84  F   UNL A   1      35.729  29.352  29.263  1.00  0.00    -0.206 F 
ATOM     85  C   UNL A   1      34.764  32.484  27.719  1.00  0.00     0.006 A 
ENDBRANCH  57  78
BRANCH  69  86
ATOM     86  C   UNL A   1      39.085  32.114  35.753  1.00  0.00     0.057 A 
ATOM     87  C   UNL A   1      39.382  33.473  35.921  1.00  0.00     0.134 A 
ATOM     88  C   UNL A   1      38.231  31.519  36.691  1.00  0.00     0.134 A 
ATOM     89  F   UNL A   1      40.204  34.100  35.065  1.00  0.00    -0.206 F 
ATOM     90  C   UNL A   1      38.867  34.205  36.992  1.00  0.00     0.040 A 
ATOM     91  C   UNL A   1      37.689  32.247  37.751  1.00  0.00     0.040 A 
ATOM     92  F   UNL A   1      37.897  30.224  36.583  1.00  0.00    -0.206 F 
ATOM     93  C   UNL A   1      38.012  33.594  37.907  1.00  0.00     0.006 A 
ENDBRANCH  69  86
ENDBRANCH  43  44
ENDBRANCH  36  38
ENDBRANCH  35  36
ENDBRANCH  34  35
ENDBRANCH  33  34
ENDBRANCH  32  33
ENDBRANCH  31  32
ENDBRANCH  30  31
ENDBRANCH  29  30
ENDBRANCH   1  29
TORSDOF 23
ENDMDL
MODEL 2
REMARK VINA RESULT:     -10.6      1.156      6.053
REMARK SMILES CCCCCCNC(=O)Oc1cccc(-c2ccc([C@@H](C)C(=O)OCCOCCOC(=O)c3ccc(-c4c5nc(c(-c6c(F)cccc6F)c6ccc([nH]6)c(-c6c(F)cccc6F)c6nc(c(-c7c(F)cccc7F)c7ccc4[nH]7)C=C6)C=C5)cc3)cc2C)c1
REMARK SMILES IDX 22 1 23 2 20 3 21 4 19 5 16 6 17 7 88 8 18 9 87 10 89 11
REMARK SMILES IDX 15 12 11 13 12 14 90 15 13 16 14 17 10 18 8 19 7 20 9 22
REMARK SMILES IDX 6 23 5 24 4 25 3 26 2 27 1 28 24 29 25 30 26 31 27 32 28 33
REMARK SMILES IDX 29 34 30 35 31 36 32 37 33 38 34 39 86 40 35 41 85 42 36 43
REMARK SMILES IDX 37 44 38 45 79 46 39 47 84 48 78 49 80 50 40 51 83 52 77 53
REMARK SMILES IDX 76 54 41 56 67 57 50 58 66 59 51 60 54 61 65 62 81 63 52 64
REMARK SMILES IDX 53 65 64 67 82 68 55 69 42 70 43 71 48 72 44 73 45 74 47 75
REMARK SMILES IDX 49 76 46 77 68 78 69 79 74 80 70 81 71 82 73 83 75 84 72 85
REMARK SMILES IDX 56 86 57 87 62 88 58 89 59 90 61 91 63 92 60 93
REMARK H PARENT 7 21 80 55 54 66
REMARK Flexibility Score: inf
ROOT
ATOM      1  C   UNL A   1      41.053  19.970  26.742  1.00  0.00     0.313 C 
ATOM      2  O   UNL A   1      41.013  19.509  27.880  1.00  0.00    -0.252 OA
ENDROOT
BRANCH   1   3
ATOM      3  C   UNL A   1      40.506  21.351  26.420  1.00  0.00     0.126 C 
ATOM      4  C   UNL A   1      40.722  22.267  27.621  1.00  0.00     0.025 C 
BRANCH   3   5
ATOM      5  C   UNL A   1      39.085  21.455  25.873  1.00  0.00    -0.034 A 
ATOM      6  C   UNL A   1      36.352  21.705  25.068  1.00  0.00    -0.015 A 
ATOM      7  C   UNL A   1      37.057  20.492  24.935  1.00  0.00     0.009 A 
ATOM      8  C   UNL A   1      37.041  22.811  25.609  1.00  0.00    -0.043 A 
ATOM      9  C   UNL A   1      38.395  20.365  25.336  1.00  0.00     0.005 A 
ATOM     10  C   UNL A   1      38.397  22.676  25.979  1.00  0.00     0.008 A 
ATOM     11  C   UNL A   1      36.399  24.159  25.818  1.00  0.00     0.045 C 
BRANCH   6  12
ATOM     12  C   UNL A   1      34.920  21.753  24.707  1.00  0.00    -0.014 A 
ATOM     13  C   UNL A   1      33.084  22.618  23.372  1.00  0.00     0.133 A 
ATOM     14  C   UNL A   1      32.155  21.935  24.154  1.00  0.00     0.047 A 
ATOM     15  C   UNL A   1      34.454  22.533  23.635  1.00  0.00     0.056 A 
ATOM     16  C   UNL A   1      32.604  21.137  25.202  1.00  0.00     0.004 A 
ATOM     17  C   UNL A   1      33.972  21.050  25.475  1.00  0.00     0.009 A 
BRANCH  13  18
ATOM     18  O   UNL A   1      32.563  23.500  22.408  1.00  0.00    -0.410 OA
BRANCH  18  19
ATOM     19  C   UNL A   1      32.908  24.840  22.468  1.00  0.00     0.412 C 
ATOM     20  N   UNL A   1      31.890  25.644  22.897  1.00  0.00    -0.321 N 
ATOM     21  H   UNL A   1      32.092  26.605  22.967  1.00  0.00     0.167 HD
ATOM     22  O   UNL A   1      34.002  25.315  22.166  1.00  0.00    -0.224 OA
BRANCH  20  23
ATOM     23  C   UNL A   1      30.545  25.237  23.261  1.00  0.00     0.119 C 
BRANCH  23  24
ATOM     24  C   UNL A   1      30.370  25.107  24.775  1.00  0.00     0.021 C 
BRANCH  24  25
ATOM     25  C   UNL A   1      30.889  26.297  25.593  1.00  0.00     0.002 C 
BRANCH  25  26
ATOM     26  C   UNL A   1      32.113  26.015  26.472  1.00  0.00    -0.000 C 
BRANCH  26  27
ATOM     27  C   UNL A   1      33.469  26.328  25.835  1.00  0.00    -0.003 C 
ATOM     28  C   UNL A   1      33.586  27.760  25.335  1.00  0.00     0.004 C 
ENDBRANCH  26  27
ENDBRANCH  25  26
ENDBRANCH  24  25
ENDBRANCH  23  24
ENDBRANCH  20  23
ENDBRANCH  18  19
ENDBRANCH  13  18
ENDBRANCH   6  12
ENDBRANCH   3   5
ENDBRANCH   1   3
BRANCH   1  29
ATOM     29  O   UNL A   1      41.540  19.302  25.664  1.00  0.00    -0.463 OA
BRANCH  29  30
ATOM     30  C   UNL A   1      42.702  18.486  25.902  1.00  0.00     0.261 C 
BRANCH  30  31
ATOM     31  C   UNL A   1      43.984  19.225  25.513  1.00  0.00     0.202 C 
BRANCH  31  32
ATOM     32  O   UNL A   1      43.833  20.315  24.604  1.00  0.00    -0.374 OA
BRANCH  32  33
ATOM     33  C   UNL A   1      44.259  21.604  25.043  1.00  0.00     0.202 C 
BRANCH  33  34
ATOM     34  C   UNL A   1      44.102  22.759  24.047  1.00  0.00     0.261 C 
BRANCH  34  35
ATOM     35  O   UNL A   1      43.397  23.879  24.608  1.00  0.00    -0.460 OA
BRANCH  35  36
ATOM     36  C   UNL A   1      44.189  24.813  25.187  1.00  0.00     0.338 C 
ATOM     37  O   UNL A   1      45.336  25.100  24.889  1.00  0.00    -0.246 OA
BRANCH  36  38
ATOM     38  C   UNL A   1      43.407  25.615  26.149  1.00  0.00     0.060 A 
ATOM     39  C   UNL A   1      43.690  26.984  26.216  1.00  0.00     0.016 A 
ATOM     40  C   UNL A   1      42.485  25.036  27.024  1.00  0.00     0.016 A 
ATOM     41  C   UNL A   1      43.103  27.771  27.203  1.00  0.00     0.010 A 
ATOM     42  C   UNL A   1      41.896  25.829  28.018  1.00  0.00     0.010 A 
ATOM     43  C   UNL A   1      42.239  27.189  28.139  1.00  0.00    -0.014 A 
BRANCH  43  44
ATOM     44  C   UNL A   1      41.839  27.977  29.331  1.00  0.00     0.031 A 
ATOM     45  C   UNL A   1      40.599  28.826  29.263  1.00  0.00     0.074 A 
ATOM     46  C   UNL A   1      42.526  27.884  30.484  1.00  0.00     0.049 A 
ATOM     47  N   UNL A   1      40.042  29.562  30.192  1.00  0.00    -0.248 NA
ATOM     48  C   UNL A   1      39.890  28.847  27.974  1.00  0.00     0.031 C 
ATOM     49  C   UNL A   1      43.716  27.062  30.693  1.00  0.00     0.029 A 
ATOM     50  N   UNL A   1      42.311  28.484  31.699  1.00  0.00    -0.354 N 
ATOM     51  C   UNL A   1      38.921  30.130  29.601  1.00  0.00     0.074 A 
ATOM     52  C   UNL A   1      38.898  29.687  28.223  1.00  0.00     0.031 C 
ATOM     53  C   UNL A   1      44.123  27.204  31.966  1.00  0.00     0.029 A 
ATOM     54  C   UNL A   1      43.239  28.145  32.652  1.00  0.00     0.049 A 
ATOM     55  H   UNL A   1      41.562  29.099  31.871  1.00  0.00     0.167 HD
ATOM     56  C   UNL A   1      37.986  30.937  30.157  1.00  0.00     0.037 A 
ATOM     57  C   UNL A   1      43.364  28.555  33.928  1.00  0.00     0.037 A 
ATOM     58  C   UNL A   1      38.006  31.381  31.526  1.00  0.00     0.049 A 
ATOM     59  C   UNL A   1      42.358  29.515  34.502  1.00  0.00     0.074 A 
ATOM     60  C   UNL A   1      37.096  32.188  32.186  1.00  0.00     0.029 A 
ATOM     61  N   UNL A   1      38.997  31.062  32.442  1.00  0.00    -0.354 N 
ATOM     62  N   UNL A   1      41.289  30.027  33.943  1.00  0.00    -0.248 NA
ATOM     63  C   UNL A   1      42.577  29.953  35.890  1.00  0.00     0.031 C 
ATOM     64  C   UNL A   1      37.562  32.397  33.489  1.00  0.00     0.029 A 
ATOM     65  C   UNL A   1      38.736  31.679  33.655  1.00  0.00     0.049 A 
ATOM     66  H   UNL A   1      39.772  30.483  32.258  1.00  0.00     0.167 HD
ATOM     67  C   UNL A   1      40.692  30.822  34.914  1.00  0.00     0.074 A 
ATOM     68  C   UNL A   1      41.514  30.718  36.102  1.00  0.00     0.031 C 
ATOM     69  C   UNL A   1      39.561  31.566  34.831  1.00  0.00     0.037 A 
BRANCH  56  70
ATOM     70  C   UNL A   1      36.873  31.410  29.266  1.00  0.00     0.057 A 
ATOM     71  C   UNL A   1      36.840  32.713  28.751  1.00  0.00     0.134 A 
ATOM     72  C   UNL A   1      35.826  30.549  28.914  1.00  0.00     0.134 A 
ATOM     73  F   UNL A   1      37.805  33.591  29.059  1.00  0.00    -0.206 F 
ATOM     74  C   UNL A   1      35.787  33.152  27.945  1.00  0.00     0.040 A 
ATOM     75  C   UNL A   1      34.782  30.968  28.087  1.00  0.00     0.040 A 
ATOM     76  F   UNL A   1      35.800  29.287  29.368  1.00  0.00    -0.206 F 
ATOM     77  C   UNL A   1      34.757  32.276  27.608  1.00  0.00     0.006 A 
ENDBRANCH  56  70
BRANCH  57  78
ATOM     78  C   UNL A   1      44.486  28.050  34.759  1.00  0.00     0.057 A 
ATOM     79  C   UNL A   1      44.375  26.854  35.475  1.00  0.00     0.134 A 
ATOM     80  C   UNL A   1      45.693  28.753  34.857  1.00  0.00     0.134 A 
ATOM     81  F   UNL A   1      43.235  26.148  35.440  1.00  0.00    -0.206 F 
ATOM     82  C   UNL A   1      45.421  26.378  36.268  1.00  0.00     0.040 A 
ATOM     83  C   UNL A   1      46.755  28.277  35.629  1.00  0.00     0.040 A 
ATOM     84  F   UNL A   1      45.861  29.907  34.195  1.00  0.00    -0.206 F 
ATOM     85  C   UNL A   1      46.618  27.088  36.341  1.00  0.00     0.006 A 
ENDBRANCH  57  78
BRANCH  69  86
ATOM     86  C   UNL A   1      39.129  32.302  36.065  1.00  0.00     0.057 A 
ATOM     87  C   UNL A   1      39.526  33.621  36.320  1.00  0.00     0.134 A 
ATOM     88  C   UNL A   1      38.268  31.697  36.991  1.00  0.00     0.134 A 
ATOM     89  F   UNL A   1      40.359  34.254  35.479  1.00  0.00    -0.206 F 
ATOM     90  C   UNL A   1      39.101  34.304  37.460  1.00  0.00     0.040 A 
ATOM     91  C   UNL A   1      37.815  32.378  38.122  1.00  0.00     0.040 A 
ATOM     92  F   UNL A   1      37.842  30.439  36.802  1.00  0.00    -0.206 F 
ATOM     93  C   UNL A   1      38.237  33.684  38.362  1.00  0.00     0.006 A 
ENDBRANCH  69  86
ENDBRANCH  43  44
ENDBRANCH  36  38
ENDBRANCH  35  36
ENDBRANCH  34  35
ENDBRANCH  33  34
ENDBRANCH  32  33
ENDBRANCH  31  32
ENDBRANCH  30  31
ENDBRANCH  29  30
ENDBRANCH   1  29
TORSDOF 23
ENDMDL
MODEL 3
REMARK VINA RESULT:     -10.3      1.427      2.866
REMARK SMILES CCCCCCNC(=O)Oc1cccc(-c2ccc([C@@H](C)C(=O)OCCOCCOC(=O)c3ccc(-c4c5nc(c(-c6c(F)cccc6F)c6ccc([nH]6)c(-c6c(F)cccc6F)c6nc(c(-c7c(F)cccc7F)c7ccc4[nH]7)C=C6)C=C5)cc3)cc2C)c1
REMARK SMILES IDX 22 1 23 2 20 3 21 4 19 5 16 6 17 7 88 8 18 9 87 10 89 11
REMARK SMILES IDX 15 12 11 13 12 14 90 15 13 16 14 17 10 18 8 19 7 20 9 22
REMARK SMILES IDX 6 23 5 24 4 25 3 26 2 27 1 28 24 29 25 30 26 31 27 32 28 33
REMARK SMILES IDX 29 34 30 35 31 36 32 37 33 38 34 39 86 40 35 41 85 42 36 43
REMARK SMILES IDX 37 44 38 45 79 46 39 47 84 48 78 49 80 50 40 51 83 52 77 53
REMARK SMILES IDX 76 54 41 56 67 57 50 58 66 59 51 60 54 61 65 62 81 63 52 64
REMARK SMILES IDX 53 65 64 67 82 68 55 69 42 70 43 71 48 72 44 73 45 74 47 75
REMARK SMILES IDX 49 76 46 77 68 78 69 79 74 80 70 81 71 82 73 83 75 84 72 85
REMARK SMILES IDX 56 86 57 87 62 88 58 89 59 90 61 91 63 92 60 93
REMARK H PARENT 7 21 80 55 54 66
REMARK Flexibility Score: inf
ROOT
ATOM      1  C   UNL A   1      39.027  21.802  26.127  1.00  0.00     0.313 C 
ATOM      2  O   UNL A   1      39.262  22.945  26.511  1.00  0.00    -0.252 OA
ENDROOT
BRANCH   1   3
ATOM      3  C   UNL A   1      37.630  21.372  25.711  1.00  0.00     0.126 C 
ATOM      4  C   UNL A   1      37.719  20.060  24.936  1.00  0.00     0.025 C 
BRANCH   3   5
ATOM      5  C   UNL A   1      36.742  22.392  25.003  1.00  0.00    -0.034 A 
ATOM      6  C   UNL A   1      34.892  24.203  23.788  1.00  0.00    -0.015 A 
ATOM      7  C   UNL A   1      35.685  23.327  23.021  1.00  0.00     0.009 A 
ATOM      8  C   UNL A   1      35.041  24.168  25.191  1.00  0.00    -0.043 A 
ATOM      9  C   UNL A   1      36.587  22.433  23.615  1.00  0.00     0.005 A 
ATOM     10  C   UNL A   1      35.976  23.285  25.772  1.00  0.00     0.008 A 
ATOM     11  C   UNL A   1      34.242  25.042  26.125  1.00  0.00     0.045 C 
BRANCH   6  12
ATOM     12  C   UNL A   1      33.899  25.062  23.110  1.00  0.00    -0.014 A 
ATOM     13  C   UNL A   1      32.634  27.128  22.927  1.00  0.00     0.133 A 
ATOM     14  C   UNL A   1      31.880  26.608  21.878  1.00  0.00     0.047 A 
ATOM     15  C   UNL A   1      33.637  26.373  23.542  1.00  0.00     0.056 A 
ATOM     16  C   UNL A   1      32.148  25.322  21.420  1.00  0.00     0.004 A 
ATOM     17  C   UNL A   1      33.145  24.557  22.032  1.00  0.00     0.009 A 
BRANCH  13  18
ATOM     18  O   UNL A   1      32.237  28.383  23.422  1.00  0.00    -0.410 OA
BRANCH  18  19
ATOM     19  C   UNL A   1      32.708  28.798  24.656  1.00  0.00     0.412 C 
ATOM     20  N   UNL A   1      32.002  28.285  25.708  1.00  0.00    -0.321 N 
ATOM     21  H   UNL A   1      32.308  28.543  26.607  1.00  0.00     0.167 HD
ATOM     22  O   UNL A   1      33.655  29.561  24.846  1.00  0.00    -0.224 OA
BRANCH  20  23
ATOM     23  C   UNL A   1      30.853  27.401  25.643  1.00  0.00     0.119 C 
BRANCH  23  24
ATOM     24  C   UNL A   1      31.087  26.092  26.399  1.00  0.00     0.021 C 
BRANCH  24  25
ATOM     25  C   UNL A   1      30.226  24.910  25.935  1.00  0.00     0.002 C 
BRANCH  25  26
ATOM     26  C   UNL A   1      30.869  23.988  24.894  1.00  0.00    -0.000 C 
BRANCH  26  27
ATOM     27  C   UNL A   1      31.232  22.586  25.389  1.00  0.00    -0.003 C 
ATOM     28  C   UNL A   1      32.253  21.881  24.509  1.00  0.00     0.004 C 
ENDBRANCH  26  27
ENDBRANCH  25  26
ENDBRANCH  24  25
ENDBRANCH  23  24
ENDBRANCH  20  23
ENDBRANCH  18  19
ENDBRANCH  13  18
ENDBRANCH   6  12
ENDBRANCH   3   5
ENDBRANCH   1   3
BRANCH   1  29
ATOM     29  O   UNL A   1      39.952  20.810  26.068  1.00  0.00    -0.463 OA
BRANCH  29  30
ATOM     30  C   UNL A   1      41.094  20.962  26.931  1.00  0.00     0.261 C 
BRANCH  30  31
ATOM     31  C   UNL A   1      42.187  21.795  26.256  1.00  0.00     0.202 C 
BRANCH  31  32
ATOM     32  O   UNL A   1      43.051  21.095  25.361  1.00  0.00    -0.374 OA
BRANCH  32  33
ATOM     33  C   UNL A   1      44.412  21.517  25.294  1.00  0.00     0.202 C 
BRANCH  33  34
ATOM     34  C   UNL A   1      44.752  22.590  24.252  1.00  0.00     0.261 C 
BRANCH  34  35
ATOM     35  O   UNL A   1      43.965  23.782  24.413  1.00  0.00    -0.460 OA
BRANCH  35  36
ATOM     36  C   UNL A   1      44.617  24.814  25.001  1.00  0.00     0.338 C 
ATOM     37  O   UNL A   1      45.734  25.227  24.744  1.00  0.00    -0.246 OA
BRANCH  36  38
ATOM     38  C   UNL A   1      43.705  25.537  25.910  1.00  0.00     0.060 A 
ATOM     39  C   UNL A   1      43.884  26.921  26.023  1.00  0.00     0.016 A 
ATOM     40  C   UNL A   1      42.758  24.876  26.696  1.00  0.00     0.016 A 
ATOM     41  C   UNL A   1      43.166  27.642  26.973  1.00  0.00     0.010 A 
ATOM     42  C   UNL A   1      42.037  25.603  27.652  1.00  0.00     0.010 A 
ATOM     43  C   UNL A   1      42.272  26.980  27.825  1.00  0.00    -0.014 A 
BRANCH  43  44
ATOM     44  C   UNL A   1      41.723  27.710  28.994  1.00  0.00     0.031 A 
ATOM     45  C   UNL A   1      42.438  27.616  30.314  1.00  0.00     0.074 A 
ATOM     46  C   UNL A   1      40.645  28.504  28.870  1.00  0.00     0.049 A 
ATOM     47  N   UNL A   1      42.162  28.200  31.454  1.00  0.00    -0.248 NA
ATOM     48  C   UNL A   1      43.626  26.749  30.356  1.00  0.00     0.031 C 
ATOM     49  C   UNL A   1      39.891  28.716  27.637  1.00  0.00     0.029 A 
ATOM     50  N   UNL A   1      40.005  29.288  29.797  1.00  0.00    -0.354 N 
ATOM     51  C   UNL A   1      43.139  27.771  32.343  1.00  0.00     0.074 A 
ATOM     52  C   UNL A   1      43.992  26.849  31.624  1.00  0.00     0.031 C 
ATOM     53  C   UNL A   1      38.892  29.581  27.882  1.00  0.00     0.029 A 
ATOM     54  C   UNL A   1      38.921  29.963  29.294  1.00  0.00     0.049 A 
ATOM     55  H   UNL A   1      40.296  29.359  30.735  1.00  0.00     0.167 HD
ATOM     56  C   UNL A   1      43.321  28.124  33.638  1.00  0.00     0.037 A 
ATOM     57  C   UNL A   1      38.049  30.787  29.904  1.00  0.00     0.037 A 
ATOM     58  C   UNL A   1      42.474  29.039  34.357  1.00  0.00     0.049 A 
ATOM     59  C   UNL A   1      38.224  31.102  31.366  1.00  0.00     0.074 A 
ATOM     60  C   UNL A   1      42.585  29.470  35.667  1.00  0.00     0.029 A 
ATOM     61  N   UNL A   1      41.351  29.656  33.826  1.00  0.00    -0.354 N 
ATOM     62  N   UNL A   1      39.164  30.712  32.190  1.00  0.00    -0.248 NA
ATOM     63  C   UNL A   1      37.213  31.977  31.979  1.00  0.00     0.031 C 
ATOM     64  C   UNL A   1      41.501  30.311  35.944  1.00  0.00     0.029 A 
ATOM     65  C   UNL A   1      40.744  30.443  34.790  1.00  0.00     0.049 A 
ATOM     66  H   UNL A   1      41.033  29.550  32.900  1.00  0.00     0.167 HD
ATOM     67  C   UNL A   1      38.878  31.314  33.409  1.00  0.00     0.074 A 
ATOM     68  C   UNL A   1      37.679  32.103  33.214  1.00  0.00     0.031 C 
ATOM     69  C   UNL A   1      39.551  31.225  34.584  1.00  0.00     0.037 A 
BRANCH  56  70
ATOM     70  C   UNL A   1      44.473  27.491  34.364  1.00  0.00     0.057 A 
ATOM     71  C   UNL A   1      45.756  28.055  34.354  1.00  0.00     0.134 A 
ATOM     72  C   UNL A   1      44.295  26.305  35.088  1.00  0.00     0.134 A 
ATOM     73  F   UNL A   1      45.996  29.182  33.669  1.00  0.00    -0.206 F 
ATOM     74  C   UNL A   1      46.827  27.444  35.010  1.00  0.00     0.040 A 
ATOM     75  C   UNL A   1      45.351  25.700  35.771  1.00  0.00     0.040 A 
ATOM     76  F   UNL A   1      43.091  25.716  35.144  1.00  0.00    -0.206 F 
ATOM     77  C   UNL A   1      46.624  26.266  35.725  1.00  0.00     0.006 A 
ENDBRANCH  56  70
BRANCH  57  78
ATOM     78  C   UNL A   1      36.930  31.382  29.131  1.00  0.00     0.057 A 
ATOM     79  C   UNL A   1      35.807  30.623  28.785  1.00  0.00     0.134 A 
ATOM     80  C   UNL A   1      36.959  32.719  28.719  1.00  0.00     0.134 A 
ATOM     81  F   UNL A   1      35.733  29.329  29.130  1.00  0.00    -0.206 F 
ATOM     82  C   UNL A   1      34.755  31.169  28.047  1.00  0.00     0.040 A 
ATOM     83  C   UNL A   1      35.905  33.285  28.000  1.00  0.00     0.040 A 
ATOM     84  F   UNL A   1      38.008  33.498  29.019  1.00  0.00    -0.206 F 
ATOM     85  C   UNL A   1      34.800  32.507  27.659  1.00  0.00     0.006 A 
ENDBRANCH  57  78
BRANCH  69  86
ATOM     86  C   UNL A   1      39.026  32.024  35.740  1.00  0.00     0.057 A 
ATOM     87  C   UNL A   1      38.186  31.461  36.709  1.00  0.00     0.134 A 
ATOM     88  C   UNL A   1      39.401  33.364  35.910  1.00  0.00     0.134 A 
ATOM     89  F   UNL A   1      37.779  30.188  36.599  1.00  0.00    -0.206 F 
ATOM     90  C   UNL A   1      37.720  32.208  37.794  1.00  0.00     0.040 A 
ATOM     91  C   UNL A   1      38.963  34.113  37.003  1.00  0.00     0.040 A 
ATOM     92  F   UNL A   1      40.212  33.961  35.023  1.00  0.00    -0.206 F 
ATOM     93  C   UNL A   1      38.115  33.536  37.946  1.00  0.00     0.006 A 
ENDBRANCH  69  86
ENDBRANCH  43  44
ENDBRANCH  36  38
ENDBRANCH  35  36
ENDBRANCH  34  35
ENDBRANCH  33  34
ENDBRANCH  32  33
ENDBRANCH  31  32
ENDBRANCH  30  31
ENDBRANCH  29  30
ENDBRANCH   1  29
TORSDOF 23
ENDMDL
