MODEL 1
REMARK VINA RESULT:     -10.1      0.000      0.000
REMARK SMILES O=C(Cc1cccn(C(F)F)c1=O)OCCOCCOC(=O)c1ccc(-c2c3nc(c(-c4c(F)cccc4F)c4ccc([nH]4)c(-c4c(F)cccc4F)c4nc(c(-c5c(F)cccc5F)c5ccc2[nH]5)C=C4)C=C3)cc1
REMARK SMILES IDX 17 1 16 2 15 3 14 4 2 5 1 6 3 7 4 8 5 9 12 10 6 11 8 12
REMARK SMILES IDX 13 13 7 14 9 15 10 16 11 17 18 18 19 19 20 20 21 21 22 22
REMARK SMILES IDX 23 23 24 24 76 25 25 26 75 27 26 28 27 29 28 30 69 31 29 32
REMARK SMILES IDX 74 33 68 34 70 35 30 36 73 37 67 38 66 39 31 41 57 42 40 43
REMARK SMILES IDX 56 44 41 45 44 46 55 47 71 48 42 49 43 50 54 52 72 53 45 54
REMARK SMILES IDX 32 55 33 56 38 57 34 58 35 59 37 60 39 61 36 62 58 63 59 64
REMARK SMILES IDX 64 65 60 66 61 67 63 68 65 69 62 70 46 71 47 72 52 73 48 74
REMARK SMILES IDX 49 75 51 76 53 77 50 78
REMARK H PARENT 70 40 44 51
REMARK Flexibility Score: inf
ROOT
ATOM      1  O   UNL A   1      46.162  21.521  25.489  1.00  0.00    -0.374 OA
ENDROOT
BRANCH   1   2
ATOM      2  C   UNL A   1      45.919  20.172  25.092  1.00  0.00     0.202 C 
BRANCH   2   3
ATOM      3  C   UNL A   1      44.442  19.801  25.055  1.00  0.00     0.261 C 
BRANCH   3   4
ATOM      4  O   UNL A   1      44.101  18.785  26.016  1.00  0.00    -0.463 OA
BRANCH   4   5
ATOM      5  C   UNL A   1      42.858  18.359  26.338  1.00  0.00     0.310 C 
ATOM      6  O   UNL A   1      42.336  17.485  25.645  1.00  0.00    -0.252 OA
BRANCH   5   7
ATOM      7  C   UNL A   1      42.075  19.005  27.473  1.00  0.00     0.164 C 
BRANCH   7   8
ATOM      8  C   UNL A   1      41.373  20.282  27.141  1.00  0.00     0.029 A 
ATOM      9  C   UNL A   1      41.759  21.487  27.598  1.00  0.00     0.011 A 
ATOM     10  C   UNL A   1      40.152  20.180  26.282  1.00  0.00     0.258 A 
ATOM     11  C   UNL A   1      40.956  22.659  27.362  1.00  0.00     0.019 A 
ATOM     12  N   UNL A   1      39.435  21.348  26.109  1.00  0.00    -0.258 N 
ATOM     13  O   UNL A   1      39.833  19.099  25.796  1.00  0.00    -0.269 OA
ATOM     14  C   UNL A   1      39.830  22.559  26.648  1.00  0.00     0.095 A 
BRANCH  12  15
ATOM     15  C   UNL A   1      38.244  21.281  25.303  1.00  0.00     0.451 C 
ATOM     16  F   UNL A   1      37.154  21.207  26.112  1.00  0.00    -0.185 F 
ATOM     17  F   UNL A   1      38.115  22.435  24.595  1.00  0.00    -0.185 F 
ENDBRANCH  12  15
ENDBRANCH   7   8
ENDBRANCH   5   7
ENDBRANCH   4   5
ENDBRANCH   3   4
ENDBRANCH   2   3
ENDBRANCH   1   2
BRANCH   1  18
ATOM     18  C   UNL A   1      44.978  22.329  25.587  1.00  0.00     0.202 C 
BRANCH  18  19
ATOM     19  C   UNL A   1      44.645  23.104  24.308  1.00  0.00     0.261 C 
BRANCH  19  20
ATOM     20  O   UNL A   1      44.018  24.354  24.633  1.00  0.00    -0.460 OA
BRANCH  20  21
ATOM     21  C   UNL A   1      44.825  25.294  25.178  1.00  0.00     0.338 C 
ATOM     22  O   UNL A   1      45.903  25.677  24.754  1.00  0.00    -0.246 OA
BRANCH  21  23
ATOM     23  C   UNL A   1      44.084  25.976  26.265  1.00  0.00     0.060 A 
ATOM     24  C   UNL A   1      43.151  25.303  27.058  1.00  0.00     0.016 A 
ATOM     25  C   UNL A   1      44.302  27.349  26.445  1.00  0.00     0.016 A 
ATOM     26  C   UNL A   1      42.460  25.999  28.050  1.00  0.00     0.010 A 
ATOM     27  C   UNL A   1      43.616  28.044  27.439  1.00  0.00     0.010 A 
ATOM     28  C   UNL A   1      42.709  27.366  28.265  1.00  0.00    -0.014 A 
BRANCH  28  29
ATOM     29  C   UNL A   1      42.158  28.028  29.467  1.00  0.00     0.031 A 
ATOM     30  C   UNL A   1      42.833  27.944  30.800  1.00  0.00     0.074 A 
ATOM     31  C   UNL A   1      41.012  28.718  29.322  1.00  0.00     0.049 A 
ATOM     32  N   UNL A   1      42.510  28.538  31.921  1.00  0.00    -0.248 NA
ATOM     33  C   UNL A   1      44.017  27.080  30.892  1.00  0.00     0.031 C 
ATOM     34  C   UNL A   1      40.261  28.839  28.070  1.00  0.00     0.029 A 
ATOM     35  N   UNL A   1      40.290  29.458  30.219  1.00  0.00    -0.354 N 
ATOM     36  C   UNL A   1      43.466  28.147  32.847  1.00  0.00     0.074 A 
ATOM     37  C   UNL A   1      44.350  27.219  32.170  1.00  0.00     0.031 C 
ATOM     38  C   UNL A   1      39.205  29.642  28.269  1.00  0.00     0.029 A 
ATOM     39  C   UNL A   1      39.190  30.064  29.665  1.00  0.00     0.049 A 
ATOM     40  H   UNL A   1      40.535  29.548  31.168  1.00  0.00     0.167 HD
ATOM     41  C   UNL A   1      43.601  28.545  34.137  1.00  0.00     0.037 A 
ATOM     42  C   UNL A   1      38.276  30.879  30.220  1.00  0.00     0.037 A 
ATOM     43  C   UNL A   1      42.691  29.441  34.810  1.00  0.00     0.049 A 
ATOM     44  C   UNL A   1      38.413  31.244  31.668  1.00  0.00     0.074 A 
ATOM     45  C   UNL A   1      42.744  29.909  36.111  1.00  0.00     0.029 A 
ATOM     46  N   UNL A   1      41.555  29.993  34.234  1.00  0.00    -0.354 N 
ATOM     47  N   UNL A   1      39.354  30.916  32.519  1.00  0.00    -0.248 NA
ATOM     48  C   UNL A   1      37.360  32.099  32.231  1.00  0.00     0.031 C 
ATOM     49  C   UNL A   1      41.616  30.708  36.337  1.00  0.00     0.029 A 
ATOM     50  C   UNL A   1      40.886  30.777  35.162  1.00  0.00     0.049 A 
ATOM     51  H   UNL A   1      41.267  29.849  33.305  1.00  0.00     0.167 HD
ATOM     52  C   UNL A   1      39.022  31.541  33.712  1.00  0.00     0.074 A 
ATOM     53  C   UNL A   1      37.802  32.285  33.467  1.00  0.00     0.031 C 
ATOM     54  C   UNL A   1      39.667  31.504  34.903  1.00  0.00     0.037 A 
BRANCH  41  55
ATOM     55  C   UNL A   1      44.777  28.012  34.902  1.00  0.00     0.057 A 
ATOM     56  C   UNL A   1      46.007  28.683  34.898  1.00  0.00     0.134 A 
ATOM     57  C   UNL A   1      44.703  26.808  35.615  1.00  0.00     0.134 A 
ATOM     58  F   UNL A   1      46.153  29.837  34.229  1.00  0.00    -0.206 F 
ATOM     59  C   UNL A   1      47.118  28.177  35.577  1.00  0.00     0.040 A 
ATOM     60  C   UNL A   1      45.799  26.304  36.318  1.00  0.00     0.040 A 
ATOM     61  F   UNL A   1      43.553  26.118  35.665  1.00  0.00    -0.206 F 
ATOM     62  C   UNL A   1      47.013  26.987  36.296  1.00  0.00     0.006 A 
ENDBRANCH  41  55
BRANCH  42  63
ATOM     63  C   UNL A   1      37.172  31.427  29.395  1.00  0.00     0.057 A 
ATOM     64  C   UNL A   1      36.027  30.675  29.108  1.00  0.00     0.134 A 
ATOM     65  C   UNL A   1      37.239  32.727  28.879  1.00  0.00     0.134 A 
ATOM     66  F   UNL A   1      35.910  29.420  29.565  1.00  0.00    -0.206 F 
ATOM     67  C   UNL A   1      34.991  31.193  28.333  1.00  0.00     0.040 A 
ATOM     68  C   UNL A   1      36.197  33.266  28.125  1.00  0.00     0.040 A 
ATOM     69  F   UNL A   1      38.306  33.499  29.133  1.00  0.00    -0.206 F 
ATOM     70  C   UNL A   1      35.070  32.497  27.847  1.00  0.00     0.006 A 
ENDBRANCH  42  63
BRANCH  54  71
ATOM     71  C   UNL A   1      39.068  32.310  36.020  1.00  0.00     0.057 A 
ATOM     72  C   UNL A   1      38.144  31.733  36.901  1.00  0.00     0.134 A 
ATOM     73  C   UNL A   1      39.405  33.654  36.223  1.00  0.00     0.134 A 
ATOM     74  F   UNL A   1      37.776  30.451  36.759  1.00  0.00    -0.206 F 
ATOM     75  C   UNL A   1      37.581  32.464  37.947  1.00  0.00     0.040 A 
ATOM     76  C   UNL A   1      38.869  34.387  37.284  1.00  0.00     0.040 A 
ATOM     77  F   UNL A   1      40.298  34.259  35.425  1.00  0.00    -0.206 F 
ATOM     78  C   UNL A   1      37.950  33.793  38.147  1.00  0.00     0.006 A 
ENDBRANCH  54  71
ENDBRANCH  28  29
ENDBRANCH  21  23
ENDBRANCH  20  21
ENDBRANCH  19  20
ENDBRANCH  18  19
ENDBRANCH   1  18
TORSDOF 16
ENDMDL
MODEL 2
REMARK VINA RESULT:     -10.0      4.932     11.339
REMARK SMILES O=C(Cc1cccn(C(F)F)c1=O)OCCOCCOC(=O)c1ccc(-c2c3nc(c(-c4c(F)cccc4F)c4ccc([nH]4)c(-c4c(F)cccc4F)c4nc(c(-c5c(F)cccc5F)c5ccc2[nH]5)C=C4)C=C3)cc1
REMARK SMILES IDX 17 1 16 2 15 3 14 4 2 5 1 6 3 7 4 8 5 9 12 10 6 11 8 12
REMARK SMILES IDX 13 13 7 14 9 15 10 16 11 17 18 18 19 19 20 20 21 21 22 22
REMARK SMILES IDX 23 23 24 24 76 25 25 26 75 27 26 28 27 29 28 30 69 31 29 32
REMARK SMILES IDX 74 33 68 34 70 35 30 36 73 37 67 38 66 39 31 41 57 42 40 43
REMARK SMILES IDX 56 44 41 45 44 46 55 47 71 48 42 49 43 50 54 52 72 53 45 54
REMARK SMILES IDX 32 55 33 56 38 57 34 58 35 59 37 60 39 61 36 62 58 63 59 64
REMARK SMILES IDX 64 65 60 66 61 67 63 68 65 69 62 70 46 71 47 72 52 73 48 74
REMARK SMILES IDX 49 75 51 76 53 77 50 78
REMARK H PARENT 70 40 44 51
REMARK Flexibility Score: inf
ROOT
ATOM      1  O   UNL A   1      32.518  34.612  29.119  1.00  0.00    -0.374 OA
ENDROOT
BRANCH   1   2
ATOM      2  C   UNL A   1      32.984  35.898  29.524  1.00  0.00     0.202 C 
BRANCH   2   3
ATOM      3  C   UNL A   1      33.016  36.091  31.036  1.00  0.00     0.261 C 
BRANCH   3   4
ATOM      4  O   UNL A   1      33.060  34.844  31.753  1.00  0.00    -0.463 OA
BRANCH   4   5
ATOM      5  C   UNL A   1      34.133  34.307  32.378  1.00  0.00     0.310 C 
ATOM      6  O   UNL A   1      34.337  33.098  32.267  1.00  0.00    -0.252 OA
BRANCH   5   7
ATOM      7  C   UNL A   1      35.023  35.153  33.278  1.00  0.00     0.164 C 
BRANCH   7   8
ATOM      8  C   UNL A   1      36.361  34.573  33.607  1.00  0.00     0.029 A 
ATOM      9  C   UNL A   1      37.434  34.666  32.801  1.00  0.00     0.011 A 
ATOM     10  C   UNL A   1      36.473  33.816  34.893  1.00  0.00     0.258 A 
ATOM     11  C   UNL A   1      38.651  33.960  33.106  1.00  0.00     0.019 A 
ATOM     12  N   UNL A   1      37.671  33.164  35.108  1.00  0.00    -0.258 N 
ATOM     13  O   UNL A   1      35.526  33.789  35.672  1.00  0.00    -0.269 OA
ATOM     14  C   UNL A   1      38.733  33.231  34.225  1.00  0.00     0.095 A 
BRANCH  12  15
ATOM     15  C   UNL A   1      37.806  32.411  36.329  1.00  0.00     0.451 C 
ATOM     16  F   UNL A   1      38.350  31.197  36.053  1.00  0.00    -0.185 F 
ATOM     17  F   UNL A   1      38.685  33.044  37.152  1.00  0.00    -0.185 F 
ENDBRANCH  12  15
ENDBRANCH   7   8
ENDBRANCH   5   7
ENDBRANCH   4   5
ENDBRANCH   3   4
ENDBRANCH   2   3
ENDBRANCH   1   2
BRANCH   1  18
ATOM     18  C   UNL A   1      33.292  34.010  28.069  1.00  0.00     0.202 C 
BRANCH  18  19
ATOM     19  C   UNL A   1      34.507  33.219  28.566  1.00  0.00     0.261 C 
BRANCH  19  20
ATOM     20  O   UNL A   1      34.940  32.290  27.561  1.00  0.00    -0.460 OA
BRANCH  20  21
ATOM     21  C   UNL A   1      34.712  30.982  27.828  1.00  0.00     0.338 C 
ATOM     22  O   UNL A   1      33.695  30.349  27.600  1.00  0.00    -0.246 OA
BRANCH  21  23
ATOM     23  C   UNL A   1      35.991  30.357  28.238  1.00  0.00     0.060 A 
ATOM     24  C   UNL A   1      37.114  30.358  27.406  1.00  0.00     0.016 A 
ATOM     25  C   UNL A   1      36.032  29.701  29.476  1.00  0.00     0.016 A 
ATOM     26  C   UNL A   1      38.285  29.730  27.829  1.00  0.00     0.010 A 
ATOM     27  C   UNL A   1      37.204  29.078  29.901  1.00  0.00     0.010 A 
ATOM     28  C   UNL A   1      38.346  29.111  29.090  1.00  0.00    -0.014 A 
BRANCH  28  29
ATOM     29  C   UNL A   1      39.652  28.668  29.624  1.00  0.00     0.031 A 
ATOM     30  C   UNL A   1      40.291  29.325  30.806  1.00  0.00     0.074 A 
ATOM     31  C   UNL A   1      40.257  27.641  29.001  1.00  0.00     0.049 A 
ATOM     32  N   UNL A   1      41.392  28.993  31.433  1.00  0.00    -0.248 NA
ATOM     33  C   UNL A   1      39.615  30.508  31.355  1.00  0.00     0.031 C 
ATOM     34  C   UNL A   1      39.730  26.948  27.822  1.00  0.00     0.029 A 
ATOM     35  N   UNL A   1      41.429  26.989  29.277  1.00  0.00    -0.354 N 
ATOM     36  C   UNL A   1      41.528  29.905  32.469  1.00  0.00     0.074 A 
ATOM     37  C   UNL A   1      40.426  30.839  32.353  1.00  0.00     0.031 C 
ATOM     38  C   UNL A   1      40.557  25.942  27.500  1.00  0.00     0.029 A 
ATOM     39  C   UNL A   1      41.681  25.939  28.429  1.00  0.00     0.049 A 
ATOM     40  H   UNL A   1      42.032  27.247  30.010  1.00  0.00     0.167 HD
ATOM     41  C   UNL A   1      42.477  29.943  33.438  1.00  0.00     0.037 A 
ATOM     42  C   UNL A   1      42.702  25.065  28.408  1.00  0.00     0.037 A 
ATOM     43  C   UNL A   1      43.590  29.028  33.520  1.00  0.00     0.049 A 
ATOM     44  C   UNL A   1      43.774  25.176  29.453  1.00  0.00     0.074 A 
ATOM     45  C   UNL A   1      44.600  28.979  34.465  1.00  0.00     0.029 A 
ATOM     46  N   UNL A   1      43.845  28.010  32.612  1.00  0.00    -0.354 N 
ATOM     47  N   UNL A   1      43.861  26.005  30.463  1.00  0.00    -0.248 NA
ATOM     48  C   UNL A   1      44.887  24.223  29.353  1.00  0.00     0.031 C 
ATOM     49  C   UNL A   1      45.491  27.961  34.104  1.00  0.00     0.029 A 
ATOM     50  C   UNL A   1      45.010  27.344  32.961  1.00  0.00     0.049 A 
ATOM     51  H   UNL A   1      43.283  27.794  31.835  1.00  0.00     0.167 HD
ATOM     52  C   UNL A   1      45.025  25.662  31.136  1.00  0.00     0.074 A 
ATOM     53  C   UNL A   1      45.598  24.535  30.427  1.00  0.00     0.031 C 
ATOM     54  C   UNL A   1      45.572  26.229  32.239  1.00  0.00     0.037 A 
BRANCH  41  55
ATOM     55  C   UNL A   1      42.347  31.009  34.487  1.00  0.00     0.057 A 
ATOM     56  C   UNL A   1      42.906  32.280  34.301  1.00  0.00     0.134 A 
ATOM     57  C   UNL A   1      41.696  30.763  35.704  1.00  0.00     0.134 A 
ATOM     58  F   UNL A   1      43.550  32.582  33.164  1.00  0.00    -0.206 F 
ATOM     59  C   UNL A   1      42.821  33.267  35.285  1.00  0.00     0.040 A 
ATOM     60  C   UNL A   1      41.584  31.750  36.687  1.00  0.00     0.040 A 
ATOM     61  F   UNL A   1      41.133  29.569  35.945  1.00  0.00    -0.206 F 
ATOM     62  C   UNL A   1      42.152  33.004  36.480  1.00  0.00     0.006 A 
ENDBRANCH  41  55
BRANCH  42  63
ATOM     63  C   UNL A   1      42.741  23.991  27.386  1.00  0.00     0.057 A 
ATOM     64  C   UNL A   1      43.296  24.204  26.120  1.00  0.00     0.134 A 
ATOM     65  C   UNL A   1      42.223  22.720  27.661  1.00  0.00     0.134 A 
ATOM     66  F   UNL A   1      43.798  25.404  25.794  1.00  0.00    -0.206 F 
ATOM     67  C   UNL A   1      43.332  23.193  25.160  1.00  0.00     0.040 A 
ATOM     68  C   UNL A   1      42.276  21.692  26.719  1.00  0.00     0.040 A 
ATOM     69  F   UNL A   1      41.690  22.453  28.863  1.00  0.00    -0.206 F 
ATOM     70  C   UNL A   1      42.830  21.929  25.463  1.00  0.00     0.006 A 
ENDBRANCH  42  63
BRANCH  54  71
ATOM     71  C   UNL A   1      46.844  25.616  32.751  1.00  0.00     0.057 A 
ATOM     72  C   UNL A   1      46.813  24.651  33.765  1.00  0.00     0.134 A 
ATOM     73  C   UNL A   1      48.096  25.980  32.240  1.00  0.00     0.134 A 
ATOM     74  F   UNL A   1      45.647  24.260  34.300  1.00  0.00    -0.206 F 
ATOM     75  C   UNL A   1      47.984  24.066  34.250  1.00  0.00     0.040 A 
ATOM     76  C   UNL A   1      49.272  25.382  32.697  1.00  0.00     0.040 A 
ATOM     77  F   UNL A   1      48.192  26.886  31.254  1.00  0.00    -0.206 F 
ATOM     78  C   UNL A   1      49.218  24.425  33.709  1.00  0.00     0.006 A 
ENDBRANCH  54  71
ENDBRANCH  28  29
ENDBRANCH  21  23
ENDBRANCH  20  21
ENDBRANCH  19  20
ENDBRANCH  18  19
ENDBRANCH   1  18
TORSDOF 16
ENDMDL
MODEL 3
REMARK VINA RESULT:      -9.8      5.550     11.644
REMARK SMILES O=C(Cc1cccn(C(F)F)c1=O)OCCOCCOC(=O)c1ccc(-c2c3nc(c(-c4c(F)cccc4F)c4ccc([nH]4)c(-c4c(F)cccc4F)c4nc(c(-c5c(F)cccc5F)c5ccc2[nH]5)C=C4)C=C3)cc1
REMARK SMILES IDX 17 1 16 2 15 3 14 4 2 5 1 6 3 7 4 8 5 9 12 10 6 11 8 12
REMARK SMILES IDX 13 13 7 14 9 15 10 16 11 17 18 18 19 19 20 20 21 21 22 22
REMARK SMILES IDX 23 23 24 24 76 25 25 26 75 27 26 28 27 29 28 30 69 31 29 32
REMARK SMILES IDX 74 33 68 34 70 35 30 36 73 37 67 38 66 39 31 41 57 42 40 43
REMARK SMILES IDX 56 44 41 45 44 46 55 47 71 48 42 49 43 50 54 52 72 53 45 54
REMARK SMILES IDX 32 55 33 56 38 57 34 58 35 59 37 60 39 61 36 62 58 63 59 64
REMARK SMILES IDX 64 65 60 66 61 67 63 68 65 69 62 70 46 71 47 72 52 73 48 74
REMARK SMILES IDX 49 75 51 76 53 77 50 78
REMARK H PARENT 70 40 44 51
REMARK Flexibility Score: inf
ROOT
ATOM      1  O   UNL A   1      32.902  34.396  29.276  1.00  0.00    -0.374 OA
ENDROOT
BRANCH   1   2
ATOM      2  C   UNL A   1      33.186  35.777  29.495  1.00  0.00     0.202 C 
BRANCH   2   3
ATOM      3  C   UNL A   1      32.799  36.271  30.883  1.00  0.00     0.261 C 
BRANCH   3   4
ATOM      4  O   UNL A   1      33.427  35.516  31.935  1.00  0.00    -0.463 OA
BRANCH   4   5
ATOM      5  C   UNL A   1      34.240  35.998  32.903  1.00  0.00     0.310 C 
ATOM      6  O   UNL A   1      34.332  37.218  33.044  1.00  0.00    -0.252 OA
BRANCH   5   7
ATOM      7  C   UNL A   1      35.099  35.064  33.746  1.00  0.00     0.164 C 
BRANCH   7   8
ATOM      8  C   UNL A   1      36.099  34.243  32.998  1.00  0.00     0.029 A 
ATOM      9  C   UNL A   1      36.577  34.571  31.784  1.00  0.00     0.011 A 
ATOM     10  C   UNL A   1      36.546  32.968  33.642  1.00  0.00     0.258 A 
ATOM     11  C   UNL A   1      37.424  33.665  31.053  1.00  0.00     0.019 A 
ATOM     12  N   UNL A   1      37.353  32.153  32.873  1.00  0.00    -0.258 N 
ATOM     13  O   UNL A   1      36.177  32.695  34.780  1.00  0.00    -0.269 OA
ATOM     14  C   UNL A   1      37.774  32.495  31.601  1.00  0.00     0.095 A 
BRANCH  12  15
ATOM     15  C   UNL A   1      37.786  30.910  33.456  1.00  0.00     0.451 C 
ATOM     16  F   UNL A   1      36.944  29.913  33.074  1.00  0.00    -0.185 F 
ATOM     17  F   UNL A   1      39.010  30.583  32.961  1.00  0.00    -0.185 F 
ENDBRANCH  12  15
ENDBRANCH   7   8
ENDBRANCH   5   7
ENDBRANCH   4   5
ENDBRANCH   3   4
ENDBRANCH   2   3
ENDBRANCH   1   2
BRANCH   1  18
ATOM     18  C   UNL A   1      33.532  33.843  28.109  1.00  0.00     0.202 C 
BRANCH  18  19
ATOM     19  C   UNL A   1      34.881  33.172  28.389  1.00  0.00     0.261 C 
BRANCH  19  20
ATOM     20  O   UNL A   1      34.687  31.951  29.120  1.00  0.00    -0.460 OA
BRANCH  20  21
ATOM     21  C   UNL A   1      34.757  30.812  28.393  1.00  0.00     0.338 C 
ATOM     22  O   UNL A   1      33.926  30.385  27.608  1.00  0.00    -0.246 OA
BRANCH  21  23
ATOM     23  C   UNL A   1      36.126  30.259  28.516  1.00  0.00     0.060 A 
ATOM     24  C   UNL A   1      37.020  30.252  27.441  1.00  0.00     0.016 A 
ATOM     25  C   UNL A   1      36.490  29.679  29.739  1.00  0.00     0.016 A 
ATOM     26  C   UNL A   1      38.287  29.694  27.603  1.00  0.00     0.010 A 
ATOM     27  C   UNL A   1      37.759  29.126  29.903  1.00  0.00     0.010 A 
ATOM     28  C   UNL A   1      38.674  29.153  28.842  1.00  0.00    -0.014 A 
BRANCH  28  29
ATOM     29  C   UNL A   1      40.090  28.791  29.071  1.00  0.00     0.031 A 
ATOM     30  C   UNL A   1      40.638  27.451  28.693  1.00  0.00     0.074 A 
ATOM     31  C   UNL A   1      40.880  29.719  29.640  1.00  0.00     0.049 A 
ATOM     32  N   UNL A   1      41.873  27.023  28.760  1.00  0.00    -0.248 NA
ATOM     33  C   UNL A   1      39.681  26.462  28.181  1.00  0.00     0.031 C 
ATOM     34  C   UNL A   1      40.436  31.047  30.070  1.00  0.00     0.029 A 
ATOM     35  N   UNL A   1      42.217  29.700  29.937  1.00  0.00    -0.354 N 
ATOM     36  C   UNL A   1      41.852  25.725  28.270  1.00  0.00     0.074 A 
ATOM     37  C   UNL A   1      40.469  25.417  27.962  1.00  0.00     0.031 C 
ATOM     38  C   UNL A   1      41.491  31.731  30.539  1.00  0.00     0.029 A 
ATOM     39  C   UNL A   1      42.673  30.879  30.470  1.00  0.00     0.049 A 
ATOM     40  H   UNL A   1      42.794  28.917  29.784  1.00  0.00     0.167 HD
ATOM     41  C   UNL A   1      42.896  24.880  28.078  1.00  0.00     0.037 A 
ATOM     42  C   UNL A   1      43.911  31.238  30.852  1.00  0.00     0.037 A 
ATOM     43  C   UNL A   1      44.263  25.187  28.424  1.00  0.00     0.049 A 
ATOM     44  C   UNL A   1      45.033  30.255  30.692  1.00  0.00     0.074 A 
ATOM     45  C   UNL A   1      45.392  24.403  28.264  1.00  0.00     0.029 A 
ATOM     46  N   UNL A   1      44.682  26.371  29.014  1.00  0.00    -0.354 N 
ATOM     47  N   UNL A   1      45.012  29.053  30.173  1.00  0.00    -0.248 NA
ATOM     48  C   UNL A   1      46.354  30.686  31.168  1.00  0.00     0.031 C 
ATOM     49  C   UNL A   1      46.487  25.094  28.798  1.00  0.00     0.029 A 
ATOM     50  C   UNL A   1      46.049  26.329  29.247  1.00  0.00     0.049 A 
ATOM     51  H   UNL A   1      44.096  27.130  29.235  1.00  0.00     0.167 HD
ATOM     52  C   UNL A   1      46.318  28.588  30.237  1.00  0.00     0.074 A 
ATOM     53  C   UNL A   1      47.108  29.650  30.828  1.00  0.00     0.031 C 
ATOM     54  C   UNL A   1      46.818  27.392  29.845  1.00  0.00     0.037 A 
BRANCH  41  55
ATOM     55  C   UNL A   1      42.595  23.544  27.464  1.00  0.00     0.057 A 
ATOM     56  C   UNL A   1      42.288  22.433  28.261  1.00  0.00     0.134 A 
ATOM     57  C   UNL A   1      42.648  23.346  26.078  1.00  0.00     0.134 A 
ATOM     58  F   UNL A   1      42.228  22.548  29.597  1.00  0.00    -0.206 F 
ATOM     59  C   UNL A   1      42.041  21.178  27.702  1.00  0.00     0.040 A 
ATOM     60  C   UNL A   1      42.380  22.101  25.505  1.00  0.00     0.040 A 
ATOM     61  F   UNL A   1      42.931  24.369  25.256  1.00  0.00    -0.206 F 
ATOM     62  C   UNL A   1      42.081  21.011  26.318  1.00  0.00     0.006 A 
ENDBRANCH  41  55
BRANCH  42  63
ATOM     63  C   UNL A   1      44.158  32.598  31.390  1.00  0.00     0.057 A 
ATOM     64  C   UNL A   1      44.093  32.866  32.762  1.00  0.00     0.134 A 
ATOM     65  C   UNL A   1      44.471  33.662  30.536  1.00  0.00     0.134 A 
ATOM     66  F   UNL A   1      43.786  31.890  33.629  1.00  0.00    -0.206 F 
ATOM     67  C   UNL A   1      44.326  34.145  33.266  1.00  0.00     0.040 A 
ATOM     68  C   UNL A   1      44.732  34.940  31.030  1.00  0.00     0.040 A 
ATOM     69  F   UNL A   1      44.561  33.461  29.213  1.00  0.00    -0.206 F 
ATOM     70  C   UNL A   1      44.657  35.185  32.399  1.00  0.00     0.006 A 
ENDBRANCH  42  63
BRANCH  54  71
ATOM     71  C   UNL A   1      48.295  27.186  30.027  1.00  0.00     0.057 A 
ATOM     72  C   UNL A   1      48.795  26.603  31.198  1.00  0.00     0.134 A 
ATOM     73  C   UNL A   1      49.219  27.564  29.045  1.00  0.00     0.134 A 
ATOM     74  F   UNL A   1      47.964  26.223  32.180  1.00  0.00    -0.206 F 
ATOM     75  C   UNL A   1      50.163  26.399  31.384  1.00  0.00     0.040 A 
ATOM     76  C   UNL A   1      50.588  27.339  29.207  1.00  0.00     0.040 A 
ATOM     77  F   UNL A   1      48.803  28.110  27.892  1.00  0.00    -0.206 F 
ATOM     78  C   UNL A   1      51.063  26.759  30.382  1.00  0.00     0.006 A 
ENDBRANCH  54  71
ENDBRANCH  28  29
ENDBRANCH  21  23
ENDBRANCH  20  21
ENDBRANCH  19  20
ENDBRANCH  18  19
ENDBRANCH   1  18
TORSDOF 16
ENDMDL
