MODEL 1
REMARK VINA RESULT:     -10.1      0.000      0.000
REMARK SMILES Cc1ccn2c([C@@H]3CCCC[C@@H]3C(=O)OCCOCCOC(=O)c3ccc(-c4c5nc(c(-c6c(F)cccc6F)c6ccc([nH]6)c(-c6c(F)cccc6F)c6nc(c(-c7c(F)cccc7F)c7ccc4[nH]7)C=C6)C=C5)cc3)nnc2c1
REMARK SMILES IDX 19 1 18 2 17 3 16 4 15 5 13 6 14 7 12 8 7 9 8 10 9 11 11 12
REMARK SMILES IDX 10 13 6 14 1 15 2 16 3 17 81 18 4 19 80 20 5 21 79 22 78 23
REMARK SMILES IDX 20 24 21 25 22 26 23 27 24 28 25 29 77 30 26 31 76 32 27 33
REMARK SMILES IDX 28 34 29 35 70 36 30 37 75 38 69 39 71 40 31 41 74 42 68 43
REMARK SMILES IDX 67 44 32 46 58 47 41 48 57 49 42 50 45 51 56 52 72 53 43 54
REMARK SMILES IDX 44 55 55 57 73 58 46 59 33 60 34 61 39 62 35 63 36 64 38 65
REMARK SMILES IDX 40 66 37 67 59 68 60 69 65 70 61 71 62 72 64 73 66 74 63 75
REMARK SMILES IDX 47 76 48 77 53 78 49 79 50 80 52 81 54 82 51 83
REMARK H PARENT 71 45 45 56
REMARK Flexibility Score: inf
ROOT
ATOM      1  C   UNL A   1      42.348  19.762  26.289  1.00  0.00     0.202 C 
ENDROOT
BRANCH   1   2
ATOM      2  O   UNL A   1      42.928  20.688  25.380  1.00  0.00    -0.374 OA
BRANCH   2   3
ATOM      3  C   UNL A   1      44.353  20.807  25.347  1.00  0.00     0.202 C 
BRANCH   3   4
ATOM      4  C   UNL A   1      45.081  21.961  24.636  1.00  0.00     0.261 C 
BRANCH   4   5
ATOM      5  O   UNL A   1      45.323  23.122  25.430  1.00  0.00    -0.463 OA
BRANCH   5   6
ATOM      6  C   UNL A   1      46.149  24.060  24.896  1.00  0.00     0.309 C 
ATOM      7  O   UNL A   1      46.903  23.867  23.957  1.00  0.00    -0.252 OA
BRANCH   6   8
ATOM      8  C   UNL A   1      45.942  25.369  25.653  1.00  0.00     0.110 C 
ATOM      9  C   UNL A   1      47.119  26.372  25.620  1.00  0.00     0.072 C 
ATOM     10  C   UNL A   1      48.384  25.793  26.238  1.00  0.00     0.012 C 
ATOM     11  C   UNL A   1      48.095  25.299  27.662  1.00  0.00     0.001 C 
ATOM     12  C   UNL A   1      45.632  24.978  27.104  1.00  0.00     0.016 C 
ATOM     13  C   UNL A   1      46.867  24.390  27.782  1.00  0.00     0.001 C 
BRANCH   9  14
ATOM     14  C   UNL A   1      47.302  27.222  24.381  1.00  0.00     0.141 A 
ATOM     15  C   UNL A   1      50.547  27.289  19.887  1.00  0.00     0.044 C 
ATOM     16  C   UNL A   1      49.868  27.539  21.204  1.00  0.00    -0.046 A 
ATOM     17  C   UNL A   1      50.403  26.854  22.380  1.00  0.00     0.022 A 
ATOM     18  C   UNL A   1      48.727  28.257  21.299  1.00  0.00     0.053 A 
ATOM     19  C   UNL A   1      49.652  26.757  23.493  1.00  0.00     0.095 A 
ATOM     20  C   UNL A   1      47.936  28.159  22.481  1.00  0.00     0.161 A 
ATOM     21  N   UNL A   1      48.389  27.342  23.520  1.00  0.00    -0.286 N 
ATOM     22  N   UNL A   1      46.718  28.571  22.741  1.00  0.00    -0.130 NA
ATOM     23  N   UNL A   1      46.322  27.984  23.913  1.00  0.00    -0.134 NA
ENDBRANCH   9  14
ENDBRANCH   6   8
ENDBRANCH   5   6
ENDBRANCH   4   5
ENDBRANCH   3   4
ENDBRANCH   2   3
ENDBRANCH   1   2
BRANCH   1  24
ATOM     24  C   UNL A   1      40.826  19.809  26.331  1.00  0.00     0.261 C 
BRANCH  24  25
ATOM     25  O   UNL A   1      40.422  20.855  27.215  1.00  0.00    -0.460 OA
BRANCH  25  26
ATOM     26  C   UNL A   1      39.679  21.776  26.563  1.00  0.00     0.338 C 
ATOM     27  O   UNL A   1      38.759  21.538  25.792  1.00  0.00    -0.246 OA
BRANCH  26  28
ATOM     28  C   UNL A   1      39.976  23.101  27.138  1.00  0.00     0.060 A 
ATOM     29  C   UNL A   1      39.098  24.174  26.954  1.00  0.00     0.016 A 
ATOM     30  C   UNL A   1      41.242  23.290  27.712  1.00  0.00     0.016 A 
ATOM     31  C   UNL A   1      39.524  25.446  27.294  1.00  0.00     0.010 A 
ATOM     32  C   UNL A   1      41.663  24.566  28.075  1.00  0.00     0.010 A 
ATOM     33  C   UNL A   1      40.810  25.646  27.850  1.00  0.00    -0.014 A 
BRANCH  33  34
ATOM     34  C   UNL A   1      41.010  26.921  28.535  1.00  0.00     0.031 A 
ATOM     35  C   UNL A   1      42.160  27.599  27.885  1.00  0.00     0.074 A 
ATOM     36  C   UNL A   1      40.313  27.501  29.530  1.00  0.00     0.049 A 
ATOM     37  N   UNL A   1      43.351  27.691  28.372  1.00  0.00    -0.248 NA
ATOM     38  C   UNL A   1      42.065  27.904  26.445  1.00  0.00     0.031 C 
ATOM     39  C   UNL A   1      39.042  27.104  30.130  1.00  0.00     0.029 A 
ATOM     40  N   UNL A   1      40.606  28.661  30.195  1.00  0.00    -0.354 N 
ATOM     41  C   UNL A   1      44.113  28.260  27.363  1.00  0.00     0.074 A 
ATOM     42  C   UNL A   1      43.341  28.160  26.155  1.00  0.00     0.031 C 
ATOM     43  C   UNL A   1      38.568  28.123  30.893  1.00  0.00     0.029 A 
ATOM     44  C   UNL A   1      39.559  29.188  30.945  1.00  0.00     0.049 A 
ATOM     45  H   UNL A   1      41.492  29.089  30.148  1.00  0.00     0.167 HD
ATOM     46  C   UNL A   1      45.163  29.055  27.689  1.00  0.00     0.037 A 
ATOM     47  C   UNL A   1      39.510  30.423  31.517  1.00  0.00     0.037 A 
ATOM     48  C   UNL A   1      45.627  28.768  29.027  1.00  0.00     0.049 A 
ATOM     49  C   UNL A   1      40.904  30.906  31.658  1.00  0.00     0.074 A 
ATOM     50  C   UNL A   1      46.114  27.652  29.681  1.00  0.00     0.029 A 
ATOM     51  N   UNL A   1      45.241  29.640  30.013  1.00  0.00    -0.354 N 
ATOM     52  N   UNL A   1      41.761  30.404  32.500  1.00  0.00    -0.248 NA
ATOM     53  C   UNL A   1      41.479  31.658  30.554  1.00  0.00     0.031 C 
ATOM     54  C   UNL A   1      45.588  27.732  31.006  1.00  0.00     0.029 A 
ATOM     55  C   UNL A   1      44.864  28.919  31.111  1.00  0.00     0.049 A 
ATOM     56  H   UNL A   1      45.236  30.622  29.941  1.00  0.00     0.167 HD
ATOM     57  C   UNL A   1      42.949  30.352  31.789  1.00  0.00     0.074 A 
ATOM     58  C   UNL A   1      42.741  31.230  30.638  1.00  0.00     0.031 C 
ATOM     59  C   UNL A   1      43.868  29.377  32.050  1.00  0.00     0.037 A 
BRANCH  46  60
ATOM     60  C   UNL A   1      45.361  30.403  27.033  1.00  0.00     0.057 A 
ATOM     61  C   UNL A   1      44.411  31.449  27.040  1.00  0.00     0.134 A 
ATOM     62  C   UNL A   1      46.669  30.793  26.699  1.00  0.00     0.134 A 
ATOM     63  F   UNL A   1      43.129  31.276  27.380  1.00  0.00    -0.206 F 
ATOM     64  C   UNL A   1      44.745  32.782  26.803  1.00  0.00     0.040 A 
ATOM     65  C   UNL A   1      47.022  32.133  26.507  1.00  0.00     0.040 A 
ATOM     66  F   UNL A   1      47.663  29.893  26.661  1.00  0.00    -0.206 F 
ATOM     67  C   UNL A   1      46.062  33.134  26.575  1.00  0.00     0.006 A 
ENDBRANCH  46  60
BRANCH  47  68
ATOM     68  C   UNL A   1      38.367  31.355  31.705  1.00  0.00     0.057 A 
ATOM     69  C   UNL A   1      37.664  31.409  32.919  1.00  0.00     0.134 A 
ATOM     70  C   UNL A   1      37.741  31.978  30.609  1.00  0.00     0.134 A 
ATOM     71  F   UNL A   1      38.127  30.788  34.012  1.00  0.00    -0.206 F 
ATOM     72  C   UNL A   1      36.407  32.018  33.032  1.00  0.00     0.040 A 
ATOM     73  C   UNL A   1      36.480  32.587  30.709  1.00  0.00     0.040 A 
ATOM     74  F   UNL A   1      38.303  31.945  29.392  1.00  0.00    -0.206 F 
ATOM     75  C   UNL A   1      35.803  32.597  31.923  1.00  0.00     0.006 A 
ENDBRANCH  47  68
BRANCH  59  76
ATOM     76  C   UNL A   1      43.714  28.605  33.331  1.00  0.00     0.057 A 
ATOM     77  C   UNL A   1      42.910  27.459  33.313  1.00  0.00     0.134 A 
ATOM     78  C   UNL A   1      44.251  28.985  34.571  1.00  0.00     0.134 A 
ATOM     79  F   UNL A   1      42.323  27.063  32.172  1.00  0.00    -0.206 F 
ATOM     80  C   UNL A   1      42.663  26.712  34.465  1.00  0.00     0.040 A 
ATOM     81  C   UNL A   1      44.041  28.223  35.725  1.00  0.00     0.040 A 
ATOM     82  F   UNL A   1      44.952  30.119  34.710  1.00  0.00    -0.206 F 
ATOM     83  C   UNL A   1      43.243  27.083  35.674  1.00  0.00     0.006 A 
ENDBRANCH  59  76
ENDBRANCH  33  34
ENDBRANCH  26  28
ENDBRANCH  25  26
ENDBRANCH  24  25
ENDBRANCH   1  24
TORSDOF 15
ENDMDL
MODEL 2
REMARK VINA RESULT:     -10.0      4.643     11.691
REMARK SMILES Cc1ccn2c([C@@H]3CCCC[C@@H]3C(=O)OCCOCCOC(=O)c3ccc(-c4c5nc(c(-c6c(F)cccc6F)c6ccc([nH]6)c(-c6c(F)cccc6F)c6nc(c(-c7c(F)cccc7F)c7ccc4[nH]7)C=C6)C=C5)cc3)nnc2c1
REMARK SMILES IDX 19 1 18 2 17 3 16 4 15 5 13 6 14 7 12 8 7 9 8 10 9 11 11 12
REMARK SMILES IDX 10 13 6 14 1 15 2 16 3 17 81 18 4 19 80 20 5 21 79 22 78 23
REMARK SMILES IDX 20 24 21 25 22 26 23 27 24 28 25 29 77 30 26 31 76 32 27 33
REMARK SMILES IDX 28 34 29 35 70 36 30 37 75 38 69 39 71 40 31 41 74 42 68 43
REMARK SMILES IDX 67 44 32 46 58 47 41 48 57 49 42 50 45 51 56 52 72 53 43 54
REMARK SMILES IDX 44 55 55 57 73 58 46 59 33 60 34 61 39 62 35 63 36 64 38 65
REMARK SMILES IDX 40 66 37 67 59 68 60 69 65 70 61 71 62 72 64 73 66 74 63 75
REMARK SMILES IDX 47 76 48 77 53 78 49 79 50 80 52 81 54 82 51 83
REMARK H PARENT 71 45 45 56
REMARK Flexibility Score: inf
ROOT
ATOM      1  C   UNL A   1      33.639  35.270  29.077  1.00  0.00     0.202 C 
ENDROOT
BRANCH   1   2
ATOM      2  O   UNL A   1      34.020  35.072  30.432  1.00  0.00    -0.374 OA
BRANCH   2   3
ATOM      3  C   UNL A   1      33.462  35.932  31.429  1.00  0.00     0.202 C 
BRANCH   3   4
ATOM      4  C   UNL A   1      34.315  36.645  32.493  1.00  0.00     0.261 C 
BRANCH   4   5
ATOM      5  O   UNL A   1      34.787  35.822  33.559  1.00  0.00    -0.463 OA
BRANCH   5   6
ATOM      6  C   UNL A   1      35.854  35.026  33.283  1.00  0.00     0.309 C 
ATOM      7  O   UNL A   1      36.764  35.322  32.527  1.00  0.00    -0.252 OA
BRANCH   6   8
ATOM      8  C   UNL A   1      35.715  33.740  34.093  1.00  0.00     0.110 C 
ATOM      9  C   UNL A   1      36.889  32.737  33.990  1.00  0.00     0.072 C 
ATOM     10  C   UNL A   1      37.101  32.245  32.565  1.00  0.00     0.012 C 
ATOM     11  C   UNL A   1      35.797  31.656  32.013  1.00  0.00     0.001 C 
ATOM     12  C   UNL A   1      34.418  33.074  33.617  1.00  0.00     0.016 C 
ATOM     13  C   UNL A   1      34.568  32.555  32.188  1.00  0.00     0.001 C 
BRANCH   9  14
ATOM     14  C   UNL A   1      38.137  33.008  34.803  1.00  0.00     0.141 A 
ATOM     15  C   UNL A   1      39.680  32.872  40.126  1.00  0.00     0.044 C 
ATOM     16  C   UNL A   1      39.268  33.255  38.732  1.00  0.00    -0.046 A 
ATOM     17  C   UNL A   1      37.840  33.434  38.476  1.00  0.00     0.022 A 
ATOM     18  C   UNL A   1      40.151  33.305  37.711  1.00  0.00     0.053 A 
ATOM     19  C   UNL A   1      37.385  33.429  37.208  1.00  0.00     0.095 A 
ATOM     20  C   UNL A   1      39.668  33.308  36.369  1.00  0.00     0.161 A 
ATOM     21  N   UNL A   1      38.288  33.291  36.158  1.00  0.00    -0.286 N 
ATOM     22  N   UNL A   1      40.293  33.145  35.227  1.00  0.00    -0.130 NA
ATOM     23  N   UNL A   1      39.345  32.952  34.258  1.00  0.00    -0.134 NA
ENDBRANCH   9  14
ENDBRANCH   6   8
ENDBRANCH   5   6
ENDBRANCH   4   5
ENDBRANCH   3   4
ENDBRANCH   2   3
ENDBRANCH   1   2
BRANCH   1  24
ATOM     24  C   UNL A   1      33.419  33.977  28.302  1.00  0.00     0.261 C 
BRANCH  24  25
ATOM     25  O   UNL A   1      34.673  33.310  28.154  1.00  0.00    -0.460 OA
BRANCH  25  26
ATOM     26  C   UNL A   1      34.496  31.979  28.005  1.00  0.00     0.338 C 
ATOM     27  O   UNL A   1      33.516  31.439  27.512  1.00  0.00    -0.246 OA
BRANCH  26  28
ATOM     28  C   UNL A   1      35.780  31.308  28.280  1.00  0.00     0.060 A 
ATOM     29  C   UNL A   1      35.849  29.916  28.401  1.00  0.00     0.016 A 
ATOM     30  C   UNL A   1      36.882  32.119  28.595  1.00  0.00     0.016 A 
ATOM     31  C   UNL A   1      37.009  29.349  28.896  1.00  0.00     0.010 A 
ATOM     32  C   UNL A   1      38.057  31.548  29.072  1.00  0.00     0.010 A 
ATOM     33  C   UNL A   1      38.116  30.164  29.238  1.00  0.00    -0.014 A 
BRANCH  33  34
ATOM     34  C   UNL A   1      39.396  29.472  29.360  1.00  0.00     0.031 A 
ATOM     35  C   UNL A   1      39.753  29.448  30.801  1.00  0.00     0.074 A 
ATOM     36  C   UNL A   1      40.163  28.876  28.428  1.00  0.00     0.049 A 
ATOM     37  N   UNL A   1      40.640  30.194  31.368  1.00  0.00    -0.248 NA
ATOM     38  C   UNL A   1      38.825  28.786  31.738  1.00  0.00     0.031 C 
ATOM     39  C   UNL A   1      39.874  28.599  27.024  1.00  0.00     0.029 A 
ATOM     40  N   UNL A   1      41.404  28.322  28.591  1.00  0.00    -0.354 N 
ATOM     41  C   UNL A   1      40.519  29.936  32.725  1.00  0.00     0.074 A 
ATOM     42  C   UNL A   1      39.266  29.254  32.906  1.00  0.00     0.031 C 
ATOM     43  C   UNL A   1      40.801  27.734  26.536  1.00  0.00     0.029 A 
ATOM     44  C   UNL A   1      41.821  27.499  27.548  1.00  0.00     0.049 A 
ATOM     45  H   UNL A   1      41.960  28.493  29.385  1.00  0.00     0.167 HD
ATOM     46  C   UNL A   1      41.615  30.015  33.519  1.00  0.00     0.037 A 
ATOM     47  C   UNL A   1      42.897  26.664  27.551  1.00  0.00     0.037 A 
ATOM     48  C   UNL A   1      42.627  30.852  32.914  1.00  0.00     0.049 A 
ATOM     49  C   UNL A   1      43.826  27.136  28.606  1.00  0.00     0.074 A 
ATOM     50  C   UNL A   1      42.692  32.165  32.488  1.00  0.00     0.029 A 
ATOM     51  N   UNL A   1      43.672  30.208  32.302  1.00  0.00    -0.354 N 
ATOM     52  N   UNL A   1      44.514  28.239  28.521  1.00  0.00    -0.248 NA
ATOM     53  C   UNL A   1      43.659  26.605  29.948  1.00  0.00     0.031 C 
ATOM     54  C   UNL A   1      43.496  32.139  31.308  1.00  0.00     0.029 A 
ATOM     55  C   UNL A   1      43.932  30.829  31.112  1.00  0.00     0.049 A 
ATOM     56  H   UNL A   1      44.155  29.427  32.660  1.00  0.00     0.167 HD
ATOM     57  C   UNL A   1      44.442  28.785  29.792  1.00  0.00     0.074 A 
ATOM     58  C   UNL A   1      43.995  27.690  30.651  1.00  0.00     0.031 C 
ATOM     59  C   UNL A   1      44.471  30.139  29.964  1.00  0.00     0.037 A 
BRANCH  46  60
ATOM     60  C   UNL A   1      41.952  28.920  34.506  1.00  0.00     0.057 A 
ATOM     61  C   UNL A   1      42.245  27.583  34.155  1.00  0.00     0.134 A 
ATOM     62  C   UNL A   1      42.345  29.292  35.802  1.00  0.00     0.134 A 
ATOM     63  F   UNL A   1      41.987  27.066  32.949  1.00  0.00    -0.206 F 
ATOM     64  C   UNL A   1      42.933  26.709  34.996  1.00  0.00     0.040 A 
ATOM     65  C   UNL A   1      43.078  28.438  36.634  1.00  0.00     0.040 A 
ATOM     66  F   UNL A   1      42.127  30.536  36.253  1.00  0.00    -0.206 F 
ATOM     67  C   UNL A   1      43.388  27.148  36.225  1.00  0.00     0.006 A 
ENDBRANCH  46  60
BRANCH  47  68
ATOM     68  C   UNL A   1      43.084  25.330  26.924  1.00  0.00     0.057 A 
ATOM     69  C   UNL A   1      43.714  25.193  25.678  1.00  0.00     0.134 A 
ATOM     70  C   UNL A   1      42.374  24.201  27.376  1.00  0.00     0.134 A 
ATOM     71  F   UNL A   1      44.358  26.224  25.114  1.00  0.00    -0.206 F 
ATOM     72  C   UNL A   1      43.624  24.022  24.914  1.00  0.00     0.040 A 
ATOM     73  C   UNL A   1      42.272  23.023  26.618  1.00  0.00     0.040 A 
ATOM     74  F   UNL A   1      41.695  24.238  28.532  1.00  0.00    -0.206 F 
ATOM     75  C   UNL A   1      42.889  22.936  25.375  1.00  0.00     0.006 A 
ENDBRANCH  47  68
BRANCH  59  76
ATOM     76  C   UNL A   1      44.925  30.976  28.802  1.00  0.00     0.057 A 
ATOM     77  C   UNL A   1      43.964  31.378  27.867  1.00  0.00     0.134 A 
ATOM     78  C   UNL A   1      46.258  31.324  28.531  1.00  0.00     0.134 A 
ATOM     79  F   UNL A   1      42.675  31.039  28.034  1.00  0.00    -0.206 F 
ATOM     80  C   UNL A   1      44.301  32.108  26.727  1.00  0.00     0.040 A 
ATOM     81  C   UNL A   1      46.604  32.088  27.411  1.00  0.00     0.040 A 
ATOM     82  F   UNL A   1      47.262  30.902  29.313  1.00  0.00    -0.206 F 
ATOM     83  C   UNL A   1      45.623  32.480  26.504  1.00  0.00     0.006 A 
ENDBRANCH  59  76
ENDBRANCH  33  34
ENDBRANCH  26  28
ENDBRANCH  25  26
ENDBRANCH  24  25
ENDBRANCH   1  24
TORSDOF 15
ENDMDL
MODEL 3
REMARK VINA RESULT:     -10.0      5.099     10.907
REMARK SMILES Cc1ccn2c([C@@H]3CCCC[C@@H]3C(=O)OCCOCCOC(=O)c3ccc(-c4c5nc(c(-c6c(F)cccc6F)c6ccc([nH]6)c(-c6c(F)cccc6F)c6nc(c(-c7c(F)cccc7F)c7ccc4[nH]7)C=C6)C=C5)cc3)nnc2c1
REMARK SMILES IDX 19 1 18 2 17 3 16 4 15 5 13 6 14 7 12 8 7 9 8 10 9 11 11 12
REMARK SMILES IDX 10 13 6 14 1 15 2 16 3 17 81 18 4 19 80 20 5 21 79 22 78 23
REMARK SMILES IDX 20 24 21 25 22 26 23 27 24 28 25 29 77 30 26 31 76 32 27 33
REMARK SMILES IDX 28 34 29 35 70 36 30 37 75 38 69 39 71 40 31 41 74 42 68 43
REMARK SMILES IDX 67 44 32 46 58 47 41 48 57 49 42 50 45 51 56 52 72 53 43 54
REMARK SMILES IDX 44 55 55 57 73 58 46 59 33 60 34 61 39 62 35 63 36 64 38 65
REMARK SMILES IDX 40 66 37 67 59 68 60 69 65 70 61 71 62 72 64 73 66 74 63 75
REMARK SMILES IDX 47 76 48 77 53 78 49 79 50 80 52 81 54 82 51 83
REMARK H PARENT 71 45 45 56
REMARK Flexibility Score: inf
ROOT
ATOM      1  C   UNL A   1      32.524  29.731  27.056  1.00  0.00     0.202 C 
ENDROOT
BRANCH   1   2
ATOM      2  O   UNL A   1      32.026  29.434  25.758  1.00  0.00    -0.374 OA
BRANCH   2   3
ATOM      3  C   UNL A   1      31.692  28.077  25.452  1.00  0.00     0.202 C 
BRANCH   3   4
ATOM      4  C   UNL A   1      31.621  26.971  26.519  1.00  0.00     0.261 C 
BRANCH   4   5
ATOM      5  O   UNL A   1      31.290  25.669  26.038  1.00  0.00    -0.463 OA
BRANCH   5   6
ATOM      6  C   UNL A   1      32.315  24.930  25.536  1.00  0.00     0.309 C 
ATOM      7  O   UNL A   1      33.486  25.064  25.850  1.00  0.00    -0.252 OA
BRANCH   6   8
ATOM      8  C   UNL A   1      31.738  23.914  24.554  1.00  0.00     0.110 C 
ATOM      9  C   UNL A   1      32.756  23.197  23.635  1.00  0.00     0.072 C 
ATOM     10  C   UNL A   1      33.512  24.172  22.744  1.00  0.00     0.012 C 
ATOM     11  C   UNL A   1      32.523  25.026  21.941  1.00  0.00     0.001 C 
ATOM     12  C   UNL A   1      30.716  24.678  23.701  1.00  0.00     0.016 C 
ATOM     13  C   UNL A   1      31.416  25.674  22.780  1.00  0.00     0.001 C 
BRANCH   9  14
ATOM     14  C   UNL A   1      33.557  22.049  24.213  1.00  0.00     0.141 A 
ATOM     15  C   UNL A   1      34.028  16.577  23.454  1.00  0.00     0.044 C 
ATOM     16  C   UNL A   1      33.731  17.965  23.950  1.00  0.00    -0.046 A 
ATOM     17  C   UNL A   1      32.462  18.569  23.546  1.00  0.00     0.022 A 
ATOM     18  C   UNL A   1      34.643  18.695  24.629  1.00  0.00     0.053 A 
ATOM     19  C   UNL A   1      32.292  19.900  23.657  1.00  0.00     0.095 A 
ATOM     20  C   UNL A   1      34.458  20.104  24.752  1.00  0.00     0.161 A 
ATOM     21  N   UNL A   1      33.317  20.678  24.189  1.00  0.00    -0.286 N 
ATOM     22  N   UNL A   1      35.271  21.047  25.165  1.00  0.00    -0.130 NA
ATOM     23  N   UNL A   1      34.717  22.252  24.823  1.00  0.00    -0.134 NA
ENDBRANCH   9  14
ENDBRANCH   6   8
ENDBRANCH   5   6
ENDBRANCH   4   5
ENDBRANCH   3   4
ENDBRANCH   2   3
ENDBRANCH   1   2
BRANCH   1  24
ATOM     24  C   UNL A   1      32.988  31.173  27.223  1.00  0.00     0.261 C 
BRANCH  24  25
ATOM     25  O   UNL A   1      33.970  31.223  28.259  1.00  0.00    -0.460 OA
BRANCH  25  26
ATOM     26  C   UNL A   1      35.001  32.021  27.906  1.00  0.00     0.338 C 
ATOM     27  O   UNL A   1      34.923  33.210  27.629  1.00  0.00    -0.246 OA
BRANCH  26  28
ATOM     28  C   UNL A   1      36.259  31.299  28.173  1.00  0.00     0.060 A 
ATOM     29  C   UNL A   1      36.363  29.927  27.922  1.00  0.00     0.016 A 
ATOM     30  C   UNL A   1      37.272  31.992  28.854  1.00  0.00     0.016 A 
ATOM     31  C   UNL A   1      37.463  29.245  28.410  1.00  0.00     0.010 A 
ATOM     32  C   UNL A   1      38.390  31.310  29.326  1.00  0.00     0.010 A 
ATOM     33  C   UNL A   1      38.478  29.934  29.118  1.00  0.00    -0.014 A 
BRANCH  33  34
ATOM     34  C   UNL A   1      39.754  29.233  29.235  1.00  0.00     0.031 A 
ATOM     35  C   UNL A   1      40.099  29.173  30.678  1.00  0.00     0.074 A 
ATOM     36  C   UNL A   1      40.526  28.655  28.295  1.00  0.00     0.049 A 
ATOM     37  N   UNL A   1      40.984  29.902  31.269  1.00  0.00    -0.248 NA
ATOM     38  C   UNL A   1      39.159  28.495  31.591  1.00  0.00     0.031 C 
ATOM     39  C   UNL A   1      40.247  28.412  26.883  1.00  0.00     0.029 A 
ATOM     40  N   UNL A   1      41.763  28.091  28.456  1.00  0.00    -0.354 N 
ATOM     41  C   UNL A   1      40.850  29.613  32.619  1.00  0.00     0.074 A 
ATOM     42  C   UNL A   1      39.593  28.933  32.773  1.00  0.00     0.031 C 
ATOM     43  C   UNL A   1      41.174  27.554  26.383  1.00  0.00     0.029 A 
ATOM     44  C   UNL A   1      42.185  27.291  27.398  1.00  0.00     0.049 A 
ATOM     45  H   UNL A   1      42.313  28.241  29.259  1.00  0.00     0.167 HD
ATOM     46  C   UNL A   1      41.940  29.669  33.424  1.00  0.00     0.037 A 
ATOM     47  C   UNL A   1      43.257  26.451  27.391  1.00  0.00     0.037 A 
ATOM     48  C   UNL A   1      42.961  30.514  32.847  1.00  0.00     0.049 A 
ATOM     49  C   UNL A   1      44.179  26.894  28.463  1.00  0.00     0.074 A 
ATOM     50  C   UNL A   1      43.036  31.837  32.452  1.00  0.00     0.029 A 
ATOM     51  N   UNL A   1      44.009  29.880  32.228  1.00  0.00    -0.354 N 
ATOM     52  N   UNL A   1      44.873  27.995  28.410  1.00  0.00    -0.248 NA
ATOM     53  C   UNL A   1      43.998  26.333  29.792  1.00  0.00     0.031 C 
ATOM     54  C   UNL A   1      43.850  31.834  31.278  1.00  0.00     0.029 A 
ATOM     55  C   UNL A   1      44.281  30.527  31.055  1.00  0.00     0.049 A 
ATOM     56  H   UNL A   1      44.485  29.089  32.572  1.00  0.00     0.167 HD
ATOM     57  C   UNL A   1      44.793  28.512  29.693  1.00  0.00     0.074 A 
ATOM     58  C   UNL A   1      44.334  27.399  30.523  1.00  0.00     0.031 C 
ATOM     59  C   UNL A   1      44.826  29.861  29.896  1.00  0.00     0.037 A 
BRANCH  46  60
ATOM     60  C   UNL A   1      42.264  28.549  34.388  1.00  0.00     0.057 A 
ATOM     61  C   UNL A   1      42.117  28.629  35.791  1.00  0.00     0.134 A 
ATOM     62  C   UNL A   1      42.381  27.246  33.876  1.00  0.00     0.134 A 
ATOM     63  F   UNL A   1      41.946  29.780  36.449  1.00  0.00    -0.206 F 
ATOM     64  C   UNL A   1      42.025  27.504  36.611  1.00  0.00     0.040 A 
ATOM     65  C   UNL A   1      42.241  26.113  34.684  1.00  0.00     0.040 A 
ATOM     66  F   UNL A   1      42.521  27.038  32.559  1.00  0.00    -0.206 F 
ATOM     67  C   UNL A   1      42.045  26.240  36.053  1.00  0.00     0.006 A 
ENDBRANCH  46  60
BRANCH  47  68
ATOM     68  C   UNL A   1      43.443  25.130  26.734  1.00  0.00     0.057 A 
ATOM     69  C   UNL A   1      44.122  25.015  25.511  1.00  0.00     0.134 A 
ATOM     70  C   UNL A   1      42.692  24.005  27.124  1.00  0.00     0.134 A 
ATOM     71  F   UNL A   1      44.809  26.047  25.004  1.00  0.00    -0.206 F 
ATOM     72  C   UNL A   1      44.040  23.867  24.712  1.00  0.00     0.040 A 
ATOM     73  C   UNL A   1      42.599  22.851  26.330  1.00  0.00     0.040 A 
ATOM     74  F   UNL A   1      41.968  24.025  28.252  1.00  0.00    -0.206 F 
ATOM     75  C   UNL A   1      43.265  22.785  25.112  1.00  0.00     0.006 A 
ENDBRANCH  47  68
BRANCH  59  76
ATOM     76  C   UNL A   1      45.294  30.723  28.758  1.00  0.00     0.057 A 
ATOM     77  C   UNL A   1      44.338  31.178  27.842  1.00  0.00     0.134 A 
ATOM     78  C   UNL A   1      46.634  31.046  28.489  1.00  0.00     0.134 A 
ATOM     79  F   UNL A   1      43.042  30.866  28.008  1.00  0.00    -0.206 F 
ATOM     80  C   UNL A   1      44.686  31.934  26.723  1.00  0.00     0.040 A 
ATOM     81  C   UNL A   1      46.992  31.836  27.391  1.00  0.00     0.040 A 
ATOM     82  F   UNL A   1      47.631  30.575  29.251  1.00  0.00    -0.206 F 
ATOM     83  C   UNL A   1      46.016  32.281  26.503  1.00  0.00     0.006 A 
ENDBRANCH  59  76
ENDBRANCH  33  34
ENDBRANCH  26  28
ENDBRANCH  25  26
ENDBRANCH  24  25
ENDBRANCH   1  24
TORSDOF 15
ENDMDL
