MODEL 1
REMARK VINA RESULT:     -11.5      0.000      0.000
REMARK SMILES COc1ccc(C(F)(F)F)cc1-c1cc(N)cc(C(=O)OCCOCCOC(=O)c2ccc(-c3c4nc(c(-c5c(F)cccc5F)c5ccc([nH]5)c(-c5c(F)cccc5F)c5nc(c(-c6c(F)cccc6F)c6ccc3[nH]6)C=C5)C=C4)cc2)c1
REMARK SMILES IDX 24 1 23 2 22 3 21 4 19 5 20 6 18 7 13 8 14 9 84 10 15 11
REMARK SMILES IDX 17 12 12 13 3 14 4 15 5 16 11 17 6 18 2 19 1 20 7 21 8 22
REMARK SMILES IDX 9 23 10 24 16 25 25 28 26 29 27 30 28 31 29 32 30 33 31 34
REMARK SMILES IDX 83 35 32 36 82 37 33 38 34 39 35 40 76 41 36 42 81 43 75 44
REMARK SMILES IDX 77 45 37 46 80 47 74 48 73 49 38 51 64 52 47 53 63 54 48 55
REMARK SMILES IDX 51 56 62 57 78 58 49 59 50 60 61 62 79 63 52 64 39 65 40 66
REMARK SMILES IDX 45 67 41 68 42 69 44 70 46 71 43 72 65 73 66 74 71 75 67 76
REMARK SMILES IDX 68 77 70 78 72 79 69 80 53 81 54 82 59 83 55 84 56 85 58 86
REMARK SMILES IDX 60 87 57 88
REMARK H PARENT 16 26 16 27 77 50 51 61
REMARK Flexibility Score: inf
ROOT
ATOM      1  O   UNL A   1      33.452  33.852  29.849  1.00  0.00    -0.374 OA
ENDROOT
BRANCH   1   2
ATOM      2  C   UNL A   1      33.761  33.783  28.457  1.00  0.00     0.202 C 
BRANCH   2   3
ATOM      3  C   UNL A   1      34.613  32.591  28.010  1.00  0.00     0.261 C 
BRANCH   3   4
ATOM      4  O   UNL A   1      33.775  31.474  27.670  1.00  0.00    -0.460 OA
BRANCH   4   5
ATOM      5  C   UNL A   1      34.406  30.280  27.592  1.00  0.00     0.338 C 
ATOM      6  O   UNL A   1      35.321  29.886  28.301  1.00  0.00    -0.246 OA
BRANCH   5   7
ATOM      7  C   UNL A   1      33.707  29.407  26.621  1.00  0.00     0.062 A 
ATOM      8  C   UNL A   1      33.250  27.236  25.624  1.00  0.00    -0.012 A 
ATOM      9  C   UNL A   1      32.268  27.861  24.826  1.00  0.00     0.034 A 
ATOM     10  C   UNL A   1      34.009  28.049  26.483  1.00  0.00     0.024 A 
ATOM     11  C   UNL A   1      32.029  29.238  24.883  1.00  0.00     0.033 A 
ATOM     12  C   UNL A   1      32.718  29.994  25.823  1.00  0.00     0.041 A 
BRANCH   8  13
ATOM     13  C   UNL A   1      33.410  25.763  25.612  1.00  0.00     0.024 A 
ATOM     14  C   UNL A   1      32.466  24.886  26.187  1.00  0.00     0.126 A 
ATOM     15  C   UNL A   1      32.657  23.500  26.173  1.00  0.00     0.047 A 
ATOM     16  C   UNL A   1      33.768  22.950  25.539  1.00  0.00     0.017 A 
ATOM     17  C   UNL A   1      34.531  25.177  24.985  1.00  0.00     0.025 A 
ATOM     18  C   UNL A   1      34.716  23.781  24.932  1.00  0.00     0.056 A 
BRANCH  14  19
ATOM     19  O   UNL A   1      31.349  25.321  26.861  1.00  0.00    -0.496 OA
ATOM     20  C   UNL A   1      30.151  25.074  26.122  1.00  0.00     0.278 C 
ENDBRANCH  14  19
BRANCH  18  21
ATOM     21  C   UNL A   1      35.915  23.174  24.242  1.00  0.00     0.416 C 
ATOM     22  F   UNL A   1      35.882  23.345  22.893  1.00  0.00    -0.166 F 
ATOM     23  F   UNL A   1      37.088  23.724  24.662  1.00  0.00    -0.166 F 
ATOM     24  F   UNL A   1      36.040  21.833  24.448  1.00  0.00    -0.166 F 
ENDBRANCH  18  21
ENDBRANCH   8  13
BRANCH  11  25
ATOM     25  N   UNL A   1      31.024  29.813  24.123  1.00  0.00    -0.399 N 
ATOM     26  H   UNL A   1      30.578  29.290  23.419  1.00  0.00     0.156 HD
ATOM     27  H   UNL A   1      30.755  30.746  24.288  1.00  0.00     0.156 HD
ENDBRANCH  11  25
ENDBRANCH   5   7
ENDBRANCH   4   5
ENDBRANCH   3   4
ENDBRANCH   2   3
ENDBRANCH   1   2
BRANCH   1  28
ATOM     28  C   UNL A   1      34.401  34.495  30.701  1.00  0.00     0.202 C 
BRANCH  28  29
ATOM     29  C   UNL A   1      34.495  33.977  32.140  1.00  0.00     0.261 C 
BRANCH  29  30
ATOM     30  O   UNL A   1      34.825  32.578  32.193  1.00  0.00    -0.460 OA
BRANCH  30  31
ATOM     31  C   UNL A   1      35.935  32.289  32.908  1.00  0.00     0.338 C 
ATOM     32  O   UNL A   1      36.130  32.507  34.096  1.00  0.00    -0.246 OA
BRANCH  31  33
ATOM     33  C   UNL A   1      36.873  31.499  32.092  1.00  0.00     0.060 A 
ATOM     34  C   UNL A   1      37.799  30.697  32.772  1.00  0.00     0.016 A 
ATOM     35  C   UNL A   1      36.908  31.602  30.701  1.00  0.00     0.016 A 
ATOM     36  C   UNL A   1      38.806  30.044  32.066  1.00  0.00     0.010 A 
ATOM     37  C   UNL A   1      37.924  30.950  29.994  1.00  0.00     0.010 A 
ATOM     38  C   UNL A   1      38.901  30.205  30.678  1.00  0.00    -0.014 A 
BRANCH  38  39
ATOM     39  C   UNL A   1      40.117  29.734  29.972  1.00  0.00     0.031 A 
ATOM     40  C   UNL A   1      41.259  30.693  29.777  1.00  0.00     0.074 A 
ATOM     41  C   UNL A   1      40.221  28.463  29.548  1.00  0.00     0.049 A 
ATOM     42  N   UNL A   1      42.402  30.511  29.166  1.00  0.00    -0.248 NA
ATOM     43  C   UNL A   1      41.089  32.039  30.347  1.00  0.00     0.031 C 
ATOM     44  C   UNL A   1      39.202  27.429  29.718  1.00  0.00     0.029 A 
ATOM     45  N   UNL A   1      41.238  27.829  28.879  1.00  0.00    -0.354 N 
ATOM     46  C   UNL A   1      43.083  31.718  29.273  1.00  0.00     0.074 A 
ATOM     47  C   UNL A   1      42.213  32.634  29.978  1.00  0.00     0.031 C 
ATOM     48  C   UNL A   1      39.643  26.287  29.160  1.00  0.00     0.029 A 
ATOM     49  C   UNL A   1      40.960  26.521  28.569  1.00  0.00     0.049 A 
ATOM     50  H   UNL A   1      42.086  28.271  28.646  1.00  0.00     0.167 HD
ATOM     51  C   UNL A   1      44.325  32.031  28.834  1.00  0.00     0.037 A 
ATOM     52  C   UNL A   1      41.681  25.623  27.870  1.00  0.00     0.037 A 
ATOM     53  C   UNL A   1      45.190  31.118  28.134  1.00  0.00     0.049 A 
ATOM     54  C   UNL A   1      43.029  26.018  27.328  1.00  0.00     0.074 A 
ATOM     55  C   UNL A   1      46.468  31.338  27.652  1.00  0.00     0.029 A 
ATOM     56  N   UNL A   1      44.860  29.810  27.812  1.00  0.00    -0.354 N 
ATOM     57  N   UNL A   1      43.670  27.156  27.447  1.00  0.00    -0.248 NA
ATOM     58  C   UNL A   1      43.757  24.999  26.557  1.00  0.00     0.031 C 
ATOM     59  C   UNL A   1      46.895  30.176  27.001  1.00  0.00     0.029 A 
ATOM     60  C   UNL A   1      45.903  29.216  27.121  1.00  0.00     0.049 A 
ATOM     61  H   UNL A   1      44.010  29.369  28.041  1.00  0.00     0.167 HD
ATOM     62  C   UNL A   1      44.887  26.978  26.799  1.00  0.00     0.074 A 
ATOM     63  C   UNL A   1      44.897  25.621  26.294  1.00  0.00     0.031 C 
ATOM     64  C   UNL A   1      45.905  27.859  26.640  1.00  0.00     0.037 A 
BRANCH  51  65
ATOM     65  C   UNL A   1      44.812  33.429  29.079  1.00  0.00     0.057 A 
ATOM     66  C   UNL A   1      45.535  33.770  30.228  1.00  0.00     0.134 A 
ATOM     67  C   UNL A   1      44.576  34.442  28.140  1.00  0.00     0.134 A 
ATOM     68  F   UNL A   1      45.782  32.850  31.175  1.00  0.00    -0.206 F 
ATOM     69  C   UNL A   1      45.988  35.072  30.447  1.00  0.00     0.040 A 
ATOM     70  C   UNL A   1      45.045  35.742  28.336  1.00  0.00     0.040 A 
ATOM     71  F   UNL A   1      43.893  34.183  27.015  1.00  0.00    -0.206 F 
ATOM     72  C   UNL A   1      45.749  36.061  29.495  1.00  0.00     0.006 A 
ENDBRANCH  51  65
BRANCH  52  73
ATOM     73  C   UNL A   1      41.143  24.260  27.632  1.00  0.00     0.057 A 
ATOM     74  C   UNL A   1      41.644  23.152  28.325  1.00  0.00     0.134 A 
ATOM     75  C   UNL A   1      40.136  24.028  26.687  1.00  0.00     0.134 A 
ATOM     76  F   UNL A   1      42.626  23.306  29.226  1.00  0.00    -0.206 F 
ATOM     77  C   UNL A   1      41.177  21.861  28.074  1.00  0.00     0.040 A 
ATOM     78  C   UNL A   1      39.642  22.747  26.444  1.00  0.00     0.040 A 
ATOM     79  F   UNL A   1      39.615  25.048  25.990  1.00  0.00    -0.206 F 
ATOM     80  C   UNL A   1      40.170  21.656  27.133  1.00  0.00     0.006 A 
ENDBRANCH  52  73
BRANCH  64  81
ATOM     81  C   UNL A   1      47.137  27.368  25.936  1.00  0.00     0.057 A 
ATOM     82  C   UNL A   1      48.168  26.706  26.614  1.00  0.00     0.134 A 
ATOM     83  C   UNL A   1      47.272  27.526  24.550  1.00  0.00     0.134 A 
ATOM     84  F   UNL A   1      48.106  26.534  27.943  1.00  0.00    -0.206 F 
ATOM     85  C   UNL A   1      49.299  26.240  25.943  1.00  0.00     0.040 A 
ATOM     86  C   UNL A   1      48.385  27.041  23.864  1.00  0.00     0.040 A 
ATOM     87  F   UNL A   1      46.315  28.142  23.837  1.00  0.00    -0.206 F 
ATOM     88  C   UNL A   1      49.407  26.401  24.563  1.00  0.00     0.006 A 
ENDBRANCH  64  81
ENDBRANCH  38  39
ENDBRANCH  31  33
ENDBRANCH  30  31
ENDBRANCH  29  30
ENDBRANCH  28  29
ENDBRANCH   1  28
TORSDOF 18
ENDMDL
MODEL 2
REMARK VINA RESULT:     -11.3      5.194     10.033
REMARK SMILES COc1ccc(C(F)(F)F)cc1-c1cc(N)cc(C(=O)OCCOCCOC(=O)c2ccc(-c3c4nc(c(-c5c(F)cccc5F)c5ccc([nH]5)c(-c5c(F)cccc5F)c5nc(c(-c6c(F)cccc6F)c6ccc3[nH]6)C=C5)C=C4)cc2)c1
REMARK SMILES IDX 24 1 23 2 22 3 21 4 19 5 20 6 18 7 13 8 14 9 84 10 15 11
REMARK SMILES IDX 17 12 12 13 3 14 4 15 5 16 11 17 6 18 2 19 1 20 7 21 8 22
REMARK SMILES IDX 9 23 10 24 16 25 25 28 26 29 27 30 28 31 29 32 30 33 31 34
REMARK SMILES IDX 83 35 32 36 82 37 33 38 34 39 35 40 76 41 36 42 81 43 75 44
REMARK SMILES IDX 77 45 37 46 80 47 74 48 73 49 38 51 64 52 47 53 63 54 48 55
REMARK SMILES IDX 51 56 62 57 78 58 49 59 50 60 61 62 79 63 52 64 39 65 40 66
REMARK SMILES IDX 45 67 41 68 42 69 44 70 46 71 43 72 65 73 66 74 71 75 67 76
REMARK SMILES IDX 68 77 70 78 72 79 69 80 53 81 54 82 59 83 55 84 56 85 58 86
REMARK SMILES IDX 60 87 57 88
REMARK H PARENT 16 26 16 27 77 50 51 61
REMARK Flexibility Score: inf
ROOT
ATOM      1  O   UNL A   1      43.706  20.120  25.062  1.00  0.00    -0.374 OA
ENDROOT
BRANCH   1   2
ATOM      2  C   UNL A   1      42.871  20.101  26.220  1.00  0.00     0.202 C 
BRANCH   2   3
ATOM      3  C   UNL A   1      41.482  19.481  26.043  1.00  0.00     0.261 C 
BRANCH   3   4
ATOM      4  O   UNL A   1      40.464  20.489  26.152  1.00  0.00    -0.460 OA
BRANCH   4   5
ATOM      5  C   UNL A   1      39.277  20.178  25.582  1.00  0.00     0.338 C 
ATOM      6  O   UNL A   1      38.877  19.061  25.283  1.00  0.00    -0.246 OA
BRANCH   5   7
ATOM      7  C   UNL A   1      38.417  21.382  25.526  1.00  0.00     0.062 A 
ATOM      8  C   UNL A   1      36.396  22.549  24.841  1.00  0.00    -0.012 A 
ATOM      9  C   UNL A   1      36.851  23.668  25.571  1.00  0.00     0.034 A 
ATOM     10  C   UNL A   1      37.234  21.423  24.783  1.00  0.00     0.024 A 
ATOM     11  C   UNL A   1      38.082  23.674  26.234  1.00  0.00     0.033 A 
ATOM     12  C   UNL A   1      38.834  22.505  26.249  1.00  0.00     0.041 A 
BRANCH   8  13
ATOM     13  C   UNL A   1      35.045  22.540  24.233  1.00  0.00     0.024 A 
ATOM     14  C   UNL A   1      34.095  21.529  24.494  1.00  0.00     0.126 A 
ATOM     15  C   UNL A   1      32.833  21.542  23.890  1.00  0.00     0.047 A 
ATOM     16  C   UNL A   1      32.467  22.591  23.050  1.00  0.00     0.017 A 
ATOM     17  C   UNL A   1      34.648  23.585  23.371  1.00  0.00     0.025 A 
ATOM     18  C   UNL A   1      33.368  23.629  22.785  1.00  0.00     0.056 A 
BRANCH  14  19
ATOM     19  O   UNL A   1      34.359  20.435  25.285  1.00  0.00    -0.496 OA
ATOM     20  C   UNL A   1      34.208  19.210  24.566  1.00  0.00     0.278 C 
ENDBRANCH  14  19
BRANCH  18  21
ATOM     21  C   UNL A   1      32.959  24.765  21.877  1.00  0.00     0.416 C 
ATOM     22  F   UNL A   1      33.759  25.857  22.016  1.00  0.00    -0.166 F 
ATOM     23  F   UNL A   1      33.016  24.422  20.560  1.00  0.00    -0.166 F 
ATOM     24  F   UNL A   1      31.687  25.202  22.091  1.00  0.00    -0.166 F 
ENDBRANCH  18  21
ENDBRANCH   8  13
BRANCH  11  25
ATOM     25  N   UNL A   1      38.478  24.770  26.983  1.00  0.00    -0.399 N 
ATOM     26  H   UNL A   1      38.387  25.677  26.613  1.00  0.00     0.156 HD
ATOM     27  H   UNL A   1      38.850  24.641  27.885  1.00  0.00     0.156 HD
ENDBRANCH  11  25
ENDBRANCH   5   7
ENDBRANCH   4   5
ENDBRANCH   3   4
ENDBRANCH   2   3
ENDBRANCH   1   2
BRANCH   1  28
ATOM     28  C   UNL A   1      44.712  21.133  24.996  1.00  0.00     0.202 C 
BRANCH  28  29
ATOM     29  C   UNL A   1      44.446  22.303  24.043  1.00  0.00     0.261 C 
BRANCH  29  30
ATOM     30  O   UNL A   1      43.634  23.324  24.650  1.00  0.00    -0.460 OA
BRANCH  30  31
ATOM     31  C   UNL A   1      44.313  24.428  25.033  1.00  0.00     0.338 C 
ATOM     32  O   UNL A   1      45.408  24.801  24.635  1.00  0.00    -0.246 OA
BRANCH  31  33
ATOM     33  C   UNL A   1      43.475  25.260  25.914  1.00  0.00     0.060 A 
ATOM     34  C   UNL A   1      43.776  26.627  25.986  1.00  0.00     0.016 A 
ATOM     35  C   UNL A   1      42.475  24.709  26.716  1.00  0.00     0.016 A 
ATOM     36  C   UNL A   1      43.120  27.437  26.909  1.00  0.00     0.010 A 
ATOM     37  C   UNL A   1      41.822  25.523  27.648  1.00  0.00     0.010 A 
ATOM     38  C   UNL A   1      42.173  26.879  27.777  1.00  0.00    -0.014 A 
BRANCH  38  39
ATOM     39  C   UNL A   1      41.679  27.677  28.925  1.00  0.00     0.031 A 
ATOM     40  C   UNL A   1      42.408  27.586  30.238  1.00  0.00     0.074 A 
ATOM     41  C   UNL A   1      40.624  28.499  28.792  1.00  0.00     0.049 A 
ATOM     42  N   UNL A   1      42.139  28.168  31.379  1.00  0.00    -0.248 NA
ATOM     43  C   UNL A   1      43.600  26.724  30.267  1.00  0.00     0.031 C 
ATOM     44  C   UNL A   1      39.863  28.707  27.561  1.00  0.00     0.029 A 
ATOM     45  N   UNL A   1      40.008  29.310  29.711  1.00  0.00    -0.354 N 
ATOM     46  C   UNL A   1      43.123  27.737  32.261  1.00  0.00     0.074 A 
ATOM     47  C   UNL A   1      43.974  26.822  31.533  1.00  0.00     0.031 C 
ATOM     48  C   UNL A   1      38.875  29.585  27.804  1.00  0.00     0.029 A 
ATOM     49  C   UNL A   1      38.916  29.976  29.211  1.00  0.00     0.049 A 
ATOM     50  H   UNL A   1      40.320  29.406  30.640  1.00  0.00     0.167 HD
ATOM     51  C   UNL A   1      43.306  28.082  33.558  1.00  0.00     0.037 A 
ATOM     52  C   UNL A   1      38.040  30.793  29.829  1.00  0.00     0.037 A 
ATOM     53  C   UNL A   1      42.459  28.994  34.280  1.00  0.00     0.049 A 
ATOM     54  C   UNL A   1      38.223  31.104  31.291  1.00  0.00     0.074 A 
ATOM     55  C   UNL A   1      42.565  29.412  35.595  1.00  0.00     0.029 A 
ATOM     56  N   UNL A   1      41.345  29.625  33.747  1.00  0.00    -0.354 N 
ATOM     57  N   UNL A   1      39.165  30.705  32.112  1.00  0.00    -0.248 NA
ATOM     58  C   UNL A   1      37.223  31.985  31.911  1.00  0.00     0.031 C 
ATOM     59  C   UNL A   1      41.489  30.263  35.871  1.00  0.00     0.029 A 
ATOM     60  C   UNL A   1      40.743  30.415  34.713  1.00  0.00     0.049 A 
ATOM     61  H   UNL A   1      41.029  29.526  32.821  1.00  0.00     0.167 HD
ATOM     62  C   UNL A   1      38.890  31.312  33.332  1.00  0.00     0.074 A 
ATOM     63  C   UNL A   1      37.699  32.112  33.141  1.00  0.00     0.031 C 
ATOM     64  C   UNL A   1      39.566  31.219  34.503  1.00  0.00     0.037 A 
BRANCH  51  65
ATOM     65  C   UNL A   1      44.458  27.451  34.284  1.00  0.00     0.057 A 
ATOM     66  C   UNL A   1      45.708  28.075  34.374  1.00  0.00     0.134 A 
ATOM     67  C   UNL A   1      44.307  26.213  34.922  1.00  0.00     0.134 A 
ATOM     68  F   UNL A   1      45.924  29.255  33.771  1.00  0.00    -0.206 F 
ATOM     69  C   UNL A   1      46.773  27.483  35.054  1.00  0.00     0.040 A 
ATOM     70  C   UNL A   1      45.357  25.623  35.627  1.00  0.00     0.040 A 
ATOM     71  F   UNL A   1      43.135  25.562  34.878  1.00  0.00    -0.206 F 
ATOM     72  C   UNL A   1      46.597  26.255  35.689  1.00  0.00     0.006 A 
ENDBRANCH  51  65
BRANCH  52  73
ATOM     73  C   UNL A   1      36.902  31.371  29.072  1.00  0.00     0.057 A 
ATOM     74  C   UNL A   1      36.911  32.709  28.659  1.00  0.00     0.134 A 
ATOM     75  C   UNL A   1      35.766  30.611  28.769  1.00  0.00     0.134 A 
ATOM     76  F   UNL A   1      37.961  33.495  28.941  1.00  0.00    -0.206 F 
ATOM     77  C   UNL A   1      35.825  33.274  27.989  1.00  0.00     0.040 A 
ATOM     78  C   UNL A   1      34.684  31.156  28.078  1.00  0.00     0.040 A 
ATOM     79  F   UNL A   1      35.695  29.324  29.139  1.00  0.00    -0.206 F 
ATOM     80  C   UNL A   1      34.708  32.496  27.693  1.00  0.00     0.006 A 
ENDBRANCH  52  73
BRANCH  64  81
ATOM     81  C   UNL A   1      39.066  32.040  35.655  1.00  0.00     0.057 A 
ATOM     82  C   UNL A   1      38.228  31.505  36.642  1.00  0.00     0.134 A 
ATOM     83  C   UNL A   1      39.464  33.376  35.800  1.00  0.00     0.134 A 
ATOM     84  F   UNL A   1      37.801  30.237  36.556  1.00  0.00    -0.206 F 
ATOM     85  C   UNL A   1      37.785  32.277  37.718  1.00  0.00     0.040 A 
ATOM     86  C   UNL A   1      39.049  34.149  36.884  1.00  0.00     0.040 A 
ATOM     87  F   UNL A   1      40.275  33.947  34.896  1.00  0.00    -0.206 F 
ATOM     88  C   UNL A   1      38.201  33.601  37.844  1.00  0.00     0.006 A 
ENDBRANCH  64  81
ENDBRANCH  38  39
ENDBRANCH  31  33
ENDBRANCH  30  31
ENDBRANCH  29  30
ENDBRANCH  28  29
ENDBRANCH   1  28
TORSDOF 18
ENDMDL
MODEL 3
REMARK VINA RESULT:     -11.0      4.923      9.839
REMARK SMILES COc1ccc(C(F)(F)F)cc1-c1cc(N)cc(C(=O)OCCOCCOC(=O)c2ccc(-c3c4nc(c(-c5c(F)cccc5F)c5ccc([nH]5)c(-c5c(F)cccc5F)c5nc(c(-c6c(F)cccc6F)c6ccc3[nH]6)C=C5)C=C4)cc2)c1
REMARK SMILES IDX 24 1 23 2 22 3 21 4 19 5 20 6 18 7 13 8 14 9 84 10 15 11
REMARK SMILES IDX 17 12 12 13 3 14 4 15 5 16 11 17 6 18 2 19 1 20 7 21 8 22
REMARK SMILES IDX 9 23 10 24 16 25 25 28 26 29 27 30 28 31 29 32 30 33 31 34
REMARK SMILES IDX 83 35 32 36 82 37 33 38 34 39 35 40 76 41 36 42 81 43 75 44
REMARK SMILES IDX 77 45 37 46 80 47 74 48 73 49 38 51 64 52 47 53 63 54 48 55
REMARK SMILES IDX 51 56 62 57 78 58 49 59 50 60 61 62 79 63 52 64 39 65 40 66
REMARK SMILES IDX 45 67 41 68 42 69 44 70 46 71 43 72 65 73 66 74 71 75 67 76
REMARK SMILES IDX 68 77 70 78 72 79 69 80 53 81 54 82 59 83 55 84 56 85 58 86
REMARK SMILES IDX 60 87 57 88
REMARK H PARENT 16 26 16 27 77 50 51 61
REMARK Flexibility Score: inf
ROOT
ATOM      1  O   UNL A   1      41.033  21.217  27.236  1.00  0.00    -0.374 OA
ENDROOT
BRANCH   1   2
ATOM      2  C   UNL A   1      40.205  21.448  26.096  1.00  0.00     0.202 C 
BRANCH   2   3
ATOM      3  C   UNL A   1      38.868  22.147  26.361  1.00  0.00     0.261 C 
BRANCH   3   4
ATOM      4  O   UNL A   1      38.149  22.337  25.131  1.00  0.00    -0.460 OA
BRANCH   4   5
ATOM      5  C   UNL A   1      37.214  21.398  24.856  1.00  0.00     0.338 C 
ATOM      6  O   UNL A   1      37.411  20.213  24.624  1.00  0.00    -0.246 OA
BRANCH   5   7
ATOM      7  C   UNL A   1      35.861  21.966  25.049  1.00  0.00     0.062 A 
ATOM      8  C   UNL A   1      34.281  23.815  25.009  1.00  0.00    -0.012 A 
ATOM      9  C   UNL A   1      33.267  22.895  25.352  1.00  0.00     0.034 A 
ATOM     10  C   UNL A   1      35.597  23.333  24.920  1.00  0.00     0.024 A 
ATOM     11  C   UNL A   1      33.537  21.542  25.585  1.00  0.00     0.033 A 
ATOM     12  C   UNL A   1      34.830  21.078  25.378  1.00  0.00     0.041 A 
BRANCH   8  13
ATOM     13  C   UNL A   1      33.946  25.219  24.673  1.00  0.00     0.024 A 
ATOM     14  C   UNL A   1      33.559  25.624  23.377  1.00  0.00     0.126 A 
ATOM     15  C   UNL A   1      33.266  26.962  23.090  1.00  0.00     0.047 A 
ATOM     16  C   UNL A   1      33.301  27.921  24.098  1.00  0.00     0.017 A 
ATOM     17  C   UNL A   1      33.982  26.215  25.672  1.00  0.00     0.025 A 
ATOM     18  C   UNL A   1      33.654  27.558  25.403  1.00  0.00     0.056 A 
BRANCH  14  19
ATOM     19  O   UNL A   1      33.517  24.767  22.302  1.00  0.00    -0.496 OA
ATOM     20  C   UNL A   1      32.884  25.364  21.169  1.00  0.00     0.278 C 
ENDBRANCH  14  19
BRANCH  18  21
ATOM     21  C   UNL A   1      33.684  28.606  26.492  1.00  0.00     0.416 C 
ATOM     22  F   UNL A   1      32.808  28.337  27.498  1.00  0.00    -0.166 F 
ATOM     23  F   UNL A   1      34.909  28.711  27.077  1.00  0.00    -0.166 F 
ATOM     24  F   UNL A   1      33.376  29.857  26.051  1.00  0.00    -0.166 F 
ENDBRANCH  18  21
ENDBRANCH   8  13
BRANCH  11  25
ATOM     25  N   UNL A   1      32.513  20.655  25.871  1.00  0.00    -0.399 N 
ATOM     26  H   UNL A   1      32.370  19.868  25.297  1.00  0.00     0.156 HD
ATOM     27  H   UNL A   1      31.928  20.812  26.647  1.00  0.00     0.156 HD
ENDBRANCH  11  25
ENDBRANCH   5   7
ENDBRANCH   4   5
ENDBRANCH   3   4
ENDBRANCH   2   3
ENDBRANCH   1   2
BRANCH   1  28
ATOM     28  C   UNL A   1      42.323  20.648  27.004  1.00  0.00     0.202 C 
BRANCH  28  29
ATOM     29  C   UNL A   1      43.229  21.379  26.008  1.00  0.00     0.261 C 
BRANCH  29  30
ATOM     30  O   UNL A   1      43.792  22.579  26.567  1.00  0.00    -0.460 OA
BRANCH  30  31
ATOM     31  C   UNL A   1      43.615  23.687  25.813  1.00  0.00     0.338 C 
ATOM     32  O   UNL A   1      43.838  23.814  24.617  1.00  0.00    -0.246 OA
BRANCH  31  33
ATOM     33  C   UNL A   1      42.941  24.734  26.600  1.00  0.00     0.060 A 
ATOM     34  C   UNL A   1      43.631  25.939  26.793  1.00  0.00     0.016 A 
ATOM     35  C   UNL A   1      41.704  24.518  27.208  1.00  0.00     0.016 A 
ATOM     36  C   UNL A   1      43.114  26.908  27.648  1.00  0.00     0.010 A 
ATOM     37  C   UNL A   1      41.190  25.490  28.073  1.00  0.00     0.010 A 
ATOM     38  C   UNL A   1      41.914  26.668  28.329  1.00  0.00    -0.014 A 
BRANCH  38  39
ATOM     39  C   UNL A   1      41.508  27.575  29.430  1.00  0.00     0.031 A 
ATOM     40  C   UNL A   1      42.256  27.510  30.734  1.00  0.00     0.074 A 
ATOM     41  C   UNL A   1      40.519  28.468  29.261  1.00  0.00     0.049 A 
ATOM     42  N   UNL A   1      42.058  28.183  31.839  1.00  0.00    -0.248 NA
ATOM     43  C   UNL A   1      43.377  26.559  30.800  1.00  0.00     0.031 C 
ATOM     44  C   UNL A   1      39.751  28.657  28.032  1.00  0.00     0.029 A 
ATOM     45  N   UNL A   1      39.989  29.384  30.135  1.00  0.00    -0.354 N 
ATOM     46  C   UNL A   1      43.024  27.732  32.731  1.00  0.00     0.074 A 
ATOM     47  C   UNL A   1      43.785  26.707  32.051  1.00  0.00     0.031 C 
ATOM     48  C   UNL A   1      38.840  29.626  28.233  1.00  0.00     0.029 A 
ATOM     49  C   UNL A   1      38.943  30.101  29.611  1.00  0.00     0.049 A 
ATOM     50  H   UNL A   1      40.327  29.513  31.051  1.00  0.00     0.167 HD
ATOM     51  C   UNL A   1      43.262  28.143  34.000  1.00  0.00     0.037 A 
ATOM     52  C   UNL A   1      38.147  31.023  30.189  1.00  0.00     0.037 A 
ATOM     53  C   UNL A   1      42.505  29.164  34.675  1.00  0.00     0.049 A 
ATOM     54  C   UNL A   1      38.385  31.411  31.624  1.00  0.00     0.074 A 
ATOM     55  C   UNL A   1      42.672  29.655  35.958  1.00  0.00     0.029 A 
ATOM     56  N   UNL A   1      41.433  29.847  34.120  1.00  0.00    -0.354 N 
ATOM     57  N   UNL A   1      39.310  30.991  32.454  1.00  0.00    -0.248 NA
ATOM     58  C   UNL A   1      37.471  32.407  32.202  1.00  0.00     0.031 C 
ATOM     59  C   UNL A   1      41.672  30.605  36.195  1.00  0.00     0.029 A 
ATOM     60  C   UNL A   1      40.916  30.742  35.042  1.00  0.00     0.049 A 
ATOM     61  H   UNL A   1      41.091  29.715  33.207  1.00  0.00     0.167 HD
ATOM     62  C   UNL A   1      39.110  31.695  33.636  1.00  0.00     0.074 A 
ATOM     63  C   UNL A   1      37.981  32.574  33.413  1.00  0.00     0.031 C 
ATOM     64  C   UNL A   1      39.802  31.622  34.799  1.00  0.00     0.037 A 
BRANCH  51  65
ATOM     65  C   UNL A   1      44.376  27.469  34.746  1.00  0.00     0.057 A 
ATOM     66  C   UNL A   1      45.681  27.976  34.744  1.00  0.00     0.134 A 
ATOM     67  C   UNL A   1      44.133  26.312  35.498  1.00  0.00     0.134 A 
ATOM     68  F   UNL A   1      45.984  29.072  34.031  1.00  0.00    -0.206 F 
ATOM     69  C   UNL A   1      46.711  27.345  35.445  1.00  0.00     0.040 A 
ATOM     70  C   UNL A   1      45.149  25.687  36.223  1.00  0.00     0.040 A 
ATOM     71  F   UNL A   1      42.905  25.776  35.546  1.00  0.00    -0.206 F 
ATOM     72  C   UNL A   1      46.444  26.200  36.192  1.00  0.00     0.006 A 
ENDBRANCH  51  65
BRANCH  52  73
ATOM     73  C   UNL A   1      37.042  31.641  29.415  1.00  0.00     0.057 A 
ATOM     74  C   UNL A   1      37.180  32.911  28.842  1.00  0.00     0.134 A 
ATOM     75  C   UNL A   1      35.812  30.992  29.253  1.00  0.00     0.134 A 
ATOM     76  F   UNL A   1      38.326  33.594  28.983  1.00  0.00    -0.206 F 
ATOM     77  C   UNL A   1      36.130  33.520  28.153  1.00  0.00     0.040 A 
ATOM     78  C   UNL A   1      34.762  31.578  28.545  1.00  0.00     0.040 A 
ATOM     79  F   UNL A   1      35.616  29.774  29.778  1.00  0.00    -0.206 F 
ATOM     80  C   UNL A   1      34.917  32.851  28.000  1.00  0.00     0.006 A 
ENDBRANCH  52  73
BRANCH  64  81
ATOM     81  C   UNL A   1      39.393  32.553  35.904  1.00  0.00     0.057 A 
ATOM     82  C   UNL A   1      39.957  33.826  36.052  1.00  0.00     0.134 A 
ATOM     83  C   UNL A   1      38.388  32.182  36.808  1.00  0.00     0.134 A 
ATOM     84  F   UNL A   1      40.932  34.237  35.227  1.00  0.00    -0.206 F 
ATOM     85  C   UNL A   1      39.554  34.688  37.073  1.00  0.00     0.040 A 
ATOM     86  C   UNL A   1      37.958  33.045  37.816  1.00  0.00     0.040 A 
ATOM     87  F   UNL A   1      37.797  30.981  36.715  1.00  0.00    -0.206 F 
ATOM     88  C   UNL A   1      38.546  34.300  37.955  1.00  0.00     0.006 A 
ENDBRANCH  64  81
ENDBRANCH  38  39
ENDBRANCH  31  33
ENDBRANCH  30  31
ENDBRANCH  29  30
ENDBRANCH  28  29
ENDBRANCH   1  28
TORSDOF 18
ENDMDL
