MODEL 1
REMARK VINA RESULT:     -11.0      0.000      0.000
REMARK SMILES CCOc1cc2c(cc1OCC)[C@@H](C(=O)OCCOCCOC(=O)c1ccc(-c3c4nc(c(-c5c(F)cccc5F)c5ccc([nH]5)c(-c5c(F)cccc5F)c5nc(c(-c6c(F)cccc6F)c6ccc3[nH]6)C=C5)C=C4)cc1)[C@H](c1ccc(F)cc1Cl)N(C)C2=O
REMARK SMILES IDX 19 1 18 2 17 3 16 4 14 5 15 6 13 7 4 8 5 9 9 10 6 11 8 12
REMARK SMILES IDX 7 13 90 14 88 15 91 16 79 17 89 18 3 19 2 20 1 21 10 22
REMARK SMILES IDX 11 23 12 24 80 25 81 26 86 27 82 28 85 29 87 30 83 31 84 32
REMARK SMILES IDX 20 33 21 34 22 35 23 36 24 37 25 38 26 39 78 40 27 41 77 42
REMARK SMILES IDX 28 43 29 44 30 45 71 46 31 47 76 48 70 49 72 50 32 51 75 52
REMARK SMILES IDX 69 53 68 54 33 56 59 57 42 58 58 59 43 60 46 61 57 62 73 63
REMARK SMILES IDX 44 64 45 65 56 67 74 68 47 69 34 70 35 71 40 72 36 73 37 74
REMARK SMILES IDX 39 75 41 76 38 77 60 78 61 79 66 80 62 81 63 82 65 83 67 84
REMARK SMILES IDX 64 85 48 86 49 87 54 88 50 89 51 90 53 91 55 92 52 93
REMARK H PARENT 72 55 46 66
REMARK Flexibility Score: inf
ROOT
ATOM      1  O   UNL A   1      30.872  27.080  26.921  1.00  0.00    -0.374 OA
ENDROOT
BRANCH   1   2
ATOM      2  C   UNL A   1      30.324  26.155  25.986  1.00  0.00     0.202 C 
BRANCH   2   3
ATOM      3  C   UNL A   1      29.897  24.794  26.542  1.00  0.00     0.261 C 
BRANCH   3   4
ATOM      4  O   UNL A   1      31.017  24.016  26.995  1.00  0.00    -0.463 OA
BRANCH   4   5
ATOM      5  C   UNL A   1      31.259  22.873  26.305  1.00  0.00     0.316 C 
ATOM      6  O   UNL A   1      30.445  21.969  26.145  1.00  0.00    -0.251 OA
BRANCH   5   7
ATOM      7  C   UNL A   1      32.680  22.772  25.783  1.00  0.00     0.157 C 
ATOM      8  C   UNL A   1      33.046  24.458  21.855  1.00  0.00     0.161 A 
ATOM      9  C   UNL A   1      32.855  23.078  22.028  1.00  0.00     0.064 A 
ATOM     10  C   UNL A   1      33.092  25.304  22.973  1.00  0.00     0.161 A 
ATOM     11  C   UNL A   1      32.684  22.541  23.297  1.00  0.00     0.048 A 
ATOM     12  C   UNL A   1      32.950  24.744  24.245  1.00  0.00     0.056 A 
ATOM     13  C   UNL A   1      32.770  23.371  24.411  1.00  0.00    -0.015 A 
ATOM     14  C   UNL A   1      32.435  21.081  23.461  1.00  0.00     0.254 C 
ATOM     15  N   UNL A   1      32.749  20.537  24.707  1.00  0.00    -0.333 N 
ATOM     16  O   UNL A   1      31.979  20.430  22.527  1.00  0.00    -0.269 OA
ATOM     17  C   UNL A   1      33.330  21.354  25.775  1.00  0.00     0.135 C 
ATOM     18  C   UNL A   1      32.546  19.113  24.909  1.00  0.00     0.147 C 
BRANCH   8  19
ATOM     19  O   UNL A   1      33.297  24.927  20.594  1.00  0.00    -0.490 OA
BRANCH  19  20
ATOM     20  C   UNL A   1      32.212  25.672  20.024  1.00  0.00     0.226 C 
ATOM     21  C   UNL A   1      32.006  25.337  18.555  1.00  0.00     0.049 C 
ENDBRANCH  19  20
ENDBRANCH   8  19
BRANCH  10  22
ATOM     22  O   UNL A   1      33.264  26.655  23.053  1.00  0.00    -0.490 OA
BRANCH  22  23
ATOM     23  C   UNL A   1      32.159  27.526  23.232  1.00  0.00     0.226 C 
ATOM     24  C   UNL A   1      32.568  28.964  22.979  1.00  0.00     0.049 C 
ENDBRANCH  22  23
ENDBRANCH  10  22
BRANCH  17  25
ATOM     25  C   UNL A   1      34.876  21.491  25.768  1.00  0.00    -0.005 A 
ATOM     26  C   UNL A   1      35.374  22.712  26.297  1.00  0.00     0.010 A 
ATOM     27  C   UNL A   1      35.834  20.609  25.215  1.00  0.00     0.049 A 
ATOM     28  C   UNL A   1      36.715  23.083  26.178  1.00  0.00     0.040 A 
ATOM     29  C   UNL A   1      37.182  20.987  25.106  1.00  0.00     0.060 A 
ATOM     30  Cl  UNL A   1      35.528  19.011  24.645  1.00  0.00    -0.084 Cl
ATOM     31  C   UNL A   1      37.604  22.223  25.562  1.00  0.00     0.124 A 
ATOM     32  F   UNL A   1      38.884  22.583  25.414  1.00  0.00    -0.207 F 
ENDBRANCH  17  25
ENDBRANCH   5   7
ENDBRANCH   4   5
ENDBRANCH   3   4
ENDBRANCH   2   3
ENDBRANCH   1   2
BRANCH   1  33
ATOM     33  C   UNL A   1      32.275  27.326  26.860  1.00  0.00     0.202 C 
BRANCH  33  34
ATOM     34  C   UNL A   1      32.742  28.730  27.257  1.00  0.00     0.261 C 
BRANCH  34  35
ATOM     35  O   UNL A   1      34.178  28.817  27.321  1.00  0.00    -0.460 OA
BRANCH  35  36
ATOM     36  C   UNL A   1      34.657  29.978  27.827  1.00  0.00     0.338 C 
ATOM     37  O   UNL A   1      34.021  30.999  28.066  1.00  0.00    -0.246 OA
BRANCH  36  38
ATOM     38  C   UNL A   1      36.059  29.809  28.246  1.00  0.00     0.060 A 
ATOM     39  C   UNL A   1      37.056  30.075  27.299  1.00  0.00     0.016 A 
ATOM     40  C   UNL A   1      36.394  29.334  29.516  1.00  0.00     0.016 A 
ATOM     41  C   UNL A   1      38.392  29.827  27.603  1.00  0.00     0.010 A 
ATOM     42  C   UNL A   1      37.737  29.086  29.819  1.00  0.00     0.010 A 
ATOM     43  C   UNL A   1      38.737  29.297  28.852  1.00  0.00    -0.014 A 
BRANCH  43  44
ATOM     44  C   UNL A   1      40.121  28.820  29.093  1.00  0.00     0.031 A 
ATOM     45  C   UNL A   1      41.098  29.737  29.776  1.00  0.00     0.074 A 
ATOM     46  C   UNL A   1      40.500  27.583  28.731  1.00  0.00     0.049 A 
ATOM     47  N   UNL A   1      42.370  29.559  30.029  1.00  0.00    -0.248 NA
ATOM     48  C   UNL A   1      40.570  31.033  30.233  1.00  0.00     0.031 C 
ATOM     49  C   UNL A   1      39.637  26.586  28.100  1.00  0.00     0.029 A 
ATOM     50  N   UNL A   1      41.719  26.959  28.834  1.00  0.00    -0.354 N 
ATOM     51  C   UNL A   1      42.796  30.720  30.660  1.00  0.00     0.074 A 
ATOM     52  C   UNL A   1      41.655  31.608  30.732  1.00  0.00     0.031 C 
ATOM     53  C   UNL A   1      40.358  25.477  27.860  1.00  0.00     0.029 A 
ATOM     54  C   UNL A   1      41.739  25.701  28.282  1.00  0.00     0.049 A 
ATOM     55  H   UNL A   1      42.502  27.373  29.261  1.00  0.00     0.167 HD
ATOM     56  C   UNL A   1      44.024  31.017  31.144  1.00  0.00     0.037 A 
ATOM     57  C   UNL A   1      42.765  24.845  28.109  1.00  0.00     0.037 A 
ATOM     58  C   UNL A   1      45.156  30.131  31.079  1.00  0.00     0.049 A 
ATOM     59  C   UNL A   1      44.142  25.232  28.578  1.00  0.00     0.074 A 
ATOM     60  C   UNL A   1      46.435  30.329  31.570  1.00  0.00     0.029 A 
ATOM     61  N   UNL A   1      45.147  28.883  30.477  1.00  0.00    -0.354 N 
ATOM     62  N   UNL A   1      44.530  26.320  29.199  1.00  0.00    -0.248 NA
ATOM     63  C   UNL A   1      45.228  24.275  28.315  1.00  0.00     0.031 C 
ATOM     64  C   UNL A   1      47.213  29.222  31.218  1.00  0.00     0.029 A 
ATOM     65  C   UNL A   1      46.407  28.312  30.553  1.00  0.00     0.049 A 
ATOM     66  H   UNL A   1      44.361  28.463  30.057  1.00  0.00     0.167 HD
ATOM     67  C   UNL A   1      45.894  26.169  29.419  1.00  0.00     0.074 A 
ATOM     68  C   UNL A   1      46.265  24.879  28.878  1.00  0.00     0.031 C 
ATOM     69  C   UNL A   1      46.761  27.024  30.015  1.00  0.00     0.037 A 
BRANCH  56  70
ATOM     70  C   UNL A   1      44.217  32.370  31.763  1.00  0.00     0.057 A 
ATOM     71  C   UNL A   1      44.006  32.597  33.129  1.00  0.00     0.134 A 
ATOM     72  C   UNL A   1      44.656  33.451  30.988  1.00  0.00     0.134 A 
ATOM     73  F   UNL A   1      43.571  31.607  33.924  1.00  0.00    -0.206 F 
ATOM     74  C   UNL A   1      44.204  33.857  33.697  1.00  0.00     0.040 A 
ATOM     75  C   UNL A   1      44.883  34.708  31.550  1.00  0.00     0.040 A 
ATOM     76  F   UNL A   1      44.882  33.300  29.674  1.00  0.00    -0.206 F 
ATOM     77  C   UNL A   1      44.652  34.915  32.908  1.00  0.00     0.006 A 
ENDBRANCH  56  70
BRANCH  57  78
ATOM     78  C   UNL A   1      42.539  23.544  27.430  1.00  0.00     0.057 A 
ATOM     79  C   UNL A   1      42.171  22.402  28.151  1.00  0.00     0.134 A 
ATOM     80  C   UNL A   1      42.706  23.406  26.046  1.00  0.00     0.134 A 
ATOM     81  F   UNL A   1      42.023  22.464  29.481  1.00  0.00    -0.206 F 
ATOM     82  C   UNL A   1      41.992  21.167  27.523  1.00  0.00     0.040 A 
ATOM     83  C   UNL A   1      42.505  22.185  25.402  1.00  0.00     0.040 A 
ATOM     84  F   UNL A   1      43.063  24.461  25.299  1.00  0.00    -0.206 F 
ATOM     85  C   UNL A   1      42.153  21.059  26.143  1.00  0.00     0.006 A 
ENDBRANCH  57  78
BRANCH  69  86
ATOM     86  C   UNL A   1      48.191  26.586  30.139  1.00  0.00     0.057 A 
ATOM     87  C   UNL A   1      48.640  25.838  31.234  1.00  0.00     0.134 A 
ATOM     88  C   UNL A   1      49.113  26.862  29.122  1.00  0.00     0.134 A 
ATOM     89  F   UNL A   1      47.810  25.551  32.248  1.00  0.00    -0.206 F 
ATOM     90  C   UNL A   1      49.960  25.391  31.319  1.00  0.00     0.040 A 
ATOM     91  C   UNL A   1      50.429  26.400  29.183  1.00  0.00     0.040 A 
ATOM     92  F   UNL A   1      48.744  27.566  28.040  1.00  0.00    -0.206 F 
ATOM     93  C   UNL A   1      50.856  25.665  30.286  1.00  0.00     0.006 A 
ENDBRANCH  69  86
ENDBRANCH  43  44
ENDBRANCH  36  38
ENDBRANCH  35  36
ENDBRANCH  34  35
ENDBRANCH  33  34
ENDBRANCH   1  33
TORSDOF 19
ENDMDL
MODEL 2
REMARK VINA RESULT:     -10.4      2.912      7.487
REMARK SMILES CCOc1cc2c(cc1OCC)[C@@H](C(=O)OCCOCCOC(=O)c1ccc(-c3c4nc(c(-c5c(F)cccc5F)c5ccc([nH]5)c(-c5c(F)cccc5F)c5nc(c(-c6c(F)cccc6F)c6ccc3[nH]6)C=C5)C=C4)cc1)[C@H](c1ccc(F)cc1Cl)N(C)C2=O
REMARK SMILES IDX 19 1 18 2 17 3 16 4 14 5 15 6 13 7 4 8 5 9 9 10 6 11 8 12
REMARK SMILES IDX 7 13 90 14 88 15 91 16 79 17 89 18 3 19 2 20 1 21 10 22
REMARK SMILES IDX 11 23 12 24 80 25 81 26 86 27 82 28 85 29 87 30 83 31 84 32
REMARK SMILES IDX 20 33 21 34 22 35 23 36 24 37 25 38 26 39 78 40 27 41 77 42
REMARK SMILES IDX 28 43 29 44 30 45 71 46 31 47 76 48 70 49 72 50 32 51 75 52
REMARK SMILES IDX 69 53 68 54 33 56 59 57 42 58 58 59 43 60 46 61 57 62 73 63
REMARK SMILES IDX 44 64 45 65 56 67 74 68 47 69 34 70 35 71 40 72 36 73 37 74
REMARK SMILES IDX 39 75 41 76 38 77 60 78 61 79 66 80 62 81 63 82 65 83 67 84
REMARK SMILES IDX 64 85 48 86 49 87 54 88 50 89 51 90 53 91 55 92 52 93
REMARK H PARENT 72 55 46 66
REMARK Flexibility Score: inf
ROOT
ATOM      1  O   UNL A   1      36.825  22.346  25.091  1.00  0.00    -0.374 OA
ENDROOT
BRANCH   1   2
ATOM      2  C   UNL A   1      35.661  22.316  24.270  1.00  0.00     0.202 C 
BRANCH   2   3
ATOM      3  C   UNL A   1      35.395  23.558  23.418  1.00  0.00     0.261 C 
BRANCH   3   4
ATOM      4  O   UNL A   1      33.991  23.806  23.238  1.00  0.00    -0.463 OA
BRANCH   4   5
ATOM      5  C   UNL A   1      33.662  25.049  22.806  1.00  0.00     0.316 C 
ATOM      6  O   UNL A   1      33.732  25.424  21.640  1.00  0.00    -0.251 OA
BRANCH   5   7
ATOM      7  C   UNL A   1      33.247  25.987  23.924  1.00  0.00     0.157 C 
ATOM      8  C   UNL A   1      30.474  24.115  26.610  1.00  0.00     0.161 A 
ATOM      9  C   UNL A   1      30.018  24.929  25.561  1.00  0.00     0.064 A 
ATOM     10  C   UNL A   1      31.848  23.887  26.772  1.00  0.00     0.161 A 
ATOM     11  C   UNL A   1      30.913  25.491  24.660  1.00  0.00     0.048 A 
ATOM     12  C   UNL A   1      32.739  24.486  25.878  1.00  0.00     0.056 A 
ATOM     13  C   UNL A   1      32.280  25.300  24.843  1.00  0.00    -0.015 A 
ATOM     14  C   UNL A   1      30.411  26.313  23.524  1.00  0.00     0.254 C 
ATOM     15  N   UNL A   1      31.316  27.218  22.968  1.00  0.00    -0.333 N 
ATOM     16  O   UNL A   1      29.258  26.171  23.131  1.00  0.00    -0.269 OA
ATOM     17  C   UNL A   1      32.670  27.374  23.505  1.00  0.00     0.135 C 
ATOM     18  C   UNL A   1      30.867  28.059  21.873  1.00  0.00     0.147 C 
BRANCH   8  19
ATOM     19  O   UNL A   1      29.562  23.656  27.521  1.00  0.00    -0.490 OA
BRANCH  19  20
ATOM     20  C   UNL A   1      29.281  22.255  27.408  1.00  0.00     0.226 C 
ATOM     21  C   UNL A   1      27.797  21.960  27.566  1.00  0.00     0.049 C 
ENDBRANCH  19  20
ENDBRANCH   8  19
BRANCH  10  22
ATOM     22  O   UNL A   1      32.518  23.145  27.702  1.00  0.00    -0.490 OA
BRANCH  22  23
ATOM     23  C   UNL A   1      33.872  22.771  27.504  1.00  0.00     0.226 C 
ATOM     24  C   UNL A   1      33.979  21.280  27.248  1.00  0.00     0.049 C 
ENDBRANCH  22  23
ENDBRANCH  10  22
BRANCH  17  25
ATOM     25  C   UNL A   1      32.829  28.379  24.678  1.00  0.00    -0.005 A 
ATOM     26  C   UNL A   1      34.005  28.212  25.458  1.00  0.00     0.010 A 
ATOM     27  C   UNL A   1      31.915  29.362  25.123  1.00  0.00     0.049 A 
ATOM     28  C   UNL A   1      34.202  28.890  26.663  1.00  0.00     0.040 A 
ATOM     29  C   UNL A   1      32.124  30.045  26.332  1.00  0.00     0.060 A 
ATOM     30  Cl  UNL A   1      30.493  29.873  24.292  1.00  0.00    -0.084 Cl
ATOM     31  C   UNL A   1      33.245  29.786  27.100  1.00  0.00     0.124 A 
ATOM     32  F   UNL A   1      33.409  30.417  28.268  1.00  0.00    -0.207 F 
ENDBRANCH  17  25
ENDBRANCH   5   7
ENDBRANCH   4   5
ENDBRANCH   3   4
ENDBRANCH   2   3
ENDBRANCH   1   2
BRANCH   1  33
ATOM     33  C   UNL A   1      37.754  21.272  24.959  1.00  0.00     0.202 C 
BRANCH  33  34
ATOM     34  C   UNL A   1      39.072  21.409  25.727  1.00  0.00     0.261 C 
BRANCH  34  35
ATOM     35  O   UNL A   1      39.520  20.144  26.250  1.00  0.00    -0.460 OA
BRANCH  35  36
ATOM     36  C   UNL A   1      40.850  19.920  26.142  1.00  0.00     0.338 C 
ATOM     37  O   UNL A   1      41.398  18.954  25.621  1.00  0.00    -0.246 OA
BRANCH  36  38
ATOM     38  C   UNL A   1      41.603  21.108  26.580  1.00  0.00     0.060 A 
ATOM     39  C   UNL A   1      41.706  21.339  27.958  1.00  0.00     0.016 A 
ATOM     40  C   UNL A   1      42.139  22.018  25.666  1.00  0.00     0.016 A 
ATOM     41  C   UNL A   1      42.309  22.503  28.428  1.00  0.00     0.010 A 
ATOM     42  C   UNL A   1      42.744  23.186  26.140  1.00  0.00     0.010 A 
ATOM     43  C   UNL A   1      42.800  23.451  27.521  1.00  0.00    -0.014 A 
BRANCH  43  44
ATOM     44  C   UNL A   1      43.231  24.783  28.009  1.00  0.00     0.031 A 
ATOM     45  C   UNL A   1      42.183  25.809  28.346  1.00  0.00     0.074 A 
ATOM     46  C   UNL A   1      44.533  25.073  28.172  1.00  0.00     0.049 A 
ATOM     47  N   UNL A   1      42.328  27.054  28.724  1.00  0.00    -0.248 NA
ATOM     48  C   UNL A   1      40.781  25.372  28.239  1.00  0.00     0.031 C 
ATOM     49  C   UNL A   1      45.641  24.153  27.921  1.00  0.00     0.029 A 
ATOM     50  N   UNL A   1      45.142  26.234  28.579  1.00  0.00    -0.354 N 
ATOM     51  C   UNL A   1      41.042  27.551  28.886  1.00  0.00     0.074 A 
ATOM     52  C   UNL A   1      40.127  26.484  28.544  1.00  0.00     0.031 C 
ATOM     53  C   UNL A   1      46.798  24.790  28.168  1.00  0.00     0.029 A 
ATOM     54  C   UNL A   1      46.515  26.171  28.555  1.00  0.00     0.049 A 
ATOM     55  H   UNL A   1      44.645  27.034  28.862  1.00  0.00     0.167 HD
ATOM     56  C   UNL A   1      40.658  28.784  29.293  1.00  0.00     0.037 A 
ATOM     57  C   UNL A   1      47.433  27.129  28.785  1.00  0.00     0.037 A 
ATOM     58  C   UNL A   1      41.569  29.842  29.641  1.00  0.00     0.049 A 
ATOM     59  C   UNL A   1      46.981  28.517  29.152  1.00  0.00     0.074 A 
ATOM     60  C   UNL A   1      41.275  31.117  30.094  1.00  0.00     0.029 A 
ATOM     61  N   UNL A   1      42.949  29.751  29.563  1.00  0.00    -0.354 N 
ATOM     62  N   UNL A   1      45.764  28.971  29.330  1.00  0.00    -0.248 NA
ATOM     63  C   UNL A   1      48.030  29.530  29.342  1.00  0.00     0.031 C 
ATOM     64  C   UNL A   1      42.478  31.814  30.241  1.00  0.00     0.029 A 
ATOM     65  C   UNL A   1      43.523  30.958  29.929  1.00  0.00     0.049 A 
ATOM     66  H   UNL A   1      43.449  28.948  29.290  1.00  0.00     0.167 HD
ATOM     67  C   UNL A   1      45.902  30.312  29.673  1.00  0.00     0.074 A 
ATOM     68  C   UNL A   1      47.321  30.594  29.692  1.00  0.00     0.031 C 
ATOM     69  C   UNL A   1      44.938  31.225  29.947  1.00  0.00     0.037 A 
BRANCH  56  70
ATOM     70  C   UNL A   1      39.186  29.065  29.356  1.00  0.00     0.057 A 
ATOM     71  C   UNL A   1      38.455  28.925  30.543  1.00  0.00     0.134 A 
ATOM     72  C   UNL A   1      38.499  29.517  28.223  1.00  0.00     0.134 A 
ATOM     73  F   UNL A   1      39.051  28.482  31.661  1.00  0.00    -0.206 F 
ATOM     74  C   UNL A   1      37.088  29.206  30.595  1.00  0.00     0.040 A 
ATOM     75  C   UNL A   1      37.138  29.825  28.269  1.00  0.00     0.040 A 
ATOM     76  F   UNL A   1      39.140  29.677  27.055  1.00  0.00    -0.206 F 
ATOM     77  C   UNL A   1      36.428  29.665  29.456  1.00  0.00     0.006 A 
ENDBRANCH  56  70
BRANCH  57  78
ATOM     78  C   UNL A   1      48.878  26.821  28.644  1.00  0.00     0.057 A 
ATOM     79  C   UNL A   1      49.536  26.971  27.418  1.00  0.00     0.134 A 
ATOM     80  C   UNL A   1      49.632  26.347  29.725  1.00  0.00     0.134 A 
ATOM     81  F   UNL A   1      48.863  27.393  26.338  1.00  0.00    -0.206 F 
ATOM     82  C   UNL A   1      50.887  26.649  27.268  1.00  0.00     0.040 A 
ATOM     83  C   UNL A   1      50.988  26.046  29.598  1.00  0.00     0.040 A 
ATOM     84  F   UNL A   1      49.059  26.176  30.926  1.00  0.00    -0.206 F 
ATOM     85  C   UNL A   1      51.618  26.190  28.363  1.00  0.00     0.006 A 
ENDBRANCH  57  78
BRANCH  69  86
ATOM     86  C   UNL A   1      45.381  32.611  30.315  1.00  0.00     0.057 A 
ATOM     87  C   UNL A   1      45.658  32.967  31.641  1.00  0.00     0.134 A 
ATOM     88  C   UNL A   1      45.594  33.579  29.326  1.00  0.00     0.134 A 
ATOM     89  F   UNL A   1      45.464  32.090  32.636  1.00  0.00    -0.206 F 
ATOM     90  C   UNL A   1      46.119  34.244  31.970  1.00  0.00     0.040 A 
ATOM     91  C   UNL A   1      46.077  34.850  29.640  1.00  0.00     0.040 A 
ATOM     92  F   UNL A   1      45.357  33.298  28.035  1.00  0.00    -0.206 F 
ATOM     93  C   UNL A   1      46.338  35.187  30.967  1.00  0.00     0.006 A 
ENDBRANCH  69  86
ENDBRANCH  43  44
ENDBRANCH  36  38
ENDBRANCH  35  36
ENDBRANCH  34  35
ENDBRANCH  33  34
ENDBRANCH   1  33
TORSDOF 19
ENDMDL
MODEL 3
REMARK VINA RESULT:     -10.1      4.285      8.663
REMARK SMILES CCOc1cc2c(cc1OCC)[C@@H](C(=O)OCCOCCOC(=O)c1ccc(-c3c4nc(c(-c5c(F)cccc5F)c5ccc([nH]5)c(-c5c(F)cccc5F)c5nc(c(-c6c(F)cccc6F)c6ccc3[nH]6)C=C5)C=C4)cc1)[C@H](c1ccc(F)cc1Cl)N(C)C2=O
REMARK SMILES IDX 19 1 18 2 17 3 16 4 14 5 15 6 13 7 4 8 5 9 9 10 6 11 8 12
REMARK SMILES IDX 7 13 90 14 88 15 91 16 79 17 89 18 3 19 2 20 1 21 10 22
REMARK SMILES IDX 11 23 12 24 80 25 81 26 86 27 82 28 85 29 87 30 83 31 84 32
REMARK SMILES IDX 20 33 21 34 22 35 23 36 24 37 25 38 26 39 78 40 27 41 77 42
REMARK SMILES IDX 28 43 29 44 30 45 71 46 31 47 76 48 70 49 72 50 32 51 75 52
REMARK SMILES IDX 69 53 68 54 33 56 59 57 42 58 58 59 43 60 46 61 57 62 73 63
REMARK SMILES IDX 44 64 45 65 56 67 74 68 47 69 34 70 35 71 40 72 36 73 37 74
REMARK SMILES IDX 39 75 41 76 38 77 60 78 61 79 66 80 62 81 63 82 65 83 67 84
REMARK SMILES IDX 64 85 48 86 49 87 54 88 50 89 51 90 53 91 55 92 52 93
REMARK H PARENT 72 55 46 66
REMARK Flexibility Score: inf
ROOT
ATOM      1  O   UNL A   1      38.562  21.961  25.906  1.00  0.00    -0.374 OA
ENDROOT
BRANCH   1   2
ATOM      2  C   UNL A   1      37.267  21.855  25.322  1.00  0.00     0.202 C 
BRANCH   2   3
ATOM      3  C   UNL A   1      36.450  23.146  25.237  1.00  0.00     0.261 C 
BRANCH   3   4
ATOM      4  O   UNL A   1      35.863  23.503  26.499  1.00  0.00    -0.463 OA
BRANCH   4   5
ATOM      5  C   UNL A   1      34.510  23.417  26.565  1.00  0.00     0.316 C 
ATOM      6  O   UNL A   1      33.892  22.766  27.402  1.00  0.00    -0.251 OA
BRANCH   5   7
ATOM      7  C   UNL A   1      33.802  24.164  25.450  1.00  0.00     0.157 C 
ATOM      8  C   UNL A   1      32.298  27.952  26.790  1.00  0.00     0.161 A 
ATOM      9  C   UNL A   1      31.467  26.821  26.759  1.00  0.00     0.064 A 
ATOM     10  C   UNL A   1      33.642  27.844  26.405  1.00  0.00     0.161 A 
ATOM     11  C   UNL A   1      31.968  25.584  26.376  1.00  0.00     0.048 A 
ATOM     12  C   UNL A   1      34.124  26.600  25.991  1.00  0.00     0.056 A 
ATOM     13  C   UNL A   1      33.291  25.481  25.954  1.00  0.00    -0.015 A 
ATOM     14  C   UNL A   1      31.087  24.383  26.393  1.00  0.00     0.254 C 
ATOM     15  N   UNL A   1      31.471  23.322  25.573  1.00  0.00    -0.333 N 
ATOM     16  O   UNL A   1      30.088  24.370  27.104  1.00  0.00    -0.269 OA
ATOM     17  C   UNL A   1      32.654  23.408  24.713  1.00  0.00     0.135 C 
ATOM     18  C   UNL A   1      30.631  22.138  25.537  1.00  0.00     0.147 C 
BRANCH   8  19
ATOM     19  O   UNL A   1      31.736  29.163  27.090  1.00  0.00    -0.490 OA
BRANCH  19  20
ATOM     20  C   UNL A   1      31.642  30.054  25.970  1.00  0.00     0.226 C 
ATOM     21  C   UNL A   1      31.490  31.502  26.410  1.00  0.00     0.049 C 
ENDBRANCH  19  20
ENDBRANCH   8  19
BRANCH  10  22
ATOM     22  O   UNL A   1      34.626  28.788  26.353  1.00  0.00    -0.490 OA
BRANCH  22  23
ATOM     23  C   UNL A   1      35.214  29.300  27.537  1.00  0.00     0.226 C 
ATOM     24  C   UNL A   1      35.070  30.808  27.594  1.00  0.00     0.049 C 
ENDBRANCH  22  23
ENDBRANCH  10  22
BRANCH  17  25
ATOM     25  C   UNL A   1      32.435  24.036  23.310  1.00  0.00    -0.005 A 
ATOM     26  C   UNL A   1      33.425  23.708  22.343  1.00  0.00     0.010 A 
ATOM     27  C   UNL A   1      31.445  24.961  22.905  1.00  0.00     0.049 A 
ATOM     28  C   UNL A   1      33.495  24.346  21.103  1.00  0.00     0.040 A 
ATOM     29  C   UNL A   1      31.519  25.593  21.653  1.00  0.00     0.060 A 
ATOM     30  Cl  UNL A   1      30.054  25.419  23.816  1.00  0.00    -0.084 Cl
ATOM     31  C   UNL A   1      32.550  25.300  20.778  1.00  0.00     0.124 A 
ATOM     32  F   UNL A   1      32.626  25.940  19.606  1.00  0.00    -0.207 F 
ENDBRANCH  17  25
ENDBRANCH   5   7
ENDBRANCH   4   5
ENDBRANCH   3   4
ENDBRANCH   2   3
ENDBRANCH   1   2
BRANCH   1  33
ATOM     33  C   UNL A   1      39.054  23.269  26.188  1.00  0.00     0.202 C 
BRANCH  33  34
ATOM     34  C   UNL A   1      40.282  23.357  27.100  1.00  0.00     0.261 C 
BRANCH  34  35
ATOM     35  O   UNL A   1      41.354  24.093  26.483  1.00  0.00    -0.460 OA
BRANCH  35  36
ATOM     36  C   UNL A   1      41.105  25.409  26.287  1.00  0.00     0.338 C 
ATOM     37  O   UNL A   1      40.783  25.952  25.236  1.00  0.00    -0.246 OA
BRANCH  36  38
ATOM     38  C   UNL A   1      41.090  26.120  27.577  1.00  0.00     0.060 A 
ATOM     39  C   UNL A   1      39.898  26.106  28.312  1.00  0.00     0.016 A 
ATOM     40  C   UNL A   1      42.195  26.845  28.029  1.00  0.00     0.016 A 
ATOM     41  C   UNL A   1      39.791  26.853  29.483  1.00  0.00     0.010 A 
ATOM     42  C   UNL A   1      42.085  27.594  29.205  1.00  0.00     0.010 A 
ATOM     43  C   UNL A   1      40.872  27.630  29.917  1.00  0.00    -0.014 A 
BRANCH  43  44
ATOM     44  C   UNL A   1      40.686  28.596  31.027  1.00  0.00     0.031 A 
ATOM     45  C   UNL A   1      39.641  29.669  30.890  1.00  0.00     0.074 A 
ATOM     46  C   UNL A   1      41.419  28.510  32.150  1.00  0.00     0.049 A 
ATOM     47  N   UNL A   1      39.351  30.656  31.699  1.00  0.00    -0.248 NA
ATOM     48  C   UNL A   1      38.813  29.625  29.673  1.00  0.00     0.031 C 
ATOM     49  C   UNL A   1      42.432  27.493  32.422  1.00  0.00     0.029 A 
ATOM     50  N   UNL A   1      41.427  29.304  33.270  1.00  0.00    -0.354 N 
ATOM     51  C   UNL A   1      38.320  31.355  31.086  1.00  0.00     0.074 A 
ATOM     52  C   UNL A   1      38.049  30.697  29.826  1.00  0.00     0.031 C 
ATOM     53  C   UNL A   1      42.975  27.731  33.628  1.00  0.00     0.029 A 
ATOM     54  C   UNL A   1      42.376  28.939  34.194  1.00  0.00     0.049 A 
ATOM     55  H   UNL A   1      40.813  30.062  33.400  1.00  0.00     0.167 HD
ATOM     56  C   UNL A   1      37.652  32.444  31.536  1.00  0.00     0.037 A 
ATOM     57  C   UNL A   1      42.741  29.533  35.347  1.00  0.00     0.037 A 
ATOM     58  C   UNL A   1      37.916  33.094  32.792  1.00  0.00     0.049 A 
ATOM     59  C   UNL A   1      42.043  30.792  35.786  1.00  0.00     0.074 A 
ATOM     60  C   UNL A   1      37.272  34.184  33.351  1.00  0.00     0.029 A 
ATOM     61  N   UNL A   1      38.912  32.718  33.680  1.00  0.00    -0.354 N 
ATOM     62  N   UNL A   1      41.051  31.431  35.214  1.00  0.00    -0.248 NA
ATOM     63  C   UNL A   1      42.521  31.420  37.027  1.00  0.00     0.031 C 
ATOM     64  C   UNL A   1      37.913  34.501  34.552  1.00  0.00     0.029 A 
ATOM     65  C   UNL A   1      38.923  33.576  34.767  1.00  0.00     0.049 A 
ATOM     66  H   UNL A   1      39.522  31.954  33.557  1.00  0.00     0.167 HD
ATOM     67  C   UNL A   1      40.773  32.519  36.034  1.00  0.00     0.074 A 
ATOM     68  C   UNL A   1      41.690  32.446  37.150  1.00  0.00     0.031 C 
ATOM     69  C   UNL A   1      39.840  33.490  35.874  1.00  0.00     0.037 A 
BRANCH  56  70
ATOM     70  C   UNL A   1      36.587  33.020  30.649  1.00  0.00     0.057 A 
ATOM     71  C   UNL A   1      35.225  32.808  30.894  1.00  0.00     0.134 A 
ATOM     72  C   UNL A   1      36.931  33.828  29.558  1.00  0.00     0.134 A 
ATOM     73  F   UNL A   1      34.830  32.031  31.914  1.00  0.00    -0.206 F 
ATOM     74  C   UNL A   1      34.242  33.362  30.072  1.00  0.00     0.040 A 
ATOM     75  C   UNL A   1      35.957  34.409  28.745  1.00  0.00     0.040 A 
ATOM     76  F   UNL A   1      38.218  34.075  29.271  1.00  0.00    -0.206 F 
ATOM     77  C   UNL A   1      34.608  34.172  28.998  1.00  0.00     0.006 A 
ENDBRANCH  56  70
BRANCH  57  78
ATOM     78  C   UNL A   1      43.847  28.963  36.157  1.00  0.00     0.057 A 
ATOM     79  C   UNL A   1      45.130  29.522  36.129  1.00  0.00     0.134 A 
ATOM     80  C   UNL A   1      43.654  27.834  36.963  1.00  0.00     0.134 A 
ATOM     81  F   UNL A   1      45.385  30.586  35.356  1.00  0.00    -0.206 F 
ATOM     82  C   UNL A   1      46.184  28.970  36.861  1.00  0.00     0.040 A 
ATOM     83  C   UNL A   1      44.690  27.287  37.719  1.00  0.00     0.040 A 
ATOM     84  F   UNL A   1      42.449  27.248  37.029  1.00  0.00    -0.206 F 
ATOM     85  C   UNL A   1      45.962  27.852  37.664  1.00  0.00     0.006 A 
ENDBRANCH  57  78
BRANCH  69  86
ATOM     86  C   UNL A   1      39.745  34.541  36.942  1.00  0.00     0.057 A 
ATOM     87  C   UNL A   1      38.978  34.350  38.097  1.00  0.00     0.134 A 
ATOM     88  C   UNL A   1      40.480  35.729  36.841  1.00  0.00     0.134 A 
ATOM     89  F   UNL A   1      38.242  33.239  38.249  1.00  0.00    -0.206 F 
ATOM     90  C   UNL A   1      38.934  35.311  39.109  1.00  0.00     0.040 A 
ATOM     91  C   UNL A   1      40.464  36.686  37.857  1.00  0.00     0.040 A 
ATOM     92  F   UNL A   1      41.243  35.969  35.764  1.00  0.00    -0.206 F 
ATOM     93  C   UNL A   1      39.686  36.480  38.994  1.00  0.00     0.006 A 
ENDBRANCH  69  86
ENDBRANCH  43  44
ENDBRANCH  36  38
ENDBRANCH  35  36
ENDBRANCH  34  35
ENDBRANCH  33  34
ENDBRANCH   1  33
TORSDOF 19
ENDMDL
