MODEL 1
REMARK VINA RESULT:     -10.8      0.000      0.000
REMARK SMILES C[C@@H](c1ccccn1)S(=O)(=O)N1CC[NH2+]C[C@@H]1C(=O)OCCOCCOC(=O)c1ccc(-c2c3nc(c(-c4c(F)cccc4F)c4ccc([nH]4)c(-c4c(F)cccc4F)c4nc(c(-c5c(F)cccc5F)c5ccc2[nH]5)C=C4)C=C3)cc1
REMARK SMILES IDX 22 1 21 2 20 3 18 4 19 5 17 6 12 7 13 8 14 9 16 10 15 11
REMARK SMILES IDX 9 14 10 15 11 16 2 17 1 18 3 19 4 20 8 21 5 22 7 23 6 24
REMARK SMILES IDX 23 25 24 26 25 27 26 28 27 29 28 30 29 31 30 32 82 33 31 34
REMARK SMILES IDX 81 35 32 36 33 37 34 38 75 39 35 40 80 41 74 42 76 43 36 44
REMARK SMILES IDX 79 45 73 46 72 47 37 49 63 50 46 51 62 52 47 53 50 54 61 55
REMARK SMILES IDX 77 56 48 57 49 58 60 60 78 61 51 62 38 63 39 64 44 65 40 66
REMARK SMILES IDX 41 67 43 68 45 69 42 70 64 71 65 72 70 73 66 74 67 75 69 76
REMARK SMILES IDX 71 77 68 78 52 79 53 80 58 81 54 82 55 83 57 84 59 85 56 86
REMARK H PARENT 15 12 15 13 76 48 50 59
REMARK Flexibility Score: inf
ROOT
ATOM      1  C   UNL A   1      32.072  29.754  27.271  1.00  0.00     0.202 C 
ENDROOT
BRANCH   1   2
ATOM      2  C   UNL A   1      33.061  28.579  27.382  1.00  0.00     0.261 C 
BRANCH   2   3
ATOM      3  O   UNL A   1      33.131  27.707  26.224  1.00  0.00    -0.462 OA
BRANCH   3   4
ATOM      4  C   UNL A   1      31.974  27.038  25.949  1.00  0.00     0.330 C 
ATOM      5  O   UNL A   1      31.234  26.613  26.835  1.00  0.00    -0.250 OA
BRANCH   4   6
ATOM      6  C   UNL A   1      31.672  26.854  24.453  1.00  0.00     0.237 C 
ATOM      7  N   UNL A   1      32.797  26.564  23.505  1.00  0.00    -0.176 NA
ATOM      8  C   UNL A   1      33.851  27.576  23.476  1.00  0.00     0.164 C 
ATOM      9  C   UNL A   1      33.285  29.002  23.305  1.00  0.00     0.277 C 
ATOM     10  C   UNL A   1      31.067  28.190  23.943  1.00  0.00     0.293 C 
ATOM     11  N   UNL A   1      32.031  29.321  24.003  1.00  0.00    -0.343 N 
ATOM     12  H   UNL A   1      31.609  30.140  23.567  1.00  0.00     0.346 HD
ATOM     13  H   UNL A   1      32.249  29.501  24.983  1.00  0.00     0.346 HD
BRANCH   7  14
ATOM     14  S   UNL A   1      32.671  25.305  22.416  1.00  0.00     0.223 S 
ATOM     15  O   UNL A   1      33.758  25.508  21.473  1.00  0.00    -0.211 OA
ATOM     16  O   UNL A   1      31.305  25.352  21.937  1.00  0.00    -0.211 OA
BRANCH  14  17
ATOM     17  C   UNL A   1      33.014  23.695  23.231  1.00  0.00     0.170 C 
ATOM     18  C   UNL A   1      32.574  22.467  22.449  1.00  0.00     0.033 C 
BRANCH  17  19
ATOM     19  C   UNL A   1      34.414  23.668  23.807  1.00  0.00     0.060 A 
ATOM     20  C   UNL A   1      34.758  24.204  25.051  1.00  0.00     0.025 A 
ATOM     21  N   UNL A   1      35.369  23.140  23.000  1.00  0.00    -0.260 NA
ATOM     22  C   UNL A   1      36.065  24.085  25.521  1.00  0.00     0.004 A 
ATOM     23  C   UNL A   1      36.636  23.057  23.465  1.00  0.00     0.111 A 
ATOM     24  C   UNL A   1      37.025  23.492  24.717  1.00  0.00     0.020 A 
ENDBRANCH  17  19
ENDBRANCH  14  17
ENDBRANCH   7  14
ENDBRANCH   4   6
ENDBRANCH   3   4
ENDBRANCH   2   3
ENDBRANCH   1   2
BRANCH   1  25
ATOM     25  O   UNL A   1      32.418  30.891  26.481  1.00  0.00    -0.374 OA
BRANCH  25  26
ATOM     26  C   UNL A   1      31.450  31.927  26.423  1.00  0.00     0.202 C 
BRANCH  26  27
ATOM     27  C   UNL A   1      31.844  33.345  26.850  1.00  0.00     0.261 C 
BRANCH  27  28
ATOM     28  O   UNL A   1      32.448  33.381  28.144  1.00  0.00    -0.460 OA
BRANCH  28  29
ATOM     29  C   UNL A   1      33.509  34.213  28.229  1.00  0.00     0.338 C 
ATOM     30  O   UNL A   1      33.503  35.437  28.194  1.00  0.00    -0.246 OA
BRANCH  29  31
ATOM     31  C   UNL A   1      34.702  33.432  28.580  1.00  0.00     0.060 A 
ATOM     32  C   UNL A   1      34.494  32.141  29.080  1.00  0.00     0.016 A 
ATOM     33  C   UNL A   1      35.990  33.953  28.439  1.00  0.00     0.016 A 
ATOM     34  C   UNL A   1      35.577  31.379  29.493  1.00  0.00     0.010 A 
ATOM     35  C   UNL A   1      37.077  33.191  28.868  1.00  0.00     0.010 A 
ATOM     36  C   UNL A   1      36.868  31.918  29.428  1.00  0.00    -0.014 A 
BRANCH  36  37
ATOM     37  C   UNL A   1      37.976  31.201  30.092  1.00  0.00     0.031 A 
ATOM     38  C   UNL A   1      38.257  31.491  31.538  1.00  0.00     0.074 A 
ATOM     39  C   UNL A   1      38.684  30.276  29.422  1.00  0.00     0.049 A 
ATOM     40  N   UNL A   1      39.179  30.993  32.320  1.00  0.00    -0.248 NA
ATOM     41  C   UNL A   1      37.377  32.474  32.192  1.00  0.00     0.031 C 
ATOM     42  C   UNL A   1      38.466  29.897  28.027  1.00  0.00     0.029 A 
ATOM     43  N   UNL A   1      39.731  29.493  29.827  1.00  0.00    -0.354 N 
ATOM     44  C   UNL A   1      38.992  31.603  33.554  1.00  0.00     0.074 A 
ATOM     45  C   UNL A   1      37.895  32.533  33.409  1.00  0.00     0.031 C 
ATOM     46  C   UNL A   1      39.364  28.958  27.688  1.00  0.00     0.029 A 
ATOM     47  C   UNL A   1      40.236  28.698  28.830  1.00  0.00     0.049 A 
ATOM     48  H   UNL A   1      40.088  29.501  30.745  1.00  0.00     0.167 HD
ATOM     49  C   UNL A   1      39.670  31.392  34.706  1.00  0.00     0.037 A 
ATOM     50  C   UNL A   1      41.301  27.874  28.839  1.00  0.00     0.037 A 
ATOM     51  C   UNL A   1      40.769  30.471  34.831  1.00  0.00     0.049 A 
ATOM     52  C   UNL A   1      42.090  27.717  30.110  1.00  0.00     0.074 A 
ATOM     53  C   UNL A   1      41.521  30.171  35.953  1.00  0.00     0.029 A 
ATOM     54  N   UNL A   1      41.278  29.707  33.791  1.00  0.00    -0.354 N 
ATOM     55  N   UNL A   1      41.892  28.273  31.282  1.00  0.00    -0.248 NA
ATOM     56  C   UNL A   1      43.249  26.815  30.063  1.00  0.00     0.031 C 
ATOM     57  C   UNL A   1      42.521  29.268  35.576  1.00  0.00     0.029 A 
ATOM     58  C   UNL A   1      42.356  28.960  34.235  1.00  0.00     0.049 A 
ATOM     59  H   UNL A   1      40.925  29.699  32.871  1.00  0.00     0.167 HD
ATOM     60  C   UNL A   1      42.885  27.776  32.115  1.00  0.00     0.074 A 
ATOM     61  C   UNL A   1      43.672  26.856  31.319  1.00  0.00     0.031 C 
ATOM     62  C   UNL A   1      43.128  28.054  33.421  1.00  0.00     0.037 A 
BRANCH  49  63
ATOM     63  C   UNL A   1      39.258  32.196  35.905  1.00  0.00     0.057 A 
ATOM     64  C   UNL A   1      39.768  33.477  36.152  1.00  0.00     0.134 A 
ATOM     65  C   UNL A   1      38.325  31.687  36.819  1.00  0.00     0.134 A 
ATOM     66  F   UNL A   1      40.677  34.018  35.326  1.00  0.00    -0.206 F 
ATOM     67  C   UNL A   1      39.388  34.212  37.277  1.00  0.00     0.040 A 
ATOM     68  C   UNL A   1      37.915  32.424  37.932  1.00  0.00     0.040 A 
ATOM     69  F   UNL A   1      37.794  30.468  36.644  1.00  0.00    -0.206 F 
ATOM     70  C   UNL A   1      38.454  33.687  38.168  1.00  0.00     0.006 A 
ENDBRANCH  49  63
BRANCH  50  71
ATOM     71  C   UNL A   1      41.691  27.155  27.599  1.00  0.00     0.057 A 
ATOM     72  C   UNL A   1      42.528  27.745  26.646  1.00  0.00     0.134 A 
ATOM     73  C   UNL A   1      41.231  25.857  27.338  1.00  0.00     0.134 A 
ATOM     74  F   UNL A   1      42.985  28.992  26.829  1.00  0.00    -0.206 F 
ATOM     75  C   UNL A   1      42.882  27.078  25.472  1.00  0.00     0.040 A 
ATOM     76  C   UNL A   1      41.600  25.169  26.181  1.00  0.00     0.040 A 
ATOM     77  F   UNL A   1      40.428  25.234  28.212  1.00  0.00    -0.206 F 
ATOM     78  C   UNL A   1      42.423  25.783  25.240  1.00  0.00     0.006 A 
ENDBRANCH  50  71
BRANCH  62  79
ATOM     79  C   UNL A   1      44.276  27.339  34.071  1.00  0.00     0.057 A 
ATOM     80  C   UNL A   1      44.123  26.077  34.659  1.00  0.00     0.134 A 
ATOM     81  C   UNL A   1      45.559  27.902  34.072  1.00  0.00     0.134 A 
ATOM     82  F   UNL A   1      42.918  25.488  34.702  1.00  0.00    -0.206 F 
ATOM     83  C   UNL A   1      45.200  25.413  35.248  1.00  0.00     0.040 A 
ATOM     84  C   UNL A   1      46.648  27.234  34.631  1.00  0.00     0.040 A 
ATOM     85  F   UNL A   1      45.777  29.103  33.516  1.00  0.00    -0.206 F 
ATOM     86  C   UNL A   1      46.469  25.988  35.228  1.00  0.00     0.006 A 
ENDBRANCH  62  79
ENDBRANCH  36  37
ENDBRANCH  29  31
ENDBRANCH  28  29
ENDBRANCH  27  28
ENDBRANCH  26  27
ENDBRANCH  25  26
ENDBRANCH   1  25
TORSDOF 17
ENDMDL
MODEL 2
REMARK VINA RESULT:     -10.5      1.675      6.477
REMARK SMILES C[C@@H](c1ccccn1)S(=O)(=O)N1CC[NH2+]C[C@@H]1C(=O)OCCOCCOC(=O)c1ccc(-c2c3nc(c(-c4c(F)cccc4F)c4ccc([nH]4)c(-c4c(F)cccc4F)c4nc(c(-c5c(F)cccc5F)c5ccc2[nH]5)C=C4)C=C3)cc1
REMARK SMILES IDX 22 1 21 2 20 3 18 4 19 5 17 6 12 7 13 8 14 9 16 10 15 11
REMARK SMILES IDX 9 14 10 15 11 16 2 17 1 18 3 19 4 20 8 21 5 22 7 23 6 24
REMARK SMILES IDX 23 25 24 26 25 27 26 28 27 29 28 30 29 31 30 32 82 33 31 34
REMARK SMILES IDX 81 35 32 36 33 37 34 38 75 39 35 40 80 41 74 42 76 43 36 44
REMARK SMILES IDX 79 45 73 46 72 47 37 49 63 50 46 51 62 52 47 53 50 54 61 55
REMARK SMILES IDX 77 56 48 57 49 58 60 60 78 61 51 62 38 63 39 64 44 65 40 66
REMARK SMILES IDX 41 67 43 68 45 69 42 70 64 71 65 72 70 73 66 74 67 75 69 76
REMARK SMILES IDX 71 77 68 78 52 79 53 80 58 81 54 82 55 83 57 84 59 85 56 86
REMARK H PARENT 15 12 15 13 76 48 50 59
REMARK Flexibility Score: inf
ROOT
ATOM      1  C   UNL A   1      33.722  29.925  26.891  1.00  0.00     0.202 C 
ENDROOT
BRANCH   1   2
ATOM      2  C   UNL A   1      33.909  28.405  26.734  1.00  0.00     0.261 C 
BRANCH   2   3
ATOM      3  O   UNL A   1      32.807  27.700  26.106  1.00  0.00    -0.462 OA
BRANCH   3   4
ATOM      4  C   UNL A   1      33.073  26.397  25.795  1.00  0.00     0.330 C 
ATOM      5  O   UNL A   1      34.101  26.058  25.211  1.00  0.00    -0.250 OA
BRANCH   4   6
ATOM      6  C   UNL A   1      31.991  25.394  26.227  1.00  0.00     0.237 C 
ATOM      7  N   UNL A   1      31.798  24.134  25.438  1.00  0.00    -0.176 NA
ATOM      8  C   UNL A   1      31.474  24.336  24.027  1.00  0.00     0.164 C 
ATOM      9  C   UNL A   1      30.316  25.339  23.834  1.00  0.00     0.277 C 
ATOM     10  C   UNL A   1      30.626  26.128  26.129  1.00  0.00     0.293 C 
ATOM     11  N   UNL A   1      30.269  26.500  24.733  1.00  0.00    -0.343 N 
ATOM     12  H   UNL A   1      29.326  26.887  24.725  1.00  0.00     0.346 HD
ATOM     13  H   UNL A   1      30.948  27.187  24.404  1.00  0.00     0.346 HD
BRANCH   7  14
ATOM     14  S   UNL A   1      31.720  22.661  26.220  1.00  0.00     0.223 S 
ATOM     15  O   UNL A   1      30.451  22.081  25.813  1.00  0.00    -0.211 OA
ATOM     16  O   UNL A   1      31.940  22.961  27.619  1.00  0.00    -0.211 OA
BRANCH  14  17
ATOM     17  C   UNL A   1      33.012  21.516  25.594  1.00  0.00     0.170 C 
ATOM     18  C   UNL A   1      32.536  20.502  24.565  1.00  0.00     0.033 C 
BRANCH  17  19
ATOM     19  C   UNL A   1      34.288  22.264  25.271  1.00  0.00     0.060 A 
ATOM     20  C   UNL A   1      34.758  22.483  23.973  1.00  0.00     0.025 A 
ATOM     21  N   UNL A   1      35.018  22.666  26.342  1.00  0.00    -0.260 NA
ATOM     22  C   UNL A   1      35.919  23.229  23.772  1.00  0.00     0.004 A 
ATOM     23  C   UNL A   1      36.155  23.366  26.125  1.00  0.00     0.111 A 
ATOM     24  C   UNL A   1      36.630  23.688  24.869  1.00  0.00     0.020 A 
ENDBRANCH  17  19
ENDBRANCH  14  17
ENDBRANCH   7  14
ENDBRANCH   4   6
ENDBRANCH   3   4
ENDBRANCH   2   3
ENDBRANCH   1   2
BRANCH   1  25
ATOM     25  O   UNL A   1      32.493  30.432  27.413  1.00  0.00    -0.374 OA
BRANCH  25  26
ATOM     26  C   UNL A   1      31.788  31.335  26.576  1.00  0.00     0.202 C 
BRANCH  26  27
ATOM     27  C   UNL A   1      31.823  32.834  26.896  1.00  0.00     0.261 C 
BRANCH  27  28
ATOM     28  O   UNL A   1      33.150  33.321  27.098  1.00  0.00    -0.460 OA
BRANCH  28  29
ATOM     29  C   UNL A   1      33.260  34.195  28.123  1.00  0.00     0.338 C 
ATOM     30  O   UNL A   1      32.527  35.143  28.377  1.00  0.00    -0.246 OA
BRANCH  29  31
ATOM     31  C   UNL A   1      34.301  33.725  29.045  1.00  0.00     0.060 A 
ATOM     32  C   UNL A   1      35.591  34.239  28.864  1.00  0.00     0.016 A 
ATOM     33  C   UNL A   1      34.030  32.794  30.049  1.00  0.00     0.016 A 
ATOM     34  C   UNL A   1      36.633  33.783  29.658  1.00  0.00     0.010 A 
ATOM     35  C   UNL A   1      35.081  32.326  30.839  1.00  0.00     0.010 A 
ATOM     36  C   UNL A   1      36.389  32.794  30.619  1.00  0.00    -0.014 A 
BRANCH  36  37
ATOM     37  C   UNL A   1      37.537  32.145  31.285  1.00  0.00     0.031 A 
ATOM     38  C   UNL A   1      38.270  31.056  30.556  1.00  0.00     0.074 A 
ATOM     39  C   UNL A   1      37.941  32.558  32.497  1.00  0.00     0.049 A 
ATOM     40  N   UNL A   1      39.294  30.341  30.943  1.00  0.00    -0.248 NA
ATOM     41  C   UNL A   1      37.782  30.728  29.205  1.00  0.00     0.031 C 
ATOM     42  C   UNL A   1      37.320  33.631  33.271  1.00  0.00     0.029 A 
ATOM     43  N   UNL A   1      38.968  32.118  33.289  1.00  0.00    -0.354 N 
ATOM     44  C   UNL A   1      39.571  29.481  29.889  1.00  0.00     0.074 A 
ATOM     45  C   UNL A   1      38.586  29.735  28.860  1.00  0.00     0.031 C 
ATOM     46  C   UNL A   1      37.974  33.760  34.437  1.00  0.00     0.029 A 
ATOM     47  C   UNL A   1      39.035  32.757  34.501  1.00  0.00     0.049 A 
ATOM     48  H   UNL A   1      39.597  31.412  33.015  1.00  0.00     0.167 HD
ATOM     49  C   UNL A   1      40.567  28.570  29.787  1.00  0.00     0.037 A 
ATOM     50  C   UNL A   1      39.848  32.534  35.551  1.00  0.00     0.037 A 
ATOM     51  C   UNL A   1      41.532  28.320  30.825  1.00  0.00     0.049 A 
ATOM     52  C   UNL A   1      40.896  31.461  35.445  1.00  0.00     0.074 A 
ATOM     53  C   UNL A   1      42.589  27.428  30.824  1.00  0.00     0.029 A 
ATOM     54  N   UNL A   1      41.548  28.961  32.056  1.00  0.00    -0.354 N 
ATOM     55  N   UNL A   1      41.173  30.670  34.435  1.00  0.00    -0.248 NA
ATOM     56  C   UNL A   1      41.749  31.249  36.623  1.00  0.00     0.031 C 
ATOM     57  C   UNL A   1      43.210  27.490  32.077  1.00  0.00     0.029 A 
ATOM     58  C   UNL A   1      42.577  28.461  32.836  1.00  0.00     0.049 A 
ATOM     59  H   UNL A   1      40.919  29.666  32.333  1.00  0.00     0.167 HD
ATOM     60  C   UNL A   1      42.241  29.883  34.847  1.00  0.00     0.074 A 
ATOM     61  C   UNL A   1      42.575  30.307  36.191  1.00  0.00     0.031 C 
ATOM     62  C   UNL A   1      42.887  28.897  34.175  1.00  0.00     0.037 A 
BRANCH  49  63
ATOM     63  C   UNL A   1      40.636  27.763  28.523  1.00  0.00     0.057 A 
ATOM     64  C   UNL A   1      39.953  26.548  28.379  1.00  0.00     0.134 A 
ATOM     65  C   UNL A   1      41.385  28.215  27.427  1.00  0.00     0.134 A 
ATOM     66  F   UNL A   1      39.231  26.050  29.394  1.00  0.00    -0.206 F 
ATOM     67  C   UNL A   1      40.034  25.799  27.203  1.00  0.00     0.040 A 
ATOM     68  C   UNL A   1      41.450  27.488  26.237  1.00  0.00     0.040 A 
ATOM     69  F   UNL A   1      42.063  29.370  27.495  1.00  0.00    -0.206 F 
ATOM     70  C   UNL A   1      40.780  26.272  26.126  1.00  0.00     0.006 A 
ENDBRANCH  49  63
BRANCH  50  71
ATOM     71  C   UNL A   1      39.684  33.329  36.795  1.00  0.00     0.057 A 
ATOM     72  C   UNL A   1      40.435  34.486  37.026  1.00  0.00     0.134 A 
ATOM     73  C   UNL A   1      38.770  32.945  37.786  1.00  0.00     0.134 A 
ATOM     74  F   UNL A   1      41.340  34.894  36.125  1.00  0.00    -0.206 F 
ATOM     75  C   UNL A   1      40.296  35.226  38.202  1.00  0.00     0.040 A 
ATOM     76  C   UNL A   1      38.601  33.691  38.954  1.00  0.00     0.040 A 
ATOM     77  F   UNL A   1      38.017  31.848  37.626  1.00  0.00    -0.206 F 
ATOM     78  C   UNL A   1      39.371  34.832  39.167  1.00  0.00     0.006 A 
ENDBRANCH  50  71
BRANCH  62  79
ATOM     79  C   UNL A   1      44.033  28.229  34.878  1.00  0.00     0.057 A 
ATOM     80  C   UNL A   1      43.861  27.052  35.616  1.00  0.00     0.134 A 
ATOM     81  C   UNL A   1      45.330  28.748  34.779  1.00  0.00     0.134 A 
ATOM     82  F   UNL A   1      42.642  26.510  35.760  1.00  0.00    -0.206 F 
ATOM     83  C   UNL A   1      44.935  26.428  36.254  1.00  0.00     0.040 A 
ATOM     84  C   UNL A   1      46.416  28.117  35.387  1.00  0.00     0.040 A 
ATOM     85  F   UNL A   1      45.567  29.867  34.078  1.00  0.00    -0.206 F 
ATOM     86  C   UNL A   1      46.219  26.957  36.133  1.00  0.00     0.006 A 
ENDBRANCH  62  79
ENDBRANCH  36  37
ENDBRANCH  29  31
ENDBRANCH  28  29
ENDBRANCH  27  28
ENDBRANCH  26  27
ENDBRANCH  25  26
ENDBRANCH   1  25
TORSDOF 17
ENDMDL
MODEL 3
REMARK VINA RESULT:     -10.5      4.485      9.430
REMARK SMILES C[C@@H](c1ccccn1)S(=O)(=O)N1CC[NH2+]C[C@@H]1C(=O)OCCOCCOC(=O)c1ccc(-c2c3nc(c(-c4c(F)cccc4F)c4ccc([nH]4)c(-c4c(F)cccc4F)c4nc(c(-c5c(F)cccc5F)c5ccc2[nH]5)C=C4)C=C3)cc1
REMARK SMILES IDX 22 1 21 2 20 3 18 4 19 5 17 6 12 7 13 8 14 9 16 10 15 11
REMARK SMILES IDX 9 14 10 15 11 16 2 17 1 18 3 19 4 20 8 21 5 22 7 23 6 24
REMARK SMILES IDX 23 25 24 26 25 27 26 28 27 29 28 30 29 31 30 32 82 33 31 34
REMARK SMILES IDX 81 35 32 36 33 37 34 38 75 39 35 40 80 41 74 42 76 43 36 44
REMARK SMILES IDX 79 45 73 46 72 47 37 49 63 50 46 51 62 52 47 53 50 54 61 55
REMARK SMILES IDX 77 56 48 57 49 58 60 60 78 61 51 62 38 63 39 64 44 65 40 66
REMARK SMILES IDX 41 67 43 68 45 69 42 70 64 71 65 72 70 73 66 74 67 75 69 76
REMARK SMILES IDX 71 77 68 78 52 79 53 80 58 81 54 82 55 83 57 84 59 85 56 86
REMARK H PARENT 15 12 15 13 76 48 50 59
REMARK Flexibility Score: inf
ROOT
ATOM      1  C   UNL A   1      37.317  22.854  24.806  1.00  0.00     0.202 C 
ENDROOT
BRANCH   1   2
ATOM      2  C   UNL A   1      36.707  22.969  23.397  1.00  0.00     0.261 C 
BRANCH   2   3
ATOM      3  O   UNL A   1      35.354  22.462  23.257  1.00  0.00    -0.462 OA
BRANCH   3   4
ATOM      4  C   UNL A   1      34.378  23.400  23.437  1.00  0.00     0.330 C 
ATOM      5  O   UNL A   1      34.501  24.560  23.048  1.00  0.00    -0.250 OA
BRANCH   4   6
ATOM      6  C   UNL A   1      33.121  22.894  24.165  1.00  0.00     0.237 C 
ATOM      7  N   UNL A   1      32.842  23.361  25.562  1.00  0.00    -0.176 NA
ATOM      8  C   UNL A   1      33.892  23.058  26.531  1.00  0.00     0.164 C 
ATOM      9  C   UNL A   1      34.325  21.577  26.477  1.00  0.00     0.277 C 
ATOM     10  C   UNL A   1      33.256  21.352  24.288  1.00  0.00     0.293 C 
ATOM     11  N   UNL A   1      34.393  20.939  25.154  1.00  0.00    -0.343 N 
ATOM     12  H   UNL A   1      34.367  19.927  25.273  1.00  0.00     0.346 HD
ATOM     13  H   UNL A   1      35.259  21.232  24.703  1.00  0.00     0.346 HD
BRANCH   7  14
ATOM     14  S   UNL A   1      31.329  23.943  25.963  1.00  0.00     0.223 S 
ATOM     15  O   UNL A   1      31.371  24.149  27.402  1.00  0.00    -0.211 OA
ATOM     16  O   UNL A   1      30.395  22.980  25.418  1.00  0.00    -0.211 OA
BRANCH  14  17
ATOM     17  C   UNL A   1      31.048  25.603  25.231  1.00  0.00     0.170 C 
ATOM     18  C   UNL A   1      29.594  25.951  24.956  1.00  0.00     0.033 C 
BRANCH  17  19
ATOM     19  C   UNL A   1      31.876  26.654  25.939  1.00  0.00     0.060 A 
ATOM     20  C   UNL A   1      31.353  27.580  26.847  1.00  0.00     0.025 A 
ATOM     21  N   UNL A   1      33.186  26.703  25.587  1.00  0.00    -0.260 NA
ATOM     22  C   UNL A   1      32.204  28.478  27.489  1.00  0.00     0.004 A 
ATOM     23  C   UNL A   1      33.989  27.601  26.204  1.00  0.00     0.111 A 
ATOM     24  C   UNL A   1      33.552  28.486  27.169  1.00  0.00     0.020 A 
ENDBRANCH  17  19
ENDBRANCH  14  17
ENDBRANCH   7  14
ENDBRANCH   4   6
ENDBRANCH   3   4
ENDBRANCH   2   3
ENDBRANCH   1   2
BRANCH   1  25
ATOM     25  O   UNL A   1      37.551  21.563  25.368  1.00  0.00    -0.374 OA
BRANCH  25  26
ATOM     26  C   UNL A   1      38.881  21.297  25.784  1.00  0.00     0.202 C 
BRANCH  26  27
ATOM     27  C   UNL A   1      39.469  19.898  25.563  1.00  0.00     0.261 C 
BRANCH  27  28
ATOM     28  O   UNL A   1      40.358  19.505  26.609  1.00  0.00    -0.460 OA
BRANCH  28  29
ATOM     29  C   UNL A   1      41.662  19.536  26.257  1.00  0.00     0.338 C 
ATOM     30  O   UNL A   1      42.274  18.712  25.589  1.00  0.00    -0.246 OA
BRANCH  29  31
ATOM     31  C   UNL A   1      42.227  20.839  26.629  1.00  0.00     0.060 A 
ATOM     32  C   UNL A   1      42.177  21.192  27.982  1.00  0.00     0.016 A 
ATOM     33  C   UNL A   1      42.779  21.700  25.679  1.00  0.00     0.016 A 
ATOM     34  C   UNL A   1      42.633  22.438  28.388  1.00  0.00     0.010 A 
ATOM     35  C   UNL A   1      43.225  22.958  26.085  1.00  0.00     0.010 A 
ATOM     36  C   UNL A   1      43.119  23.341  27.434  1.00  0.00    -0.014 A 
BRANCH  36  37
ATOM     37  C   UNL A   1      43.370  24.740  27.838  1.00  0.00     0.031 A 
ATOM     38  C   UNL A   1      44.791  25.206  27.968  1.00  0.00     0.074 A 
ATOM     39  C   UNL A   1      42.344  25.583  28.036  1.00  0.00     0.049 A 
ATOM     40  N   UNL A   1      45.250  26.380  28.316  1.00  0.00    -0.248 NA
ATOM     41  C   UNL A   1      45.837  24.216  27.662  1.00  0.00     0.031 C 
ATOM     42  C   UNL A   1      40.931  25.237  27.899  1.00  0.00     0.029 A 
ATOM     43  N   UNL A   1      42.337  26.904  28.400  1.00  0.00    -0.354 N 
ATOM     44  C   UNL A   1      46.634  26.268  28.274  1.00  0.00     0.074 A 
ATOM     45  C   UNL A   1      46.941  24.905  27.903  1.00  0.00     0.031 C 
ATOM     46  C   UNL A   1      40.189  26.319  28.188  1.00  0.00     0.029 A 
ATOM     47  C   UNL A   1      41.076  27.419  28.560  1.00  0.00     0.049 A 
ATOM     48  H   UNL A   1      43.157  27.432  28.533  1.00  0.00     0.167 HD
ATOM     49  C   UNL A   1      47.562  27.225  28.512  1.00  0.00     0.037 A 
ATOM     50  C   UNL A   1      40.688  28.636  28.986  1.00  0.00     0.037 A 
ATOM     51  C   UNL A   1      47.240  28.575  28.893  1.00  0.00     0.049 A 
ATOM     52  C   UNL A   1      41.739  29.658  29.323  1.00  0.00     0.074 A 
ATOM     53  C   UNL A   1      48.099  29.628  29.149  1.00  0.00     0.029 A 
ATOM     54  N   UNL A   1      45.951  29.053  29.082  1.00  0.00    -0.354 N 
ATOM     55  N   UNL A   1      43.045  29.557  29.254  1.00  0.00    -0.248 NA
ATOM     56  C   UNL A   1      41.263  30.966  29.795  1.00  0.00     0.031 C 
ATOM     57  C   UNL A   1      47.331  30.728  29.547  1.00  0.00     0.029 A 
ATOM     58  C   UNL A   1      45.992  30.378  29.483  1.00  0.00     0.049 A 
ATOM     59  H   UNL A   1      45.129  28.528  28.951  1.00  0.00     0.167 HD
ATOM     60  C   UNL A   1      43.547  30.790  29.652  1.00  0.00     0.074 A 
ATOM     61  C   UNL A   1      42.402  31.629  29.941  1.00  0.00     0.031 C 
ATOM     62  C   UNL A   1      44.837  31.192  29.770  1.00  0.00     0.037 A 
BRANCH  49  63
ATOM     63  C   UNL A   1      49.005  26.829  28.396  1.00  0.00     0.057 A 
ATOM     64  C   UNL A   1      49.732  26.342  29.490  1.00  0.00     0.134 A 
ATOM     65  C   UNL A   1      49.674  26.921  27.168  1.00  0.00     0.134 A 
ATOM     66  F   UNL A   1      49.157  26.244  30.699  1.00  0.00    -0.206 F 
ATOM     67  C   UNL A   1      51.078  25.989  29.375  1.00  0.00     0.040 A 
ATOM     68  C   UNL A   1      51.011  26.543  27.034  1.00  0.00     0.040 A 
ATOM     69  F   UNL A   1      49.038  27.377  26.078  1.00  0.00    -0.206 F 
ATOM     70  C   UNL A   1      51.720  26.083  28.142  1.00  0.00     0.006 A 
ENDBRANCH  49  63
BRANCH  50  71
ATOM     71  C   UNL A   1      39.242  28.941  29.137  1.00  0.00     0.057 A 
ATOM     72  C   UNL A   1      38.491  29.458  28.076  1.00  0.00     0.134 A 
ATOM     73  C   UNL A   1      38.578  28.723  30.351  1.00  0.00     0.134 A 
ATOM     74  F   UNL A   1      39.075  29.707  26.895  1.00  0.00    -0.206 F 
ATOM     75  C   UNL A   1      37.136  29.762  28.220  1.00  0.00     0.040 A 
ATOM     76  C   UNL A   1      37.217  28.997  30.501  1.00  0.00     0.040 A 
ATOM     77  F   UNL A   1      39.239  28.226  31.406  1.00  0.00    -0.206 F 
ATOM     78  C   UNL A   1      36.494  29.524  29.434  1.00  0.00     0.006 A 
ENDBRANCH  50  71
BRANCH  62  79
ATOM     79  C   UNL A   1      45.074  32.608  30.209  1.00  0.00     0.057 A 
ATOM     80  C   UNL A   1      45.251  32.943  31.557  1.00  0.00     0.134 A 
ATOM     81  C   UNL A   1      45.166  33.641  29.268  1.00  0.00     0.134 A 
ATOM     82  F   UNL A   1      45.162  32.003  32.510  1.00  0.00    -0.206 F 
ATOM     83  C   UNL A   1      45.486  34.260  31.955  1.00  0.00     0.040 A 
ATOM     84  C   UNL A   1      45.431  34.956  29.651  1.00  0.00     0.040 A 
ATOM     85  F   UNL A   1      45.017  33.387  27.959  1.00  0.00    -0.206 F 
ATOM     86  C   UNL A   1      45.585  35.270  31.000  1.00  0.00     0.006 A 
ENDBRANCH  62  79
ENDBRANCH  36  37
ENDBRANCH  29  31
ENDBRANCH  28  29
ENDBRANCH  27  28
ENDBRANCH  26  27
ENDBRANCH  25  26
ENDBRANCH   1  25
TORSDOF 17
ENDMDL
