MODEL 1
REMARK VINA RESULT:      -9.2      0.000      0.000
REMARK SMILES C[C@@H]1CCC[C@H](C)[N@H+]1Cc1cc2c(cc1Cl)C=C(C(=O)OCCOCCOC(=O)c1ccc(-c3c4nc(c(-c5c(F)cccc5F)c5ccc([nH]5)c(-c5c(F)cccc5F)c5nc(c(-c6c(F)cccc6F)c6ccc3[nH]6)C=C5)C=C4)cc1)[C@@H](C(F)(F)F)O2
REMARK SMILES IDX 24 1 23 2 22 3 21 4 19 5 20 6 18 7 10 8 11 9 15 10 12 11
REMARK SMILES IDX 14 12 16 13 13 14 89 15 17 16 84 17 9 18 8 19 7 20 6 21 5 22
REMARK SMILES IDX 4 23 2 24 3 26 1 27 85 28 86 29 87 30 88 31 25 32 26 33
REMARK SMILES IDX 27 34 28 35 29 36 30 37 31 38 83 39 32 40 82 41 33 42 34 43
REMARK SMILES IDX 35 44 76 45 36 46 81 47 75 48 77 49 37 50 80 51 74 52 73 53
REMARK SMILES IDX 38 55 64 56 47 57 63 58 48 59 51 60 62 61 78 62 49 63 50 64
REMARK SMILES IDX 61 66 79 67 52 68 39 69 40 70 45 71 41 72 42 73 44 74 46 75
REMARK SMILES IDX 43 76 65 77 66 78 71 79 67 80 68 81 70 82 72 83 69 84 53 85
REMARK SMILES IDX 54 86 59 87 55 88 56 89 58 90 60 91 57 92
REMARK H PARENT 8 25 77 54 51 65
REMARK Flexibility Score: inf
ROOT
ATOM      1  O   UNL A   1      33.769  33.751  30.981  1.00  0.00    -0.374 OA
ENDROOT
BRANCH   1   2
ATOM      2  C   UNL A   1      34.787  33.534  31.951  1.00  0.00     0.202 C 
BRANCH   2   3
ATOM      3  C   UNL A   1      34.415  33.669  33.431  1.00  0.00     0.261 C 
BRANCH   3   4
ATOM      4  O   UNL A   1      35.446  33.188  34.306  1.00  0.00    -0.460 OA
BRANCH   4   5
ATOM      5  C   UNL A   1      36.613  33.860  34.178  1.00  0.00     0.338 C 
ATOM      6  O   UNL A   1      36.749  35.075  34.166  1.00  0.00    -0.246 OA
BRANCH   5   7
ATOM      7  C   UNL A   1      37.759  32.935  34.144  1.00  0.00     0.087 C 
ATOM      8  C   UNL A   1      40.525  28.823  33.320  1.00  0.00     0.029 A 
ATOM      9  C   UNL A   1      40.759  30.035  34.010  1.00  0.00     0.058 A 
ATOM     10  C   UNL A   1      39.229  28.584  32.834  1.00  0.00     0.050 A 
ATOM     11  C   UNL A   1      39.778  31.030  34.064  1.00  0.00     0.128 A 
ATOM     12  C   UNL A   1      38.289  29.611  32.805  1.00  0.00     0.033 A 
ATOM     13  Cl  UNL A   1      38.695  27.046  32.256  1.00  0.00    -0.084 Cl
ATOM     14  C   UNL A   1      38.580  30.841  33.383  1.00  0.00     0.019 A 
ATOM     15  O   UNL A   1      40.063  32.188  34.739  1.00  0.00    -0.475 OA
ATOM     16  C   UNL A   1      37.608  31.906  33.302  1.00  0.00     0.027 C 
ATOM     17  C   UNL A   1      38.937  33.071  35.067  1.00  0.00     0.316 C 
BRANCH   8  18
ATOM     18  C   UNL A   1      41.679  27.870  33.055  1.00  0.00     0.301 C 
BRANCH  18  19
ATOM     19  N   UNL A   1      42.540  27.509  34.212  1.00  0.00    -0.327 N 
ATOM     20  C   UNL A   1      44.949  27.492  34.810  1.00  0.00     0.075 C 
ATOM     21  C   UNL A   1      43.862  26.972  33.855  1.00  0.00     0.181 C 
ATOM     22  C   UNL A   1      43.914  25.440  33.767  1.00  0.00     0.065 C 
ATOM     23  C   UNL A   1      43.289  24.747  34.968  1.00  0.00     0.012 C 
ATOM     24  C   UNL A   1      41.839  26.829  35.318  1.00  0.00     0.181 C 
ATOM     25  H   UNL A   1      42.778  28.409  34.630  1.00  0.00     0.348 HD
ATOM     26  C   UNL A   1      41.898  25.292  35.262  1.00  0.00     0.065 C 
ATOM     27  C   UNL A   1      42.288  27.325  36.702  1.00  0.00     0.075 C 
ENDBRANCH  18  19
ENDBRANCH   8  18
BRANCH  17  28
ATOM     28  C   UNL A   1      38.517  32.886  36.532  1.00  0.00     0.430 C 
ATOM     29  F   UNL A   1      37.882  33.980  37.010  1.00  0.00    -0.167 F 
ATOM     30  F   UNL A   1      37.658  31.847  36.668  1.00  0.00    -0.167 F 
ATOM     31  F   UNL A   1      39.573  32.641  37.340  1.00  0.00    -0.167 F 
ENDBRANCH  17  28
ENDBRANCH   5   7
ENDBRANCH   4   5
ENDBRANCH   3   4
ENDBRANCH   2   3
ENDBRANCH   1   2
BRANCH   1  32
ATOM     32  C   UNL A   1      34.145  34.174  29.671  1.00  0.00     0.202 C 
BRANCH  32  33
ATOM     33  C   UNL A   1      34.447  33.102  28.614  1.00  0.00     0.261 C 
BRANCH  33  34
ATOM     34  O   UNL A   1      34.370  31.765  29.134  1.00  0.00    -0.460 OA
BRANCH  34  35
ATOM     35  C   UNL A   1      34.577  30.782  28.222  1.00  0.00     0.338 C 
ATOM     36  O   UNL A   1      33.851  30.468  27.290  1.00  0.00    -0.246 OA
BRANCH  35  37
ATOM     37  C   UNL A   1      35.944  30.256  28.387  1.00  0.00     0.060 A 
ATOM     38  C   UNL A   1      36.871  30.335  27.350  1.00  0.00     0.016 A 
ATOM     39  C   UNL A   1      36.301  29.700  29.624  1.00  0.00     0.016 A 
ATOM     40  C   UNL A   1      38.170  29.870  27.561  1.00  0.00     0.010 A 
ATOM     41  C   UNL A   1      37.600  29.238  29.834  1.00  0.00     0.010 A 
ATOM     42  C   UNL A   1      38.550  29.337  28.808  1.00  0.00    -0.014 A 
BRANCH  42  43
ATOM     43  C   UNL A   1      39.974  29.002  29.055  1.00  0.00     0.031 A 
ATOM     44  C   UNL A   1      40.887  29.932  29.795  1.00  0.00     0.074 A 
ATOM     45  C   UNL A   1      40.438  27.821  28.605  1.00  0.00     0.049 A 
ATOM     46  N   UNL A   1      42.113  29.726  30.204  1.00  0.00    -0.248 NA
ATOM     47  C   UNL A   1      40.359  31.266  30.108  1.00  0.00     0.031 C 
ATOM     48  C   UNL A   1      39.662  26.859  27.821  1.00  0.00     0.029 A 
ATOM     49  N   UNL A   1      41.662  27.223  28.754  1.00  0.00    -0.354 N 
ATOM     50  C   UNL A   1      42.498  30.891  30.853  1.00  0.00     0.074 A 
ATOM     51  C   UNL A   1      41.396  31.824  30.720  1.00  0.00     0.031 C 
ATOM     52  C   UNL A   1      40.417  25.773  27.591  1.00  0.00     0.029 A 
ATOM     53  C   UNL A   1      41.733  25.975  28.187  1.00  0.00     0.049 A 
ATOM     54  H   UNL A   1      42.417  27.648  29.223  1.00  0.00     0.167 HD
ATOM     55  C   UNL A   1      43.651  31.151  31.518  1.00  0.00     0.037 A 
ATOM     56  C   UNL A   1      42.744  25.088  28.158  1.00  0.00     0.037 A 
ATOM     57  C   UNL A   1      44.764  30.236  31.607  1.00  0.00     0.049 A 
ATOM     58  C   UNL A   1      44.031  25.419  28.861  1.00  0.00     0.074 A 
ATOM     59  C   UNL A   1      45.969  30.398  32.270  1.00  0.00     0.029 A 
ATOM     60  N   UNL A   1      44.818  28.993  30.990  1.00  0.00    -0.354 N 
ATOM     61  N   UNL A   1      44.348  26.488  29.550  1.00  0.00    -0.248 NA
ATOM     62  C   UNL A   1      45.094  24.409  28.793  1.00  0.00     0.031 C 
ATOM     63  C   UNL A   1      46.770  29.280  32.008  1.00  0.00     0.029 A 
ATOM     64  C   UNL A   1      46.043  28.390  31.234  1.00  0.00     0.049 A 
ATOM     65  H   UNL A   1      44.092  28.596  30.456  1.00  0.00     0.167 HD
ATOM     66  C   UNL A   1      45.639  26.270  30.017  1.00  0.00     0.074 A 
ATOM     67  C   UNL A   1      46.029  24.952  29.557  1.00  0.00     0.031 C 
ATOM     68  C   UNL A   1      46.431  27.085  30.757  1.00  0.00     0.037 A 
BRANCH  55  69
ATOM     69  C   UNL A   1      43.761  32.487  32.198  1.00  0.00     0.057 A 
ATOM     70  C   UNL A   1      44.086  33.643  31.477  1.00  0.00     0.134 A 
ATOM     71  C   UNL A   1      43.553  32.629  33.578  1.00  0.00     0.134 A 
ATOM     72  F   UNL A   1      44.311  33.581  30.156  1.00  0.00    -0.206 F 
ATOM     73  C   UNL A   1      44.189  34.889  32.099  1.00  0.00     0.040 A 
ATOM     74  C   UNL A   1      43.623  33.874  34.206  1.00  0.00     0.040 A 
ATOM     75  F   UNL A   1      43.233  31.565  34.331  1.00  0.00    -0.206 F 
ATOM     76  C   UNL A   1      43.944  35.009  33.465  1.00  0.00     0.006 A 
ENDBRANCH  55  69
BRANCH  56  77
ATOM     77  C   UNL A   1      42.578  23.793  27.452  1.00  0.00     0.057 A 
ATOM     78  C   UNL A   1      42.211  22.633  28.144  1.00  0.00     0.134 A 
ATOM     79  C   UNL A   1      42.752  23.691  26.067  1.00  0.00     0.134 A 
ATOM     80  F   UNL A   1      42.039  22.663  29.474  1.00  0.00    -0.206 F 
ATOM     81  C   UNL A   1      42.024  21.418  27.485  1.00  0.00     0.040 A 
ATOM     82  C   UNL A   1      42.536  22.490  25.391  1.00  0.00     0.040 A 
ATOM     83  F   UNL A   1      43.088  24.771  25.347  1.00  0.00    -0.206 F 
ATOM     84  C   UNL A   1      42.174  21.347  26.102  1.00  0.00     0.006 A 
ENDBRANCH  56  77
BRANCH  68  85
ATOM     85  C   UNL A   1      47.788  26.554  31.130  1.00  0.00     0.057 A 
ATOM     86  C   UNL A   1      48.903  26.810  30.321  1.00  0.00     0.134 A 
ATOM     87  C   UNL A   1      48.001  25.810  32.300  1.00  0.00     0.134 A 
ATOM     88  F   UNL A   1      48.773  27.505  29.181  1.00  0.00    -0.206 F 
ATOM     89  C   UNL A   1      50.178  26.361  30.668  1.00  0.00     0.040 A 
ATOM     90  C   UNL A   1      49.278  25.386  32.676  1.00  0.00     0.040 A 
ATOM     91  F   UNL A   1      46.981  25.540  33.130  1.00  0.00    -0.206 F 
ATOM     92  C   UNL A   1      50.371  25.659  31.856  1.00  0.00     0.006 A 
ENDBRANCH  68  85
ENDBRANCH  42  43
ENDBRANCH  35  37
ENDBRANCH  34  35
ENDBRANCH  33  34
ENDBRANCH  32  33
ENDBRANCH   1  32
TORSDOF 17
ENDMDL
MODEL 2
REMARK VINA RESULT:      -9.2      0.584      6.048
REMARK SMILES C[C@@H]1CCC[C@H](C)[N@H+]1Cc1cc2c(cc1Cl)C=C(C(=O)OCCOCCOC(=O)c1ccc(-c3c4nc(c(-c5c(F)cccc5F)c5ccc([nH]5)c(-c5c(F)cccc5F)c5nc(c(-c6c(F)cccc6F)c6ccc3[nH]6)C=C5)C=C4)cc1)[C@@H](C(F)(F)F)O2
REMARK SMILES IDX 24 1 23 2 22 3 21 4 19 5 20 6 18 7 10 8 11 9 15 10 12 11
REMARK SMILES IDX 14 12 16 13 13 14 89 15 17 16 84 17 9 18 8 19 7 20 6 21 5 22
REMARK SMILES IDX 4 23 2 24 3 26 1 27 85 28 86 29 87 30 88 31 25 32 26 33
REMARK SMILES IDX 27 34 28 35 29 36 30 37 31 38 83 39 32 40 82 41 33 42 34 43
REMARK SMILES IDX 35 44 76 45 36 46 81 47 75 48 77 49 37 50 80 51 74 52 73 53
REMARK SMILES IDX 38 55 64 56 47 57 63 58 48 59 51 60 62 61 78 62 49 63 50 64
REMARK SMILES IDX 61 66 79 67 52 68 39 69 40 70 45 71 41 72 42 73 44 74 46 75
REMARK SMILES IDX 43 76 65 77 66 78 71 79 67 80 68 81 70 82 72 83 69 84 53 85
REMARK SMILES IDX 54 86 59 87 55 88 56 89 58 90 60 91 57 92
REMARK H PARENT 8 25 77 54 51 65
REMARK Flexibility Score: inf
ROOT
ATOM      1  O   UNL A   1      33.780  33.980  30.701  1.00  0.00    -0.374 OA
ENDROOT
BRANCH   1   2
ATOM      2  C   UNL A   1      34.710  33.708  31.744  1.00  0.00     0.202 C 
BRANCH   2   3
ATOM      3  C   UNL A   1      34.189  33.661  33.183  1.00  0.00     0.261 C 
BRANCH   3   4
ATOM      4  O   UNL A   1      35.144  33.106  34.100  1.00  0.00    -0.460 OA
BRANCH   4   5
ATOM      5  C   UNL A   1      36.295  33.814  34.167  1.00  0.00     0.338 C 
ATOM      6  O   UNL A   1      36.391  35.022  34.325  1.00  0.00    -0.246 OA
BRANCH   5   7
ATOM      7  C   UNL A   1      37.469  32.926  34.118  1.00  0.00     0.087 C 
ATOM      8  C   UNL A   1      40.349  28.893  33.289  1.00  0.00     0.029 A 
ATOM      9  C   UNL A   1      40.560  30.124  33.954  1.00  0.00     0.058 A 
ATOM     10  C   UNL A   1      39.049  28.604  32.841  1.00  0.00     0.050 A 
ATOM     11  C   UNL A   1      39.548  31.087  34.017  1.00  0.00     0.128 A 
ATOM     12  C   UNL A   1      38.076  29.599  32.820  1.00  0.00     0.033 A 
ATOM     13  Cl  UNL A   1      38.551  27.040  32.301  1.00  0.00    -0.084 Cl
ATOM     14  C   UNL A   1      38.340  30.848  33.371  1.00  0.00     0.019 A 
ATOM     15  O   UNL A   1      39.811  32.265  34.666  1.00  0.00    -0.475 OA
ATOM     16  C   UNL A   1      37.331  31.879  33.297  1.00  0.00     0.027 C 
ATOM     17  C   UNL A   1      38.666  33.116  35.008  1.00  0.00     0.316 C 
BRANCH   8  18
ATOM     18  C   UNL A   1      41.526  27.974  33.010  1.00  0.00     0.301 C 
BRANCH  18  19
ATOM     19  N   UNL A   1      42.573  27.876  34.060  1.00  0.00    -0.327 N 
ATOM     20  C   UNL A   1      44.872  28.709  34.486  1.00  0.00     0.075 C 
ATOM     21  C   UNL A   1      43.956  27.894  33.559  1.00  0.00     0.181 C 
ATOM     22  C   UNL A   1      44.550  26.500  33.307  1.00  0.00     0.065 C 
ATOM     23  C   UNL A   1      44.347  25.541  34.469  1.00  0.00     0.012 C 
ATOM     24  C   UNL A   1      42.285  26.906  35.135  1.00  0.00     0.181 C 
ATOM     25  H   UNL A   1      42.510  28.767  34.553  1.00  0.00     0.348 HD
ATOM     26  C   UNL A   1      42.891  25.508  34.913  1.00  0.00     0.065 C 
ATOM     27  C   UNL A   1      42.663  27.431  36.529  1.00  0.00     0.075 C 
ENDBRANCH  18  19
ENDBRANCH   8  18
BRANCH  17  28
ATOM     28  C   UNL A   1      38.288  32.942  36.486  1.00  0.00     0.430 C 
ATOM     29  F   UNL A   1      37.557  31.821  36.685  1.00  0.00    -0.167 F 
ATOM     30  F   UNL A   1      39.391  32.830  37.265  1.00  0.00    -0.167 F 
ATOM     31  F   UNL A   1      37.569  33.986  36.956  1.00  0.00    -0.167 F 
ENDBRANCH  17  28
ENDBRANCH   5   7
ENDBRANCH   4   5
ENDBRANCH   3   4
ENDBRANCH   2   3
ENDBRANCH   1   2
BRANCH   1  32
ATOM     32  C   UNL A   1      34.273  34.214  29.383  1.00  0.00     0.202 C 
BRANCH  32  33
ATOM     33  C   UNL A   1      34.090  33.114  28.327  1.00  0.00     0.261 C 
BRANCH  33  34
ATOM     34  O   UNL A   1      34.260  31.791  28.861  1.00  0.00    -0.460 OA
BRANCH  34  35
ATOM     35  C   UNL A   1      34.530  30.831  27.940  1.00  0.00     0.338 C 
ATOM     36  O   UNL A   1      33.877  30.550  26.946  1.00  0.00    -0.246 OA
BRANCH  35  37
ATOM     37  C   UNL A   1      35.877  30.290  28.195  1.00  0.00     0.060 A 
ATOM     38  C   UNL A   1      36.879  30.378  27.230  1.00  0.00     0.016 A 
ATOM     39  C   UNL A   1      36.137  29.707  29.444  1.00  0.00     0.016 A 
ATOM     40  C   UNL A   1      38.154  29.896  27.528  1.00  0.00     0.010 A 
ATOM     41  C   UNL A   1      37.413  29.229  29.740  1.00  0.00     0.010 A 
ATOM     42  C   UNL A   1      38.437  29.336  28.789  1.00  0.00    -0.014 A 
BRANCH  42  43
ATOM     43  C   UNL A   1      39.836  28.983  29.134  1.00  0.00     0.031 A 
ATOM     44  C   UNL A   1      40.421  27.648  28.785  1.00  0.00     0.074 A 
ATOM     45  C   UNL A   1      40.587  29.903  29.767  1.00  0.00     0.049 A 
ATOM     46  N   UNL A   1      41.660  27.239  28.900  1.00  0.00    -0.248 NA
ATOM     47  C   UNL A   1      39.498  26.641  28.248  1.00  0.00     0.031 C 
ATOM     48  C   UNL A   1      40.111  31.214  30.212  1.00  0.00     0.029 A 
ATOM     49  N   UNL A   1      41.908  29.883  30.132  1.00  0.00    -0.354 N 
ATOM     50  C   UNL A   1      41.676  25.938  28.420  1.00  0.00     0.074 A 
ATOM     51  C   UNL A   1      40.307  25.603  28.078  1.00  0.00     0.031 C 
ATOM     52  C   UNL A   1      41.136  31.889  30.755  1.00  0.00     0.029 A 
ATOM     53  C   UNL A   1      42.329  31.051  30.720  1.00  0.00     0.049 A 
ATOM     54  H   UNL A   1      42.497  29.108  29.987  1.00  0.00     0.167 HD
ATOM     55  C   UNL A   1      42.736  25.107  28.256  1.00  0.00     0.037 A 
ATOM     56  C   UNL A   1      43.543  31.408  31.174  1.00  0.00     0.037 A 
ATOM     57  C   UNL A   1      44.089  25.428  28.642  1.00  0.00     0.049 A 
ATOM     58  C   UNL A   1      44.693  30.451  31.026  1.00  0.00     0.074 A 
ATOM     59  C   UNL A   1      45.235  24.662  28.504  1.00  0.00     0.029 A 
ATOM     60  N   UNL A   1      44.476  26.605  29.270  1.00  0.00    -0.354 N 
ATOM     61  N   UNL A   1      44.714  29.257  30.485  1.00  0.00    -0.248 NA
ATOM     62  C   UNL A   1      45.993  30.902  31.540  1.00  0.00     0.031 C 
ATOM     63  C   UNL A   1      46.301  25.351  29.095  1.00  0.00     0.029 A 
ATOM     64  C   UNL A   1      45.835  26.575  29.548  1.00  0.00     0.049 A 
ATOM     65  H   UNL A   1      43.873  27.353  29.485  1.00  0.00     0.167 HD
ATOM     66  C   UNL A   1      46.031  28.823  30.572  1.00  0.00     0.074 A 
ATOM     67  C   UNL A   1      46.782  29.898  31.191  1.00  0.00     0.031 C 
ATOM     68  C   UNL A   1      46.572  27.642  30.180  1.00  0.00     0.037 A 
BRANCH  55  69
ATOM     69  C   UNL A   1      42.463  23.766  27.633  1.00  0.00     0.057 A 
ATOM     70  C   UNL A   1      42.299  22.621  28.421  1.00  0.00     0.134 A 
ATOM     71  C   UNL A   1      42.371  23.607  26.242  1.00  0.00     0.134 A 
ATOM     72  F   UNL A   1      42.386  22.695  29.758  1.00  0.00    -0.206 F 
ATOM     73  C   UNL A   1      42.043  21.371  27.853  1.00  0.00     0.040 A 
ATOM     74  C   UNL A   1      42.085  22.369  25.663  1.00  0.00     0.040 A 
ATOM     75  F   UNL A   1      42.513  24.662  25.426  1.00  0.00    -0.206 F 
ATOM     76  C   UNL A   1      41.923  21.245  26.470  1.00  0.00     0.006 A 
ENDBRANCH  55  69
BRANCH  56  77
ATOM     77  C   UNL A   1      43.742  32.740  31.797  1.00  0.00     0.057 A 
ATOM     78  C   UNL A   1      44.034  33.867  31.020  1.00  0.00     0.134 A 
ATOM     79  C   UNL A   1      43.617  32.924  33.179  1.00  0.00     0.134 A 
ATOM     80  F   UNL A   1      44.177  33.756  29.691  1.00  0.00    -0.206 F 
ATOM     81  C   UNL A   1      44.193  35.129  31.593  1.00  0.00     0.040 A 
ATOM     82  C   UNL A   1      43.742  34.185  33.762  1.00  0.00     0.040 A 
ATOM     83  F   UNL A   1      43.324  31.885  33.975  1.00  0.00    -0.206 F 
ATOM     84  C   UNL A   1      44.035  35.293  32.968  1.00  0.00     0.006 A 
ENDBRANCH  56  77
BRANCH  68  85
ATOM     85  C   UNL A   1      48.052  27.473  30.390  1.00  0.00     0.057 A 
ATOM     86  C   UNL A   1      48.541  26.807  31.521  1.00  0.00     0.134 A 
ATOM     87  C   UNL A   1      48.994  27.944  29.464  1.00  0.00     0.134 A 
ATOM     88  F   UNL A   1      47.699  26.338  32.454  1.00  0.00    -0.206 F 
ATOM     89  C   UNL A   1      49.908  26.603  31.716  1.00  0.00     0.040 A 
ATOM     90  C   UNL A   1      50.362  27.715  29.631  1.00  0.00     0.040 A 
ATOM     91  F   UNL A   1      48.595  28.578  28.350  1.00  0.00    -0.206 F 
ATOM     92  C   UNL A   1      50.822  27.044  30.762  1.00  0.00     0.006 A 
ENDBRANCH  68  85
ENDBRANCH  42  43
ENDBRANCH  35  37
ENDBRANCH  34  35
ENDBRANCH  33  34
ENDBRANCH  32  33
ENDBRANCH   1  32
TORSDOF 17
ENDMDL
MODEL 3
REMARK VINA RESULT:      -9.0      5.445     12.101
REMARK SMILES C[C@@H]1CCC[C@H](C)[N@H+]1Cc1cc2c(cc1Cl)C=C(C(=O)OCCOCCOC(=O)c1ccc(-c3c4nc(c(-c5c(F)cccc5F)c5ccc([nH]5)c(-c5c(F)cccc5F)c5nc(c(-c6c(F)cccc6F)c6ccc3[nH]6)C=C5)C=C4)cc1)[C@@H](C(F)(F)F)O2
REMARK SMILES IDX 24 1 23 2 22 3 21 4 19 5 20 6 18 7 10 8 11 9 15 10 12 11
REMARK SMILES IDX 14 12 16 13 13 14 89 15 17 16 84 17 9 18 8 19 7 20 6 21 5 22
REMARK SMILES IDX 4 23 2 24 3 26 1 27 85 28 86 29 87 30 88 31 25 32 26 33
REMARK SMILES IDX 27 34 28 35 29 36 30 37 31 38 83 39 32 40 82 41 33 42 34 43
REMARK SMILES IDX 35 44 76 45 36 46 81 47 75 48 77 49 37 50 80 51 74 52 73 53
REMARK SMILES IDX 38 55 64 56 47 57 63 58 48 59 51 60 62 61 78 62 49 63 50 64
REMARK SMILES IDX 61 66 79 67 52 68 39 69 40 70 45 71 41 72 42 73 44 74 46 75
REMARK SMILES IDX 43 76 65 77 66 78 71 79 67 80 68 81 70 82 72 83 69 84 53 85
REMARK SMILES IDX 54 86 59 87 55 88 56 89 58 90 60 91 57 92
REMARK H PARENT 8 25 77 54 51 65
REMARK Flexibility Score: inf
ROOT
ATOM      1  O   UNL A   1      37.750  21.867  25.763  1.00  0.00    -0.374 OA
ENDROOT
BRANCH   1   2
ATOM      2  C   UNL A   1      36.954  21.502  24.641  1.00  0.00     0.202 C 
BRANCH   2   3
ATOM      3  C   UNL A   1      36.088  22.582  23.986  1.00  0.00     0.261 C 
BRANCH   3   4
ATOM      4  O   UNL A   1      34.686  22.390  24.228  1.00  0.00    -0.460 OA
BRANCH   4   5
ATOM      5  C   UNL A   1      34.212  23.138  25.251  1.00  0.00     0.338 C 
ATOM      6  O   UNL A   1      34.399  22.933  26.442  1.00  0.00    -0.246 OA
BRANCH   5   7
ATOM      7  C   UNL A   1      33.493  24.323  24.755  1.00  0.00     0.087 C 
ATOM      8  C   UNL A   1      31.350  28.864  24.600  1.00  0.00     0.029 A 
ATOM      9  C   UNL A   1      31.387  27.771  23.702  1.00  0.00     0.058 A 
ATOM     10  C   UNL A   1      31.901  28.683  25.879  1.00  0.00     0.050 A 
ATOM     11  C   UNL A   1      32.093  26.606  24.021  1.00  0.00     0.128 A 
ATOM     12  C   UNL A   1      32.682  27.564  26.155  1.00  0.00     0.033 A 
ATOM     13  Cl  UNL A   1      31.663  29.787  27.186  1.00  0.00    -0.084 Cl
ATOM     14  C   UNL A   1      32.808  26.549  25.213  1.00  0.00     0.019 A 
ATOM     15  O   UNL A   1      32.102  25.582  23.111  1.00  0.00    -0.475 OA
ATOM     16  C   UNL A   1      33.659  25.418  25.503  1.00  0.00     0.027 C 
ATOM     17  C   UNL A   1      32.556  24.268  23.580  1.00  0.00     0.316 C 
BRANCH   8  18
ATOM     18  C   UNL A   1      30.802  30.204  24.136  1.00  0.00     0.301 C 
BRANCH  18  19
ATOM     19  N   UNL A   1      29.379  30.242  23.706  1.00  0.00    -0.327 N 
ATOM     20  C   UNL A   1      27.669  28.701  22.777  1.00  0.00     0.075 C 
ATOM     21  C   UNL A   1      29.048  29.353  22.582  1.00  0.00     0.181 C 
ATOM     22  C   UNL A   1      29.134  30.026  21.204  1.00  0.00     0.065 C 
ATOM     23  C   UNL A   1      28.414  31.364  21.143  1.00  0.00     0.012 C 
ATOM     24  C   UNL A   1      28.779  31.589  23.667  1.00  0.00     0.181 C 
ATOM     25  H   UNL A   1      28.878  29.806  24.481  1.00  0.00     0.348 HD
ATOM     26  C   UNL A   1      28.833  32.273  22.289  1.00  0.00     0.065 C 
ATOM     27  C   UNL A   1      27.343  31.619  24.216  1.00  0.00     0.075 C 
ENDBRANCH  18  19
ENDBRANCH   8  18
BRANCH  17  28
ATOM     28  C   UNL A   1      31.355  23.357  23.872  1.00  0.00     0.430 C 
ATOM     29  F   UNL A   1      31.631  22.063  23.591  1.00  0.00    -0.167 F 
ATOM     30  F   UNL A   1      31.010  23.405  25.182  1.00  0.00    -0.167 F 
ATOM     31  F   UNL A   1      30.263  23.707  23.156  1.00  0.00    -0.167 F 
ENDBRANCH  17  28
ENDBRANCH   5   7
ENDBRANCH   4   5
ENDBRANCH   3   4
ENDBRANCH   2   3
ENDBRANCH   1   2
BRANCH   1  32
ATOM     32  C   UNL A   1      39.095  21.397  25.835  1.00  0.00     0.202 C 
BRANCH  32  33
ATOM     33  C   UNL A   1      40.091  22.159  26.720  1.00  0.00     0.261 C 
BRANCH  33  34
ATOM     34  O   UNL A   1      39.851  23.576  26.742  1.00  0.00    -0.460 OA
BRANCH  34  35
ATOM     35  C   UNL A   1      40.968  24.347  26.740  1.00  0.00     0.338 C 
ATOM     36  O   UNL A   1      41.948  24.233  26.019  1.00  0.00    -0.246 OA
BRANCH  35  37
ATOM     37  C   UNL A   1      40.747  25.511  27.616  1.00  0.00     0.060 A 
ATOM     38  C   UNL A   1      39.682  25.538  28.516  1.00  0.00     0.016 A 
ATOM     39  C   UNL A   1      41.649  26.582  27.545  1.00  0.00     0.016 A 
ATOM     40  C   UNL A   1      39.534  26.638  29.362  1.00  0.00     0.010 A 
ATOM     41  C   UNL A   1      41.501  27.678  28.394  1.00  0.00     0.010 A 
ATOM     42  C   UNL A   1      40.451  27.706  29.322  1.00  0.00    -0.014 A 
BRANCH  42  43
ATOM     43  C   UNL A   1      40.364  28.782  30.340  1.00  0.00     0.031 A 
ATOM     44  C   UNL A   1      39.358  29.887  30.236  1.00  0.00     0.074 A 
ATOM     45  C   UNL A   1      41.212  28.740  31.384  1.00  0.00     0.049 A 
ATOM     46  N   UNL A   1      39.070  30.821  31.108  1.00  0.00    -0.248 NA
ATOM     47  C   UNL A   1      38.582  29.961  28.992  1.00  0.00     0.031 C 
ATOM     48  C   UNL A   1      42.274  27.748  31.564  1.00  0.00     0.029 A 
ATOM     49  N   UNL A   1      41.307  29.538  32.495  1.00  0.00    -0.354 N 
ATOM     50  C   UNL A   1      38.057  31.576  30.536  1.00  0.00     0.074 A 
ATOM     51  C   UNL A   1      37.830  31.032  29.211  1.00  0.00     0.031 C 
ATOM     52  C   UNL A   1      42.888  27.973  32.736  1.00  0.00     0.029 A 
ATOM     53  C   UNL A   1      42.282  29.136  33.374  1.00  0.00     0.049 A 
ATOM     54  H   UNL A   1      40.732  30.322  32.646  1.00  0.00     0.167 HD
ATOM     55  C   UNL A   1      37.364  32.611  31.072  1.00  0.00     0.037 A 
ATOM     56  C   UNL A   1      42.643  29.645  34.565  1.00  0.00     0.037 A 
ATOM     57  C   UNL A   1      37.626  33.180  32.372  1.00  0.00     0.049 A 
ATOM     58  C   UNL A   1      41.890  30.824  35.118  1.00  0.00     0.074 A 
ATOM     59  C   UNL A   1      36.970  34.218  33.013  1.00  0.00     0.029 A 
ATOM     60  N   UNL A   1      38.646  32.773  33.224  1.00  0.00    -0.354 N 
ATOM     61  N   UNL A   1      40.873  31.472  34.606  1.00  0.00    -0.248 NA
ATOM     62  C   UNL A   1      42.332  31.330  36.424  1.00  0.00     0.031 C 
ATOM     63  C   UNL A   1      37.626  34.474  34.223  1.00  0.00     0.029 A 
ATOM     64  C   UNL A   1      38.653  33.556  34.369  1.00  0.00     0.049 A 
ATOM     65  H   UNL A   1      39.272  32.036  33.041  1.00  0.00     0.167 HD
ATOM     66  C   UNL A   1      40.537  32.447  35.537  1.00  0.00     0.074 A 
ATOM     67  C   UNL A   1      41.442  32.282  36.657  1.00  0.00     0.031 C 
ATOM     68  C   UNL A   1      39.569  33.397  35.472  1.00  0.00     0.037 A 
BRANCH  55  69
ATOM     69  C   UNL A   1      36.256  33.195  30.241  1.00  0.00     0.057 A 
ATOM     70  C   UNL A   1      34.918  32.855  30.473  1.00  0.00     0.134 A 
ATOM     71  C   UNL A   1      36.517  34.093  29.195  1.00  0.00     0.134 A 
ATOM     72  F   UNL A   1      34.593  31.992  31.448  1.00  0.00    -0.206 F 
ATOM     73  C   UNL A   1      33.882  33.393  29.707  1.00  0.00     0.040 A 
ATOM     74  C   UNL A   1      35.488  34.663  28.443  1.00  0.00     0.040 A 
ATOM     75  F   UNL A   1      37.776  34.469  28.919  1.00  0.00    -0.206 F 
ATOM     76  C   UNL A   1      34.164  34.310  28.697  1.00  0.00     0.006 A 
ENDBRANCH  55  69
BRANCH  56  77
ATOM     77  C   UNL A   1      43.760  29.034  35.328  1.00  0.00     0.057 A 
ATOM     78  C   UNL A   1      45.082  29.449  35.133  1.00  0.00     0.134 A 
ATOM     79  C   UNL A   1      43.530  28.043  36.289  1.00  0.00     0.134 A 
ATOM     80  F   UNL A   1      45.371  30.387  34.219  1.00  0.00    -0.206 F 
ATOM     81  C   UNL A   1      46.136  28.901  35.865  1.00  0.00     0.040 A 
ATOM     82  C   UNL A   1      44.569  27.510  37.052  1.00  0.00     0.040 A 
ATOM     83  F   UNL A   1      42.282  27.615  36.533  1.00  0.00    -0.206 F 
ATOM     84  C   UNL A   1      45.879  27.938  36.838  1.00  0.00     0.006 A 
ENDBRANCH  56  77
BRANCH  68  85
ATOM     85  C   UNL A   1      39.434  34.307  36.662  1.00  0.00     0.057 A 
ATOM     86  C   UNL A   1      38.704  33.907  37.788  1.00  0.00     0.134 A 
ATOM     87  C   UNL A   1      40.045  35.570  36.707  1.00  0.00     0.134 A 
ATOM     88  F   UNL A   1      38.084  32.718  37.812  1.00  0.00    -0.206 F 
ATOM     89  C   UNL A   1      38.600  34.719  38.918  1.00  0.00     0.040 A 
ATOM     90  C   UNL A   1      39.977  36.375  37.846  1.00  0.00     0.040 A 
ATOM     91  F   UNL A   1      40.773  36.011  35.669  1.00  0.00    -0.206 F 
ATOM     92  C   UNL A   1      39.249  35.950  38.956  1.00  0.00     0.006 A 
ENDBRANCH  68  85
ENDBRANCH  42  43
ENDBRANCH  35  37
ENDBRANCH  34  35
ENDBRANCH  33  34
ENDBRANCH  32  33
ENDBRANCH   1  32
TORSDOF 17
ENDMDL
