MODEL 1
REMARK VINA RESULT:      -8.1      0.000      0.000
REMARK SMILES CNC(=O)c1ccc(N(CCC(=O)OCCOCCOC(=O)c2ccc(-c3c4nc(c(-c5c(F)cccc5F)c5ccc([nH]5)c(-c5c(F)cccc5F)c5nc(c(-c6c(F)cccc6F)c6ccc3[nH]6)C=C5)C=C4)cc2)C2CC2)nn1
REMARK SMILES IDX 16 1 15 2 14 3 12 4 13 5 11 6 10 7 9 8 8 9 5 10 6 11 81 12
REMARK SMILES IDX 7 13 80 14 3 15 1 16 2 17 4 19 77 20 78 21 79 22 17 23 18 24
REMARK SMILES IDX 19 25 20 26 21 27 22 28 23 29 24 30 76 31 25 32 75 33 26 34
REMARK SMILES IDX 27 35 28 36 69 37 29 38 74 39 68 40 70 41 30 42 73 43 67 44
REMARK SMILES IDX 66 45 31 47 57 48 40 49 56 50 41 51 44 52 55 53 71 54 42 55
REMARK SMILES IDX 43 56 54 58 72 59 45 60 32 61 33 62 38 63 34 64 35 65 37 66
REMARK SMILES IDX 39 67 36 68 58 69 59 70 64 71 60 72 61 73 63 74 65 75 62 76
REMARK SMILES IDX 46 77 47 78 52 79 48 80 49 81 51 82 53 83 50 84
REMARK H PARENT 2 18 70 46 44 57
REMARK Flexibility Score: inf
ROOT
ATOM      1  C   UNL A   1      34.460  35.703  33.378  1.00  0.00     0.202 C 
ENDROOT
BRANCH   1   2
ATOM      2  C   UNL A   1      35.274  34.422  33.586  1.00  0.00     0.261 C 
BRANCH   2   3
ATOM      3  O   UNL A   1      36.666  34.705  33.845  1.00  0.00    -0.463 OA
BRANCH   3   4
ATOM      4  C   UNL A   1      37.330  33.873  34.688  1.00  0.00     0.307 C 
ATOM      5  O   UNL A   1      37.492  34.071  35.884  1.00  0.00    -0.252 OA
BRANCH   4   6
ATOM      6  C   UNL A   1      37.850  32.652  33.969  1.00  0.00     0.144 C 
BRANCH   6   7
ATOM      7  C   UNL A   1      37.846  31.405  34.844  1.00  0.00     0.130 C 
BRANCH   7   8
ATOM      8  N   UNL A   1      38.703  30.326  34.299  1.00  0.00    -0.352 N 
BRANCH   8   9
ATOM      9  C   UNL A   1      40.023  30.254  34.795  1.00  0.00     0.151 A 
ATOM     10  C   UNL A   1      42.601  30.015  35.779  1.00  0.00     0.150 A 
ATOM     11  C   UNL A   1      42.422  30.561  34.531  1.00  0.00     0.040 A 
ATOM     12  N   UNL A   1      41.565  29.585  36.518  1.00  0.00    -0.143 NA
ATOM     13  C   UNL A   1      41.121  30.719  34.074  1.00  0.00     0.051 A 
ATOM     14  N   UNL A   1      40.276  29.705  36.007  1.00  0.00    -0.132 NA
BRANCH  10  15
ATOM     15  C   UNL A   1      43.947  30.016  36.391  1.00  0.00     0.271 C 
ATOM     16  C   UNL A   1      43.917  32.545  36.660  1.00  0.00     0.143 C 
ATOM     17  N   UNL A   1      44.526  31.230  36.702  1.00  0.00    -0.354 N 
ATOM     18  H   UNL A   1      45.468  31.200  36.987  1.00  0.00     0.163 HD
ATOM     19  O   UNL A   1      44.555  28.969  36.584  1.00  0.00    -0.267 OA
ENDBRANCH  10  15
ENDBRANCH   8   9
BRANCH   8  20
ATOM     20  C   UNL A   1      38.003  29.304  33.507  1.00  0.00     0.084 C 
ATOM     21  C   UNL A   1      37.402  29.473  32.148  1.00  0.00     0.027 C 
ATOM     22  C   UNL A   1      38.590  28.558  32.358  1.00  0.00     0.027 C 
ENDBRANCH   8  20
ENDBRANCH   7   8
ENDBRANCH   6   7
ENDBRANCH   4   6
ENDBRANCH   3   4
ENDBRANCH   2   3
ENDBRANCH   1   2
BRANCH   1  23
ATOM     23  O   UNL A   1      33.469  35.592  32.355  1.00  0.00    -0.374 OA
BRANCH  23  24
ATOM     24  C   UNL A   1      33.389  36.689  31.448  1.00  0.00     0.202 C 
BRANCH  24  25
ATOM     25  C   UNL A   1      33.037  36.281  30.011  1.00  0.00     0.261 C 
BRANCH  25  26
ATOM     26  O   UNL A   1      32.643  34.896  29.922  1.00  0.00    -0.460 OA
BRANCH  26  27
ATOM     27  C   UNL A   1      33.035  34.234  28.805  1.00  0.00     0.338 C 
ATOM     28  O   UNL A   1      32.460  34.179  27.732  1.00  0.00    -0.246 OA
BRANCH  27  29
ATOM     29  C   UNL A   1      34.397  33.696  29.019  1.00  0.00     0.060 A 
ATOM     30  C   UNL A   1      34.641  32.936  30.166  1.00  0.00     0.016 A 
ATOM     31  C   UNL A   1      35.422  33.914  28.098  1.00  0.00     0.016 A 
ATOM     32  C   UNL A   1      35.908  32.386  30.387  1.00  0.00     0.010 A 
ATOM     33  C   UNL A   1      36.670  33.307  28.285  1.00  0.00     0.010 A 
ATOM     34  C   UNL A   1      36.938  32.568  29.451  1.00  0.00    -0.014 A 
BRANCH  34  35
ATOM     35  C   UNL A   1      38.328  32.122  29.754  1.00  0.00     0.031 A 
ATOM     36  C   UNL A   1      38.789  30.774  29.255  1.00  0.00     0.074 A 
ATOM     37  C   UNL A   1      39.188  32.894  30.448  1.00  0.00     0.049 A 
ATOM     38  N   UNL A   1      39.939  30.170  29.426  1.00  0.00    -0.248 NA
ATOM     39  C   UNL A   1      37.814  29.993  28.476  1.00  0.00     0.031 C 
ATOM     40  C   UNL A   1      38.892  34.216  31.002  1.00  0.00     0.029 A 
ATOM     41  N   UNL A   1      40.499  32.672  30.802  1.00  0.00    -0.354 N 
ATOM     42  C   UNL A   1      39.813  28.937  28.798  1.00  0.00     0.074 A 
ATOM     43  C   UNL A   1      38.461  28.854  28.294  1.00  0.00     0.031 C 
ATOM     44  C   UNL A   1      39.995  34.695  31.606  1.00  0.00     0.029 A 
ATOM     45  C   UNL A   1      41.068  33.707  31.508  1.00  0.00     0.049 A 
ATOM     46  H   UNL A   1      40.986  31.849  30.570  1.00  0.00     0.167 HD
ATOM     47  C   UNL A   1      40.743  27.968  28.623  1.00  0.00     0.037 A 
ATOM     48  C   UNL A   1      42.309  33.841  32.018  1.00  0.00     0.037 A 
ATOM     49  C   UNL A   1      42.105  28.054  29.072  1.00  0.00     0.049 A 
ATOM     50  C   UNL A   1      43.322  32.740  31.829  1.00  0.00     0.074 A 
ATOM     51  C   UNL A   1      43.131  27.144  28.887  1.00  0.00     0.029 A 
ATOM     52  N   UNL A   1      42.633  29.114  29.790  1.00  0.00    -0.354 N 
ATOM     53  N   UNL A   1      43.199  31.601  31.192  1.00  0.00    -0.248 NA
ATOM     54  C   UNL A   1      44.649  32.947  32.432  1.00  0.00     0.031 C 
ATOM     55  C   UNL A   1      44.273  27.637  29.527  1.00  0.00     0.029 A 
ATOM     56  C   UNL A   1      43.966  28.871  30.076  1.00  0.00     0.049 A 
ATOM     57  H   UNL A   1      42.134  29.920  30.058  1.00  0.00     0.167 HD
ATOM     58  C   UNL A   1      44.436  30.972  31.294  1.00  0.00     0.074 A 
ATOM     59  C   UNL A   1      45.299  31.859  32.042  1.00  0.00     0.031 C 
ATOM     60  C   UNL A   1      44.820  29.765  30.812  1.00  0.00     0.037 A 
BRANCH  47  61
ATOM     61  C   UNL A   1      40.308  26.725  27.904  1.00  0.00     0.057 A 
ATOM     62  C   UNL A   1      39.523  25.747  28.529  1.00  0.00     0.134 A 
ATOM     63  C   UNL A   1      40.667  26.511  26.569  1.00  0.00     0.134 A 
ATOM     64  F   UNL A   1      39.161  25.884  29.814  1.00  0.00    -0.206 F 
ATOM     65  C   UNL A   1      39.139  24.584  27.860  1.00  0.00     0.040 A 
ATOM     66  C   UNL A   1      40.265  25.366  25.881  1.00  0.00     0.040 A 
ATOM     67  F   UNL A   1      41.414  27.412  25.911  1.00  0.00    -0.206 F 
ATOM     68  C   UNL A   1      39.504  24.395  26.530  1.00  0.00     0.006 A 
ENDBRANCH  47  61
BRANCH  48  69
ATOM     69  C   UNL A   1      42.686  35.072  32.760  1.00  0.00     0.057 A 
ATOM     70  C   UNL A   1      43.351  36.125  32.122  1.00  0.00     0.134 A 
ATOM     71  C   UNL A   1      42.438  35.203  34.132  1.00  0.00     0.134 A 
ATOM     72  F   UNL A   1      43.642  36.045  30.815  1.00  0.00    -0.206 F 
ATOM     73  C   UNL A   1      43.775  37.255  32.824  1.00  0.00     0.040 A 
ATOM     74  C   UNL A   1      42.836  36.338  34.841  1.00  0.00     0.040 A 
ATOM     75  F   UNL A   1      41.806  34.229  34.803  1.00  0.00    -0.206 F 
ATOM     76  C   UNL A   1      43.515  37.365  34.188  1.00  0.00     0.006 A 
ENDBRANCH  48  69
BRANCH  60  77
ATOM     77  C   UNL A   1      46.240  29.340  31.050  1.00  0.00     0.057 A 
ATOM     78  C   UNL A   1      46.609  28.600  32.179  1.00  0.00     0.134 A 
ATOM     79  C   UNL A   1      47.238  29.625  30.109  1.00  0.00     0.134 A 
ATOM     80  F   UNL A   1      45.703  28.303  33.123  1.00  0.00    -0.206 F 
ATOM     81  C   UNL A   1      47.924  28.173  32.374  1.00  0.00     0.040 A 
ATOM     82  C   UNL A   1      48.551  29.183  30.280  1.00  0.00     0.040 A 
ATOM     83  F   UNL A   1      46.950  30.321  28.999  1.00  0.00    -0.206 F 
ATOM     84  C   UNL A   1      48.898  28.458  31.418  1.00  0.00     0.006 A 
ENDBRANCH  60  77
ENDBRANCH  34  35
ENDBRANCH  27  29
ENDBRANCH  26  27
ENDBRANCH  25  26
ENDBRANCH  24  25
ENDBRANCH  23  24
ENDBRANCH   1  23
TORSDOF 19
ENDMDL
MODEL 2
REMARK VINA RESULT:      -8.0      1.986      6.893
REMARK SMILES CNC(=O)c1ccc(N(CCC(=O)OCCOCCOC(=O)c2ccc(-c3c4nc(c(-c5c(F)cccc5F)c5ccc([nH]5)c(-c5c(F)cccc5F)c5nc(c(-c6c(F)cccc6F)c6ccc3[nH]6)C=C5)C=C4)cc2)C2CC2)nn1
REMARK SMILES IDX 16 1 15 2 14 3 12 4 13 5 11 6 10 7 9 8 8 9 5 10 6 11 81 12
REMARK SMILES IDX 7 13 80 14 3 15 1 16 2 17 4 19 77 20 78 21 79 22 17 23 18 24
REMARK SMILES IDX 19 25 20 26 21 27 22 28 23 29 24 30 76 31 25 32 75 33 26 34
REMARK SMILES IDX 27 35 28 36 69 37 29 38 74 39 68 40 70 41 30 42 73 43 67 44
REMARK SMILES IDX 66 45 31 47 57 48 40 49 56 50 41 51 44 52 55 53 71 54 42 55
REMARK SMILES IDX 43 56 54 58 72 59 45 60 32 61 33 62 38 63 34 64 35 65 37 66
REMARK SMILES IDX 39 67 36 68 58 69 59 70 64 71 60 72 61 73 63 74 65 75 62 76
REMARK SMILES IDX 46 77 47 78 52 79 48 80 49 81 51 82 53 83 50 84
REMARK H PARENT 2 18 70 46 44 57
REMARK Flexibility Score: inf
ROOT
ATOM      1  C   UNL A   1      34.376  36.048  33.506  1.00  0.00     0.202 C 
ENDROOT
BRANCH   1   2
ATOM      2  C   UNL A   1      35.190  34.758  33.660  1.00  0.00     0.261 C 
BRANCH   2   3
ATOM      3  O   UNL A   1      36.538  34.910  33.168  1.00  0.00    -0.463 OA
BRANCH   3   4
ATOM      4  C   UNL A   1      37.549  34.473  33.962  1.00  0.00     0.307 C 
ATOM      5  O   UNL A   1      38.097  35.138  34.831  1.00  0.00    -0.252 OA
BRANCH   4   6
ATOM      6  C   UNL A   1      37.923  33.044  33.650  1.00  0.00     0.144 C 
BRANCH   6   7
ATOM      7  C   UNL A   1      37.557  32.079  34.771  1.00  0.00     0.130 C 
BRANCH   7   8
ATOM      8  N   UNL A   1      38.497  32.154  35.914  1.00  0.00    -0.352 N 
BRANCH   8   9
ATOM      9  C   UNL A   1      37.941  31.996  37.203  1.00  0.00     0.151 A 
ATOM     10  C   UNL A   1      36.914  31.611  39.746  1.00  0.00     0.150 A 
ATOM     11  C   UNL A   1      37.408  32.850  39.417  1.00  0.00     0.040 A 
ATOM     12  N   UNL A   1      36.933  30.588  38.875  1.00  0.00    -0.143 NA
ATOM     13  C   UNL A   1      37.872  33.039  38.123  1.00  0.00     0.051 A 
ATOM     14  N   UNL A   1      37.459  30.795  37.603  1.00  0.00    -0.132 NA
BRANCH  10  15
ATOM     15  C   UNL A   1      36.223  31.419  41.039  1.00  0.00     0.271 C 
ATOM     16  C   UNL A   1      38.394  30.790  42.205  1.00  0.00     0.143 C 
ATOM     17  N   UNL A   1      36.959  30.962  42.115  1.00  0.00    -0.354 N 
ATOM     18  H   UNL A   1      36.444  30.725  42.920  1.00  0.00     0.163 HD
ATOM     19  O   UNL A   1      35.019  31.621  41.148  1.00  0.00    -0.267 OA
ENDBRANCH  10  15
ENDBRANCH   8   9
BRANCH   8  20
ATOM     20  C   UNL A   1      39.923  32.122  35.561  1.00  0.00     0.084 C 
ATOM     21  C   UNL A   1      41.064  31.745  36.452  1.00  0.00     0.027 C 
ATOM     22  C   UNL A   1      40.705  30.891  35.255  1.00  0.00     0.027 C 
ENDBRANCH   8  20
ENDBRANCH   7   8
ENDBRANCH   6   7
ENDBRANCH   4   6
ENDBRANCH   3   4
ENDBRANCH   2   3
ENDBRANCH   1   2
BRANCH   1  23
ATOM     23  O   UNL A   1      33.305  35.941  32.567  1.00  0.00    -0.374 OA
BRANCH  23  24
ATOM     24  C   UNL A   1      33.292  36.918  31.529  1.00  0.00     0.202 C 
BRANCH  24  25
ATOM     25  C   UNL A   1      32.834  36.371  30.170  1.00  0.00     0.261 C 
BRANCH  25  26
ATOM     26  O   UNL A   1      32.706  34.935  30.179  1.00  0.00    -0.460 OA
BRANCH  26  27
ATOM     27  C   UNL A   1      33.088  34.294  29.045  1.00  0.00     0.338 C 
ATOM     28  O   UNL A   1      32.500  34.257  27.978  1.00  0.00    -0.246 OA
BRANCH  27  29
ATOM     29  C   UNL A   1      34.454  33.758  29.234  1.00  0.00     0.060 A 
ATOM     30  C   UNL A   1      35.421  34.044  28.267  1.00  0.00     0.016 A 
ATOM     31  C   UNL A   1      34.793  32.999  30.355  1.00  0.00     0.016 A 
ATOM     32  C   UNL A   1      36.731  33.580  28.428  1.00  0.00     0.010 A 
ATOM     33  C   UNL A   1      36.119  32.594  30.548  1.00  0.00     0.010 A 
ATOM     34  C   UNL A   1      37.095  32.847  29.568  1.00  0.00    -0.014 A 
BRANCH  34  35
ATOM     35  C   UNL A   1      38.441  32.215  29.669  1.00  0.00     0.031 A 
ATOM     36  C   UNL A   1      39.562  32.984  30.326  1.00  0.00     0.074 A 
ATOM     37  C   UNL A   1      38.682  30.973  29.204  1.00  0.00     0.049 A 
ATOM     38  N   UNL A   1      40.817  32.648  30.495  1.00  0.00    -0.248 NA
ATOM     39  C   UNL A   1      39.227  34.321  30.842  1.00  0.00     0.031 C 
ATOM     40  C   UNL A   1      37.708  30.107  28.539  1.00  0.00     0.029 A 
ATOM     41  N   UNL A   1      39.834  30.220  29.226  1.00  0.00    -0.354 N 
ATOM     42  C   UNL A   1      41.418  33.738  31.113  1.00  0.00     0.074 A 
ATOM     43  C   UNL A   1      40.409  34.765  31.236  1.00  0.00     0.031 C 
ATOM     44  C   UNL A   1      38.297  28.935  28.237  1.00  0.00     0.029 A 
ATOM     45  C   UNL A   1      39.696  28.975  28.660  1.00  0.00     0.049 A 
ATOM     46  H   UNL A   1      40.679  30.544  29.612  1.00  0.00     0.167 HD
ATOM     47  C   UNL A   1      42.686  33.868  31.570  1.00  0.00     0.037 A 
ATOM     48  C   UNL A   1      40.593  27.981  28.499  1.00  0.00     0.037 A 
ATOM     49  C   UNL A   1      43.688  32.841  31.502  1.00  0.00     0.049 A 
ATOM     50  C   UNL A   1      42.006  28.157  28.997  1.00  0.00     0.074 A 
ATOM     51  C   UNL A   1      44.981  32.866  31.993  1.00  0.00     0.029 A 
ATOM     52  N   UNL A   1      43.506  31.600  30.913  1.00  0.00    -0.354 N 
ATOM     53  N   UNL A   1      42.544  29.176  29.621  1.00  0.00    -0.248 NA
ATOM     54  C   UNL A   1      42.936  27.039  28.767  1.00  0.00     0.031 C 
ATOM     55  C   UNL A   1      45.597  31.654  31.666  1.00  0.00     0.029 A 
ATOM     56  C   UNL A   1      44.673  30.860  31.008  1.00  0.00     0.049 A 
ATOM     57  H   UNL A   1      42.673  31.292  30.489  1.00  0.00     0.167 HD
ATOM     58  C   UNL A   1      43.862  28.812  29.880  1.00  0.00     0.074 A 
ATOM     59  C   UNL A   1      44.039  27.475  29.360  1.00  0.00     0.031 C 
ATOM     60  C   UNL A   1      44.837  29.525  30.495  1.00  0.00     0.037 A 
BRANCH  47  61
ATOM     61  C   UNL A   1      43.056  35.183  32.192  1.00  0.00     0.057 A 
ATOM     62  C   UNL A   1      43.635  36.217  31.444  1.00  0.00     0.134 A 
ATOM     63  C   UNL A   1      42.819  35.420  33.551  1.00  0.00     0.134 A 
ATOM     64  F   UNL A   1      43.905  36.045  30.141  1.00  0.00    -0.206 F 
ATOM     65  C   UNL A   1      43.994  37.429  32.034  1.00  0.00     0.040 A 
ATOM     66  C   UNL A   1      43.148  36.639  34.145  1.00  0.00     0.040 A 
ATOM     67  F   UNL A   1      42.263  34.472  34.321  1.00  0.00    -0.206 F 
ATOM     68  C   UNL A   1      43.744  37.645  33.387  1.00  0.00     0.006 A 
ENDBRANCH  47  61
BRANCH  48  69
ATOM     69  C   UNL A   1      40.196  26.711  27.839  1.00  0.00     0.057 A 
ATOM     70  C   UNL A   1      39.444  25.747  28.521  1.00  0.00     0.134 A 
ATOM     71  C   UNL A   1      40.600  26.407  26.534  1.00  0.00     0.134 A 
ATOM     72  F   UNL A   1      39.052  25.967  29.784  1.00  0.00    -0.206 F 
ATOM     73  C   UNL A   1      39.126  24.518  27.938  1.00  0.00     0.040 A 
ATOM     74  C   UNL A   1      40.270  25.192  25.930  1.00  0.00     0.040 A 
ATOM     75  F   UNL A   1      41.324  27.287  25.826  1.00  0.00    -0.206 F 
ATOM     76  C   UNL A   1      39.537  24.240  26.636  1.00  0.00     0.006 A 
ENDBRANCH  48  69
BRANCH  60  77
ATOM     77  C   UNL A   1      46.176  28.869  30.666  1.00  0.00     0.057 A 
ATOM     78  C   UNL A   1      47.199  29.024  29.723  1.00  0.00     0.134 A 
ATOM     79  C   UNL A   1      46.464  28.121  31.815  1.00  0.00     0.134 A 
ATOM     80  F   UNL A   1      46.985  29.719  28.596  1.00  0.00    -0.206 F 
ATOM     81  C   UNL A   1      48.456  28.444  29.908  1.00  0.00     0.040 A 
ATOM     82  C   UNL A   1      47.724  27.557  32.023  1.00  0.00     0.040 A 
ATOM     83  F   UNL A   1      45.532  27.943  32.763  1.00  0.00    -0.206 F 
ATOM     84  C   UNL A   1      48.723  27.714  31.066  1.00  0.00     0.006 A 
ENDBRANCH  60  77
ENDBRANCH  34  35
ENDBRANCH  27  29
ENDBRANCH  26  27
ENDBRANCH  25  26
ENDBRANCH  24  25
ENDBRANCH  23  24
ENDBRANCH   1  23
TORSDOF 19
ENDMDL
MODEL 3
REMARK VINA RESULT:      -7.9      5.718      9.681
REMARK SMILES CNC(=O)c1ccc(N(CCC(=O)OCCOCCOC(=O)c2ccc(-c3c4nc(c(-c5c(F)cccc5F)c5ccc([nH]5)c(-c5c(F)cccc5F)c5nc(c(-c6c(F)cccc6F)c6ccc3[nH]6)C=C5)C=C4)cc2)C2CC2)nn1
REMARK SMILES IDX 16 1 15 2 14 3 12 4 13 5 11 6 10 7 9 8 8 9 5 10 6 11 81 12
REMARK SMILES IDX 7 13 80 14 3 15 1 16 2 17 4 19 77 20 78 21 79 22 17 23 18 24
REMARK SMILES IDX 19 25 20 26 21 27 22 28 23 29 24 30 76 31 25 32 75 33 26 34
REMARK SMILES IDX 27 35 28 36 69 37 29 38 74 39 68 40 70 41 30 42 73 43 67 44
REMARK SMILES IDX 66 45 31 47 57 48 40 49 56 50 41 51 44 52 55 53 71 54 42 55
REMARK SMILES IDX 43 56 54 58 72 59 45 60 32 61 33 62 38 63 34 64 35 65 37 66
REMARK SMILES IDX 39 67 36 68 58 69 59 70 64 71 60 72 61 73 63 74 65 75 62 76
REMARK SMILES IDX 46 77 47 78 52 79 48 80 49 81 51 82 53 83 50 84
REMARK H PARENT 2 18 70 46 44 57
REMARK Flexibility Score: inf
ROOT
ATOM      1  C   UNL A   1      33.084  30.897  27.363  1.00  0.00     0.202 C 
ENDROOT
BRANCH   1   2
ATOM      2  C   UNL A   1      33.843  29.749  26.690  1.00  0.00     0.261 C 
BRANCH   2   3
ATOM      3  O   UNL A   1      33.188  28.479  26.891  1.00  0.00    -0.463 OA
BRANCH   3   4
ATOM      4  C   UNL A   1      32.863  27.758  25.787  1.00  0.00     0.307 C 
ATOM      5  O   UNL A   1      33.553  26.873  25.299  1.00  0.00    -0.252 OA
BRANCH   4   6
ATOM      6  C   UNL A   1      31.526  28.174  25.224  1.00  0.00     0.144 C 
BRANCH   6   7
ATOM      7  C   UNL A   1      30.639  26.988  24.868  1.00  0.00     0.130 C 
BRANCH   7   8
ATOM      8  N   UNL A   1      30.327  26.926  23.420  1.00  0.00    -0.352 N 
BRANCH   8   9
ATOM      9  C   UNL A   1      29.734  28.074  22.850  1.00  0.00     0.151 A 
ATOM     10  C   UNL A   1      28.591  30.288  21.640  1.00  0.00     0.150 A 
ATOM     11  C   UNL A   1      27.825  29.541  22.503  1.00  0.00     0.040 A 
ATOM     12  N   UNL A   1      29.865  29.962  21.363  1.00  0.00    -0.143 NA
ATOM     13  C   UNL A   1      28.428  28.464  23.138  1.00  0.00     0.051 A 
ATOM     14  N   UNL A   1      30.423  28.842  21.973  1.00  0.00    -0.132 NA
BRANCH  10  15
ATOM     15  C   UNL A   1      28.059  31.557  21.102  1.00  0.00     0.271 C 
ATOM     16  C   UNL A   1      28.913  32.867  23.107  1.00  0.00     0.143 C 
ATOM     17  N   UNL A   1      28.175  32.698  21.871  1.00  0.00    -0.354 N 
ATOM     18  H   UNL A   1      27.699  33.493  21.541  1.00  0.00     0.163 HD
ATOM     19  O   UNL A   1      27.491  31.594  20.016  1.00  0.00    -0.267 OA
ENDBRANCH  10  15
ENDBRANCH   8   9
BRANCH   8  20
ATOM     20  C   UNL A   1      30.907  25.784  22.699  1.00  0.00     0.084 C 
ATOM     21  C   UNL A   1      32.333  25.615  22.277  1.00  0.00     0.027 C 
ATOM     22  C   UNL A   1      31.723  24.702  23.319  1.00  0.00     0.027 C 
ENDBRANCH   8  20
ENDBRANCH   7   8
ENDBRANCH   6   7
ENDBRANCH   4   6
ENDBRANCH   3   4
ENDBRANCH   2   3
ENDBRANCH   1   2
BRANCH   1  23
ATOM     23  O   UNL A   1      33.855  32.092  27.499  1.00  0.00    -0.374 OA
BRANCH  23  24
ATOM     24  C   UNL A   1      35.210  31.912  27.905  1.00  0.00     0.202 C 
BRANCH  24  25
ATOM     25  C   UNL A   1      35.372  31.581  29.395  1.00  0.00     0.261 C 
BRANCH  25  26
ATOM     26  O   UNL A   1      35.843  30.234  29.603  1.00  0.00    -0.460 OA
BRANCH  26  27
ATOM     27  C   UNL A   1      36.583  30.025  30.721  1.00  0.00     0.338 C 
ATOM     28  O   UNL A   1      36.186  29.935  31.870  1.00  0.00    -0.246 OA
BRANCH  27  29
ATOM     29  C   UNL A   1      37.981  29.745  30.325  1.00  0.00     0.060 A 
ATOM     30  C   UNL A   1      38.333  29.881  28.980  1.00  0.00     0.016 A 
ATOM     31  C   UNL A   1      38.945  29.373  31.263  1.00  0.00     0.016 A 
ATOM     32  C   UNL A   1      39.653  29.654  28.575  1.00  0.00     0.010 A 
ATOM     33  C   UNL A   1      40.279  29.214  30.868  1.00  0.00     0.010 A 
ATOM     34  C   UNL A   1      40.640  29.314  29.512  1.00  0.00    -0.014 A 
BRANCH  34  35
ATOM     35  C   UNL A   1      42.007  28.917  29.068  1.00  0.00     0.031 A 
ATOM     36  C   UNL A   1      42.234  27.508  28.576  1.00  0.00     0.074 A 
ATOM     37  C   UNL A   1      43.040  29.782  29.081  1.00  0.00     0.049 A 
ATOM     38  N   UNL A   1      43.341  26.934  28.173  1.00  0.00    -0.248 NA
ATOM     39  C   UNL A   1      41.060  26.621  28.556  1.00  0.00     0.031 C 
ATOM     40  C   UNL A   1      42.982  31.172  29.534  1.00  0.00     0.029 A 
ATOM     41  N   UNL A   1      44.350  29.613  28.694  1.00  0.00    -0.354 N 
ATOM     42  C   UNL A   1      42.997  25.621  27.876  1.00  0.00     0.074 A 
ATOM     43  C   UNL A   1      41.597  25.466  28.199  1.00  0.00     0.031 C 
ATOM     44  C   UNL A   1      44.195  31.735  29.378  1.00  0.00     0.029 A 
ATOM     45  C   UNL A   1      45.123  30.740  28.842  1.00  0.00     0.049 A 
ATOM     46  H   UNL A   1      44.700  28.763  28.343  1.00  0.00     0.167 HD
ATOM     47  C   UNL A   1      43.762  24.635  27.351  1.00  0.00     0.037 A 
ATOM     48  C   UNL A   1      46.429  30.947  28.578  1.00  0.00     0.037 A 
ATOM     49  C   UNL A   1      45.141  24.784  26.976  1.00  0.00     0.049 A 
ATOM     50  C   UNL A   1      47.268  29.828  28.012  1.00  0.00     0.074 A 
ATOM     51  C   UNL A   1      45.977  23.854  26.383  1.00  0.00     0.029 A 
ATOM     52  N   UNL A   1      45.885  25.939  27.152  1.00  0.00    -0.354 N 
ATOM     53  N   UNL A   1      46.914  28.607  27.694  1.00  0.00    -0.248 NA
ATOM     54  C   UNL A   1      48.690  30.121  27.768  1.00  0.00     0.031 C 
ATOM     55  C   UNL A   1      47.240  24.435  26.235  1.00  0.00     0.029 A 
ATOM     56  C   UNL A   1      47.178  25.738  26.699  1.00  0.00     0.049 A 
ATOM     57  H   UNL A   1      45.545  26.777  27.542  1.00  0.00     0.167 HD
ATOM     58  C   UNL A   1      48.059  27.998  27.190  1.00  0.00     0.074 A 
ATOM     59  C   UNL A   1      49.114  28.985  27.231  1.00  0.00     0.031 C 
ATOM     60  C   UNL A   1      48.220  26.731  26.735  1.00  0.00     0.037 A 
BRANCH  47  61
ATOM     61  C   UNL A   1      43.110  23.299  27.148  1.00  0.00     0.057 A 
ATOM     62  C   UNL A   1      42.931  22.396  28.204  1.00  0.00     0.134 A 
ATOM     63  C   UNL A   1      42.646  22.917  25.883  1.00  0.00     0.134 A 
ATOM     64  F   UNL A   1      43.370  22.695  29.436  1.00  0.00    -0.206 F 
ATOM     65  C   UNL A   1      42.341  21.147  28.003  1.00  0.00     0.040 A 
ATOM     66  C   UNL A   1      42.029  21.683  25.676  1.00  0.00     0.040 A 
ATOM     67  F   UNL A   1      42.783  23.738  24.831  1.00  0.00    -0.206 F 
ATOM     68  C   UNL A   1      41.882  20.791  26.737  1.00  0.00     0.006 A 
ENDBRANCH  47  61
BRANCH  48  69
ATOM     69  C   UNL A   1      47.046  32.275  28.833  1.00  0.00     0.057 A 
ATOM     70  C   UNL A   1      47.556  32.603  30.096  1.00  0.00     0.134 A 
ATOM     71  C   UNL A   1      47.093  33.261  27.842  1.00  0.00     0.134 A 
ATOM     72  F   UNL A   1      47.512  31.710  31.094  1.00  0.00    -0.206 F 
ATOM     73  C   UNL A   1      48.071  33.872  30.369  1.00  0.00     0.040 A 
ATOM     74  C   UNL A   1      47.626  34.527  28.095  1.00  0.00     0.040 A 
ATOM     75  F   UNL A   1      46.620  33.011  26.613  1.00  0.00    -0.206 F 
ATOM     76  C   UNL A   1      48.110  34.838  29.365  1.00  0.00     0.006 A 
ENDBRANCH  48  69
BRANCH  60  77
ATOM     77  C   UNL A   1      49.575  26.343  26.218  1.00  0.00     0.057 A 
ATOM     78  C   UNL A   1      50.011  26.715  24.941  1.00  0.00     0.134 A 
ATOM     79  C   UNL A   1      50.474  25.639  27.029  1.00  0.00     0.134 A 
ATOM     80  F   UNL A   1      49.194  27.381  24.111  1.00  0.00    -0.206 F 
ATOM     81  C   UNL A   1      51.288  26.386  24.482  1.00  0.00     0.040 A 
ATOM     82  C   UNL A   1      51.762  25.325  26.591  1.00  0.00     0.040 A 
ATOM     83  F   UNL A   1      50.124  25.261  28.268  1.00  0.00    -0.206 F 
ATOM     84  C   UNL A   1      52.170  25.695  25.311  1.00  0.00     0.006 A 
ENDBRANCH  60  77
ENDBRANCH  34  35
ENDBRANCH  27  29
ENDBRANCH  26  27
ENDBRANCH  25  26
ENDBRANCH  24  25
ENDBRANCH  23  24
ENDBRANCH   1  23
TORSDOF 19
ENDMDL
