MODEL 1
REMARK VINA RESULT:     -10.5      0.000      0.000
REMARK SMILES CC(C)Cc1ccc([C@H](C)C(=O)OCCOCCOC(=O)c2ccc(-c3c4nc(c(-c5c(F)cccc5F)c5ccc([nH]5)c(-c5c(F)cccc5F)c5nc(c(-c6c(F)cccc6F)c6ccc3[nH]6)C=C5)C=C4)cc2)cc1
REMARK SMILES IDX 15 1 14 2 13 3 11 4 12 5 9 6 10 7 8 8 5 9 6 10 77 11 7 12
REMARK SMILES IDX 76 13 4 14 2 15 1 16 3 17 16 18 17 19 18 20 19 21 20 22
REMARK SMILES IDX 21 23 22 24 23 25 75 26 24 27 74 28 25 29 26 30 27 31 68 32
REMARK SMILES IDX 28 33 73 34 67 35 69 36 29 37 72 38 66 39 65 40 30 42 56 43
REMARK SMILES IDX 39 44 55 45 40 46 43 47 54 48 70 49 41 50 42 51 53 53 71 54
REMARK SMILES IDX 44 55 31 56 32 57 37 58 33 59 34 60 36 61 38 62 35 63 57 64
REMARK SMILES IDX 58 65 63 66 59 67 60 68 62 69 64 70 61 71 45 72 46 73 51 74
REMARK SMILES IDX 47 75 48 76 50 77 52 78 49 79
REMARK H PARENT 69 41 43 52
REMARK Flexibility Score: inf
ROOT
ATOM      1  C   UNL A   1      32.629  29.598  26.856  1.00  0.00     0.202 C 
ENDROOT
BRANCH   1   2
ATOM      2  C   UNL A   1      31.722  28.372  26.973  1.00  0.00     0.261 C 
BRANCH   2   3
ATOM      3  O   UNL A   1      32.180  27.300  26.135  1.00  0.00    -0.463 OA
BRANCH   3   4
ATOM      4  C   UNL A   1      31.233  26.392  25.771  1.00  0.00     0.313 C 
ATOM      5  O   UNL A   1      30.507  25.797  26.560  1.00  0.00    -0.252 OA
BRANCH   4   6
ATOM      6  C   UNL A   1      31.116  26.244  24.251  1.00  0.00     0.126 C 
ATOM      7  C   UNL A   1      30.587  24.902  23.749  1.00  0.00     0.025 C 
BRANCH   6   8
ATOM      8  C   UNL A   1      30.337  27.392  23.644  1.00  0.00    -0.034 A 
ATOM      9  C   UNL A   1      28.870  29.364  22.286  1.00  0.00    -0.048 A 
ATOM     10  C   UNL A   1      28.212  28.350  22.990  1.00  0.00     0.004 A 
ATOM     11  C   UNL A   1      30.266  29.434  22.335  1.00  0.00     0.004 A 
ATOM     12  C   UNL A   1      28.938  27.365  23.657  1.00  0.00     0.005 A 
ATOM     13  C   UNL A   1      30.993  28.466  23.024  1.00  0.00     0.005 A 
BRANCH   9  14
ATOM     14  C   UNL A   1      28.087  30.309  21.410  1.00  0.00     0.038 C 
BRANCH  14  15
ATOM     15  C   UNL A   1      28.438  31.793  21.661  1.00  0.00    -0.013 C 
ATOM     16  C   UNL A   1      27.794  32.740  20.644  1.00  0.00     0.008 C 
ATOM     17  C   UNL A   1      28.003  32.191  23.072  1.00  0.00     0.008 C 
ENDBRANCH  14  15
ENDBRANCH   9  14
ENDBRANCH   6   8
ENDBRANCH   4   6
ENDBRANCH   3   4
ENDBRANCH   2   3
ENDBRANCH   1   2
BRANCH   1  18
ATOM     18  O   UNL A   1      32.182  30.641  25.992  1.00  0.00    -0.374 OA
BRANCH  18  19
ATOM     19  C   UNL A   1      31.285  31.619  26.517  1.00  0.00     0.202 C 
BRANCH  19  20
ATOM     20  C   UNL A   1      31.828  33.044  26.663  1.00  0.00     0.261 C 
BRANCH  20  21
ATOM     21  O   UNL A   1      32.241  33.329  28.012  1.00  0.00    -0.460 OA
BRANCH  21  22
ATOM     22  C   UNL A   1      33.347  34.101  28.108  1.00  0.00     0.338 C 
ATOM     23  O   UNL A   1      33.393  35.328  28.147  1.00  0.00    -0.246 OA
BRANCH  22  24
ATOM     24  C   UNL A   1      34.548  33.282  28.332  1.00  0.00     0.060 A 
ATOM     25  C   UNL A   1      34.348  31.969  28.775  1.00  0.00     0.016 A 
ATOM     26  C   UNL A   1      35.834  33.823  28.267  1.00  0.00     0.016 A 
ATOM     27  C   UNL A   1      35.424  31.220  29.244  1.00  0.00     0.010 A 
ATOM     28  C   UNL A   1      36.915  33.071  28.746  1.00  0.00     0.010 A 
ATOM     29  C   UNL A   1      36.702  31.792  29.292  1.00  0.00    -0.014 A 
BRANCH  29  30
ATOM     30  C   UNL A   1      37.731  31.134  30.134  1.00  0.00     0.031 A 
ATOM     31  C   UNL A   1      38.660  30.139  29.488  1.00  0.00     0.074 A 
ATOM     32  C   UNL A   1      37.914  31.488  31.419  1.00  0.00     0.049 A 
ATOM     33  N   UNL A   1      39.687  29.506  29.996  1.00  0.00    -0.248 NA
ATOM     34  C   UNL A   1      38.398  29.822  28.074  1.00  0.00     0.031 C 
ATOM     35  C   UNL A   1      37.117  32.474  32.145  1.00  0.00     0.029 A 
ATOM     36  N   UNL A   1      38.847  31.065  32.331  1.00  0.00    -0.354 N 
ATOM     37  C   UNL A   1      40.196  28.726  28.964  1.00  0.00     0.074 A 
ATOM     38  C   UNL A   1      39.343  28.931  27.815  1.00  0.00     0.031 C 
ATOM     39  C   UNL A   1      37.605  32.590  33.394  1.00  0.00     0.029 A 
ATOM     40  C   UNL A   1      38.735  31.675  33.555  1.00  0.00     0.049 A 
ATOM     41  H   UNL A   1      39.532  30.387  32.127  1.00  0.00     0.167 HD
ATOM     42  C   UNL A   1      41.287  27.924  28.964  1.00  0.00     0.037 A 
ATOM     43  C   UNL A   1      39.466  31.516  34.675  1.00  0.00     0.037 A 
ATOM     44  C   UNL A   1      42.138  27.712  30.103  1.00  0.00     0.049 A 
ATOM     45  C   UNL A   1      40.634  30.566  34.672  1.00  0.00     0.074 A 
ATOM     46  C   UNL A   1      43.259  26.906  30.208  1.00  0.00     0.029 A 
ATOM     47  N   UNL A   1      41.960  28.314  31.339  1.00  0.00    -0.354 N 
ATOM     48  N   UNL A   1      41.112  29.844  33.688  1.00  0.00    -0.248 NA
ATOM     49  C   UNL A   1      41.370  30.419  35.936  1.00  0.00     0.031 C 
ATOM     50  C   UNL A   1      43.740  26.996  31.519  1.00  0.00     0.029 A 
ATOM     51  C   UNL A   1      42.943  27.888  32.217  1.00  0.00     0.049 A 
ATOM     52  H   UNL A   1      41.242  28.950  31.560  1.00  0.00     0.167 HD
ATOM     53  C   UNL A   1      42.223  29.185  34.202  1.00  0.00     0.074 A 
ATOM     54  C   UNL A   1      42.350  29.597  35.585  1.00  0.00     0.031 C 
ATOM     55  C   UNL A   1      43.066  28.322  33.585  1.00  0.00     0.037 A 
BRANCH  42  56
ATOM     56  C   UNL A   1      41.602  27.202  27.688  1.00  0.00     0.057 A 
ATOM     57  C   UNL A   1      42.333  27.812  26.659  1.00  0.00     0.134 A 
ATOM     58  C   UNL A   1      41.173  25.886  27.486  1.00  0.00     0.134 A 
ATOM     59  F   UNL A   1      42.756  29.079  26.784  1.00  0.00    -0.206 F 
ATOM     60  C   UNL A   1      42.603  27.144  25.463  1.00  0.00     0.040 A 
ATOM     61  C   UNL A   1      41.457  25.200  26.304  1.00  0.00     0.040 A 
ATOM     62  F   UNL A   1      40.470  25.245  28.432  1.00  0.00    -0.206 F 
ATOM     63  C   UNL A   1      42.169  25.833  25.286  1.00  0.00     0.006 A 
ENDBRANCH  42  56
BRANCH  43  64
ATOM     64  C   UNL A   1      39.132  32.290  35.896  1.00  0.00     0.057 A 
ATOM     65  C   UNL A   1      38.277  31.768  36.873  1.00  0.00     0.134 A 
ATOM     66  C   UNL A   1      39.639  33.579  36.101  1.00  0.00     0.134 A 
ATOM     67  F   UNL A   1      37.741  30.548  36.719  1.00  0.00    -0.206 F 
ATOM     68  C   UNL A   1      37.925  32.506  38.004  1.00  0.00     0.040 A 
ATOM     69  C   UNL A   1      39.313  34.318  37.238  1.00  0.00     0.040 A 
ATOM     70  F   UNL A   1      40.462  34.134  35.200  1.00  0.00    -0.206 F 
ATOM     71  C   UNL A   1      38.448  33.784  38.191  1.00  0.00     0.006 A 
ENDBRANCH  43  64
BRANCH  55  72
ATOM     72  C   UNL A   1      44.227  27.805  34.380  1.00  0.00     0.057 A 
ATOM     73  C   UNL A   1      45.444  28.493  34.449  1.00  0.00     0.134 A 
ATOM     74  C   UNL A   1      44.111  26.620  35.118  1.00  0.00     0.134 A 
ATOM     75  F   UNL A   1      45.622  29.629  33.756  1.00  0.00    -0.206 F 
ATOM     76  C   UNL A   1      46.513  28.009  35.205  1.00  0.00     0.040 A 
ATOM     77  C   UNL A   1      45.164  26.138  35.895  1.00  0.00     0.040 A 
ATOM     78  F   UNL A   1      42.967  25.918  35.102  1.00  0.00    -0.206 F 
ATOM     79  C   UNL A   1      46.372  26.830  35.935  1.00  0.00     0.006 A 
ENDBRANCH  55  72
ENDBRANCH  29  30
ENDBRANCH  22  24
ENDBRANCH  21  22
ENDBRANCH  20  21
ENDBRANCH  19  20
ENDBRANCH  18  19
ENDBRANCH   1  18
TORSDOF 17
ENDMDL
MODEL 2
REMARK VINA RESULT:     -10.0      5.312      9.435
REMARK SMILES CC(C)Cc1ccc([C@H](C)C(=O)OCCOCCOC(=O)c2ccc(-c3c4nc(c(-c5c(F)cccc5F)c5ccc([nH]5)c(-c5c(F)cccc5F)c5nc(c(-c6c(F)cccc6F)c6ccc3[nH]6)C=C5)C=C4)cc2)cc1
REMARK SMILES IDX 15 1 14 2 13 3 11 4 12 5 9 6 10 7 8 8 5 9 6 10 77 11 7 12
REMARK SMILES IDX 76 13 4 14 2 15 1 16 3 17 16 18 17 19 18 20 19 21 20 22
REMARK SMILES IDX 21 23 22 24 23 25 75 26 24 27 74 28 25 29 26 30 27 31 68 32
REMARK SMILES IDX 28 33 73 34 67 35 69 36 29 37 72 38 66 39 65 40 30 42 56 43
REMARK SMILES IDX 39 44 55 45 40 46 43 47 54 48 70 49 41 50 42 51 53 53 71 54
REMARK SMILES IDX 44 55 31 56 32 57 37 58 33 59 34 60 36 61 38 62 35 63 57 64
REMARK SMILES IDX 58 65 63 66 59 67 60 68 62 69 64 70 61 71 45 72 46 73 51 74
REMARK SMILES IDX 47 75 48 76 50 77 52 78 49 79
REMARK H PARENT 69 41 43 52
REMARK Flexibility Score: inf
ROOT
ATOM      1  C   UNL A   1      36.493  23.325  24.559  1.00  0.00     0.202 C 
ENDROOT
BRANCH   1   2
ATOM      2  C   UNL A   1      35.060  23.850  24.661  1.00  0.00     0.261 C 
BRANCH   2   3
ATOM      3  O   UNL A   1      34.555  24.243  23.376  1.00  0.00    -0.463 OA
BRANCH   3   4
ATOM      4  C   UNL A   1      33.660  23.388  22.808  1.00  0.00     0.313 C 
ATOM      5  O   UNL A   1      33.685  23.044  21.631  1.00  0.00    -0.252 OA
BRANCH   4   6
ATOM      6  C   UNL A   1      32.654  22.835  23.820  1.00  0.00     0.126 C 
ATOM      7  C   UNL A   1      31.220  23.343  23.683  1.00  0.00     0.025 C 
BRANCH   6   8
ATOM      8  C   UNL A   1      32.687  21.321  23.860  1.00  0.00    -0.034 A 
ATOM      9  C   UNL A   1      33.006  18.531  23.822  1.00  0.00    -0.048 A 
ATOM     10  C   UNL A   1      33.471  19.283  24.907  1.00  0.00     0.004 A 
ATOM     11  C   UNL A   1      32.305  19.173  22.796  1.00  0.00     0.004 A 
ATOM     12  C   UNL A   1      33.323  20.669  24.923  1.00  0.00     0.005 A 
ATOM     13  C   UNL A   1      32.132  20.555  22.824  1.00  0.00     0.005 A 
BRANCH   9  14
ATOM     14  C   UNL A   1      33.340  17.064  23.718  1.00  0.00     0.038 C 
BRANCH  14  15
ATOM     15  C   UNL A   1      33.622  16.413  25.090  1.00  0.00    -0.013 C 
ATOM     16  C   UNL A   1      32.683  15.242  25.401  1.00  0.00     0.008 C 
ATOM     17  C   UNL A   1      35.072  15.928  25.141  1.00  0.00     0.008 C 
ENDBRANCH  14  15
ENDBRANCH   9  14
ENDBRANCH   6   8
ENDBRANCH   4   6
ENDBRANCH   3   4
ENDBRANCH   2   3
ENDBRANCH   1   2
BRANCH   1  18
ATOM     18  O   UNL A   1      36.812  22.186  25.358  1.00  0.00    -0.374 OA
BRANCH  18  19
ATOM     19  C   UNL A   1      38.174  21.977  25.726  1.00  0.00     0.202 C 
BRANCH  19  20
ATOM     20  C   UNL A   1      38.771  20.603  25.407  1.00  0.00     0.261 C 
BRANCH  20  21
ATOM     21  O   UNL A   1      39.576  20.098  26.488  1.00  0.00    -0.460 OA
BRANCH  21  22
ATOM     22  C   UNL A   1      40.879  19.913  26.178  1.00  0.00     0.338 C 
ATOM     23  O   UNL A   1      41.355  19.022  25.479  1.00  0.00    -0.246 OA
BRANCH  22  24
ATOM     24  C   UNL A   1      41.702  21.036  26.655  1.00  0.00     0.060 A 
ATOM     25  C   UNL A   1      41.763  21.236  28.039  1.00  0.00     0.016 A 
ATOM     26  C   UNL A   1      42.268  21.962  25.777  1.00  0.00     0.016 A 
ATOM     27  C   UNL A   1      42.309  22.410  28.550  1.00  0.00     0.010 A 
ATOM     28  C   UNL A   1      42.811  23.147  26.291  1.00  0.00     0.010 A 
ATOM     29  C   UNL A   1      42.776  23.400  27.675  1.00  0.00    -0.014 A 
BRANCH  29  30
ATOM     30  C   UNL A   1      42.987  24.766  28.213  1.00  0.00     0.031 A 
ATOM     31  C   UNL A   1      44.399  25.239  28.440  1.00  0.00     0.074 A 
ATOM     32  C   UNL A   1      41.957  25.612  28.394  1.00  0.00     0.049 A 
ATOM     33  N   UNL A   1      44.833  26.414  28.817  1.00  0.00    -0.248 NA
ATOM     34  C   UNL A   1      45.466  24.252  28.202  1.00  0.00     0.031 C 
ATOM     35  C   UNL A   1      40.550  25.295  28.161  1.00  0.00     0.029 A 
ATOM     36  N   UNL A   1      41.948  26.923  28.800  1.00  0.00    -0.354 N 
ATOM     37  C   UNL A   1      46.219  26.310  28.852  1.00  0.00     0.074 A 
ATOM     38  C   UNL A   1      46.552  24.947  28.500  1.00  0.00     0.031 C 
ATOM     39  C   UNL A   1      39.811  26.389  28.417  1.00  0.00     0.029 A 
ATOM     40  C   UNL A   1      40.692  27.475  28.846  1.00  0.00     0.049 A 
ATOM     41  H   UNL A   1      42.764  27.420  29.035  1.00  0.00     0.167 HD
ATOM     42  C   UNL A   1      47.137  27.265  29.133  1.00  0.00     0.037 A 
ATOM     43  C   UNL A   1      40.301  28.717  29.191  1.00  0.00     0.037 A 
ATOM     44  C   UNL A   1      46.814  28.621  29.487  1.00  0.00     0.049 A 
ATOM     45  C   UNL A   1      41.336  29.744  29.567  1.00  0.00     0.074 A 
ATOM     46  C   UNL A   1      47.672  29.660  29.805  1.00  0.00     0.029 A 
ATOM     47  N   UNL A   1      45.525  29.125  29.569  1.00  0.00    -0.354 N 
ATOM     48  N   UNL A   1      42.641  29.637  29.585  1.00  0.00    -0.248 NA
ATOM     49  C   UNL A   1      40.837  31.070  29.961  1.00  0.00     0.031 C 
ATOM     50  C   UNL A   1      46.899  30.786  30.112  1.00  0.00     0.029 A 
ATOM     51  C   UNL A   1      45.563  30.458  29.946  1.00  0.00     0.049 A 
ATOM     52  H   UNL A   1      44.705  28.613  29.387  1.00  0.00     0.167 HD
ATOM     53  C   UNL A   1      43.123  30.887  29.956  1.00  0.00     0.074 A 
ATOM     54  C   UNL A   1      41.967  31.739  30.150  1.00  0.00     0.031 C 
ATOM     55  C   UNL A   1      44.405  31.296  30.116  1.00  0.00     0.037 A 
BRANCH  42  56
ATOM     56  C   UNL A   1      48.580  26.860  29.085  1.00  0.00     0.057 A 
ATOM     57  C   UNL A   1      49.226  26.309  30.199  1.00  0.00     0.134 A 
ATOM     58  C   UNL A   1      49.329  27.020  27.915  1.00  0.00     0.134 A 
ATOM     59  F   UNL A   1      48.567  26.148  31.357  1.00  0.00    -0.206 F 
ATOM     60  C   UNL A   1      50.576  25.955  30.158  1.00  0.00     0.040 A 
ATOM     61  C   UNL A   1      50.673  26.648  27.853  1.00  0.00     0.040 A 
ATOM     62  F   UNL A   1      48.769  27.541  26.812  1.00  0.00    -0.206 F 
ATOM     63  C   UNL A   1      51.301  26.120  28.980  1.00  0.00     0.006 A 
ENDBRANCH  42  56
BRANCH  43  64
ATOM     64  C   UNL A   1      38.860  29.072  29.178  1.00  0.00     0.057 A 
ATOM     65  C   UNL A   1      38.238  29.531  28.013  1.00  0.00     0.134 A 
ATOM     66  C   UNL A   1      38.081  28.984  30.338  1.00  0.00     0.134 A 
ATOM     67  F   UNL A   1      38.940  29.660  26.877  1.00  0.00    -0.206 F 
ATOM     68  C   UNL A   1      36.893  29.905  28.003  1.00  0.00     0.040 A 
ATOM     69  C   UNL A   1      36.730  29.334  30.336  1.00  0.00     0.040 A 
ATOM     70  F   UNL A   1      38.621  28.552  31.486  1.00  0.00    -0.206 F 
ATOM     71  C   UNL A   1      36.135  29.803  29.167  1.00  0.00     0.006 A 
ENDBRANCH  43  64
BRANCH  55  72
ATOM     72  C   UNL A   1      44.630  32.735  30.470  1.00  0.00     0.057 A 
ATOM     73  C   UNL A   1      44.749  33.162  31.798  1.00  0.00     0.134 A 
ATOM     74  C   UNL A   1      44.766  33.701  29.465  1.00  0.00     0.134 A 
ATOM     75  F   UNL A   1      44.617  32.287  32.808  1.00  0.00    -0.206 F 
ATOM     76  C   UNL A   1      44.973  34.502  32.115  1.00  0.00     0.040 A 
ATOM     77  C   UNL A   1      45.013  35.040  29.768  1.00  0.00     0.040 A 
ATOM     78  F   UNL A   1      44.671  33.356  28.172  1.00  0.00    -0.206 F 
ATOM     79  C   UNL A   1      45.111  35.445  31.097  1.00  0.00     0.006 A 
ENDBRANCH  55  72
ENDBRANCH  29  30
ENDBRANCH  22  24
ENDBRANCH  21  22
ENDBRANCH  20  21
ENDBRANCH  19  20
ENDBRANCH  18  19
ENDBRANCH   1  18
TORSDOF 17
ENDMDL
MODEL 3
REMARK VINA RESULT:     -10.0      1.027      6.399
REMARK SMILES CC(C)Cc1ccc([C@H](C)C(=O)OCCOCCOC(=O)c2ccc(-c3c4nc(c(-c5c(F)cccc5F)c5ccc([nH]5)c(-c5c(F)cccc5F)c5nc(c(-c6c(F)cccc6F)c6ccc3[nH]6)C=C5)C=C4)cc2)cc1
REMARK SMILES IDX 15 1 14 2 13 3 11 4 12 5 9 6 10 7 8 8 5 9 6 10 77 11 7 12
REMARK SMILES IDX 76 13 4 14 2 15 1 16 3 17 16 18 17 19 18 20 19 21 20 22
REMARK SMILES IDX 21 23 22 24 23 25 75 26 24 27 74 28 25 29 26 30 27 31 68 32
REMARK SMILES IDX 28 33 73 34 67 35 69 36 29 37 72 38 66 39 65 40 30 42 56 43
REMARK SMILES IDX 39 44 55 45 40 46 43 47 54 48 70 49 41 50 42 51 53 53 71 54
REMARK SMILES IDX 44 55 31 56 32 57 37 58 33 59 34 60 36 61 38 62 35 63 57 64
REMARK SMILES IDX 58 65 63 66 59 67 60 68 62 69 64 70 61 71 45 72 46 73 51 74
REMARK SMILES IDX 47 75 48 76 50 77 52 78 49 79
REMARK H PARENT 69 41 43 52
REMARK Flexibility Score: inf
ROOT
ATOM      1  C   UNL A   1      32.966  28.506  27.246  1.00  0.00     0.202 C 
ENDROOT
BRANCH   1   2
ATOM      2  C   UNL A   1      31.594  27.869  27.469  1.00  0.00     0.261 C 
BRANCH   2   3
ATOM      3  O   UNL A   1      31.031  27.396  26.235  1.00  0.00    -0.463 OA
BRANCH   3   4
ATOM      4  C   UNL A   1      31.232  26.077  25.964  1.00  0.00     0.313 C 
ATOM      5  O   UNL A   1      31.358  25.207  26.819  1.00  0.00    -0.252 OA
BRANCH   4   6
ATOM      6  C   UNL A   1      31.211  25.777  24.463  1.00  0.00     0.126 C 
ATOM      7  C   UNL A   1      30.648  24.416  24.061  1.00  0.00     0.025 C 
BRANCH   6   8
ATOM      8  C   UNL A   1      30.536  26.890  23.688  1.00  0.00    -0.034 A 
ATOM      9  C   UNL A   1      29.330  29.117  22.475  1.00  0.00    -0.048 A 
ATOM     10  C   UNL A   1      30.714  28.926  22.390  1.00  0.00     0.004 A 
ATOM     11  C   UNL A   1      28.544  28.143  23.099  1.00  0.00     0.004 A 
ATOM     12  C   UNL A   1      31.316  27.827  22.999  1.00  0.00     0.005 A 
ATOM     13  C   UNL A   1      29.140  27.030  23.685  1.00  0.00     0.005 A 
BRANCH   9  14
ATOM     14  C   UNL A   1      28.711  30.402  21.985  1.00  0.00     0.038 C 
BRANCH  14  15
ATOM     15  C   UNL A   1      28.651  31.495  23.076  1.00  0.00    -0.013 C 
ATOM     16  C   UNL A   1      28.827  32.910  22.515  1.00  0.00     0.008 C 
ATOM     17  C   UNL A   1      27.318  31.405  23.819  1.00  0.00     0.008 C 
ENDBRANCH  14  15
ENDBRANCH   9  14
ENDBRANCH   6   8
ENDBRANCH   4   6
ENDBRANCH   3   4
ENDBRANCH   2   3
ENDBRANCH   1   2
BRANCH   1  18
ATOM     18  O   UNL A   1      33.050  29.919  27.422  1.00  0.00    -0.374 OA
BRANCH  18  19
ATOM     19  C   UNL A   1      32.118  30.745  26.725  1.00  0.00     0.202 C 
BRANCH  19  20
ATOM     20  C   UNL A   1      31.918  32.165  27.266  1.00  0.00     0.261 C 
BRANCH  20  21
ATOM     21  O   UNL A   1      33.131  32.938  27.217  1.00  0.00    -0.460 OA
BRANCH  21  22
ATOM     22  C   UNL A   1      33.218  33.903  28.161  1.00  0.00     0.338 C 
ATOM     23  O   UNL A   1      32.398  34.788  28.393  1.00  0.00    -0.246 OA
BRANCH  22  24
ATOM     24  C   UNL A   1      34.381  33.685  29.036  1.00  0.00     0.060 A 
ATOM     25  C   UNL A   1      35.635  34.041  28.528  1.00  0.00     0.016 A 
ATOM     26  C   UNL A   1      34.272  33.008  30.253  1.00  0.00     0.016 A 
ATOM     27  C   UNL A   1      36.793  33.640  29.186  1.00  0.00     0.010 A 
ATOM     28  C   UNL A   1      35.439  32.599  30.912  1.00  0.00     0.010 A 
ATOM     29  C   UNL A   1      36.700  32.860  30.347  1.00  0.00    -0.014 A 
BRANCH  29  30
ATOM     30  C   UNL A   1      37.912  32.135  30.801  1.00  0.00     0.031 A 
ATOM     31  C   UNL A   1      38.452  32.429  32.176  1.00  0.00     0.074 A 
ATOM     32  C   UNL A   1      38.461  31.158  30.058  1.00  0.00     0.049 A 
ATOM     33  N   UNL A   1      39.439  31.862  32.822  1.00  0.00    -0.248 NA
ATOM     34  C   UNL A   1      37.781  33.504  32.927  1.00  0.00     0.031 C 
ATOM     35  C   UNL A   1      38.001  30.742  28.735  1.00  0.00     0.029 A 
ATOM     36  N   UNL A   1      39.517  30.326  30.329  1.00  0.00    -0.354 N 
ATOM     37  C   UNL A   1      39.501  32.504  34.054  1.00  0.00     0.074 A 
ATOM     38  C   UNL A   1      38.481  33.530  34.051  1.00  0.00     0.031 C 
ATOM     39  C   UNL A   1      38.767  29.720  28.312  1.00  0.00     0.029 A 
ATOM     40  C   UNL A   1      39.778  29.424  29.327  1.00  0.00     0.049 A 
ATOM     41  H   UNL A   1      40.039  30.370  31.162  1.00  0.00     0.167 HD
ATOM     42  C   UNL A   1      40.319  32.253  35.103  1.00  0.00     0.037 A 
ATOM     43  C   UNL A   1      40.721  28.467  29.244  1.00  0.00     0.037 A 
ATOM     44  C   UNL A   1      41.337  31.238  35.113  1.00  0.00     0.049 A 
ATOM     45  C   UNL A   1      41.665  28.251  30.396  1.00  0.00     0.074 A 
ATOM     46  C   UNL A   1      42.227  30.915  36.123  1.00  0.00     0.029 A 
ATOM     47  N   UNL A   1      41.599  30.378  34.058  1.00  0.00    -0.354 N 
ATOM     48  N   UNL A   1      41.706  28.855  31.558  1.00  0.00    -0.248 NA
ATOM     49  C   UNL A   1      42.689  27.209  30.226  1.00  0.00     0.031 C 
ATOM     50  C   UNL A   1      43.051  29.880  35.665  1.00  0.00     0.029 A 
ATOM     51  C   UNL A   1      42.646  29.533  34.386  1.00  0.00     0.049 A 
ATOM     52  H   UNL A   1      41.113  30.369  33.202  1.00  0.00     0.167 HD
ATOM     53  C   UNL A   1      42.732  28.246  32.270  1.00  0.00     0.074 A 
ATOM     54  C   UNL A   1      43.286  27.221  31.410  1.00  0.00     0.031 C 
ATOM     55  C   UNL A   1      43.173  28.506  33.525  1.00  0.00     0.037 A 
BRANCH  42  56
ATOM     56  C   UNL A   1      40.150  33.112  36.321  1.00  0.00     0.057 A 
ATOM     57  C   UNL A   1      39.224  32.794  37.323  1.00  0.00     0.134 A 
ATOM     58  C   UNL A   1      40.921  34.267  36.493  1.00  0.00     0.134 A 
ATOM     59  F   UNL A   1      38.442  31.711  37.206  1.00  0.00    -0.206 F 
ATOM     60  C   UNL A   1      39.053  33.610  38.443  1.00  0.00     0.040 A 
ATOM     61  C   UNL A   1      40.776  35.079  37.620  1.00  0.00     0.040 A 
ATOM     62  F   UNL A   1      41.826  34.627  35.571  1.00  0.00    -0.206 F 
ATOM     63  C   UNL A   1      39.834  34.754  38.595  1.00  0.00     0.006 A 
ENDBRANCH  42  56
BRANCH  43  64
ATOM     64  C   UNL A   1      40.813  27.618  28.029  1.00  0.00     0.057 A 
ATOM     65  C   UNL A   1      40.118  26.408  27.938  1.00  0.00     0.134 A 
ATOM     66  C   UNL A   1      41.617  27.987  26.945  1.00  0.00     0.134 A 
ATOM     67  F   UNL A   1      39.351  25.990  28.957  1.00  0.00    -0.206 F 
ATOM     68  C   UNL A   1      40.231  25.585  26.816  1.00  0.00     0.040 A 
ATOM     69  C   UNL A   1      41.721  27.185  25.808  1.00  0.00     0.040 A 
ATOM     70  F   UNL A   1      42.308  29.136  26.973  1.00  0.00    -0.206 F 
ATOM     71  C   UNL A   1      41.031  25.976  25.745  1.00  0.00     0.006 A 
ENDBRANCH  43  64
BRANCH  55  72
ATOM     72  C   UNL A   1      44.272  27.640  34.063  1.00  0.00     0.057 A 
ATOM     73  C   UNL A   1      45.621  27.998  33.950  1.00  0.00     0.134 A 
ATOM     74  C   UNL A   1      43.973  26.448  34.736  1.00  0.00     0.134 A 
ATOM     75  F   UNL A   1      45.974  29.123  33.307  1.00  0.00    -0.206 F 
ATOM     76  C   UNL A   1      46.635  27.192  34.468  1.00  0.00     0.040 A 
ATOM     77  C   UNL A   1      44.977  25.644  35.277  1.00  0.00     0.040 A 
ATOM     78  F   UNL A   1      42.700  26.052  34.886  1.00  0.00    -0.206 F 
ATOM     79  C   UNL A   1      46.313  26.012  35.138  1.00  0.00     0.006 A 
ENDBRANCH  55  72
ENDBRANCH  29  30
ENDBRANCH  22  24
ENDBRANCH  21  22
ENDBRANCH  20  21
ENDBRANCH  19  20
ENDBRANCH  18  19
ENDBRANCH   1  18
TORSDOF 17
ENDMDL
