MODEL 1
REMARK VINA RESULT:     -10.2      0.000      0.000
REMARK SMILES CSc1nc(C2CC2)nc(C)c1C(=O)OCCOCCOC(=O)c1ccc(-c2c3nc(c(-c4c(F)cccc4F)c4ccc([nH]4)c(-c4c(F)cccc4F)c4nc(c(-c5c(F)cccc5F)c5ccc2[nH]5)C=C4)C=C3)cc1
REMARK SMILES IDX 19 1 18 2 17 3 16 4 15 5 13 6 14 7 12 8 3 9 4 10 5 11 10 12
REMARK SMILES IDX 9 13 11 14 2 15 1 16 6 17 7 18 8 19 20 20 21 21 22 22 23 23
REMARK SMILES IDX 24 24 25 25 77 26 26 27 76 28 27 29 28 30 29 31 70 32 30 33
REMARK SMILES IDX 75 34 69 35 71 36 31 37 74 38 68 39 67 40 32 42 58 43 41 44
REMARK SMILES IDX 57 45 42 46 45 47 56 48 72 49 43 50 44 51 55 53 73 54 46 55
REMARK SMILES IDX 33 56 34 57 39 58 35 59 36 60 38 61 40 62 37 63 59 64 60 65
REMARK SMILES IDX 65 66 61 67 62 68 64 69 66 70 63 71 47 72 48 73 53 74 49 75
REMARK SMILES IDX 50 76 52 77 54 78 51 79
REMARK H PARENT 71 41 45 52
REMARK Flexibility Score: inf
ROOT
ATOM      1  C   UNL A   1      31.329  31.898  26.650  1.00  0.00     0.202 C 
ENDROOT
BRANCH   1   2
ATOM      2  O   UNL A   1      31.812  30.569  26.841  1.00  0.00    -0.374 OA
BRANCH   2   3
ATOM      3  C   UNL A   1      33.224  30.362  26.805  1.00  0.00     0.202 C 
BRANCH   3   4
ATOM      4  C   UNL A   1      33.689  28.915  26.978  1.00  0.00     0.261 C 
BRANCH   4   5
ATOM      5  O   UNL A   1      32.577  28.029  26.772  1.00  0.00    -0.460 OA
BRANCH   5   6
ATOM      6  C   UNL A   1      32.700  27.195  25.722  1.00  0.00     0.342 C 
ATOM      7  O   UNL A   1      33.529  26.305  25.586  1.00  0.00    -0.246 OA
BRANCH   6   8
ATOM      8  C   UNL A   1      31.624  27.426  24.759  1.00  0.00     0.113 A 
ATOM      9  C   UNL A   1      31.761  28.383  23.769  1.00  0.00     0.114 A 
ATOM     10  N   UNL A   1      30.727  28.803  23.008  1.00  0.00    -0.225 NA
ATOM     11  C   UNL A   1      29.525  28.238  23.217  1.00  0.00     0.133 A 
ATOM     12  C   UNL A   1      30.399  26.789  24.818  1.00  0.00     0.057 A 
ATOM     13  N   UNL A   1      29.352  27.201  24.063  1.00  0.00    -0.237 NA
ATOM     14  C   UNL A   1      30.108  25.630  25.724  1.00  0.00     0.068 C 
BRANCH   9  15
ATOM     15  S   UNL A   1      33.360  28.968  23.208  1.00  0.00    -0.109 SA
ATOM     16  C   UNL A   1      33.809  27.617  22.103  1.00  0.00     0.092 C 
ENDBRANCH   9  15
BRANCH  11  17
ATOM     17  C   UNL A   1      28.297  28.795  22.534  1.00  0.00     0.058 C 
ATOM     18  C   UNL A   1      27.552  29.983  23.100  1.00  0.00     0.012 C 
ATOM     19  C   UNL A   1      28.336  30.129  21.829  1.00  0.00     0.012 C 
ENDBRANCH  11  17
ENDBRANCH   6   8
ENDBRANCH   5   6
ENDBRANCH   4   5
ENDBRANCH   3   4
ENDBRANCH   2   3
ENDBRANCH   1   2
BRANCH   1  20
ATOM     20  C   UNL A   1      32.340  33.035  26.829  1.00  0.00     0.261 C 
BRANCH  20  21
ATOM     21  O   UNL A   1      32.181  33.730  28.078  1.00  0.00    -0.460 OA
BRANCH  21  22
ATOM     22  C   UNL A   1      33.237  34.504  28.425  1.00  0.00     0.338 C 
ATOM     23  O   UNL A   1      33.244  35.713  28.614  1.00  0.00    -0.246 OA
BRANCH  22  24
ATOM     24  C   UNL A   1      34.405  33.659  28.719  1.00  0.00     0.060 A 
ATOM     25  C   UNL A   1      34.177  32.452  29.392  1.00  0.00     0.016 A 
ATOM     26  C   UNL A   1      35.705  34.072  28.418  1.00  0.00     0.016 A 
ATOM     27  C   UNL A   1      35.253  31.672  29.808  1.00  0.00     0.010 A 
ATOM     28  C   UNL A   1      36.784  33.293  28.846  1.00  0.00     0.010 A 
ATOM     29  C   UNL A   1      36.563  32.108  29.572  1.00  0.00    -0.014 A 
BRANCH  29  30
ATOM     30  C   UNL A   1      37.695  31.390  30.204  1.00  0.00     0.031 A 
ATOM     31  C   UNL A   1      38.020  31.664  31.646  1.00  0.00     0.074 A 
ATOM     32  C   UNL A   1      38.405  30.484  29.510  1.00  0.00     0.049 A 
ATOM     33  N   UNL A   1      38.978  31.172  32.389  1.00  0.00    -0.248 NA
ATOM     34  C   UNL A   1      37.146  32.621  32.345  1.00  0.00     0.031 C 
ATOM     35  C   UNL A   1      38.161  30.106  28.118  1.00  0.00     0.029 A 
ATOM     36  N   UNL A   1      39.481  29.721  29.884  1.00  0.00    -0.354 N 
ATOM     37  C   UNL A   1      38.828  31.761  33.638  1.00  0.00     0.074 A 
ATOM     38  C   UNL A   1      37.705  32.670  33.545  1.00  0.00     0.031 C 
ATOM     39  C   UNL A   1      39.071  29.187  27.752  1.00  0.00     0.029 A 
ATOM     40  C   UNL A   1      39.976  28.936  28.872  1.00  0.00     0.049 A 
ATOM     41  H   UNL A   1      39.862  29.734  30.792  1.00  0.00     0.167 HD
ATOM     42  C   UNL A   1      39.555  31.556  34.762  1.00  0.00     0.037 A 
ATOM     43  C   UNL A   1      41.051  28.124  28.848  1.00  0.00     0.037 A 
ATOM     44  C   UNL A   1      40.670  30.651  34.852  1.00  0.00     0.049 A 
ATOM     45  C   UNL A   1      41.884  27.966  30.092  1.00  0.00     0.074 A 
ATOM     46  C   UNL A   1      41.457  30.359  35.951  1.00  0.00     0.029 A 
ATOM     47  N   UNL A   1      41.161  29.898  33.796  1.00  0.00    -0.354 N 
ATOM     48  N   UNL A   1      41.718  28.507  31.275  1.00  0.00    -0.248 NA
ATOM     49  C   UNL A   1      43.053  27.080  29.998  1.00  0.00     0.031 C 
ATOM     50  C   UNL A   1      42.454  29.463  35.549  1.00  0.00     0.029 A 
ATOM     51  C   UNL A   1      42.257  29.160  34.212  1.00  0.00     0.049 A 
ATOM     52  H   UNL A   1      40.786  29.888  32.886  1.00  0.00     0.167 HD
ATOM     53  C   UNL A   1      42.742  28.008  32.071  1.00  0.00     0.074 A 
ATOM     54  C   UNL A   1      43.517  27.111  31.239  1.00  0.00     0.031 C 
ATOM     55  C   UNL A   1      43.014  28.267  33.373  1.00  0.00     0.037 A 
BRANCH  42  56
ATOM     56  C   UNL A   1      39.178  32.345  35.981  1.00  0.00     0.057 A 
ATOM     57  C   UNL A   1      38.309  31.835  36.954  1.00  0.00     0.134 A 
ATOM     58  C   UNL A   1      39.719  33.618  36.202  1.00  0.00     0.134 A 
ATOM     59  F   UNL A   1      37.745  30.627  36.796  1.00  0.00    -0.206 F 
ATOM     60  C   UNL A   1      37.974  32.570  38.092  1.00  0.00     0.040 A 
ATOM     61  C   UNL A   1      39.411  34.353  37.348  1.00  0.00     0.040 A 
ATOM     62  F   UNL A   1      40.561  34.164  35.312  1.00  0.00    -0.206 F 
ATOM     63  C   UNL A   1      38.533  33.832  38.295  1.00  0.00     0.006 A 
ENDBRANCH  42  56
BRANCH  43  64
ATOM     64  C   UNL A   1      41.411  27.405  27.601  1.00  0.00     0.057 A 
ATOM     65  C   UNL A   1      41.000  26.087  27.378  1.00  0.00     0.134 A 
ATOM     66  C   UNL A   1      42.194  28.013  26.612  1.00  0.00     0.134 A 
ATOM     67  F   UNL A   1      40.268  25.443  28.298  1.00  0.00    -0.206 F 
ATOM     68  C   UNL A   1      41.368  25.392  26.224  1.00  0.00     0.040 A 
ATOM     69  C   UNL A   1      42.547  27.340  25.442  1.00  0.00     0.040 A 
ATOM     70  F   UNL A   1      42.619  29.277  26.765  1.00  0.00    -0.206 F 
ATOM     71  C   UNL A   1      42.141  26.022  25.249  1.00  0.00     0.006 A 
ENDBRANCH  43  64
BRANCH  55  72
ATOM     72  C   UNL A   1      44.177  27.545  33.990  1.00  0.00     0.057 A 
ATOM     73  C   UNL A   1      44.039  26.273  34.562  1.00  0.00     0.134 A 
ATOM     74  C   UNL A   1      45.457  28.113  33.975  1.00  0.00     0.134 A 
ATOM     75  F   UNL A   1      42.838  25.680  34.619  1.00  0.00    -0.206 F 
ATOM     76  C   UNL A   1      45.131  25.603  35.118  1.00  0.00     0.040 A 
ATOM     77  C   UNL A   1      46.561  27.441  34.504  1.00  0.00     0.040 A 
ATOM     78  F   UNL A   1      45.659  29.324  33.434  1.00  0.00    -0.206 F 
ATOM     79  C   UNL A   1      46.397  26.184  35.082  1.00  0.00     0.006 A 
ENDBRANCH  55  72
ENDBRANCH  29  30
ENDBRANCH  22  24
ENDBRANCH  21  22
ENDBRANCH  20  21
ENDBRANCH   1  20
TORSDOF 16
ENDMDL
MODEL 2
REMARK VINA RESULT:     -10.0      5.352     10.318
REMARK SMILES CSc1nc(C2CC2)nc(C)c1C(=O)OCCOCCOC(=O)c1ccc(-c2c3nc(c(-c4c(F)cccc4F)c4ccc([nH]4)c(-c4c(F)cccc4F)c4nc(c(-c5c(F)cccc5F)c5ccc2[nH]5)C=C4)C=C3)cc1
REMARK SMILES IDX 19 1 18 2 17 3 16 4 15 5 13 6 14 7 12 8 3 9 4 10 5 11 10 12
REMARK SMILES IDX 9 13 11 14 2 15 1 16 6 17 7 18 8 19 20 20 21 21 22 22 23 23
REMARK SMILES IDX 24 24 25 25 77 26 26 27 76 28 27 29 28 30 29 31 70 32 30 33
REMARK SMILES IDX 75 34 69 35 71 36 31 37 74 38 68 39 67 40 32 42 58 43 41 44
REMARK SMILES IDX 57 45 42 46 45 47 56 48 72 49 43 50 44 51 55 53 73 54 46 55
REMARK SMILES IDX 33 56 34 57 39 58 35 59 36 60 38 61 40 62 37 63 59 64 60 65
REMARK SMILES IDX 65 66 61 67 62 68 64 69 66 70 63 71 47 72 48 73 53 74 49 75
REMARK SMILES IDX 50 76 52 77 54 78 51 79
REMARK H PARENT 71 41 45 52
REMARK Flexibility Score: inf
ROOT
ATOM      1  C   UNL A   1      37.239  20.013  25.012  1.00  0.00     0.202 C 
ENDROOT
BRANCH   1   2
ATOM      2  O   UNL A   1      37.069  21.421  25.174  1.00  0.00    -0.374 OA
BRANCH   2   3
ATOM      3  C   UNL A   1      36.987  22.222  23.994  1.00  0.00     0.202 C 
BRANCH   3   4
ATOM      4  C   UNL A   1      35.909  23.305  23.998  1.00  0.00     0.261 C 
BRANCH   4   5
ATOM      5  O   UNL A   1      34.770  22.847  23.251  1.00  0.00    -0.460 OA
BRANCH   5   6
ATOM      6  C   UNL A   1      33.605  22.850  23.928  1.00  0.00     0.342 C 
ATOM      7  O   UNL A   1      32.942  23.830  24.240  1.00  0.00    -0.246 OA
BRANCH   6   8
ATOM      8  C   UNL A   1      33.159  21.481  24.182  1.00  0.00     0.113 A 
ATOM      9  C   UNL A   1      33.512  20.833  25.353  1.00  0.00     0.114 A 
ATOM     10  N   UNL A   1      33.334  19.508  25.539  1.00  0.00    -0.225 NA
ATOM     11  C   UNL A   1      32.765  18.806  24.543  1.00  0.00     0.133 A 
ATOM     12  C   UNL A   1      32.452  20.728  23.265  1.00  0.00     0.057 A 
ATOM     13  N   UNL A   1      32.268  19.396  23.437  1.00  0.00    -0.237 NA
ATOM     14  C   UNL A   1      31.861  21.292  22.007  1.00  0.00     0.068 C 
BRANCH   9  15
ATOM     15  S   UNL A   1      33.987  21.718  26.839  1.00  0.00    -0.109 SA
ATOM     16  C   UNL A   1      32.394  22.430  27.293  1.00  0.00     0.092 C 
ENDBRANCH   9  15
BRANCH  11  17
ATOM     17  C   UNL A   1      32.712  17.297  24.613  1.00  0.00     0.058 C 
ATOM     18  C   UNL A   1      33.760  16.441  23.939  1.00  0.00     0.012 C 
ATOM     19  C   UNL A   1      33.711  16.521  25.437  1.00  0.00     0.012 C 
ENDBRANCH  11  17
ENDBRANCH   6   8
ENDBRANCH   5   6
ENDBRANCH   4   5
ENDBRANCH   3   4
ENDBRANCH   2   3
ENDBRANCH   1   2
BRANCH   1  20
ATOM     20  C   UNL A   1      38.672  19.477  25.078  1.00  0.00     0.261 C 
BRANCH  20  21
ATOM     21  O   UNL A   1      39.275  19.659  26.371  1.00  0.00    -0.460 OA
BRANCH  21  22
ATOM     22  C   UNL A   1      40.597  19.953  26.334  1.00  0.00     0.338 C 
ATOM     23  O   UNL A   1      41.495  19.285  25.840  1.00  0.00    -0.246 OA
BRANCH  22  24
ATOM     24  C   UNL A   1      40.824  21.315  26.844  1.00  0.00     0.060 A 
ATOM     25  C   UNL A   1      40.175  22.368  26.186  1.00  0.00     0.016 A 
ATOM     26  C   UNL A   1      41.715  21.569  27.889  1.00  0.00     0.016 A 
ATOM     27  C   UNL A   1      40.449  23.685  26.542  1.00  0.00     0.010 A 
ATOM     28  C   UNL A   1      41.996  22.893  28.238  1.00  0.00     0.010 A 
ATOM     29  C   UNL A   1      41.391  23.957  27.543  1.00  0.00    -0.014 A 
BRANCH  29  30
ATOM     30  C   UNL A   1      41.838  25.352  27.765  1.00  0.00     0.031 A 
ATOM     31  C   UNL A   1      43.177  25.784  27.237  1.00  0.00     0.074 A 
ATOM     32  C   UNL A   1      41.045  26.232  28.403  1.00  0.00     0.049 A 
ATOM     33  N   UNL A   1      43.776  26.943  27.340  1.00  0.00    -0.248 NA
ATOM     34  C   UNL A   1      43.945  24.772  26.493  1.00  0.00     0.031 C 
ATOM     35  C   UNL A   1      39.711  25.942  28.927  1.00  0.00     0.029 A 
ATOM     36  N   UNL A   1      41.255  27.549  28.722  1.00  0.00    -0.354 N 
ATOM     37  C   UNL A   1      44.990  26.800  26.680  1.00  0.00     0.074 A 
ATOM     38  C   UNL A   1      45.057  25.434  26.207  1.00  0.00     0.031 C 
ATOM     39  C   UNL A   1      39.224  27.049  29.512  1.00  0.00     0.029 A 
ATOM     40  C   UNL A   1      40.223  28.113  29.430  1.00  0.00     0.049 A 
ATOM     41  H   UNL A   1      42.067  28.043  28.467  1.00  0.00     0.167 HD
ATOM     42  C   UNL A   1      45.957  27.726  26.480  1.00  0.00     0.037 A 
ATOM     43  C   UNL A   1      40.108  29.342  29.969  1.00  0.00     0.037 A 
ATOM     44  C   UNL A   1      45.887  29.085  26.951  1.00  0.00     0.049 A 
ATOM     45  C   UNL A   1      41.228  30.333  29.791  1.00  0.00     0.074 A 
ATOM     46  C   UNL A   1      46.807  30.105  26.781  1.00  0.00     0.029 A 
ATOM     47  N   UNL A   1      44.840  29.610  27.692  1.00  0.00    -0.354 N 
ATOM     48  N   UNL A   1      42.359  30.197  29.143  1.00  0.00    -0.248 NA
ATOM     49  C   UNL A   1      41.051  31.652  30.417  1.00  0.00     0.031 C 
ATOM     50  C   UNL A   1      46.336  31.234  27.459  1.00  0.00     0.029 A 
ATOM     51  C   UNL A   1      45.101  30.932  28.009  1.00  0.00     0.049 A 
ATOM     52  H   UNL A   1      44.029  29.116  27.954  1.00  0.00     0.167 HD
ATOM     53  C   UNL A   1      43.016  31.416  29.261  1.00  0.00     0.074 A 
ATOM     54  C   UNL A   1      42.150  32.284  30.030  1.00  0.00     0.031 C 
ATOM     55  C   UNL A   1      44.226  31.785  28.772  1.00  0.00     0.037 A 
BRANCH  42  56
ATOM     56  C   UNL A   1      47.186  27.293  25.737  1.00  0.00     0.057 A 
ATOM     57  C   UNL A   1      47.334  27.507  24.361  1.00  0.00     0.134 A 
ATOM     58  C   UNL A   1      48.250  26.683  26.414  1.00  0.00     0.134 A 
ATOM     59  F   UNL A   1      46.346  28.074  23.651  1.00  0.00    -0.206 F 
ATOM     60  C   UNL A   1      48.486  27.112  23.680  1.00  0.00     0.040 A 
ATOM     61  C   UNL A   1      49.418  26.306  25.749  1.00  0.00     0.040 A 
ATOM     62  F   UNL A   1      48.175  26.452  27.733  1.00  0.00    -0.206 F 
ATOM     63  C   UNL A   1      49.537  26.516  24.377  1.00  0.00     0.006 A 
ENDBRANCH  42  56
BRANCH  43  64
ATOM     64  C   UNL A   1      38.893  29.706  30.739  1.00  0.00     0.057 A 
ATOM     65  C   UNL A   1      37.821  30.371  30.134  1.00  0.00     0.134 A 
ATOM     66  C   UNL A   1      38.784  29.415  32.105  1.00  0.00     0.134 A 
ATOM     67  F   UNL A   1      37.876  30.696  28.835  1.00  0.00    -0.206 F 
ATOM     68  C   UNL A   1      36.692  30.749  30.861  1.00  0.00     0.040 A 
ATOM     69  C   UNL A   1      37.650  29.765  32.839  1.00  0.00     0.040 A 
ATOM     70  F   UNL A   1      39.778  28.778  32.744  1.00  0.00    -0.206 F 
ATOM     71  C   UNL A   1      36.603  30.442  32.219  1.00  0.00     0.006 A 
ENDBRANCH  43  64
BRANCH  55  72
ATOM     72  C   UNL A   1      44.669  33.197  29.024  1.00  0.00     0.057 A 
ATOM     73  C   UNL A   1      45.429  33.544  30.149  1.00  0.00     0.134 A 
ATOM     74  C   UNL A   1      44.364  34.213  28.110  1.00  0.00     0.134 A 
ATOM     75  F   UNL A   1      45.744  32.619  31.069  1.00  0.00    -0.206 F 
ATOM     76  C   UNL A   1      45.850  34.857  30.366  1.00  0.00     0.040 A 
ATOM     77  C   UNL A   1      44.803  35.524  28.303  1.00  0.00     0.040 A 
ATOM     78  F   UNL A   1      43.647  33.946  27.008  1.00  0.00    -0.206 F 
ATOM     79  C   UNL A   1      45.544  35.849  29.437  1.00  0.00     0.006 A 
ENDBRANCH  55  72
ENDBRANCH  29  30
ENDBRANCH  22  24
ENDBRANCH  21  22
ENDBRANCH  20  21
ENDBRANCH   1  20
TORSDOF 16
ENDMDL
MODEL 3
REMARK VINA RESULT:      -9.9      1.428      2.593
REMARK SMILES CSc1nc(C2CC2)nc(C)c1C(=O)OCCOCCOC(=O)c1ccc(-c2c3nc(c(-c4c(F)cccc4F)c4ccc([nH]4)c(-c4c(F)cccc4F)c4nc(c(-c5c(F)cccc5F)c5ccc2[nH]5)C=C4)C=C3)cc1
REMARK SMILES IDX 19 1 18 2 17 3 16 4 15 5 13 6 14 7 12 8 3 9 4 10 5 11 10 12
REMARK SMILES IDX 9 13 11 14 2 15 1 16 6 17 7 18 8 19 20 20 21 21 22 22 23 23
REMARK SMILES IDX 24 24 25 25 77 26 26 27 76 28 27 29 28 30 29 31 70 32 30 33
REMARK SMILES IDX 75 34 69 35 71 36 31 37 74 38 68 39 67 40 32 42 58 43 41 44
REMARK SMILES IDX 57 45 42 46 45 47 56 48 72 49 43 50 44 51 55 53 73 54 46 55
REMARK SMILES IDX 33 56 34 57 39 58 35 59 36 60 38 61 40 62 37 63 59 64 60 65
REMARK SMILES IDX 65 66 61 67 62 68 64 69 66 70 63 71 47 72 48 73 53 74 49 75
REMARK SMILES IDX 50 76 52 77 54 78 51 79
REMARK H PARENT 71 41 45 52
REMARK Flexibility Score: inf
ROOT
ATOM      1  C   UNL A   1      31.613  32.008  26.828  1.00  0.00     0.202 C 
ENDROOT
BRANCH   1   2
ATOM      2  O   UNL A   1      32.102  30.722  27.210  1.00  0.00    -0.374 OA
BRANCH   2   3
ATOM      3  C   UNL A   1      33.460  30.407  26.902  1.00  0.00     0.202 C 
BRANCH   3   4
ATOM      4  C   UNL A   1      33.670  29.237  25.940  1.00  0.00     0.261 C 
BRANCH   4   5
ATOM      5  O   UNL A   1      32.465  28.457  25.868  1.00  0.00    -0.460 OA
BRANCH   5   6
ATOM      6  C   UNL A   1      31.876  28.429  24.657  1.00  0.00     0.342 C 
ATOM      7  O   UNL A   1      31.218  29.322  24.141  1.00  0.00    -0.246 OA
BRANCH   6   8
ATOM      8  C   UNL A   1      32.204  27.186  23.959  1.00  0.00     0.113 A 
ATOM      9  C   UNL A   1      31.611  25.993  24.335  1.00  0.00     0.114 A 
ATOM     10  N   UNL A   1      32.041  24.791  23.895  1.00  0.00    -0.225 NA
ATOM     11  C   UNL A   1      33.075  24.771  23.036  1.00  0.00     0.133 A 
ATOM     12  C   UNL A   1      33.162  27.098  22.968  1.00  0.00     0.057 A 
ATOM     13  N   UNL A   1      33.605  25.899  22.519  1.00  0.00    -0.237 NA
ATOM     14  C   UNL A   1      33.809  28.291  22.331  1.00  0.00     0.068 C 
BRANCH   9  15
ATOM     15  S   UNL A   1      30.053  25.927  25.220  1.00  0.00    -0.109 SA
ATOM     16  C   UNL A   1      28.929  26.414  23.897  1.00  0.00     0.092 C 
ENDBRANCH   9  15
BRANCH  11  17
ATOM     17  C   UNL A   1      33.721  23.459  22.657  1.00  0.00     0.058 C 
ATOM     18  C   UNL A   1      35.024  23.014  23.282  1.00  0.00     0.012 C 
ATOM     19  C   UNL A   1      33.749  22.298  23.623  1.00  0.00     0.012 C 
ENDBRANCH  11  17
ENDBRANCH   6   8
ENDBRANCH   5   6
ENDBRANCH   4   5
ENDBRANCH   3   4
ENDBRANCH   2   3
ENDBRANCH   1   2
BRANCH   1  20
ATOM     20  C   UNL A   1      32.580  33.187  26.972  1.00  0.00     0.261 C 
BRANCH  20  21
ATOM     21  O   UNL A   1      32.240  34.054  28.068  1.00  0.00    -0.460 OA
BRANCH  21  22
ATOM     22  C   UNL A   1      33.282  34.768  28.559  1.00  0.00     0.338 C 
ATOM     23  O   UNL A   1      33.295  35.952  28.865  1.00  0.00    -0.246 OA
BRANCH  22  24
ATOM     24  C   UNL A   1      34.413  33.872  28.848  1.00  0.00     0.060 A 
ATOM     25  C   UNL A   1      34.152  32.724  29.607  1.00  0.00     0.016 A 
ATOM     26  C   UNL A   1      35.717  34.186  28.458  1.00  0.00     0.016 A 
ATOM     27  C   UNL A   1      35.201  31.907  30.018  1.00  0.00     0.010 A 
ATOM     28  C   UNL A   1      36.771  33.370  28.881  1.00  0.00     0.010 A 
ATOM     29  C   UNL A   1      36.521  32.246  29.690  1.00  0.00    -0.014 A 
BRANCH  29  30
ATOM     30  C   UNL A   1      37.641  31.501  30.310  1.00  0.00     0.031 A 
ATOM     31  C   UNL A   1      37.985  31.763  31.750  1.00  0.00     0.074 A 
ATOM     32  C   UNL A   1      38.323  30.580  29.607  1.00  0.00     0.049 A 
ATOM     33  N   UNL A   1      38.939  31.246  32.482  1.00  0.00    -0.248 NA
ATOM     34  C   UNL A   1      37.141  32.738  32.459  1.00  0.00     0.031 C 
ATOM     35  C   UNL A   1      38.057  30.211  28.217  1.00  0.00     0.029 A 
ATOM     36  N   UNL A   1      39.384  29.790  29.969  1.00  0.00    -0.354 N 
ATOM     37  C   UNL A   1      38.814  31.835  33.734  1.00  0.00     0.074 A 
ATOM     38  C   UNL A   1      37.713  32.771  33.654  1.00  0.00     0.031 C 
ATOM     39  C   UNL A   1      38.941  29.272  27.840  1.00  0.00     0.029 A 
ATOM     40  C   UNL A   1      39.850  28.997  28.951  1.00  0.00     0.049 A 
ATOM     41  H   UNL A   1      39.773  29.792  30.873  1.00  0.00     0.167 HD
ATOM     42  C   UNL A   1      39.547  31.611  34.850  1.00  0.00     0.037 A 
ATOM     43  C   UNL A   1      40.905  28.160  28.915  1.00  0.00     0.037 A 
ATOM     44  C   UNL A   1      40.641  30.679  34.928  1.00  0.00     0.049 A 
ATOM     45  C   UNL A   1      41.746  27.978  30.150  1.00  0.00     0.074 A 
ATOM     46  C   UNL A   1      41.431  30.366  36.019  1.00  0.00     0.029 A 
ATOM     47  N   UNL A   1      41.104  29.917  33.866  1.00  0.00    -0.354 N 
ATOM     48  N   UNL A   1      41.604  28.520  31.336  1.00  0.00    -0.248 NA
ATOM     49  C   UNL A   1      42.894  27.066  30.043  1.00  0.00     0.031 C 
ATOM     50  C   UNL A   1      42.403  29.448  35.605  1.00  0.00     0.029 A 
ATOM     51  C   UNL A   1      42.186  29.153  34.269  1.00  0.00     0.049 A 
ATOM     52  H   UNL A   1      40.720  29.918  32.959  1.00  0.00     0.167 HD
ATOM     53  C   UNL A   1      42.624  27.995  32.121  1.00  0.00     0.074 A 
ATOM     54  C   UNL A   1      43.369  27.082  31.280  1.00  0.00     0.031 C 
ATOM     55  C   UNL A   1      42.914  28.244  33.421  1.00  0.00     0.037 A 
BRANCH  42  56
ATOM     56  C   UNL A   1      39.200  32.404  36.075  1.00  0.00     0.057 A 
ATOM     57  C   UNL A   1      39.734  33.678  36.308  1.00  0.00     0.134 A 
ATOM     58  C   UNL A   1      38.295  31.901  37.019  1.00  0.00     0.134 A 
ATOM     59  F   UNL A   1      40.617  34.213  35.450  1.00  0.00    -0.206 F 
ATOM     60  C   UNL A   1      39.397  34.415  37.445  1.00  0.00     0.040 A 
ATOM     61  C   UNL A   1      37.931  32.639  38.146  1.00  0.00     0.040 A 
ATOM     62  F   UNL A   1      37.745  30.689  36.855  1.00  0.00    -0.206 F 
ATOM     63  C   UNL A   1      38.486  33.897  38.365  1.00  0.00     0.006 A 
ENDBRANCH  42  56
BRANCH  43  64
ATOM     64  C   UNL A   1      41.237  27.435  27.663  1.00  0.00     0.057 A 
ATOM     65  C   UNL A   1      40.750  26.147  27.417  1.00  0.00     0.134 A 
ATOM     66  C   UNL A   1      42.067  28.007  26.690  1.00  0.00     0.134 A 
ATOM     67  F   UNL A   1      39.969  25.538  28.321  1.00  0.00    -0.206 F 
ATOM     68  C   UNL A   1      41.089  25.446  26.259  1.00  0.00     0.040 A 
ATOM     69  C   UNL A   1      42.394  27.328  25.516  1.00  0.00     0.040 A 
ATOM     70  F   UNL A   1      42.566  29.241  26.865  1.00  0.00    -0.206 F 
ATOM     71  C   UNL A   1      41.911  26.040  25.302  1.00  0.00     0.006 A 
ENDBRANCH  43  64
BRANCH  55  72
ATOM     72  C   UNL A   1      44.066  27.493  34.025  1.00  0.00     0.057 A 
ATOM     73  C   UNL A   1      43.903  26.225  34.598  1.00  0.00     0.134 A 
ATOM     74  C   UNL A   1      45.359  28.029  33.998  1.00  0.00     0.134 A 
ATOM     75  F   UNL A   1      42.687  25.661  34.667  1.00  0.00    -0.206 F 
ATOM     76  C   UNL A   1      44.983  25.527  35.142  1.00  0.00     0.040 A 
ATOM     77  C   UNL A   1      46.451  27.330  34.515  1.00  0.00     0.040 A 
ATOM     78  F   UNL A   1      45.585  29.236  33.455  1.00  0.00    -0.206 F 
ATOM     79  C   UNL A   1      46.262  26.077  35.094  1.00  0.00     0.006 A 
ENDBRANCH  55  72
ENDBRANCH  29  30
ENDBRANCH  22  24
ENDBRANCH  21  22
ENDBRANCH  20  21
ENDBRANCH   1  20
TORSDOF 16
ENDMDL
