MODEL 1
REMARK VINA RESULT:      -8.2      0.000      0.000
REMARK SMILES CCC[C@@H](Oc1ccc(-c2ccccc2)cc1)C(=O)OCCOCCOC(=O)c1ccc(-c2c3nc(c(-c4c(F)cccc4F)c4ccc([nH]4)c(-c4c(F)cccc4F)c4nc(c(-c5c(F)cccc5F)c5ccc2[nH]5)C=C4)C=C3)cc1
REMARK SMILES IDX 22 1 21 2 20 3 18 4 19 5 4 6 3 7 2 8 1 9 5 10 6 11 7 12
REMARK SMILES IDX 17 13 8 14 16 15 9 16 10 17 11 18 15 19 12 20 14 21 13 22
REMARK SMILES IDX 23 23 24 24 25 25 26 26 27 27 28 28 29 29 30 30 82 31 31 32
REMARK SMILES IDX 81 33 32 34 33 35 34 36 75 37 35 38 80 39 74 40 76 41 36 42
REMARK SMILES IDX 79 43 73 44 72 45 37 47 63 48 46 49 62 50 47 51 50 52 61 53
REMARK SMILES IDX 77 54 48 55 49 56 60 58 78 59 51 60 38 61 39 62 44 63 40 64
REMARK SMILES IDX 41 65 43 66 45 67 42 68 64 69 65 70 70 71 66 72 67 73 69 74
REMARK SMILES IDX 71 75 68 76 52 77 53 78 58 79 54 80 55 81 57 82 59 83 56 84
REMARK H PARENT 76 46 50 57
REMARK Flexibility Score: inf
ROOT
ATOM      1  C   UNL A   1      34.214  34.866  32.121  1.00  0.00     0.202 C 
ENDROOT
BRANCH   1   2
ATOM      2  C   UNL A   1      35.587  34.621  32.756  1.00  0.00     0.261 C 
BRANCH   2   3
ATOM      3  O   UNL A   1      35.925  33.220  32.783  1.00  0.00    -0.461 OA
BRANCH   3   4
ATOM      4  C   UNL A   1      37.087  32.877  32.157  1.00  0.00     0.347 C 
ATOM      5  O   UNL A   1      37.251  32.870  30.941  1.00  0.00    -0.248 OA
BRANCH   4   6
ATOM      6  C   UNL A   1      38.193  32.481  33.136  1.00  0.00     0.282 C 
BRANCH   6   7
ATOM      7  C   UNL A   1      38.342  33.459  34.319  1.00  0.00     0.057 C 
BRANCH   7   8
ATOM      8  C   UNL A   1      39.336  34.609  34.092  1.00  0.00     0.001 C 
ATOM      9  C   UNL A   1      40.279  34.394  32.916  1.00  0.00     0.004 C 
ENDBRANCH   7   8
ENDBRANCH   6   7
BRANCH   6  10
ATOM     10  O   UNL A   1      37.876  31.157  33.604  1.00  0.00    -0.479 OA
BRANCH  10  11
ATOM     11  C   UNL A   1      38.981  30.354  33.551  1.00  0.00     0.120 A 
ATOM     12  C   UNL A   1      40.140  30.682  34.245  1.00  0.00     0.047 A 
ATOM     13  C   UNL A   1      38.907  29.183  32.810  1.00  0.00     0.047 A 
ATOM     14  C   UNL A   1      41.199  29.771  34.280  1.00  0.00     0.012 A 
ATOM     15  C   UNL A   1      39.954  28.264  32.876  1.00  0.00     0.012 A 
ATOM     16  C   UNL A   1      41.114  28.524  33.630  1.00  0.00    -0.018 A 
BRANCH  16  17
ATOM     17  C   UNL A   1      42.183  27.506  33.757  1.00  0.00    -0.018 A 
ATOM     18  C   UNL A   1      42.295  26.702  34.907  1.00  0.00     0.009 A 
ATOM     19  C   UNL A   1      43.104  27.278  32.720  1.00  0.00     0.009 A 
ATOM     20  C   UNL A   1      43.281  25.716  35.013  1.00  0.00     0.001 A 
ATOM     21  C   UNL A   1      44.084  26.285  32.818  1.00  0.00     0.001 A 
ATOM     22  C   UNL A   1      44.171  25.505  33.966  1.00  0.00     0.000 A 
ENDBRANCH  16  17
ENDBRANCH  10  11
ENDBRANCH   6  10
ENDBRANCH   4   6
ENDBRANCH   3   4
ENDBRANCH   2   3
ENDBRANCH   1   2
BRANCH   1  23
ATOM     23  O   UNL A   1      33.832  33.976  31.071  1.00  0.00    -0.374 OA
BRANCH  23  24
ATOM     24  C   UNL A   1      34.059  34.410  29.734  1.00  0.00     0.202 C 
BRANCH  24  25
ATOM     25  C   UNL A   1      34.364  33.310  28.707  1.00  0.00     0.261 C 
BRANCH  25  26
ATOM     26  O   UNL A   1      34.647  32.038  29.320  1.00  0.00    -0.460 OA
BRANCH  26  27
ATOM     27  C   UNL A   1      34.611  30.984  28.466  1.00  0.00     0.338 C 
ATOM     28  O   UNL A   1      33.724  30.699  27.679  1.00  0.00    -0.246 OA
BRANCH  27  29
ATOM     29  C   UNL A   1      35.893  30.254  28.484  1.00  0.00     0.060 A 
ATOM     30  C   UNL A   1      36.296  29.695  29.703  1.00  0.00     0.016 A 
ATOM     31  C   UNL A   1      36.739  30.220  27.373  1.00  0.00     0.016 A 
ATOM     32  C   UNL A   1      37.569  29.141  29.831  1.00  0.00     0.010 A 
ATOM     33  C   UNL A   1      38.020  29.671  27.507  1.00  0.00     0.010 A 
ATOM     34  C   UNL A   1      38.455  29.163  28.746  1.00  0.00    -0.014 A 
BRANCH  34  35
ATOM     35  C   UNL A   1      39.875  28.789  28.961  1.00  0.00     0.031 A 
ATOM     36  C   UNL A   1      40.792  29.757  29.658  1.00  0.00     0.074 A 
ATOM     37  C   UNL A   1      40.335  27.581  28.589  1.00  0.00     0.049 A 
ATOM     38  N   UNL A   1      42.061  29.633  29.956  1.00  0.00    -0.248 NA
ATOM     39  C   UNL A   1      40.197  31.036  30.079  1.00  0.00     0.031 C 
ATOM     40  C   UNL A   1      39.542  26.537  27.942  1.00  0.00     0.029 A 
ATOM     41  N   UNL A   1      41.587  27.031  28.706  1.00  0.00    -0.354 N 
ATOM     42  C   UNL A   1      42.416  30.811  30.599  1.00  0.00     0.074 A 
ATOM     43  C   UNL A   1      41.237  31.652  30.622  1.00  0.00     0.031 C 
ATOM     44  C   UNL A   1      40.329  25.473  27.714  1.00  0.00     0.029 A 
ATOM     45  C   UNL A   1      41.685  25.768  28.176  1.00  0.00     0.049 A 
ATOM     46  H   UNL A   1      42.343  27.497  29.130  1.00  0.00     0.167 HD
ATOM     47  C   UNL A   1      43.611  31.160  31.131  1.00  0.00     0.037 A 
ATOM     48  C   UNL A   1      42.750  24.952  28.064  1.00  0.00     0.037 A 
ATOM     49  C   UNL A   1      44.786  30.329  31.113  1.00  0.00     0.049 A 
ATOM     50  C   UNL A   1      44.086  25.391  28.599  1.00  0.00     0.074 A 
ATOM     51  C   UNL A   1      46.038  30.592  31.642  1.00  0.00     0.029 A 
ATOM     52  N   UNL A   1      44.854  29.075  30.527  1.00  0.00    -0.354 N 
ATOM     53  N   UNL A   1      44.404  26.499  29.225  1.00  0.00    -0.248 NA
ATOM     54  C   UNL A   1      45.213  24.464  28.413  1.00  0.00     0.031 C 
ATOM     55  C   UNL A   1      46.876  29.513  31.342  1.00  0.00     0.029 A 
ATOM     56  C   UNL A   1      46.134  28.561  30.661  1.00  0.00     0.049 A 
ATOM     57  H   UNL A   1      44.105  28.617  30.082  1.00  0.00     0.167 HD
ATOM     58  C   UNL A   1      45.756  26.393  29.526  1.00  0.00     0.074 A 
ATOM     59  C   UNL A   1      46.198  25.108  29.025  1.00  0.00     0.031 C 
ATOM     60  C   UNL A   1      46.559  27.280  30.161  1.00  0.00     0.037 A 
BRANCH  47  61
ATOM     61  C   UNL A   1      43.711  32.514  31.768  1.00  0.00     0.057 A 
ATOM     62  C   UNL A   1      43.688  32.677  33.159  1.00  0.00     0.134 A 
ATOM     63  C   UNL A   1      43.868  33.663  30.982  1.00  0.00     0.134 A 
ATOM     64  F   UNL A   1      43.528  31.617  33.965  1.00  0.00    -0.206 F 
ATOM     65  C   UNL A   1      43.797  33.939  33.746  1.00  0.00     0.040 A 
ATOM     66  C   UNL A   1      43.999  34.927  31.558  1.00  0.00     0.040 A 
ATOM     67  F   UNL A   1      43.903  33.573  29.644  1.00  0.00    -0.206 F 
ATOM     68  C   UNL A   1      43.958  35.068  32.944  1.00  0.00     0.006 A 
ENDBRANCH  47  61
BRANCH  48  69
ATOM     69  C   UNL A   1      42.605  23.630  27.404  1.00  0.00     0.057 A 
ATOM     70  C   UNL A   1      42.347  22.473  28.145  1.00  0.00     0.134 A 
ATOM     71  C   UNL A   1      42.748  23.493  26.017  1.00  0.00     0.134 A 
ATOM     72  F   UNL A   1      42.227  22.538  29.479  1.00  0.00    -0.206 F 
ATOM     73  C   UNL A   1      42.250  21.221  27.534  1.00  0.00     0.040 A 
ATOM     74  C   UNL A   1      42.631  22.252  25.391  1.00  0.00     0.040 A 
ATOM     75  F   UNL A   1      42.999  24.566  25.253  1.00  0.00    -0.206 F 
ATOM     76  C   UNL A   1      42.388  21.110  26.151  1.00  0.00     0.006 A 
ENDBRANCH  48  69
BRANCH  60  77
ATOM     77  C   UNL A   1      47.990  26.882  30.376  1.00  0.00     0.057 A 
ATOM     78  C   UNL A   1      48.390  26.149  31.500  1.00  0.00     0.134 A 
ATOM     79  C   UNL A   1      48.969  27.198  29.426  1.00  0.00     0.134 A 
ATOM     80  F   UNL A   1      47.501  25.825  32.451  1.00  0.00    -0.206 F 
ATOM     81  C   UNL A   1      49.719  25.762  31.682  1.00  0.00     0.040 A 
ATOM     82  C   UNL A   1      50.296  26.798  29.586  1.00  0.00     0.040 A 
ATOM     83  F   UNL A   1      48.650  27.892  28.323  1.00  0.00    -0.206 F 
ATOM     84  C   UNL A   1      50.675  26.082  30.719  1.00  0.00     0.006 A 
ENDBRANCH  60  77
ENDBRANCH  34  35
ENDBRANCH  27  29
ENDBRANCH  26  27
ENDBRANCH  25  26
ENDBRANCH  24  25
ENDBRANCH  23  24
ENDBRANCH   1  23
TORSDOF 19
ENDMDL
MODEL 2
REMARK VINA RESULT:      -8.1      5.154     10.327
REMARK SMILES CCC[C@@H](Oc1ccc(-c2ccccc2)cc1)C(=O)OCCOCCOC(=O)c1ccc(-c2c3nc(c(-c4c(F)cccc4F)c4ccc([nH]4)c(-c4c(F)cccc4F)c4nc(c(-c5c(F)cccc5F)c5ccc2[nH]5)C=C4)C=C3)cc1
REMARK SMILES IDX 22 1 21 2 20 3 18 4 19 5 4 6 3 7 2 8 1 9 5 10 6 11 7 12
REMARK SMILES IDX 17 13 8 14 16 15 9 16 10 17 11 18 15 19 12 20 14 21 13 22
REMARK SMILES IDX 23 23 24 24 25 25 26 26 27 27 28 28 29 29 30 30 82 31 31 32
REMARK SMILES IDX 81 33 32 34 33 35 34 36 75 37 35 38 80 39 74 40 76 41 36 42
REMARK SMILES IDX 79 43 73 44 72 45 37 47 63 48 46 49 62 50 47 51 50 52 61 53
REMARK SMILES IDX 77 54 48 55 49 56 60 58 78 59 51 60 38 61 39 62 44 63 40 64
REMARK SMILES IDX 41 65 43 66 45 67 42 68 64 69 65 70 70 71 66 72 67 73 69 74
REMARK SMILES IDX 71 75 68 76 52 77 53 78 58 79 54 80 55 81 57 82 59 83 56 84
REMARK H PARENT 76 46 50 57
REMARK Flexibility Score: inf
ROOT
ATOM      1  C   UNL A   1      36.224  22.771  25.666  1.00  0.00     0.202 C 
ENDROOT
BRANCH   1   2
ATOM      2  C   UNL A   1      35.417  24.009  25.264  1.00  0.00     0.261 C 
BRANCH   2   3
ATOM      3  O   UNL A   1      35.276  24.119  23.833  1.00  0.00    -0.461 OA
BRANCH   3   4
ATOM      4  C   UNL A   1      34.118  24.687  23.391  1.00  0.00     0.347 C 
ATOM      5  O   UNL A   1      33.974  25.220  22.296  1.00  0.00    -0.248 OA
BRANCH   4   6
ATOM      6  C   UNL A   1      32.987  24.604  24.417  1.00  0.00     0.282 C 
BRANCH   6   7
ATOM      7  C   UNL A   1      32.483  25.984  24.885  1.00  0.00     0.057 C 
BRANCH   7   8
ATOM      8  C   UNL A   1      33.542  27.098  24.886  1.00  0.00     0.001 C 
ATOM      9  C   UNL A   1      33.885  27.629  26.270  1.00  0.00     0.004 C 
ENDBRANCH   7   8
ENDBRANCH   6   7
BRANCH   6  10
ATOM     10  O   UNL A   1      31.925  23.854  23.799  1.00  0.00    -0.479 OA
BRANCH  10  11
ATOM     11  C   UNL A   1      32.100  22.514  24.009  1.00  0.00     0.120 A 
ATOM     12  C   UNL A   1      32.114  21.618  22.947  1.00  0.00     0.047 A 
ATOM     13  C   UNL A   1      32.296  22.074  25.310  1.00  0.00     0.047 A 
ATOM     14  C   UNL A   1      32.433  20.278  23.185  1.00  0.00     0.012 A 
ATOM     15  C   UNL A   1      32.646  20.742  25.537  1.00  0.00     0.012 A 
ATOM     16  C   UNL A   1      32.746  19.819  24.479  1.00  0.00    -0.018 A 
BRANCH  16  17
ATOM     17  C   UNL A   1      33.197  18.429  24.723  1.00  0.00    -0.018 A 
ATOM     18  C   UNL A   1      34.466  17.987  24.304  1.00  0.00     0.009 A 
ATOM     19  C   UNL A   1      32.391  17.508  25.415  1.00  0.00     0.009 A 
ATOM     20  C   UNL A   1      34.908  16.686  24.565  1.00  0.00     0.001 A 
ATOM     21  C   UNL A   1      32.835  16.210  25.688  1.00  0.00     0.001 A 
ATOM     22  C   UNL A   1      34.093  15.801  25.262  1.00  0.00     0.000 A 
ENDBRANCH  16  17
ENDBRANCH  10  11
ENDBRANCH   6  10
ENDBRANCH   4   6
ENDBRANCH   3   4
ENDBRANCH   2   3
ENDBRANCH   1   2
BRANCH   1  23
ATOM     23  O   UNL A   1      37.238  22.350  24.752  1.00  0.00    -0.374 OA
BRANCH  23  24
ATOM     24  C   UNL A   1      37.859  21.092  25.000  1.00  0.00     0.202 C 
BRANCH  24  25
ATOM     25  C   UNL A   1      39.230  21.138  25.690  1.00  0.00     0.261 C 
BRANCH  25  26
ATOM     26  O   UNL A   1      39.709  19.834  26.069  1.00  0.00    -0.460 OA
BRANCH  26  27
ATOM     27  C   UNL A   1      41.060  19.711  26.068  1.00  0.00     0.338 C 
ATOM     28  O   UNL A   1      41.720  18.800  25.599  1.00  0.00    -0.246 OA
BRANCH  27  29
ATOM     29  C   UNL A   1      41.694  20.934  26.596  1.00  0.00     0.060 A 
ATOM     30  C   UNL A   1      41.554  21.190  27.966  1.00  0.00     0.016 A 
ATOM     31  C   UNL A   1      42.305  21.869  25.758  1.00  0.00     0.016 A 
ATOM     32  C   UNL A   1      41.982  22.406  28.497  1.00  0.00     0.010 A 
ATOM     33  C   UNL A   1      42.726  23.094  26.293  1.00  0.00     0.010 A 
ATOM     34  C   UNL A   1      42.531  23.383  27.657  1.00  0.00    -0.014 A 
BRANCH  34  35
ATOM     35  C   UNL A   1      42.762  24.749  28.187  1.00  0.00     0.031 A 
ATOM     36  C   UNL A   1      44.157  25.163  28.570  1.00  0.00     0.074 A 
ATOM     37  C   UNL A   1      41.753  25.634  28.279  1.00  0.00     0.049 A 
ATOM     38  N   UNL A   1      44.585  26.305  29.045  1.00  0.00    -0.248 NA
ATOM     39  C   UNL A   1      45.213  24.153  28.389  1.00  0.00     0.031 C 
ATOM     40  C   UNL A   1      40.365  25.374  27.904  1.00  0.00     0.029 A 
ATOM     41  N   UNL A   1      41.747  26.934  28.719  1.00  0.00    -0.354 N 
ATOM     42  C   UNL A   1      45.954  26.155  29.218  1.00  0.00     0.074 A 
ATOM     43  C   UNL A   1      46.284  24.800  28.826  1.00  0.00     0.031 C 
ATOM     44  C   UNL A   1      39.638  26.480  28.135  1.00  0.00     0.029 A 
ATOM     45  C   UNL A   1      40.504  27.517  28.696  1.00  0.00     0.049 A 
ATOM     46  H   UNL A   1      42.557  27.405  29.022  1.00  0.00     0.167 HD
ATOM     47  C   UNL A   1      46.859  27.063  29.654  1.00  0.00     0.037 A 
ATOM     48  C   UNL A   1      40.109  28.741  29.095  1.00  0.00     0.037 A 
ATOM     49  C   UNL A   1      46.540  28.411  30.043  1.00  0.00     0.049 A 
ATOM     50  C   UNL A   1      41.122  29.709  29.644  1.00  0.00     0.074 A 
ATOM     51  C   UNL A   1      47.393  29.408  30.483  1.00  0.00     0.029 A 
ATOM     52  N   UNL A   1      45.262  28.948  30.047  1.00  0.00    -0.354 N 
ATOM     53  N   UNL A   1      42.418  29.562  29.782  1.00  0.00    -0.248 NA
ATOM     54  C   UNL A   1      40.617  31.016  30.093  1.00  0.00     0.031 C 
ATOM     55  C   UNL A   1      46.626  30.537  30.790  1.00  0.00     0.029 A 
ATOM     56  C   UNL A   1      45.301  30.254  30.503  1.00  0.00     0.049 A 
ATOM     57  H   UNL A   1      44.447  28.471  29.766  1.00  0.00     0.167 HD
ATOM     58  C   UNL A   1      42.883  30.760  30.310  1.00  0.00     0.074 A 
ATOM     59  C   UNL A   1      41.734  31.629  30.456  1.00  0.00     0.031 C 
ATOM     60  C   UNL A   1      44.151  31.109  30.641  1.00  0.00     0.037 A 
BRANCH  47  61
ATOM     61  C   UNL A   1      48.288  26.619  29.748  1.00  0.00     0.057 A 
ATOM     62  C   UNL A   1      48.780  25.958  30.882  1.00  0.00     0.134 A 
ATOM     63  C   UNL A   1      49.173  26.824  28.682  1.00  0.00     0.134 A 
ATOM     64  F   UNL A   1      47.986  25.743  31.941  1.00  0.00    -0.206 F 
ATOM     65  C   UNL A   1      50.108  25.534  30.958  1.00  0.00     0.040 A 
ATOM     66  C   UNL A   1      50.496  26.385  28.739  1.00  0.00     0.040 A 
ATOM     67  F   UNL A   1      48.762  27.447  27.568  1.00  0.00    -0.206 F 
ATOM     68  C   UNL A   1      50.968  25.743  29.881  1.00  0.00     0.006 A 
ENDBRANCH  47  61
BRANCH  48  69
ATOM     69  C   UNL A   1      38.678  29.125  29.003  1.00  0.00     0.057 A 
ATOM     70  C   UNL A   1      38.131  29.607  27.811  1.00  0.00     0.134 A 
ATOM     71  C   UNL A   1      37.833  29.043  30.117  1.00  0.00     0.134 A 
ATOM     72  F   UNL A   1      38.898  29.734  26.717  1.00  0.00    -0.206 F 
ATOM     73  C   UNL A   1      36.796  30.009  27.730  1.00  0.00     0.040 A 
ATOM     74  C   UNL A   1      36.492  29.419  30.045  1.00  0.00     0.040 A 
ATOM     75  F   UNL A   1      38.301  28.591  31.290  1.00  0.00    -0.206 F 
ATOM     76  C   UNL A   1      35.971  29.910  28.849  1.00  0.00     0.006 A 
ENDBRANCH  48  69
BRANCH  60  77
ATOM     77  C   UNL A   1      44.365  32.497  31.170  1.00  0.00     0.057 A 
ATOM     78  C   UNL A   1      44.344  32.774  32.542  1.00  0.00     0.134 A 
ATOM     79  C   UNL A   1      44.637  33.559  30.298  1.00  0.00     0.134 A 
ATOM     80  F   UNL A   1      44.079  31.801  33.428  1.00  0.00    -0.206 F 
ATOM     81  C   UNL A   1      44.567  34.064  33.029  1.00  0.00     0.040 A 
ATOM     82  C   UNL A   1      44.883  34.848  30.774  1.00  0.00     0.040 A 
ATOM     83  F   UNL A   1      44.678  33.359  28.973  1.00  0.00    -0.206 F 
ATOM     84  C   UNL A   1      44.843  35.104  32.142  1.00  0.00     0.006 A 
ENDBRANCH  60  77
ENDBRANCH  34  35
ENDBRANCH  27  29
ENDBRANCH  26  27
ENDBRANCH  25  26
ENDBRANCH  24  25
ENDBRANCH  23  24
ENDBRANCH   1  23
TORSDOF 19
ENDMDL
MODEL 3
REMARK VINA RESULT:      -8.1      5.348     10.345
REMARK SMILES CCC[C@@H](Oc1ccc(-c2ccccc2)cc1)C(=O)OCCOCCOC(=O)c1ccc(-c2c3nc(c(-c4c(F)cccc4F)c4ccc([nH]4)c(-c4c(F)cccc4F)c4nc(c(-c5c(F)cccc5F)c5ccc2[nH]5)C=C4)C=C3)cc1
REMARK SMILES IDX 22 1 21 2 20 3 18 4 19 5 4 6 3 7 2 8 1 9 5 10 6 11 7 12
REMARK SMILES IDX 17 13 8 14 16 15 9 16 10 17 11 18 15 19 12 20 14 21 13 22
REMARK SMILES IDX 23 23 24 24 25 25 26 26 27 27 28 28 29 29 30 30 82 31 31 32
REMARK SMILES IDX 81 33 32 34 33 35 34 36 75 37 35 38 80 39 74 40 76 41 36 42
REMARK SMILES IDX 79 43 73 44 72 45 37 47 63 48 46 49 62 50 47 51 50 52 61 53
REMARK SMILES IDX 77 54 48 55 49 56 60 58 78 59 51 60 38 61 39 62 44 63 40 64
REMARK SMILES IDX 41 65 43 66 45 67 42 68 64 69 65 70 70 71 66 72 67 73 69 74
REMARK SMILES IDX 71 75 68 76 52 77 53 78 58 79 54 80 55 81 57 82 59 83 56 84
REMARK H PARENT 76 46 50 57
REMARK Flexibility Score: inf
ROOT
ATOM      1  C   UNL A   1      35.637  22.539  25.024  1.00  0.00     0.202 C 
ENDROOT
BRANCH   1   2
ATOM      2  C   UNL A   1      35.203  23.949  24.611  1.00  0.00     0.261 C 
BRANCH   2   3
ATOM      3  O   UNL A   1      35.002  24.056  23.187  1.00  0.00    -0.461 OA
BRANCH   3   4
ATOM      4  C   UNL A   1      33.895  24.747  22.793  1.00  0.00     0.347 C 
ATOM      5  O   UNL A   1      33.829  25.447  21.788  1.00  0.00    -0.248 OA
BRANCH   4   6
ATOM      6  C   UNL A   1      32.715  24.574  23.750  1.00  0.00     0.282 C 
BRANCH   6   7
ATOM      7  C   UNL A   1      32.126  25.910  24.243  1.00  0.00     0.057 C 
BRANCH   7   8
ATOM      8  C   UNL A   1      33.144  26.882  24.863  1.00  0.00     0.001 C 
ATOM      9  C   UNL A   1      32.582  28.265  25.161  1.00  0.00     0.004 C 
ENDBRANCH   7   8
ENDBRANCH   6   7
BRANCH   6  10
ATOM     10  O   UNL A   1      31.722  23.807  23.044  1.00  0.00    -0.479 OA
BRANCH  10  11
ATOM     11  C   UNL A   1      31.870  22.474  23.308  1.00  0.00     0.120 A 
ATOM     12  C   UNL A   1      31.940  21.542  22.279  1.00  0.00     0.047 A 
ATOM     13  C   UNL A   1      31.980  22.075  24.633  1.00  0.00     0.047 A 
ATOM     14  C   UNL A   1      32.230  20.208  22.581  1.00  0.00     0.012 A 
ATOM     15  C   UNL A   1      32.301  20.750  24.925  1.00  0.00     0.012 A 
ATOM     16  C   UNL A   1      32.457  19.790  23.906  1.00  0.00    -0.018 A 
BRANCH  16  17
ATOM     17  C   UNL A   1      32.878  18.406  24.224  1.00  0.00    -0.018 A 
ATOM     18  C   UNL A   1      33.626  17.640  23.310  1.00  0.00     0.009 A 
ATOM     19  C   UNL A   1      32.579  17.816  25.465  1.00  0.00     0.009 A 
ATOM     20  C   UNL A   1      34.055  16.347  23.622  1.00  0.00     0.001 A 
ATOM     21  C   UNL A   1      33.016  16.527  25.784  1.00  0.00     0.001 A 
ATOM     22  C   UNL A   1      33.754  15.793  24.862  1.00  0.00     0.000 A 
ENDBRANCH  16  17
ENDBRANCH  10  11
ENDBRANCH   6  10
ENDBRANCH   4   6
ENDBRANCH   3   4
ENDBRANCH   2   3
ENDBRANCH   1   2
BRANCH   1  23
ATOM     23  O   UNL A   1      36.713  21.963  24.282  1.00  0.00    -0.374 OA
BRANCH  23  24
ATOM     24  C   UNL A   1      37.444  20.911  24.903  1.00  0.00     0.202 C 
BRANCH  24  25
ATOM     25  C   UNL A   1      38.811  21.290  25.491  1.00  0.00     0.261 C 
BRANCH  25  26
ATOM     26  O   UNL A   1      39.346  20.275  26.361  1.00  0.00    -0.460 OA
BRANCH  26  27
ATOM     27  C   UNL A   1      40.673  20.043  26.201  1.00  0.00     0.338 C 
ATOM     28  O   UNL A   1      41.198  19.095  25.643  1.00  0.00    -0.246 OA
BRANCH  27  29
ATOM     29  C   UNL A   1      41.463  21.196  26.673  1.00  0.00     0.060 A 
ATOM     30  C   UNL A   1      41.399  21.502  28.038  1.00  0.00     0.016 A 
ATOM     31  C   UNL A   1      42.152  22.030  25.791  1.00  0.00     0.016 A 
ATOM     32  C   UNL A   1      41.983  22.673  28.520  1.00  0.00     0.010 A 
ATOM     33  C   UNL A   1      42.730  23.210  26.276  1.00  0.00     0.010 A 
ATOM     34  C   UNL A   1      42.616  23.556  27.635  1.00  0.00    -0.014 A 
BRANCH  34  35
ATOM     35  C   UNL A   1      43.022  24.899  28.118  1.00  0.00     0.031 A 
ATOM     36  C   UNL A   1      41.968  25.951  28.335  1.00  0.00     0.074 A 
ATOM     37  C   UNL A   1      44.306  25.169  28.410  1.00  0.00     0.049 A 
ATOM     38  N   UNL A   1      42.097  27.183  28.758  1.00  0.00    -0.248 NA
ATOM     39  C   UNL A   1      40.580  25.558  28.041  1.00  0.00     0.031 C 
ATOM     40  C   UNL A   1      45.418  24.229  28.283  1.00  0.00     0.029 A 
ATOM     41  N   UNL A   1      44.890  26.320  28.878  1.00  0.00    -0.354 N 
ATOM     42  C   UNL A   1      40.814  27.712  28.782  1.00  0.00     0.074 A 
ATOM     43  C   UNL A   1      39.921  26.678  28.304  1.00  0.00     0.031 C 
ATOM     44  C   UNL A   1      46.552  24.843  28.658  1.00  0.00     0.029 A 
ATOM     45  C   UNL A   1      46.251  26.225  29.030  1.00  0.00     0.049 A 
ATOM     46  H   UNL A   1      44.380  27.137  29.085  1.00  0.00     0.167 HD
ATOM     47  C   UNL A   1      40.412  28.944  29.177  1.00  0.00     0.037 A 
ATOM     48  C   UNL A   1      47.151  27.151  29.410  1.00  0.00     0.037 A 
ATOM     49  C   UNL A   1      41.293  29.976  29.654  1.00  0.00     0.049 A 
ATOM     50  C   UNL A   1      46.688  28.536  29.774  1.00  0.00     0.074 A 
ATOM     51  C   UNL A   1      40.974  31.250  30.091  1.00  0.00     0.029 A 
ATOM     52  N   UNL A   1      42.670  29.853  29.751  1.00  0.00    -0.354 N 
ATOM     53  N   UNL A   1      45.469  29.017  29.815  1.00  0.00    -0.248 NA
ATOM     54  C   UNL A   1      47.728  29.508  30.147  1.00  0.00     0.031 C 
ATOM     55  C   UNL A   1      42.163  31.913  30.415  1.00  0.00     0.029 A 
ATOM     56  C   UNL A   1      43.217  31.037  30.218  1.00  0.00     0.049 A 
ATOM     57  H   UNL A   1      43.183  29.045  29.522  1.00  0.00     0.167 HD
ATOM     58  C   UNL A   1      45.593  30.335  30.237  1.00  0.00     0.074 A 
ATOM     59  C   UNL A   1      47.004  30.576  30.453  1.00  0.00     0.031 C 
ATOM     60  C   UNL A   1      44.623  31.262  30.431  1.00  0.00     0.037 A 
BRANCH  47  61
ATOM     61  C   UNL A   1      38.946  29.249  29.090  1.00  0.00     0.057 A 
ATOM     62  C   UNL A   1      38.329  29.560  27.871  1.00  0.00     0.134 A 
ATOM     63  C   UNL A   1      38.137  29.197  30.231  1.00  0.00     0.134 A 
ATOM     64  F   UNL A   1      39.053  29.637  26.744  1.00  0.00    -0.206 F 
ATOM     65  C   UNL A   1      36.962  29.828  27.794  1.00  0.00     0.040 A 
ATOM     66  C   UNL A   1      36.765  29.443  30.164  1.00  0.00     0.040 A 
ATOM     67  F   UNL A   1      38.666  28.901  31.428  1.00  0.00    -0.206 F 
ATOM     68  C   UNL A   1      36.175  29.764  28.943  1.00  0.00     0.006 A 
ENDBRANCH  47  61
BRANCH  48  69
ATOM     69  C   UNL A   1      48.595  26.808  29.456  1.00  0.00     0.057 A 
ATOM     70  C   UNL A   1      49.169  26.241  30.598  1.00  0.00     0.134 A 
ATOM     71  C   UNL A   1      49.436  27.064  28.367  1.00  0.00     0.134 A 
ATOM     72  F   UNL A   1      48.419  25.997  31.682  1.00  0.00    -0.206 F 
ATOM     73  C   UNL A   1      50.534  25.954  30.662  1.00  0.00     0.040 A 
ATOM     74  C   UNL A   1      50.797  26.762  28.408  1.00  0.00     0.040 A 
ATOM     75  F   UNL A   1      48.944  27.610  27.245  1.00  0.00    -0.206 F 
ATOM     76  C   UNL A   1      51.351  26.210  29.562  1.00  0.00     0.006 A 
ENDBRANCH  48  69
BRANCH  60  77
ATOM     77  C   UNL A   1      45.052  32.613  30.925  1.00  0.00     0.057 A 
ATOM     78  C   UNL A   1      45.351  33.658  30.043  1.00  0.00     0.134 A 
ATOM     79  C   UNL A   1      45.125  32.881  32.298  1.00  0.00     0.134 A 
ATOM     80  F   UNL A   1      45.310  33.462  28.717  1.00  0.00    -0.206 F 
ATOM     81  C   UNL A   1      45.728  34.919  30.510  1.00  0.00     0.040 A 
ATOM     82  C   UNL A   1      45.479  34.143  32.776  1.00  0.00     0.040 A 
ATOM     83  F   UNL A   1      44.844  31.924  33.194  1.00  0.00    -0.206 F 
ATOM     84  C   UNL A   1      45.786  35.165  31.881  1.00  0.00     0.006 A 
ENDBRANCH  60  77
ENDBRANCH  34  35
ENDBRANCH  27  29
ENDBRANCH  26  27
ENDBRANCH  25  26
ENDBRANCH  24  25
ENDBRANCH  23  24
ENDBRANCH   1  23
TORSDOF 19
ENDMDL
