MODEL 1
REMARK VINA RESULT:     -11.0      0.000      0.000
REMARK SMILES [NH3+][C@@H](Cc1c[nH]c2ccccc12)C(=O)N[C@@H](CS)C(=O)N[C@@H](CO)C(=O)OCCOCCOC(=O)c1ccc(-c2c3nc(c(-c4c(F)cccc4F)c4ccc([nH]4)c(-c4c(F)cccc4F)c4nc(c(-c5c(F)cccc5F)c5ccc2[nH]5)C=C4)C=C3)cc1
REMARK SMILES IDX 28 1 27 2 25 3 26 4 22 5 21 6 19 7 20 8 16 10 15 11 13 12
REMARK SMILES IDX 14 13 2 15 1 16 3 20 4 21 5 22 12 23 6 24 7 25 11 26 8 28
REMARK SMILES IDX 10 29 9 30 17 31 18 32 23 34 24 35 29 37 30 38 31 39 32 40
REMARK SMILES IDX 33 41 34 42 35 43 36 44 37 45 89 46 38 47 88 48 39 49 40 50
REMARK SMILES IDX 41 51 82 52 42 53 87 54 81 55 83 56 43 57 86 58 80 59 79 60
REMARK SMILES IDX 44 62 70 63 53 64 69 65 54 66 57 67 68 68 84 69 55 70 56 71
REMARK SMILES IDX 67 73 85 74 58 75 45 76 46 77 51 78 47 79 48 80 50 81 52 82
REMARK SMILES IDX 49 83 71 84 72 85 77 86 73 87 74 88 76 89 78 90 75 91 59 92
REMARK SMILES IDX 60 93 65 94 61 95 62 96 64 97 66 98 63 99
REMARK H PARENT 21 9 15 14 1 17 1 18 1 19 6 27 18 33 24 36 83 61 57 72
REMARK Flexibility Score: inf
ROOT
ATOM      1  C   UNL A   1      33.446  29.469  25.629  1.00  0.00     0.261 C 
ENDROOT
BRANCH   1   2
ATOM      2  O   UNL A   1      33.123  28.273  24.908  1.00  0.00    -0.462 OA
BRANCH   2   3
ATOM      3  C   UNL A   1      32.832  28.449  23.589  1.00  0.00     0.331 C 
ATOM      4  O   UNL A   1      33.599  28.934  22.766  1.00  0.00    -0.250 OA
BRANCH   3   5
ATOM      5  C   UNL A   1      31.413  27.982  23.255  1.00  0.00     0.218 C 
BRANCH   5   6
ATOM      6  N   UNL A   1      30.678  27.440  24.414  1.00  0.00    -0.339 N 
ATOM      7  C   UNL A   1      29.991  26.271  24.273  1.00  0.00     0.244 C 
ATOM      8  O   UNL A   1      28.835  26.341  23.853  1.00  0.00    -0.273 OA
ATOM      9  H   UNL A   1      30.683  27.916  25.276  1.00  0.00     0.164 HD
BRANCH   7  10
ATOM     10  C   UNL A   1      30.718  24.923  24.496  1.00  0.00     0.181 C 
BRANCH  10  11
ATOM     11  N   UNL A   1      30.016  24.177  25.528  1.00  0.00    -0.338 N 
ATOM     12  C   UNL A   1      30.545  23.374  26.498  1.00  0.00     0.279 C 
ATOM     13  O   UNL A   1      29.866  23.236  27.523  1.00  0.00    -0.268 OA
ATOM     14  H   UNL A   1      29.036  24.263  25.529  1.00  0.00     0.164 HD
BRANCH  12  15
ATOM     15  C   UNL A   1      31.880  22.593  26.333  1.00  0.00     0.275 C 
BRANCH  15  16
ATOM     16  N   UNL A   1      32.490  22.306  27.651  1.00  0.00    -0.347 N 
ATOM     17  H   UNL A   1      32.735  21.318  27.705  1.00  0.00     0.345 HD
ATOM     18  H   UNL A   1      31.825  22.532  28.391  1.00  0.00     0.345 HD
ATOM     19  H   UNL A   1      33.331  22.872  27.767  1.00  0.00     0.345 HD
ENDBRANCH  15  16
BRANCH  15  20
ATOM     20  C   UNL A   1      31.911  21.451  25.287  1.00  0.00     0.113 C 
BRANCH  20  21
ATOM     21  C   UNL A   1      33.191  20.672  25.103  1.00  0.00    -0.016 A 
ATOM     22  C   UNL A   1      34.471  21.028  25.496  1.00  0.00     0.087 A 
ATOM     23  C   UNL A   1      33.317  19.395  24.452  1.00  0.00     0.003 A 
ATOM     24  N   UNL A   1      35.312  19.974  25.251  1.00  0.00    -0.361 N 
ATOM     25  C   UNL A   1      34.627  18.952  24.643  1.00  0.00     0.046 A 
ATOM     26  C   UNL A   1      32.424  18.553  23.759  1.00  0.00     0.010 A 
ATOM     27  H   UNL A   1      36.270  19.953  25.478  1.00  0.00     0.166 HD
ATOM     28  C   UNL A   1      35.066  17.683  24.243  1.00  0.00     0.026 A 
ATOM     29  C   UNL A   1      32.852  17.293  23.325  1.00  0.00     0.001 A 
ATOM     30  C   UNL A   1      34.150  16.859  23.582  1.00  0.00     0.002 A 
ENDBRANCH  20  21
ENDBRANCH  15  20
ENDBRANCH  12  15
ENDBRANCH  10  11
BRANCH  10  31
ATOM     31  C   UNL A   1      31.168  24.101  23.285  1.00  0.00     0.101 C 
BRANCH  31  32
ATOM     32  S   UNL A   1      32.897  24.267  22.756  1.00  0.00    -0.177 SA
ATOM     33  H   UNL A   1      33.014  23.877  21.458  1.00  0.00     0.102 HD
ENDBRANCH  31  32
ENDBRANCH  10  31
ENDBRANCH   7  10
ENDBRANCH   5   6
BRANCH   5  34
ATOM     34  C   UNL A   1      30.651  29.155  22.622  1.00  0.00     0.193 C 
BRANCH  34  35
ATOM     35  O   UNL A   1      29.400  28.713  22.090  1.00  0.00    -0.394 OA
ATOM     36  H   UNL A   1      29.307  29.026  21.177  1.00  0.00     0.210 HD
ENDBRANCH  34  35
ENDBRANCH   5  34
ENDBRANCH   3   5
ENDBRANCH   2   3
ENDBRANCH   1   2
BRANCH   1  37
ATOM     37  C   UNL A   1      32.159  30.167  26.075  1.00  0.00     0.202 C 
BRANCH  37  38
ATOM     38  O   UNL A   1      32.267  31.014  27.222  1.00  0.00    -0.374 OA
BRANCH  38  39
ATOM     39  C   UNL A   1      31.755  32.338  27.102  1.00  0.00     0.202 C 
BRANCH  39  40
ATOM     40  C   UNL A   1      32.763  33.483  27.279  1.00  0.00     0.261 C 
BRANCH  40  41
ATOM     41  O   UNL A   1      32.314  34.489  28.198  1.00  0.00    -0.460 OA
BRANCH  41  42
ATOM     42  C   UNL A   1      33.303  35.192  28.801  1.00  0.00     0.338 C 
ATOM     43  O   UNL A   1      33.293  36.379  29.110  1.00  0.00    -0.246 OA
BRANCH  42  44
ATOM     44  C   UNL A   1      34.387  34.282  29.194  1.00  0.00     0.060 A 
ATOM     45  C   UNL A   1      34.078  33.229  30.064  1.00  0.00     0.016 A 
ATOM     46  C   UNL A   1      35.697  34.491  28.764  1.00  0.00     0.016 A 
ATOM     47  C   UNL A   1      35.085  32.376  30.513  1.00  0.00     0.010 A 
ATOM     48  C   UNL A   1      36.711  33.648  29.230  1.00  0.00     0.010 A 
ATOM     49  C   UNL A   1      36.412  32.598  30.118  1.00  0.00    -0.014 A 
BRANCH  49  50
ATOM     50  C   UNL A   1      37.505  31.795  30.712  1.00  0.00     0.031 A 
ATOM     51  C   UNL A   1      37.956  32.092  32.112  1.00  0.00     0.074 A 
ATOM     52  C   UNL A   1      38.085  30.809  30.005  1.00  0.00     0.049 A 
ATOM     53  N   UNL A   1      38.946  31.576  32.791  1.00  0.00    -0.248 NA
ATOM     54  C   UNL A   1      37.185  33.110  32.846  1.00  0.00     0.031 C 
ATOM     55  C   UNL A   1      37.699  30.397  28.656  1.00  0.00     0.029 A 
ATOM     56  N   UNL A   1      39.135  29.984  30.323  1.00  0.00    -0.354 N 
ATOM     57  C   UNL A   1      38.920  32.202  34.031  1.00  0.00     0.074 A 
ATOM     58  C   UNL A   1      37.833  33.156  34.002  1.00  0.00     0.031 C 
ATOM     59  C   UNL A   1      38.517  29.408  28.254  1.00  0.00     0.029 A 
ATOM     60  C   UNL A   1      39.503  29.147  29.299  1.00  0.00     0.049 A 
ATOM     61  H   UNL A   1      39.581  29.993  31.201  1.00  0.00     0.167 HD
ATOM     62  C   UNL A   1      39.729  31.996  35.096  1.00  0.00     0.037 A 
ATOM     63  C   UNL A   1      40.540  28.293  29.207  1.00  0.00     0.037 A 
ATOM     64  C   UNL A   1      40.814  31.050  35.117  1.00  0.00     0.049 A 
ATOM     65  C   UNL A   1      41.490  28.158  30.369  1.00  0.00     0.074 A 
ATOM     66  C   UNL A   1      41.680  30.754  36.155  1.00  0.00     0.029 A 
ATOM     67  N   UNL A   1      41.186  30.254  34.045  1.00  0.00    -0.354 N 
ATOM     68  N   UNL A   1      41.447  28.740  31.543  1.00  0.00    -0.248 NA
ATOM     69  C   UNL A   1      42.636  27.256  30.188  1.00  0.00     0.031 C 
ATOM     70  C   UNL A   1      42.608  29.814  35.694  1.00  0.00     0.029 A 
ATOM     71  C   UNL A   1      42.291  29.492  34.384  1.00  0.00     0.049 A 
ATOM     72  H   UNL A   1      40.732  30.234  33.171  1.00  0.00     0.167 HD
ATOM     73  C   UNL A   1      42.545  28.262  32.246  1.00  0.00     0.074 A 
ATOM     74  C   UNL A   1      43.229  27.330  31.373  1.00  0.00     0.031 C 
ATOM     75  C   UNL A   1      42.955  28.568  33.501  1.00  0.00     0.037 A 
BRANCH  62  76
ATOM     76  C   UNL A   1      39.485  32.822  36.322  1.00  0.00     0.057 A 
ATOM     77  C   UNL A   1      38.608  32.405  37.331  1.00  0.00     0.134 A 
ATOM     78  C   UNL A   1      40.171  34.028  36.518  1.00  0.00     0.134 A 
ATOM     79  F   UNL A   1      37.911  31.267  37.198  1.00  0.00    -0.206 F 
ATOM     80  C   UNL A   1      38.410  33.166  38.484  1.00  0.00     0.040 A 
ATOM     81  C   UNL A   1      39.998  34.786  37.677  1.00  0.00     0.040 A 
ATOM     82  F   UNL A   1      41.028  34.482  35.591  1.00  0.00    -0.206 F 
ATOM     83  C   UNL A   1      39.112  34.356  38.663  1.00  0.00     0.006 A 
ENDBRANCH  62  76
BRANCH  63  84
ATOM     84  C   UNL A   1      40.767  27.522  27.957  1.00  0.00     0.057 A 
ATOM     85  C   UNL A   1      40.212  26.252  27.778  1.00  0.00     0.134 A 
ATOM     86  C   UNL A   1      41.570  28.027  26.927  1.00  0.00     0.134 A 
ATOM     87  F   UNL A   1      39.456  25.703  28.741  1.00  0.00    -0.206 F 
ATOM     88  C   UNL A   1      40.460  25.502  26.627  1.00  0.00     0.040 A 
ATOM     89  C   UNL A   1      41.805  27.300  25.760  1.00  0.00     0.040 A 
ATOM     90  F   UNL A   1      42.135  29.239  27.040  1.00  0.00    -0.206 F 
ATOM     91  C   UNL A   1      41.255  26.029  25.611  1.00  0.00     0.006 A 
ENDBRANCH  63  84
BRANCH  75  92
ATOM     92  C   UNL A   1      44.185  27.878  34.012  1.00  0.00     0.057 A 
ATOM     93  C   UNL A   1      44.132  26.588  34.553  1.00  0.00     0.134 A 
ATOM     94  C   UNL A   1      45.441  28.488  33.911  1.00  0.00     0.134 A 
ATOM     95  F   UNL A   1      42.957  25.955  34.688  1.00  0.00    -0.206 F 
ATOM     96  C   UNL A   1      45.286  25.933  34.988  1.00  0.00     0.040 A 
ATOM     97  C   UNL A   1      46.605  27.835  34.321  1.00  0.00     0.040 A 
ATOM     98  F   UNL A   1      45.561  29.721  33.394  1.00  0.00    -0.206 F 
ATOM     99  C   UNL A   1      46.528  26.554  34.865  1.00  0.00     0.006 A 
ENDBRANCH  75  92
ENDBRANCH  49  50
ENDBRANCH  42  44
ENDBRANCH  41  42
ENDBRANCH  40  41
ENDBRANCH  39  40
ENDBRANCH  38  39
ENDBRANCH  37  38
ENDBRANCH   1  37
TORSDOF 25
ENDMDL
MODEL 2
REMARK VINA RESULT:     -10.9      0.764      2.128
REMARK SMILES [NH3+][C@@H](Cc1c[nH]c2ccccc12)C(=O)N[C@@H](CS)C(=O)N[C@@H](CO)C(=O)OCCOCCOC(=O)c1ccc(-c2c3nc(c(-c4c(F)cccc4F)c4ccc([nH]4)c(-c4c(F)cccc4F)c4nc(c(-c5c(F)cccc5F)c5ccc2[nH]5)C=C4)C=C3)cc1
REMARK SMILES IDX 28 1 27 2 25 3 26 4 22 5 21 6 19 7 20 8 16 10 15 11 13 12
REMARK SMILES IDX 14 13 2 15 1 16 3 20 4 21 5 22 12 23 6 24 7 25 11 26 8 28
REMARK SMILES IDX 10 29 9 30 17 31 18 32 23 34 24 35 29 37 30 38 31 39 32 40
REMARK SMILES IDX 33 41 34 42 35 43 36 44 37 45 89 46 38 47 88 48 39 49 40 50
REMARK SMILES IDX 41 51 82 52 42 53 87 54 81 55 83 56 43 57 86 58 80 59 79 60
REMARK SMILES IDX 44 62 70 63 53 64 69 65 54 66 57 67 68 68 84 69 55 70 56 71
REMARK SMILES IDX 67 73 85 74 58 75 45 76 46 77 51 78 47 79 48 80 50 81 52 82
REMARK SMILES IDX 49 83 71 84 72 85 77 86 73 87 74 88 76 89 78 90 75 91 59 92
REMARK SMILES IDX 60 93 65 94 61 95 62 96 64 97 66 98 63 99
REMARK H PARENT 21 9 15 14 1 17 1 18 1 19 6 27 18 33 24 36 83 61 57 72
REMARK Flexibility Score: inf
ROOT
ATOM      1  C   UNL A   1      33.514  29.417  25.746  1.00  0.00     0.261 C 
ENDROOT
BRANCH   1   2
ATOM      2  O   UNL A   1      33.204  28.242  24.985  1.00  0.00    -0.462 OA
BRANCH   2   3
ATOM      3  C   UNL A   1      32.902  28.460  23.676  1.00  0.00     0.331 C 
ATOM      4  O   UNL A   1      33.673  28.941  22.854  1.00  0.00    -0.250 OA
BRANCH   3   5
ATOM      5  C   UNL A   1      31.465  28.046  23.350  1.00  0.00     0.218 C 
BRANCH   5   6
ATOM      6  N   UNL A   1      30.744  27.452  24.493  1.00  0.00    -0.339 N 
ATOM      7  C   UNL A   1      30.136  26.243  24.334  1.00  0.00     0.244 C 
ATOM      8  O   UNL A   1      28.986  26.242  23.893  1.00  0.00    -0.273 OA
ATOM      9  H   UNL A   1      30.703  27.923  25.357  1.00  0.00     0.164 HD
BRANCH   7  10
ATOM     10  C   UNL A   1      30.943  24.942  24.564  1.00  0.00     0.181 C 
BRANCH  10  11
ATOM     11  N   UNL A   1      30.208  24.092  25.487  1.00  0.00    -0.338 N 
ATOM     12  C   UNL A   1      30.699  23.338  26.515  1.00  0.00     0.279 C 
ATOM     13  O   UNL A   1      29.913  23.095  27.438  1.00  0.00    -0.268 OA
ATOM     14  H   UNL A   1      29.234  24.057  25.356  1.00  0.00     0.164 HD
BRANCH  12  15
ATOM     15  C   UNL A   1      32.131  22.731  26.527  1.00  0.00     0.275 C 
BRANCH  15  16
ATOM     16  N   UNL A   1      32.519  22.321  27.896  1.00  0.00    -0.347 N 
ATOM     17  H   UNL A   1      33.338  21.714  27.850  1.00  0.00     0.345 HD
ATOM     18  H   UNL A   1      31.747  21.817  28.332  1.00  0.00     0.345 HD
ATOM     19  H   UNL A   1      32.740  23.149  28.450  1.00  0.00     0.345 HD
ENDBRANCH  15  16
BRANCH  15  20
ATOM     20  C   UNL A   1      32.503  21.762  25.377  1.00  0.00     0.113 C 
BRANCH  20  21
ATOM     21  C   UNL A   1      33.904  21.205  25.323  1.00  0.00    -0.016 A 
ATOM     22  C   UNL A   1      34.295  19.898  25.078  1.00  0.00     0.087 A 
ATOM     23  C   UNL A   1      35.118  21.946  25.542  1.00  0.00     0.003 A 
ATOM     24  N   UNL A   1      35.662  19.860  24.991  1.00  0.00    -0.361 N 
ATOM     25  C   UNL A   1      36.188  21.104  25.238  1.00  0.00     0.046 A 
ATOM     26  C   UNL A   1      35.403  23.273  25.925  1.00  0.00     0.010 A 
ATOM     27  H   UNL A   1      36.191  19.056  24.781  1.00  0.00     0.166 HD
ATOM     28  C   UNL A   1      37.520  21.540  25.226  1.00  0.00     0.026 A 
ATOM     29  C   UNL A   1      36.729  23.719  25.947  1.00  0.00     0.001 A 
ATOM     30  C   UNL A   1      37.769  22.868  25.583  1.00  0.00     0.002 A 
ENDBRANCH  20  21
ENDBRANCH  15  20
ENDBRANCH  12  15
ENDBRANCH  10  11
BRANCH  10  31
ATOM     31  C   UNL A   1      31.568  24.221  23.366  1.00  0.00     0.101 C 
BRANCH  31  32
ATOM     32  S   UNL A   1      33.297  24.607  22.966  1.00  0.00    -0.177 SA
ATOM     33  H   UNL A   1      33.784  23.670  22.109  1.00  0.00     0.102 HD
ENDBRANCH  31  32
ENDBRANCH  10  31
ENDBRANCH   7  10
ENDBRANCH   5   6
BRANCH   5  34
ATOM     34  C   UNL A   1      30.716  29.272  22.807  1.00  0.00     0.193 C 
BRANCH  34  35
ATOM     35  O   UNL A   1      30.008  28.940  21.611  1.00  0.00    -0.394 OA
ATOM     36  H   UNL A   1      29.696  29.753  21.184  1.00  0.00     0.210 HD
ENDBRANCH  34  35
ENDBRANCH   5  34
ENDBRANCH   3   5
ENDBRANCH   2   3
ENDBRANCH   1   2
BRANCH   1  37
ATOM     37  C   UNL A   1      32.220  30.134  26.140  1.00  0.00     0.202 C 
BRANCH  37  38
ATOM     38  O   UNL A   1      32.302  31.004  27.272  1.00  0.00    -0.374 OA
BRANCH  38  39
ATOM     39  C   UNL A   1      31.844  32.342  27.097  1.00  0.00     0.202 C 
BRANCH  39  40
ATOM     40  C   UNL A   1      32.865  33.457  27.364  1.00  0.00     0.261 C 
BRANCH  40  41
ATOM     41  O   UNL A   1      32.358  34.486  28.227  1.00  0.00    -0.460 OA
BRANCH  41  42
ATOM     42  C   UNL A   1      33.304  35.177  28.907  1.00  0.00     0.338 C 
ATOM     43  O   UNL A   1      33.256  36.345  29.275  1.00  0.00    -0.246 OA
BRANCH  42  44
ATOM     44  C   UNL A   1      34.391  34.269  29.300  1.00  0.00     0.060 A 
ATOM     45  C   UNL A   1      34.092  33.237  30.199  1.00  0.00     0.016 A 
ATOM     46  C   UNL A   1      35.694  34.461  28.842  1.00  0.00     0.016 A 
ATOM     47  C   UNL A   1      35.103  32.389  30.648  1.00  0.00     0.010 A 
ATOM     48  C   UNL A   1      36.712  33.623  29.308  1.00  0.00     0.010 A 
ATOM     49  C   UNL A   1      36.423  32.594  30.224  1.00  0.00    -0.014 A 
BRANCH  49  50
ATOM     50  C   UNL A   1      37.522  31.798  30.816  1.00  0.00     0.031 A 
ATOM     51  C   UNL A   1      37.990  32.114  32.207  1.00  0.00     0.074 A 
ATOM     52  C   UNL A   1      38.094  30.803  30.115  1.00  0.00     0.049 A 
ATOM     53  N   UNL A   1      38.987  31.605  32.881  1.00  0.00    -0.248 NA
ATOM     54  C   UNL A   1      37.229  33.142  32.936  1.00  0.00     0.031 C 
ATOM     55  C   UNL A   1      37.692  30.373  28.777  1.00  0.00     0.029 A 
ATOM     56  N   UNL A   1      39.147  29.981  30.432  1.00  0.00    -0.354 N 
ATOM     57  C   UNL A   1      38.977  32.248  34.112  1.00  0.00     0.074 A 
ATOM     58  C   UNL A   1      37.890  33.202  34.084  1.00  0.00     0.031 C 
ATOM     59  C   UNL A   1      38.504  29.378  28.378  1.00  0.00     0.029 A 
ATOM     60  C   UNL A   1      39.502  29.130  29.414  1.00  0.00     0.049 A 
ATOM     61  H   UNL A   1      39.603  30.001  31.304  1.00  0.00     0.167 HD
ATOM     62  C   UNL A   1      39.799  32.055  35.170  1.00  0.00     0.037 A 
ATOM     63  C   UNL A   1      40.537  28.274  29.322  1.00  0.00     0.037 A 
ATOM     64  C   UNL A   1      40.883  31.108  35.191  1.00  0.00     0.049 A 
ATOM     65  C   UNL A   1      41.500  28.154  30.474  1.00  0.00     0.074 A 
ATOM     66  C   UNL A   1      41.761  30.825  36.223  1.00  0.00     0.029 A 
ATOM     67  N   UNL A   1      41.241  30.298  34.125  1.00  0.00    -0.354 N 
ATOM     68  N   UNL A   1      41.472  28.751  31.641  1.00  0.00    -0.248 NA
ATOM     69  C   UNL A   1      42.644  27.248  30.292  1.00  0.00     0.031 C 
ATOM     70  C   UNL A   1      42.682  29.878  35.763  1.00  0.00     0.029 A 
ATOM     71  C   UNL A   1      42.350  29.539  34.461  1.00  0.00     0.049 A 
ATOM     72  H   UNL A   1      40.778  30.267  33.257  1.00  0.00     0.167 HD
ATOM     73  C   UNL A   1      42.578  28.281  32.337  1.00  0.00     0.074 A 
ATOM     74  C   UNL A   1      43.250  27.337  31.468  1.00  0.00     0.031 C 
ATOM     75  C   UNL A   1      43.003  28.603  33.583  1.00  0.00     0.037 A 
BRANCH  62  76
ATOM     76  C   UNL A   1      39.570  32.898  36.388  1.00  0.00     0.057 A 
ATOM     77  C   UNL A   1      40.228  34.120  36.575  1.00  0.00     0.134 A 
ATOM     78  C   UNL A   1      38.645  32.506  37.364  1.00  0.00     0.134 A 
ATOM     79  F   UNL A   1      41.136  34.545  35.684  1.00  0.00    -0.206 F 
ATOM     80  C   UNL A   1      39.987  34.914  37.697  1.00  0.00     0.040 A 
ATOM     81  C   UNL A   1      38.378  33.302  38.479  1.00  0.00     0.040 A 
ATOM     82  F   UNL A   1      37.977  31.348  37.243  1.00  0.00    -0.206 F 
ATOM     83  C   UNL A   1      39.053  34.508  38.649  1.00  0.00     0.006 A 
ENDBRANCH  62  76
BRANCH  63  84
ATOM     84  C   UNL A   1      40.749  27.487  28.080  1.00  0.00     0.057 A 
ATOM     85  C   UNL A   1      41.497  28.000  27.015  1.00  0.00     0.134 A 
ATOM     86  C   UNL A   1      40.182  26.217  27.917  1.00  0.00     0.134 A 
ATOM     87  F   UNL A   1      42.043  29.222  27.101  1.00  0.00    -0.206 F 
ATOM     88  C   UNL A   1      41.660  27.287  25.826  1.00  0.00     0.040 A 
ATOM     89  C   UNL A   1      40.358  25.482  26.744  1.00  0.00     0.040 A 
ATOM     90  F   UNL A   1      39.449  25.671  28.899  1.00  0.00    -0.206 F 
ATOM     91  C   UNL A   1      41.093  26.021  25.691  1.00  0.00     0.006 A 
ENDBRANCH  63  84
BRANCH  75  92
ATOM     92  C   UNL A   1      44.238  27.919  34.089  1.00  0.00     0.057 A 
ATOM     93  C   UNL A   1      45.503  28.509  33.974  1.00  0.00     0.134 A 
ATOM     94  C   UNL A   1      44.154  26.685  34.745  1.00  0.00     0.134 A 
ATOM     95  F   UNL A   1      45.650  29.684  33.345  1.00  0.00    -0.206 F 
ATOM     96  C   UNL A   1      46.644  27.887  34.485  1.00  0.00     0.040 A 
ATOM     97  C   UNL A   1      45.284  26.065  35.280  1.00  0.00     0.040 A 
ATOM     98  F   UNL A   1      42.970  26.071  34.894  1.00  0.00    -0.206 F 
ATOM     99  C   UNL A   1      46.535  26.666  35.147  1.00  0.00     0.006 A 
ENDBRANCH  75  92
ENDBRANCH  49  50
ENDBRANCH  42  44
ENDBRANCH  41  42
ENDBRANCH  40  41
ENDBRANCH  39  40
ENDBRANCH  38  39
ENDBRANCH  37  38
ENDBRANCH   1  37
TORSDOF 25
ENDMDL
MODEL 3
REMARK VINA RESULT:     -10.8      3.215      8.865
REMARK SMILES [NH3+][C@@H](Cc1c[nH]c2ccccc12)C(=O)N[C@@H](CS)C(=O)N[C@@H](CO)C(=O)OCCOCCOC(=O)c1ccc(-c2c3nc(c(-c4c(F)cccc4F)c4ccc([nH]4)c(-c4c(F)cccc4F)c4nc(c(-c5c(F)cccc5F)c5ccc2[nH]5)C=C4)C=C3)cc1
REMARK SMILES IDX 28 1 27 2 25 3 26 4 22 5 21 6 19 7 20 8 16 10 15 11 13 12
REMARK SMILES IDX 14 13 2 15 1 16 3 20 4 21 5 22 12 23 6 24 7 25 11 26 8 28
REMARK SMILES IDX 10 29 9 30 17 31 18 32 23 34 24 35 29 37 30 38 31 39 32 40
REMARK SMILES IDX 33 41 34 42 35 43 36 44 37 45 89 46 38 47 88 48 39 49 40 50
REMARK SMILES IDX 41 51 82 52 42 53 87 54 81 55 83 56 43 57 86 58 80 59 79 60
REMARK SMILES IDX 44 62 70 63 53 64 69 65 54 66 57 67 68 68 84 69 55 70 56 71
REMARK SMILES IDX 67 73 85 74 58 75 45 76 46 77 51 78 47 79 48 80 50 81 52 82
REMARK SMILES IDX 49 83 71 84 72 85 77 86 73 87 74 88 76 89 78 90 75 91 59 92
REMARK SMILES IDX 60 93 65 94 61 95 62 96 64 97 66 98 63 99
REMARK H PARENT 21 9 15 14 1 17 1 18 1 19 6 27 18 33 24 36 83 61 57 72
REMARK Flexibility Score: inf
ROOT
ATOM      1  C   UNL A   1      37.087  22.231  25.613  1.00  0.00     0.261 C 
ENDROOT
BRANCH   1   2
ATOM      2  O   UNL A   1      36.083  21.216  25.484  1.00  0.00    -0.462 OA
BRANCH   2   3
ATOM      3  C   UNL A   1      34.899  21.486  26.100  1.00  0.00     0.331 C 
ATOM      4  O   UNL A   1      34.789  21.852  27.264  1.00  0.00    -0.250 OA
BRANCH   3   5
ATOM      5  C   UNL A   1      33.709  21.257  25.165  1.00  0.00     0.218 C 
BRANCH   5   6
ATOM      6  N   UNL A   1      33.977  21.627  23.762  1.00  0.00    -0.339 N 
ATOM      7  C   UNL A   1      32.984  22.207  23.030  1.00  0.00     0.244 C 
ATOM      8  O   UNL A   1      32.196  21.457  22.451  1.00  0.00    -0.273 OA
ATOM      9  H   UNL A   1      34.859  21.456  23.360  1.00  0.00     0.164 HD
BRANCH   7  10
ATOM     10  C   UNL A   1      32.796  23.742  23.074  1.00  0.00     0.181 C 
BRANCH  10  11
ATOM     11  N   UNL A   1      32.576  24.227  21.721  1.00  0.00    -0.338 N 
ATOM     12  C   UNL A   1      32.702  25.501  21.248  1.00  0.00     0.279 C 
ATOM     13  O   UNL A   1      32.943  25.615  20.041  1.00  0.00    -0.268 OA
ATOM     14  H   UNL A   1      32.303  23.549  21.061  1.00  0.00     0.164 HD
BRANCH  12  15
ATOM     15  C   UNL A   1      32.484  26.768  22.125  1.00  0.00     0.275 C 
BRANCH  15  16
ATOM     16  N   UNL A   1      33.494  27.805  21.815  1.00  0.00    -0.347 N 
ATOM     17  H   UNL A   1      33.691  28.351  22.654  1.00  0.00     0.345 HD
ATOM     18  H   UNL A   1      33.137  28.421  21.084  1.00  0.00     0.345 HD
ATOM     19  H   UNL A   1      34.353  27.358  21.491  1.00  0.00     0.345 HD
ENDBRANCH  15  16
BRANCH  15  20
ATOM     20  C   UNL A   1      31.026  27.252  22.324  1.00  0.00     0.113 C 
BRANCH  20  21
ATOM     21  C   UNL A   1      30.778  28.466  23.186  1.00  0.00    -0.016 A 
ATOM     22  C   UNL A   1      31.555  28.947  24.227  1.00  0.00     0.087 A 
ATOM     23  C   UNL A   1      29.649  29.353  23.091  1.00  0.00     0.003 A 
ATOM     24  N   UNL A   1      31.032  30.142  24.647  1.00  0.00    -0.361 N 
ATOM     25  C   UNL A   1      29.885  30.429  23.948  1.00  0.00     0.046 A 
ATOM     26  C   UNL A   1      28.469  29.363  22.319  1.00  0.00     0.010 A 
ATOM     27  H   UNL A   1      31.421  30.713  25.348  1.00  0.00     0.166 HD
ATOM     28  C   UNL A   1      29.042  31.546  24.016  1.00  0.00     0.026 A 
ATOM     29  C   UNL A   1      27.599  30.457  22.395  1.00  0.00     0.001 A 
ATOM     30  C   UNL A   1      27.894  31.541  23.218  1.00  0.00     0.002 A 
ENDBRANCH  20  21
ENDBRANCH  15  20
ENDBRANCH  12  15
ENDBRANCH  10  11
BRANCH  10  31
ATOM     31  C   UNL A   1      31.892  24.360  24.146  1.00  0.00     0.101 C 
BRANCH  31  32
ATOM     32  S   UNL A   1      32.646  24.753  25.750  1.00  0.00    -0.177 SA
ATOM     33  H   UNL A   1      33.543  25.764  25.595  1.00  0.00     0.102 HD
ENDBRANCH  31  32
ENDBRANCH  10  31
ENDBRANCH   7  10
ENDBRANCH   5   6
BRANCH   5  34
ATOM     34  C   UNL A   1      33.280  19.787  25.273  1.00  0.00     0.193 C 
BRANCH  34  35
ATOM     35  O   UNL A   1      31.854  19.679  25.283  1.00  0.00    -0.394 OA
ATOM     36  H   UNL A   1      31.600  18.745  25.220  1.00  0.00     0.210 HD
ENDBRANCH  34  35
ENDBRANCH   5  34
ENDBRANCH   3   5
ENDBRANCH   2   3
ENDBRANCH   1   2
BRANCH   1  37
ATOM     37  C   UNL A   1      38.466  21.581  25.745  1.00  0.00     0.202 C 
BRANCH  37  38
ATOM     38  O   UNL A   1      39.515  22.421  26.233  1.00  0.00    -0.374 OA
BRANCH  38  39
ATOM     39  C   UNL A   1      40.830  21.874  26.252  1.00  0.00     0.202 C 
BRANCH  39  40
ATOM     40  C   UNL A   1      41.965  22.798  25.790  1.00  0.00     0.261 C 
BRANCH  40  41
ATOM     41  O   UNL A   1      42.231  23.864  26.714  1.00  0.00    -0.460 OA
BRANCH  41  42
ATOM     42  C   UNL A   1      42.141  25.110  26.188  1.00  0.00     0.338 C 
ATOM     43  O   UNL A   1      42.267  25.434  25.013  1.00  0.00    -0.246 OA
BRANCH  42  44
ATOM     44  C   UNL A   1      41.704  26.053  27.226  1.00  0.00     0.060 A 
ATOM     45  C   UNL A   1      42.370  27.281  27.321  1.00  0.00     0.016 A 
ATOM     46  C   UNL A   1      40.697  25.717  28.130  1.00  0.00     0.016 A 
ATOM     47  C   UNL A   1      42.033  28.183  28.329  1.00  0.00     0.010 A 
ATOM     48  C   UNL A   1      40.372  26.613  29.154  1.00  0.00     0.010 A 
ATOM     49  C   UNL A   1      41.048  27.842  29.266  1.00  0.00    -0.014 A 
BRANCH  49  50
ATOM     50  C   UNL A   1      40.794  28.725  30.427  1.00  0.00     0.031 A 
ATOM     51  C   UNL A   1      39.718  29.768  30.333  1.00  0.00     0.074 A 
ATOM     52  C   UNL A   1      41.517  28.593  31.553  1.00  0.00     0.049 A 
ATOM     53  N   UNL A   1      39.388  30.697  31.191  1.00  0.00    -0.248 NA
ATOM     54  C   UNL A   1      38.904  29.760  29.106  1.00  0.00     0.031 C 
ATOM     55  C   UNL A   1      42.553  27.586  31.778  1.00  0.00     0.029 A 
ATOM     56  N   UNL A   1      41.497  29.322  32.715  1.00  0.00    -0.354 N 
ATOM     57  C   UNL A   1      38.331  31.387  30.612  1.00  0.00     0.074 A 
ATOM     58  C   UNL A   1      38.090  30.785  29.318  1.00  0.00     0.031 C 
ATOM     59  C   UNL A   1      43.085  27.775  32.998  1.00  0.00     0.029 A 
ATOM     60  C   UNL A   1      42.454  28.935  33.621  1.00  0.00     0.049 A 
ATOM     61  H   UNL A   1      40.858  30.052  32.883  1.00  0.00     0.167 HD
ATOM     62  C   UNL A   1      37.624  32.424  31.117  1.00  0.00     0.037 A 
ATOM     63  C   UNL A   1      42.801  29.481  34.802  1.00  0.00     0.037 A 
ATOM     64  C   UNL A   1      37.872  33.023  32.402  1.00  0.00     0.049 A 
ATOM     65  C   UNL A   1      42.068  30.701  35.294  1.00  0.00     0.074 A 
ATOM     66  C   UNL A   1      37.198  34.067  33.012  1.00  0.00     0.029 A 
ATOM     67  N   UNL A   1      38.880  32.635  33.270  1.00  0.00    -0.354 N 
ATOM     68  N   UNL A   1      41.057  31.334  34.749  1.00  0.00    -0.248 NA
ATOM     69  C   UNL A   1      42.530  31.288  36.561  1.00  0.00     0.031 C 
ATOM     70  C   UNL A   1      37.832  34.343  34.228  1.00  0.00     0.029 A 
ATOM     71  C   UNL A   1      38.870  33.441  34.396  1.00  0.00     0.049 A 
ATOM     72  H   UNL A   1      39.511  31.896  33.110  1.00  0.00     0.167 HD
ATOM     73  C   UNL A   1      40.751  32.378  35.613  1.00  0.00     0.074 A 
ATOM     74  C   UNL A   1      41.673  32.286  36.726  1.00  0.00     0.031 C 
ATOM     75  C   UNL A   1      39.795  33.332  35.495  1.00  0.00     0.037 A 
BRANCH  62  76
ATOM     76  C   UNL A   1      36.526  32.993  30.270  1.00  0.00     0.057 A 
ATOM     77  C   UNL A   1      36.787  33.899  29.234  1.00  0.00     0.134 A 
ATOM     78  C   UNL A   1      35.197  32.594  30.462  1.00  0.00     0.134 A 
ATOM     79  F   UNL A   1      38.036  34.331  29.007  1.00  0.00    -0.206 F 
ATOM     80  C   UNL A   1      35.762  34.400  28.429  1.00  0.00     0.040 A 
ATOM     81  C   UNL A   1      34.168  33.071  29.649  1.00  0.00     0.040 A 
ATOM     82  F   UNL A   1      34.881  31.726  31.435  1.00  0.00    -0.206 F 
ATOM     83  C   UNL A   1      34.449  33.979  28.632  1.00  0.00     0.006 A 
ENDBRANCH  62  76
BRANCH  63  84
ATOM     84  C   UNL A   1      43.922  28.908  35.590  1.00  0.00     0.057 A 
ATOM     85  C   UNL A   1      43.702  27.913  36.548  1.00  0.00     0.134 A 
ATOM     86  C   UNL A   1      45.236  29.365  35.425  1.00  0.00     0.134 A 
ATOM     87  F   UNL A   1      42.461  27.455  36.771  1.00  0.00    -0.206 F 
ATOM     88  C   UNL A   1      44.743  27.404  37.326  1.00  0.00     0.040 A 
ATOM     89  C   UNL A   1      46.290  28.847  36.177  1.00  0.00     0.040 A 
ATOM     90  F   UNL A   1      45.513  30.320  34.526  1.00  0.00    -0.206 F 
ATOM     91  C   UNL A   1      46.044  27.869  37.138  1.00  0.00     0.006 A 
ENDBRANCH  63  84
BRANCH  75  92
ATOM     92  C   UNL A   1      39.684  34.338  36.602  1.00  0.00     0.057 A 
ATOM     93  C   UNL A   1      38.988  34.055  37.783  1.00  0.00     0.134 A 
ATOM     94  C   UNL A   1      40.325  35.579  36.507  1.00  0.00     0.134 A 
ATOM     95  F   UNL A   1      38.343  32.888  37.929  1.00  0.00    -0.206 F 
ATOM     96  C   UNL A   1      38.923  34.979  38.828  1.00  0.00     0.040 A 
ATOM     97  C   UNL A   1      40.287  36.502  37.553  1.00  0.00     0.040 A 
ATOM     98  F   UNL A   1      41.014  35.908  35.403  1.00  0.00    -0.206 F 
ATOM     99  C   UNL A   1      39.581  36.203  38.718  1.00  0.00     0.006 A 
ENDBRANCH  75  92
ENDBRANCH  49  50
ENDBRANCH  42  44
ENDBRANCH  41  42
ENDBRANCH  40  41
ENDBRANCH  39  40
ENDBRANCH  38  39
ENDBRANCH  37  38
ENDBRANCH   1  37
TORSDOF 25
ENDMDL
