MODEL 1
REMARK VINA RESULT:     -11.4      0.000      0.000
REMARK SMILES Cc1cc2c(c(C)c1Cl)C=C(C(=O)OCCOCCOC(=O)c1ccc(-c3c4nc(c(-c5c(F)cccc5F)c5ccc([nH]5)c(-c5c(F)cccc5F)c5nc(c(-c6c(F)cccc6F)c6ccc3[nH]6)C=C5)C=C4)cc1)[C@@H](C(F)(F)F)O2
REMARK SMILES IDX 18 1 17 2 16 3 15 4 14 5 12 6 13 7 11 8 1 9 2 10 3 11 8 12
REMARK SMILES IDX 4 13 6 14 9 15 5 16 82 17 7 18 10 19 77 20 78 21 79 22 80 23
REMARK SMILES IDX 81 24 19 25 20 26 21 27 22 28 23 29 24 30 76 31 25 32 75 33
REMARK SMILES IDX 26 34 27 35 28 36 69 37 29 38 74 39 68 40 70 41 30 42 73 43
REMARK SMILES IDX 67 44 66 45 31 47 57 48 40 49 56 50 41 51 44 52 55 53 71 54
REMARK SMILES IDX 42 55 43 56 54 58 72 59 45 60 32 61 33 62 38 63 34 64 35 65
REMARK SMILES IDX 37 66 39 67 36 68 58 69 59 70 64 71 60 72 61 73 63 74 65 75
REMARK SMILES IDX 62 76 46 77 47 78 52 79 48 80 49 81 51 82 53 83 50 84
REMARK H PARENT 70 46 44 57
REMARK Flexibility Score: inf
ROOT
ATOM      1  C   UNL A   1      31.339  31.840  26.495  1.00  0.00     0.202 C 
ENDROOT
BRANCH   1   2
ATOM      2  O   UNL A   1      32.328  30.832  26.277  1.00  0.00    -0.374 OA
BRANCH   2   3
ATOM      3  C   UNL A   1      32.352  29.727  27.180  1.00  0.00     0.202 C 
BRANCH   3   4
ATOM      4  C   UNL A   1      33.550  28.785  27.046  1.00  0.00     0.261 C 
BRANCH   4   5
ATOM      5  O   UNL A   1      33.115  27.440  26.785  1.00  0.00    -0.460 OA
BRANCH   5   6
ATOM      6  C   UNL A   1      33.487  26.948  25.583  1.00  0.00     0.338 C 
ATOM      7  O   UNL A   1      33.899  27.585  24.623  1.00  0.00    -0.246 OA
BRANCH   6   8
ATOM      8  C   UNL A   1      33.452  25.474  25.614  1.00  0.00     0.087 C 
ATOM      9  C   UNL A   1      34.581  19.185  24.637  1.00  0.00     0.046 C 
ATOM     10  C   UNL A   1      34.674  20.638  25.024  1.00  0.00    -0.028 A 
ATOM     11  C   UNL A   1      33.479  21.347  25.212  1.00  0.00     0.052 A 
ATOM     12  C   UNL A   1      35.898  21.330  25.120  1.00  0.00     0.047 A 
ATOM     13  C   UNL A   1      33.490  22.720  25.448  1.00  0.00     0.128 A 
ATOM     14  C   UNL A   1      35.929  22.716  25.404  1.00  0.00    -0.021 A 
ATOM     15  Cl  UNL A   1      37.377  20.459  24.841  1.00  0.00    -0.084 Cl
ATOM     16  C   UNL A   1      34.701  23.415  25.514  1.00  0.00     0.022 A 
ATOM     17  O   UNL A   1      32.259  23.295  25.600  1.00  0.00    -0.475 OA
ATOM     18  C   UNL A   1      37.232  23.465  25.571  1.00  0.00     0.047 C 
ATOM     19  C   UNL A   1      34.647  24.870  25.618  1.00  0.00     0.027 C 
ATOM     20  C   UNL A   1      32.143  24.743  25.611  1.00  0.00     0.316 C 
BRANCH  20  21
ATOM     21  C   UNL A   1      31.229  25.164  24.451  1.00  0.00     0.430 C 
ATOM     22  F   UNL A   1      30.346  24.182  24.143  1.00  0.00    -0.167 F 
ATOM     23  F   UNL A   1      30.494  26.258  24.762  1.00  0.00    -0.167 F 
ATOM     24  F   UNL A   1      31.928  25.448  23.329  1.00  0.00    -0.167 F 
ENDBRANCH  20  21
ENDBRANCH   6   8
ENDBRANCH   5   6
ENDBRANCH   4   5
ENDBRANCH   3   4
ENDBRANCH   2   3
ENDBRANCH   1   2
BRANCH   1  25
ATOM     25  C   UNL A   1      31.857  33.265  26.718  1.00  0.00     0.261 C 
BRANCH  25  26
ATOM     26  O   UNL A   1      32.237  33.491  28.090  1.00  0.00    -0.460 OA
BRANCH  26  27
ATOM     27  C   UNL A   1      33.303  34.306  28.256  1.00  0.00     0.338 C 
ATOM     28  O   UNL A   1      33.305  35.529  28.302  1.00  0.00    -0.246 OA
BRANCH  27  29
ATOM     29  C   UNL A   1      34.507  33.510  28.555  1.00  0.00     0.060 A 
ATOM     30  C   UNL A   1      34.321  32.192  28.992  1.00  0.00     0.016 A 
ATOM     31  C   UNL A   1      35.788  34.064  28.491  1.00  0.00     0.016 A 
ATOM     32  C   UNL A   1      35.411  31.437  29.415  1.00  0.00     0.010 A 
ATOM     33  C   UNL A   1      36.880  33.308  28.929  1.00  0.00     0.010 A 
ATOM     34  C   UNL A   1      36.691  32.005  29.425  1.00  0.00    -0.014 A 
BRANCH  34  35
ATOM     35  C   UNL A   1      37.806  31.287  30.085  1.00  0.00     0.031 A 
ATOM     36  C   UNL A   1      38.098  31.566  31.532  1.00  0.00     0.074 A 
ATOM     37  C   UNL A   1      38.524  30.370  29.414  1.00  0.00     0.049 A 
ATOM     38  N   UNL A   1      39.045  31.083  32.296  1.00  0.00    -0.248 NA
ATOM     39  C   UNL A   1      37.200  32.514  32.214  1.00  0.00     0.031 C 
ATOM     40  C   UNL A   1      38.300  29.972  28.027  1.00  0.00     0.029 A 
ATOM     41  N   UNL A   1      39.592  29.608  29.817  1.00  0.00    -0.354 N 
ATOM     42  C   UNL A   1      38.856  31.662  33.544  1.00  0.00     0.074 A 
ATOM     43  C   UNL A   1      37.722  32.554  33.431  1.00  0.00     0.031 C 
ATOM     44  C   UNL A   1      39.206  29.039  27.689  1.00  0.00     0.029 A 
ATOM     45  C   UNL A   1      40.094  28.799  28.827  1.00  0.00     0.049 A 
ATOM     46  H   UNL A   1      39.964  29.638  30.728  1.00  0.00     0.167 HD
ATOM     47  C   UNL A   1      39.557  31.458  34.683  1.00  0.00     0.037 A 
ATOM     48  C   UNL A   1      41.157  27.972  28.835  1.00  0.00     0.037 A 
ATOM     49  C   UNL A   1      40.689  30.578  34.793  1.00  0.00     0.049 A 
ATOM     50  C   UNL A   1      41.974  27.830  30.091  1.00  0.00     0.074 A 
ATOM     51  C   UNL A   1      41.476  30.320  35.902  1.00  0.00     0.029 A 
ATOM     52  N   UNL A   1      41.194  29.810  33.755  1.00  0.00    -0.354 N 
ATOM     53  N   UNL A   1      41.795  28.392  31.262  1.00  0.00    -0.248 NA
ATOM     54  C   UNL A   1      43.142  26.939  30.026  1.00  0.00     0.031 C 
ATOM     55  C   UNL A   1      42.481  29.424  35.525  1.00  0.00     0.029 A 
ATOM     56  C   UNL A   1      42.292  29.088  34.193  1.00  0.00     0.049 A 
ATOM     57  H   UNL A   1      40.828  29.782  32.842  1.00  0.00     0.167 HD
ATOM     58  C   UNL A   1      42.807  27.902  32.079  1.00  0.00     0.074 A 
ATOM     59  C   UNL A   1      43.594  26.994  31.271  1.00  0.00     0.031 C 
ATOM     60  C   UNL A   1      43.058  28.180  33.381  1.00  0.00     0.037 A 
BRANCH  47  61
ATOM     61  C   UNL A   1      39.130  32.215  35.905  1.00  0.00     0.057 A 
ATOM     62  C   UNL A   1      39.566  33.524  36.148  1.00  0.00     0.134 A 
ATOM     63  C   UNL A   1      38.229  31.653  36.817  1.00  0.00     0.134 A 
ATOM     64  F   UNL A   1      40.441  34.113  35.319  1.00  0.00    -0.206 F 
ATOM     65  C   UNL A   1      39.129  34.243  37.261  1.00  0.00     0.040 A 
ATOM     66  C   UNL A   1      37.768  32.370  37.923  1.00  0.00     0.040 A 
ATOM     67  F   UNL A   1      37.771  30.404  36.641  1.00  0.00    -0.206 F 
ATOM     68  C   UNL A   1      38.220  33.669  38.148  1.00  0.00     0.006 A 
ENDBRANCH  47  61
BRANCH  48  69
ATOM     69  C   UNL A   1      41.509  27.212  27.611  1.00  0.00     0.057 A 
ATOM     70  C   UNL A   1      42.322  27.773  26.621  1.00  0.00     0.134 A 
ATOM     71  C   UNL A   1      41.042  25.908  27.403  1.00  0.00     0.134 A 
ATOM     72  F   UNL A   1      42.779  29.027  26.755  1.00  0.00    -0.206 F 
ATOM     73  C   UNL A   1      42.656  27.068  25.464  1.00  0.00     0.040 A 
ATOM     74  C   UNL A   1      41.387  25.183  26.260  1.00  0.00     0.040 A 
ATOM     75  F   UNL A   1      40.258  25.315  28.315  1.00  0.00    -0.206 F 
ATOM     76  C   UNL A   1      42.193  25.766  25.285  1.00  0.00     0.006 A 
ENDBRANCH  48  69
BRANCH  60  77
ATOM     77  C   UNL A   1      44.206  27.468  34.033  1.00  0.00     0.057 A 
ATOM     78  C   UNL A   1      45.486  28.031  34.093  1.00  0.00     0.134 A 
ATOM     79  C   UNL A   1      44.010  26.233  34.666  1.00  0.00     0.134 A 
ATOM     80  F   UNL A   1      45.740  29.207  33.498  1.00  0.00    -0.206 F 
ATOM     81  C   UNL A   1      46.535  27.386  34.749  1.00  0.00     0.040 A 
ATOM     82  C   UNL A   1      45.046  25.589  35.345  1.00  0.00     0.040 A 
ATOM     83  F   UNL A   1      42.804  25.646  34.655  1.00  0.00    -0.206 F 
ATOM     84  C   UNL A   1      46.314  26.165  35.385  1.00  0.00     0.006 A 
ENDBRANCH  60  77
ENDBRANCH  34  35
ENDBRANCH  27  29
ENDBRANCH  26  27
ENDBRANCH  25  26
ENDBRANCH   1  25
TORSDOF 15
ENDMDL
MODEL 2
REMARK VINA RESULT:     -11.4      3.947      7.634
REMARK SMILES Cc1cc2c(c(C)c1Cl)C=C(C(=O)OCCOCCOC(=O)c1ccc(-c3c4nc(c(-c5c(F)cccc5F)c5ccc([nH]5)c(-c5c(F)cccc5F)c5nc(c(-c6c(F)cccc6F)c6ccc3[nH]6)C=C5)C=C4)cc1)[C@@H](C(F)(F)F)O2
REMARK SMILES IDX 18 1 17 2 16 3 15 4 14 5 12 6 13 7 11 8 1 9 2 10 3 11 8 12
REMARK SMILES IDX 4 13 6 14 9 15 5 16 82 17 7 18 10 19 77 20 78 21 79 22 80 23
REMARK SMILES IDX 81 24 19 25 20 26 21 27 22 28 23 29 24 30 76 31 25 32 75 33
REMARK SMILES IDX 26 34 27 35 28 36 69 37 29 38 74 39 68 40 70 41 30 42 73 43
REMARK SMILES IDX 67 44 66 45 31 47 57 48 40 49 56 50 41 51 44 52 55 53 71 54
REMARK SMILES IDX 42 55 43 56 54 58 72 59 45 60 32 61 33 62 38 63 34 64 35 65
REMARK SMILES IDX 37 66 39 67 36 68 58 69 59 70 64 71 60 72 61 73 63 74 65 75
REMARK SMILES IDX 62 76 46 77 47 78 52 79 48 80 49 81 51 82 53 83 50 84
REMARK H PARENT 70 46 44 57
REMARK Flexibility Score: inf
ROOT
ATOM      1  C   UNL A   1      35.169  21.282  25.307  1.00  0.00     0.202 C 
ENDROOT
BRANCH   1   2
ATOM      2  O   UNL A   1      34.518  21.051  26.559  1.00  0.00    -0.374 OA
BRANCH   2   3
ATOM      3  C   UNL A   1      34.189  22.193  27.349  1.00  0.00     0.202 C 
BRANCH   3   4
ATOM      4  C   UNL A   1      33.151  23.141  26.746  1.00  0.00     0.261 C 
BRANCH   4   5
ATOM      5  O   UNL A   1      33.738  24.420  26.452  1.00  0.00    -0.460 OA
BRANCH   5   6
ATOM      6  C   UNL A   1      33.571  24.841  25.179  1.00  0.00     0.338 C 
ATOM      7  O   UNL A   1      33.700  24.174  24.162  1.00  0.00    -0.246 OA
BRANCH   6   8
ATOM      8  C   UNL A   1      33.073  26.228  25.173  1.00  0.00     0.087 C 
ATOM      9  C   UNL A   1      31.362  32.248  26.790  1.00  0.00     0.046 C 
ATOM     10  C   UNL A   1      32.119  30.982  26.485  1.00  0.00    -0.028 A 
ATOM     11  C   UNL A   1      31.517  30.045  25.633  1.00  0.00     0.052 A 
ATOM     12  C   UNL A   1      33.356  30.665  27.080  1.00  0.00     0.047 A 
ATOM     13  C   UNL A   1      32.104  28.802  25.407  1.00  0.00     0.128 A 
ATOM     14  C   UNL A   1      33.988  29.425  26.826  1.00  0.00    -0.021 A 
ATOM     15  Cl  UNL A   1      34.079  31.809  28.172  1.00  0.00    -0.084 Cl
ATOM     16  C   UNL A   1      33.317  28.472  26.020  1.00  0.00     0.022 A 
ATOM     17  O   UNL A   1      31.411  27.974  24.569  1.00  0.00    -0.475 OA
ATOM     18  C   UNL A   1      35.344  29.089  27.406  1.00  0.00     0.047 C 
ATOM     19  C   UNL A   1      33.810  27.107  25.863  1.00  0.00     0.027 C 
ATOM     20  C   UNL A   1      31.805  26.580  24.455  1.00  0.00     0.316 C 
BRANCH  20  21
ATOM     21  C   UNL A   1      30.616  25.705  24.880  1.00  0.00     0.430 C 
ATOM     22  F   UNL A   1      29.440  26.348  24.680  1.00  0.00    -0.167 F 
ATOM     23  F   UNL A   1      30.556  24.558  24.163  1.00  0.00    -0.167 F 
ATOM     24  F   UNL A   1      30.677  25.365  26.187  1.00  0.00    -0.167 F 
ENDBRANCH  20  21
ENDBRANCH   6   8
ENDBRANCH   5   6
ENDBRANCH   4   5
ENDBRANCH   3   4
ENDBRANCH   2   3
ENDBRANCH   1   2
BRANCH   1  25
ATOM     25  C   UNL A   1      36.487  20.535  25.078  1.00  0.00     0.261 C 
BRANCH  25  26
ATOM     26  O   UNL A   1      37.607  21.437  24.978  1.00  0.00    -0.460 OA
BRANCH  26  27
ATOM     27  C   UNL A   1      38.677  21.099  25.732  1.00  0.00     0.338 C 
ATOM     28  O   UNL A   1      39.223  20.005  25.800  1.00  0.00    -0.246 OA
BRANCH  27  29
ATOM     29  C   UNL A   1      39.245  22.298  26.374  1.00  0.00     0.060 A 
ATOM     30  C   UNL A   1      38.723  23.543  25.998  1.00  0.00     0.016 A 
ATOM     31  C   UNL A   1      40.321  22.216  27.260  1.00  0.00     0.016 A 
ATOM     32  C   UNL A   1      39.308  24.715  26.470  1.00  0.00     0.010 A 
ATOM     33  C   UNL A   1      40.915  23.395  27.722  1.00  0.00     0.010 A 
ATOM     34  C   UNL A   1      40.432  24.647  27.301  1.00  0.00    -0.014 A 
BRANCH  34  35
ATOM     35  C   UNL A   1      41.187  25.884  27.614  1.00  0.00     0.031 A 
ATOM     36  C   UNL A   1      40.513  26.969  28.405  1.00  0.00     0.074 A 
ATOM     37  C   UNL A   1      42.468  26.021  27.231  1.00  0.00     0.049 A 
ATOM     38  N   UNL A   1      40.970  28.144  28.758  1.00  0.00    -0.248 NA
ATOM     39  C   UNL A   1      39.142  26.693  28.866  1.00  0.00     0.031 C 
ATOM     40  C   UNL A   1      43.246  25.016  26.510  1.00  0.00     0.029 A 
ATOM     41  N   UNL A   1      43.339  27.068  27.397  1.00  0.00    -0.354 N 
ATOM     42  C   UNL A   1      39.949  28.744  29.482  1.00  0.00     0.074 A 
ATOM     43  C   UNL A   1      38.837  27.818  29.496  1.00  0.00     0.031 C 
ATOM     44  C   UNL A   1      44.481  25.496  26.291  1.00  0.00     0.029 A 
ATOM     45  C   UNL A   1      44.570  26.854  26.828  1.00  0.00     0.049 A 
ATOM     46  H   UNL A   1      43.104  27.894  27.878  1.00  0.00     0.167 HD
ATOM     47  C   UNL A   1      39.943  29.953  30.090  1.00  0.00     0.037 A 
ATOM     48  C   UNL A   1      45.640  27.668  26.738  1.00  0.00     0.037 A 
ATOM     49  C   UNL A   1      41.045  30.877  30.069  1.00  0.00     0.049 A 
ATOM     50  C   UNL A   1      45.577  29.042  27.347  1.00  0.00     0.074 A 
ATOM     51  C   UNL A   1      41.126  32.135  30.640  1.00  0.00     0.029 A 
ATOM     52  N   UNL A   1      42.260  30.641  29.443  1.00  0.00    -0.354 N 
ATOM     53  N   UNL A   1      44.602  29.606  28.019  1.00  0.00    -0.248 NA
ATOM     54  C   UNL A   1      46.765  29.895  27.186  1.00  0.00     0.031 C 
ATOM     55  C   UNL A   1      42.378  32.676  30.328  1.00  0.00     0.029 A 
ATOM     56  C   UNL A   1      43.092  31.736  29.602  1.00  0.00     0.049 A 
ATOM     57  H   UNL A   1      42.495  29.818  28.957  1.00  0.00     0.167 HD
ATOM     58  C   UNL A   1      45.066  30.863  28.383  1.00  0.00     0.074 A 
ATOM     59  C   UNL A   1      46.412  30.979  27.863  1.00  0.00     0.031 C 
ATOM     60  C   UNL A   1      44.433  31.832  29.088  1.00  0.00     0.037 A 
BRANCH  47  61
ATOM     61  C   UNL A   1      38.697  30.356  30.820  1.00  0.00     0.057 A 
ATOM     62  C   UNL A   1      38.530  30.096  32.186  1.00  0.00     0.134 A 
ATOM     63  C   UNL A   1      37.680  31.063  30.166  1.00  0.00     0.134 A 
ATOM     64  F   UNL A   1      39.461  29.410  32.866  1.00  0.00    -0.206 F 
ATOM     65  C   UNL A   1      37.390  30.515  32.874  1.00  0.00     0.040 A 
ATOM     66  C   UNL A   1      36.546  31.506  30.848  1.00  0.00     0.040 A 
ATOM     67  F   UNL A   1      37.781  31.347  28.859  1.00  0.00    -0.206 F 
ATOM     68  C   UNL A   1      36.398  31.231  32.206  1.00  0.00     0.006 A 
ENDBRANCH  47  61
BRANCH  48  69
ATOM     69  C   UNL A   1      46.864  27.201  26.043  1.00  0.00     0.057 A 
ATOM     70  C   UNL A   1      47.034  27.397  24.669  1.00  0.00     0.134 A 
ATOM     71  C   UNL A   1      47.893  26.550  26.736  1.00  0.00     0.134 A 
ATOM     72  F   UNL A   1      46.072  27.993  23.949  1.00  0.00    -0.206 F 
ATOM     73  C   UNL A   1      48.181  26.958  24.005  1.00  0.00     0.040 A 
ATOM     74  C   UNL A   1      49.055  26.126  26.088  1.00  0.00     0.040 A 
ATOM     75  F   UNL A   1      47.789  26.331  28.055  1.00  0.00    -0.206 F 
ATOM     76  C   UNL A   1      49.199  26.326  24.717  1.00  0.00     0.006 A 
ENDBRANCH  48  69
BRANCH  60  77
ATOM     77  C   UNL A   1      45.196  33.092  29.375  1.00  0.00     0.057 A 
ATOM     78  C   UNL A   1      45.124  34.208  28.534  1.00  0.00     0.134 A 
ATOM     79  C   UNL A   1      45.960  33.209  30.545  1.00  0.00     0.134 A 
ATOM     80  F   UNL A   1      44.416  34.155  27.395  1.00  0.00    -0.206 F 
ATOM     81  C   UNL A   1      45.794  35.393  28.838  1.00  0.00     0.040 A 
ATOM     82  C   UNL A   1      46.616  34.397  30.870  1.00  0.00     0.040 A 
ATOM     83  F   UNL A   1      46.061  32.179  31.398  1.00  0.00    -0.206 F 
ATOM     84  C   UNL A   1      46.536  35.492  30.014  1.00  0.00     0.006 A 
ENDBRANCH  60  77
ENDBRANCH  34  35
ENDBRANCH  27  29
ENDBRANCH  26  27
ENDBRANCH  25  26
ENDBRANCH   1  25
TORSDOF 15
ENDMDL
MODEL 3
REMARK VINA RESULT:     -11.0      4.468      9.251
REMARK SMILES Cc1cc2c(c(C)c1Cl)C=C(C(=O)OCCOCCOC(=O)c1ccc(-c3c4nc(c(-c5c(F)cccc5F)c5ccc([nH]5)c(-c5c(F)cccc5F)c5nc(c(-c6c(F)cccc6F)c6ccc3[nH]6)C=C5)C=C4)cc1)[C@@H](C(F)(F)F)O2
REMARK SMILES IDX 18 1 17 2 16 3 15 4 14 5 12 6 13 7 11 8 1 9 2 10 3 11 8 12
REMARK SMILES IDX 4 13 6 14 9 15 5 16 82 17 7 18 10 19 77 20 78 21 79 22 80 23
REMARK SMILES IDX 81 24 19 25 20 26 21 27 22 28 23 29 24 30 76 31 25 32 75 33
REMARK SMILES IDX 26 34 27 35 28 36 69 37 29 38 74 39 68 40 70 41 30 42 73 43
REMARK SMILES IDX 67 44 66 45 31 47 57 48 40 49 56 50 41 51 44 52 55 53 71 54
REMARK SMILES IDX 42 55 43 56 54 58 72 59 45 60 32 61 33 62 38 63 34 64 35 65
REMARK SMILES IDX 37 66 39 67 36 68 58 69 59 70 64 71 60 72 61 73 63 74 65 75
REMARK SMILES IDX 62 76 46 77 47 78 52 79 48 80 49 81 51 82 53 83 50 84
REMARK H PARENT 70 46 44 57
REMARK Flexibility Score: inf
ROOT
ATOM      1  C   UNL A   1      37.932  20.382  25.324  1.00  0.00     0.202 C 
ENDROOT
BRANCH   1   2
ATOM      2  O   UNL A   1      38.180  21.732  24.926  1.00  0.00    -0.374 OA
BRANCH   2   3
ATOM      3  C   UNL A   1      38.474  22.677  25.954  1.00  0.00     0.202 C 
BRANCH   3   4
ATOM      4  C   UNL A   1      37.415  23.756  26.187  1.00  0.00     0.261 C 
BRANCH   4   5
ATOM      5  O   UNL A   1      36.446  23.758  25.125  1.00  0.00    -0.460 OA
BRANCH   5   6
ATOM      6  C   UNL A   1      35.162  23.878  25.531  1.00  0.00     0.338 C 
ATOM      7  O   UNL A   1      34.649  23.355  26.510  1.00  0.00    -0.246 OA
BRANCH   6   8
ATOM      8  C   UNL A   1      34.462  24.859  24.683  1.00  0.00     0.087 C 
ATOM      9  C   UNL A   1      30.453  29.375  22.376  1.00  0.00     0.046 C 
ATOM     10  C   UNL A   1      31.504  28.615  23.143  1.00  0.00    -0.028 A 
ATOM     11  C   UNL A   1      32.067  27.482  22.541  1.00  0.00     0.052 A 
ATOM     12  C   UNL A   1      31.880  28.944  24.460  1.00  0.00     0.047 A 
ATOM     13  C   UNL A   1      32.952  26.663  23.240  1.00  0.00     0.128 A 
ATOM     14  C   UNL A   1      32.811  28.150  25.170  1.00  0.00    -0.021 A 
ATOM     15  Cl  UNL A   1      31.146  30.324  25.222  1.00  0.00    -0.084 Cl
ATOM     16  C   UNL A   1      33.304  26.969  24.559  1.00  0.00     0.022 A 
ATOM     17  O   UNL A   1      33.419  25.583  22.546  1.00  0.00    -0.475 OA
ATOM     18  C   UNL A   1      33.274  28.517  26.562  1.00  0.00     0.047 C 
ATOM     19  C   UNL A   1      34.117  26.002  25.288  1.00  0.00     0.027 C 
ATOM     20  C   UNL A   1      34.150  24.543  23.250  1.00  0.00     0.316 C 
BRANCH  20  21
ATOM     21  C   UNL A   1      33.389  23.219  23.084  1.00  0.00     0.430 C 
ATOM     22  F   UNL A   1      34.131  22.172  23.521  1.00  0.00    -0.167 F 
ATOM     23  F   UNL A   1      32.242  23.206  23.804  1.00  0.00    -0.167 F 
ATOM     24  F   UNL A   1      33.063  22.978  21.795  1.00  0.00    -0.167 F 
ENDBRANCH  20  21
ENDBRANCH   6   8
ENDBRANCH   5   6
ENDBRANCH   4   5
ENDBRANCH   3   4
ENDBRANCH   2   3
ENDBRANCH   1   2
BRANCH   1  25
ATOM     25  C   UNL A   1      39.132  19.429  25.281  1.00  0.00     0.261 C 
BRANCH  25  26
ATOM     26  O   UNL A   1      39.982  19.582  26.435  1.00  0.00    -0.460 OA
BRANCH  26  27
ATOM     27  C   UNL A   1      41.306  19.603  26.164  1.00  0.00     0.338 C 
ATOM     28  O   UNL A   1      41.949  18.775  25.533  1.00  0.00    -0.246 OA
BRANCH  27  29
ATOM     29  C   UNL A   1      41.892  20.885  26.595  1.00  0.00     0.060 A 
ATOM     30  C   UNL A   1      41.970  21.132  27.972  1.00  0.00     0.016 A 
ATOM     31  C   UNL A   1      42.278  21.862  25.675  1.00  0.00     0.016 A 
ATOM     32  C   UNL A   1      42.390  22.375  28.435  1.00  0.00     0.010 A 
ATOM     33  C   UNL A   1      42.687  23.115  26.142  1.00  0.00     0.010 A 
ATOM     34  C   UNL A   1      42.712  23.387  27.522  1.00  0.00    -0.014 A 
BRANCH  34  35
ATOM     35  C   UNL A   1      42.935  24.769  28.009  1.00  0.00     0.031 A 
ATOM     36  C   UNL A   1      44.334  25.212  28.330  1.00  0.00     0.074 A 
ATOM     37  C   UNL A   1      41.909  25.629  28.126  1.00  0.00     0.049 A 
ATOM     38  N   UNL A   1      44.754  26.358  28.803  1.00  0.00    -0.248 NA
ATOM     39  C   UNL A   1      45.407  24.235  28.080  1.00  0.00     0.031 C 
ATOM     40  C   UNL A   1      40.517  25.334  27.791  1.00  0.00     0.029 A 
ATOM     41  N   UNL A   1      41.884  26.930  28.563  1.00  0.00    -0.354 N 
ATOM     42  C   UNL A   1      46.133  26.243  28.904  1.00  0.00     0.074 A 
ATOM     43  C   UNL A   1      46.481  24.907  28.471  1.00  0.00     0.031 C 
ATOM     44  C   UNL A   1      39.770  26.423  28.038  1.00  0.00     0.029 A 
ATOM     45  C   UNL A   1      40.625  27.479  28.578  1.00  0.00     0.049 A 
ATOM     46  H   UNL A   1      42.690  27.422  28.839  1.00  0.00     0.167 HD
ATOM     47  C   UNL A   1      47.030  27.171  29.311  1.00  0.00     0.037 A 
ATOM     48  C   UNL A   1      40.211  28.691  28.996  1.00  0.00     0.037 A 
ATOM     49  C   UNL A   1      46.683  28.496  29.750  1.00  0.00     0.049 A 
ATOM     50  C   UNL A   1      41.218  29.675  29.527  1.00  0.00     0.074 A 
ATOM     51  C   UNL A   1      47.522  29.502  30.199  1.00  0.00     0.029 A 
ATOM     52  N   UNL A   1      45.393  29.000  29.793  1.00  0.00    -0.354 N 
ATOM     53  N   UNL A   1      42.520  29.552  29.630  1.00  0.00    -0.248 NA
ATOM     54  C   UNL A   1      40.699  30.968  29.999  1.00  0.00     0.031 C 
ATOM     55  C   UNL A   1      46.733  30.602  30.550  1.00  0.00     0.029 A 
ATOM     56  C   UNL A   1      45.409  30.298  30.276  1.00  0.00     0.049 A 
ATOM     57  H   UNL A   1      44.584  28.508  29.523  1.00  0.00     0.167 HD
ATOM     58  C   UNL A   1      42.976  30.756  30.151  1.00  0.00     0.074 A 
ATOM     59  C   UNL A   1      41.815  31.600  30.337  1.00  0.00     0.031 C 
ATOM     60  C   UNL A   1      44.246  31.129  30.445  1.00  0.00     0.037 A 
BRANCH  47  61
ATOM     61  C   UNL A   1      48.478  26.781  29.316  1.00  0.00     0.057 A 
ATOM     62  C   UNL A   1      49.063  26.145  30.418  1.00  0.00     0.134 A 
ATOM     63  C   UNL A   1      49.280  26.991  28.188  1.00  0.00     0.134 A 
ATOM     64  F   UNL A   1      48.352  25.929  31.535  1.00  0.00    -0.206 F 
ATOM     65  C   UNL A   1      50.399  25.741  30.402  1.00  0.00     0.040 A 
ATOM     66  C   UNL A   1      50.611  26.572  28.151  1.00  0.00     0.040 A 
ATOM     67  F   UNL A   1      48.779  27.593  27.099  1.00  0.00    -0.206 F 
ATOM     68  C   UNL A   1      51.174  25.945  29.262  1.00  0.00     0.006 A 
ENDBRANCH  47  61
BRANCH  48  69
ATOM     69  C   UNL A   1      38.771  29.042  28.927  1.00  0.00     0.057 A 
ATOM     70  C   UNL A   1      37.939  28.899  30.042  1.00  0.00     0.134 A 
ATOM     71  C   UNL A   1      38.195  29.529  27.747  1.00  0.00     0.134 A 
ATOM     72  F   UNL A   1      38.430  28.415  31.192  1.00  0.00    -0.206 F 
ATOM     73  C   UNL A   1      36.582  29.222  29.986  1.00  0.00     0.040 A 
ATOM     74  C   UNL A   1      36.844  29.877  27.684  1.00  0.00     0.040 A 
ATOM     75  F   UNL A   1      38.940  29.688  26.644  1.00  0.00    -0.206 F 
ATOM     76  C   UNL A   1      36.033  29.720  28.806  1.00  0.00     0.006 A 
ENDBRANCH  48  69
BRANCH  60  77
ATOM     77  C   UNL A   1      44.458  32.520  30.964  1.00  0.00     0.057 A 
ATOM     78  C   UNL A   1      44.506  32.798  32.334  1.00  0.00     0.134 A 
ATOM     79  C   UNL A   1      44.683  33.583  30.077  1.00  0.00     0.134 A 
ATOM     80  F   UNL A   1      44.290  31.826  33.233  1.00  0.00    -0.206 F 
ATOM     81  C   UNL A   1      44.758  34.087  32.807  1.00  0.00     0.040 A 
ATOM     82  C   UNL A   1      44.958  34.871  30.538  1.00  0.00     0.040 A 
ATOM     83  F   UNL A   1      44.661  33.379  28.752  1.00  0.00    -0.206 F 
ATOM     84  C   UNL A   1      44.993  35.126  31.907  1.00  0.00     0.006 A 
ENDBRANCH  60  77
ENDBRANCH  34  35
ENDBRANCH  27  29
ENDBRANCH  26  27
ENDBRANCH  25  26
ENDBRANCH   1  25
TORSDOF 15
ENDMDL
