MODEL 1
REMARK VINA RESULT:     -10.5      0.000      0.000
REMARK SMILES C[C@@H](C(=O)OCCOCCOC(=O)c1ccc(-c2c3nc(c(-c4c(F)cccc4F)c4ccc([nH]4)c(-c4c(F)cccc4F)c4nc(c(-c5c(F)cccc5F)c5ccc2[nH]5)C=C4)C=C3)cc1)c1ccn(C(F)F)c(=O)c1
REMARK SMILES IDX 8 1 7 2 6 3 5 4 3 5 4 6 2 7 1 8 68 9 69 10 77 11 70 12 75 13
REMARK SMILES IDX 71 14 76 15 72 16 73 17 74 18 9 19 10 20 11 21 12 22 13 23
REMARK SMILES IDX 14 24 15 25 67 26 16 27 66 28 17 29 18 30 19 31 60 32 20 33
REMARK SMILES IDX 65 34 59 35 61 36 21 37 64 38 58 39 57 40 22 42 48 43 31 44
REMARK SMILES IDX 47 45 32 46 35 47 46 48 62 49 33 50 34 51 45 53 63 54 36 55
REMARK SMILES IDX 23 56 24 57 29 58 25 59 26 60 28 61 30 62 27 63 49 64 50 65
REMARK SMILES IDX 55 66 51 67 52 68 54 69 56 70 53 71 37 72 38 73 43 74 39 75
REMARK SMILES IDX 40 76 42 77 44 78 41 79
REMARK H PARENT 61 41 35 52
REMARK Flexibility Score: inf
ROOT
ATOM      1  O   UNL A   1      32.146  30.855  26.311  1.00  0.00    -0.374 OA
ENDROOT
BRANCH   1   2
ATOM      2  C   UNL A   1      32.819  29.997  27.236  1.00  0.00     0.202 C 
BRANCH   2   3
ATOM      3  C   UNL A   1      33.139  28.594  26.716  1.00  0.00     0.261 C 
BRANCH   3   4
ATOM      4  O   UNL A   1      32.769  28.491  25.327  1.00  0.00    -0.463 OA
BRANCH   4   5
ATOM      5  C   UNL A   1      33.243  27.407  24.656  1.00  0.00     0.313 C 
ATOM      6  O   UNL A   1      33.896  26.507  25.173  1.00  0.00    -0.252 OA
BRANCH   5   7
ATOM      7  C   UNL A   1      32.859  27.424  23.169  1.00  0.00     0.126 C 
ATOM      8  C   UNL A   1      33.872  28.123  22.252  1.00  0.00     0.025 C 
BRANCH   7   9
ATOM      9  C   UNL A   1      31.441  27.975  23.044  1.00  0.00    -0.027 A 
ATOM     10  C   UNL A   1      30.381  27.208  23.675  1.00  0.00     0.023 A 
ATOM     11  C   UNL A   1      31.107  29.104  22.392  1.00  0.00     0.076 A 
ATOM     12  C   UNL A   1      29.107  27.617  23.613  1.00  0.00     0.095 A 
ATOM     13  C   UNL A   1      29.697  29.589  22.335  1.00  0.00     0.255 A 
ATOM     14  N   UNL A   1      28.760  28.781  22.953  1.00  0.00    -0.258 N 
ATOM     15  O   UNL A   1      29.471  30.646  21.756  1.00  0.00    -0.269 OA
BRANCH  14  16
ATOM     16  C   UNL A   1      27.388  29.213  22.905  1.00  0.00     0.451 C 
ATOM     17  F   UNL A   1      26.554  28.244  23.353  1.00  0.00    -0.185 F 
ATOM     18  F   UNL A   1      27.198  30.316  23.671  1.00  0.00    -0.185 F 
ENDBRANCH  14  16
ENDBRANCH   7   9
ENDBRANCH   5   7
ENDBRANCH   4   5
ENDBRANCH   3   4
ENDBRANCH   2   3
ENDBRANCH   1   2
BRANCH   1  19
ATOM     19  C   UNL A   1      31.404  31.944  26.856  1.00  0.00     0.202 C 
BRANCH  19  20
ATOM     20  C   UNL A   1      32.122  33.298  26.891  1.00  0.00     0.261 C 
BRANCH  20  21
ATOM     21  O   UNL A   1      32.284  33.792  28.233  1.00  0.00    -0.460 OA
BRANCH  21  22
ATOM     22  C   UNL A   1      33.392  34.545  28.421  1.00  0.00     0.338 C 
ATOM     23  O   UNL A   1      33.456  35.764  28.511  1.00  0.00    -0.246 OA
BRANCH  22  24
ATOM     24  C   UNL A   1      34.559  33.684  28.681  1.00  0.00     0.060 A 
ATOM     25  C   UNL A   1      34.327  32.483  29.365  1.00  0.00     0.016 A 
ATOM     26  C   UNL A   1      35.859  34.068  28.341  1.00  0.00     0.016 A 
ATOM     27  C   UNL A   1      35.399  31.688  29.762  1.00  0.00     0.010 A 
ATOM     28  C   UNL A   1      36.935  33.270  28.749  1.00  0.00     0.010 A 
ATOM     29  C   UNL A   1      36.710  32.099  29.493  1.00  0.00    -0.014 A 
BRANCH  29  30
ATOM     30  C   UNL A   1      37.838  31.376  30.131  1.00  0.00     0.031 A 
ATOM     31  C   UNL A   1      38.142  31.635  31.581  1.00  0.00     0.074 A 
ATOM     32  C   UNL A   1      38.548  30.463  29.446  1.00  0.00     0.049 A 
ATOM     33  N   UNL A   1      39.071  31.114  32.341  1.00  0.00    -0.248 NA
ATOM     34  C   UNL A   1      37.281  32.612  32.267  1.00  0.00     0.031 C 
ATOM     35  C   UNL A   1      38.323  30.092  28.050  1.00  0.00     0.029 A 
ATOM     36  N   UNL A   1      39.604  29.679  29.838  1.00  0.00    -0.354 N 
ATOM     37  C   UNL A   1      38.909  31.699  33.590  1.00  0.00     0.074 A 
ATOM     38  C   UNL A   1      37.812  32.637  33.481  1.00  0.00     0.031 C 
ATOM     39  C   UNL A   1      39.220  29.154  27.700  1.00  0.00     0.029 A 
ATOM     40  C   UNL A   1      40.095  28.878  28.837  1.00  0.00     0.049 A 
ATOM     41  H   UNL A   1      39.974  29.691  30.750  1.00  0.00     0.167 HD
ATOM     42  C   UNL A   1      39.604  31.469  34.729  1.00  0.00     0.037 A 
ATOM     43  C   UNL A   1      41.141  28.029  28.838  1.00  0.00     0.037 A 
ATOM     44  C   UNL A   1      40.691  30.533  34.842  1.00  0.00     0.049 A 
ATOM     45  C   UNL A   1      41.942  27.842  30.100  1.00  0.00     0.074 A 
ATOM     46  C   UNL A   1      41.443  30.214  35.959  1.00  0.00     0.029 A 
ATOM     47  N   UNL A   1      41.185  29.771  33.794  1.00  0.00    -0.354 N 
ATOM     48  N   UNL A   1      41.763  28.381  31.281  1.00  0.00    -0.248 NA
ATOM     49  C   UNL A   1      43.090  26.927  30.026  1.00  0.00     0.031 C 
ATOM     50  C   UNL A   1      42.422  29.290  35.577  1.00  0.00     0.029 A 
ATOM     51  C   UNL A   1      42.250  29.001  34.233  1.00  0.00     0.049 A 
ATOM     52  H   UNL A   1      40.832  29.775  32.876  1.00  0.00     0.167 HD
ATOM     53  C   UNL A   1      42.756  27.851  32.096  1.00  0.00     0.074 A 
ATOM     54  C   UNL A   1      43.528  26.940  31.278  1.00  0.00     0.031 C 
ATOM     55  C   UNL A   1      43.005  28.094  33.406  1.00  0.00     0.037 A 
BRANCH  42  56
ATOM     56  C   UNL A   1      39.222  32.264  35.943  1.00  0.00     0.057 A 
ATOM     57  C   UNL A   1      39.714  33.556  36.167  1.00  0.00     0.134 A 
ATOM     58  C   UNL A   1      38.329  31.738  36.885  1.00  0.00     0.134 A 
ATOM     59  F   UNL A   1      40.584  34.109  35.309  1.00  0.00    -0.206 F 
ATOM     60  C   UNL A   1      39.344  34.291  37.295  1.00  0.00     0.040 A 
ATOM     61  C   UNL A   1      37.935  32.472  38.005  1.00  0.00     0.040 A 
ATOM     62  F   UNL A   1      37.820  30.507  36.729  1.00  0.00    -0.206 F 
ATOM     63  C   UNL A   1      38.446  33.751  38.215  1.00  0.00     0.006 A 
ENDBRANCH  42  56
BRANCH  43  64
ATOM     64  C   UNL A   1      41.503  27.294  27.601  1.00  0.00     0.057 A 
ATOM     65  C   UNL A   1      41.074  25.980  27.385  1.00  0.00     0.134 A 
ATOM     66  C   UNL A   1      42.308  27.881  26.616  1.00  0.00     0.134 A 
ATOM     67  F   UNL A   1      40.321  25.356  28.303  1.00  0.00    -0.206 F 
ATOM     68  C   UNL A   1      41.443  25.270  26.242  1.00  0.00     0.040 A 
ATOM     69  C   UNL A   1      42.666  27.190  25.458  1.00  0.00     0.040 A 
ATOM     70  F   UNL A   1      42.752  29.138  26.765  1.00  0.00    -0.206 F 
ATOM     71  C   UNL A   1      42.238  25.877  25.272  1.00  0.00     0.006 A 
ENDBRANCH  43  64
BRANCH  55  72
ATOM     72  C   UNL A   1      44.135  27.343  34.044  1.00  0.00     0.057 A 
ATOM     73  C   UNL A   1      43.949  26.080  34.621  1.00  0.00     0.134 A 
ATOM     74  C   UNL A   1      45.433  27.870  34.043  1.00  0.00     0.134 A 
ATOM     75  F   UNL A   1      42.729  25.526  34.666  1.00  0.00    -0.206 F 
ATOM     76  C   UNL A   1      45.011  25.377  35.194  1.00  0.00     0.040 A 
ATOM     77  C   UNL A   1      46.507  27.167  34.590  1.00  0.00     0.040 A 
ATOM     78  F   UNL A   1      45.680  29.071  33.498  1.00  0.00    -0.206 F 
ATOM     79  C   UNL A   1      46.296  25.919  35.172  1.00  0.00     0.006 A 
ENDBRANCH  55  72
ENDBRANCH  29  30
ENDBRANCH  22  24
ENDBRANCH  21  22
ENDBRANCH  20  21
ENDBRANCH  19  20
ENDBRANCH   1  19
TORSDOF 16
ENDMDL
MODEL 2
REMARK VINA RESULT:     -10.3      0.470      6.468
REMARK SMILES C[C@@H](C(=O)OCCOCCOC(=O)c1ccc(-c2c3nc(c(-c4c(F)cccc4F)c4ccc([nH]4)c(-c4c(F)cccc4F)c4nc(c(-c5c(F)cccc5F)c5ccc2[nH]5)C=C4)C=C3)cc1)c1ccn(C(F)F)c(=O)c1
REMARK SMILES IDX 8 1 7 2 6 3 5 4 3 5 4 6 2 7 1 8 68 9 69 10 77 11 70 12 75 13
REMARK SMILES IDX 71 14 76 15 72 16 73 17 74 18 9 19 10 20 11 21 12 22 13 23
REMARK SMILES IDX 14 24 15 25 67 26 16 27 66 28 17 29 18 30 19 31 60 32 20 33
REMARK SMILES IDX 65 34 59 35 61 36 21 37 64 38 58 39 57 40 22 42 48 43 31 44
REMARK SMILES IDX 47 45 32 46 35 47 46 48 62 49 33 50 34 51 45 53 63 54 36 55
REMARK SMILES IDX 23 56 24 57 29 58 25 59 26 60 28 61 30 62 27 63 49 64 50 65
REMARK SMILES IDX 55 66 51 67 52 68 54 69 56 70 53 71 37 72 38 73 43 74 39 75
REMARK SMILES IDX 40 76 42 77 44 78 41 79
REMARK H PARENT 61 41 35 52
REMARK Flexibility Score: inf
ROOT
ATOM      1  O   UNL A   1      32.132  30.796  26.252  1.00  0.00    -0.374 OA
ENDROOT
BRANCH   1   2
ATOM      2  C   UNL A   1      32.741  29.941  27.223  1.00  0.00     0.202 C 
BRANCH   2   3
ATOM      3  C   UNL A   1      33.040  28.517  26.747  1.00  0.00     0.261 C 
BRANCH   3   4
ATOM      4  O   UNL A   1      32.674  28.377  25.361  1.00  0.00    -0.463 OA
BRANCH   4   5
ATOM      5  C   UNL A   1      33.203  27.311  24.702  1.00  0.00     0.313 C 
ATOM      6  O   UNL A   1      33.909  26.456  25.228  1.00  0.00    -0.252 OA
BRANCH   5   7
ATOM      7  C   UNL A   1      32.807  27.284  23.218  1.00  0.00     0.126 C 
ATOM      8  C   UNL A   1      33.834  27.914  22.268  1.00  0.00     0.025 C 
BRANCH   7   9
ATOM      9  C   UNL A   1      31.406  27.874  23.082  1.00  0.00    -0.027 A 
ATOM     10  C   UNL A   1      30.321  27.139  23.709  1.00  0.00     0.023 A 
ATOM     11  C   UNL A   1      31.108  29.009  22.424  1.00  0.00     0.076 A 
ATOM     12  C   UNL A   1      29.059  27.583  23.638  1.00  0.00     0.095 A 
ATOM     13  C   UNL A   1      29.712  29.533  22.356  1.00  0.00     0.255 A 
ATOM     14  N   UNL A   1      28.749  28.754  22.971  1.00  0.00    -0.258 N 
ATOM     15  O   UNL A   1      29.519  30.594  21.771  1.00  0.00    -0.269 OA
BRANCH  14  16
ATOM     16  C   UNL A   1      27.390  29.224  22.912  1.00  0.00     0.451 C 
ATOM     17  F   UNL A   1      26.523  28.267  23.324  1.00  0.00    -0.185 F 
ATOM     18  F   UNL A   1      27.217  30.313  23.702  1.00  0.00    -0.185 F 
ENDBRANCH  14  16
ENDBRANCH   7   9
ENDBRANCH   5   7
ENDBRANCH   4   5
ENDBRANCH   3   4
ENDBRANCH   2   3
ENDBRANCH   1   2
BRANCH   1  19
ATOM     19  C   UNL A   1      31.387  31.908  26.742  1.00  0.00     0.202 C 
BRANCH  19  20
ATOM     20  C   UNL A   1      32.138  33.243  26.812  1.00  0.00     0.261 C 
BRANCH  20  21
ATOM     21  O   UNL A   1      32.173  33.776  28.149  1.00  0.00    -0.460 OA
BRANCH  21  22
ATOM     22  C   UNL A   1      33.223  34.592  28.397  1.00  0.00     0.338 C 
ATOM     23  O   UNL A   1      33.217  35.815  28.457  1.00  0.00    -0.246 OA
BRANCH  22  24
ATOM     24  C   UNL A   1      34.411  33.802  28.766  1.00  0.00     0.060 A 
ATOM     25  C   UNL A   1      34.188  32.577  29.410  1.00  0.00     0.016 A 
ATOM     26  C   UNL A   1      35.711  34.272  28.566  1.00  0.00     0.016 A 
ATOM     27  C   UNL A   1      35.262  31.845  29.908  1.00  0.00     0.010 A 
ATOM     28  C   UNL A   1      36.789  33.537  29.074  1.00  0.00     0.010 A 
ATOM     29  C   UNL A   1      36.565  32.341  29.779  1.00  0.00    -0.014 A 
BRANCH  29  30
ATOM     30  C   UNL A   1      37.666  31.680  30.522  1.00  0.00     0.031 A 
ATOM     31  C   UNL A   1      38.508  30.654  29.814  1.00  0.00     0.074 A 
ATOM     32  C   UNL A   1      37.947  32.025  31.790  1.00  0.00     0.049 A 
ATOM     33  N   UNL A   1      39.522  29.958  30.263  1.00  0.00    -0.248 NA
ATOM     34  C   UNL A   1      38.161  30.376  28.410  1.00  0.00     0.031 C 
ATOM     35  C   UNL A   1      37.233  33.034  32.569  1.00  0.00     0.029 A 
ATOM     36  N   UNL A   1      38.915  31.560  32.645  1.00  0.00    -0.354 N 
ATOM     37  C   UNL A   1      39.932  29.161  29.202  1.00  0.00     0.074 A 
ATOM     38  C   UNL A   1      39.041  29.436  28.095  1.00  0.00     0.031 C 
ATOM     39  C   UNL A   1      37.785  33.109  33.793  1.00  0.00     0.029 A 
ATOM     40  C   UNL A   1      38.872  32.138  33.889  1.00  0.00     0.049 A 
ATOM     41  H   UNL A   1      39.577  30.877  32.389  1.00  0.00     0.167 HD
ATOM     42  C   UNL A   1      40.964  28.286  29.150  1.00  0.00     0.037 A 
ATOM     43  C   UNL A   1      39.619  31.898  34.985  1.00  0.00     0.037 A 
ATOM     44  C   UNL A   1      41.854  28.016  30.246  1.00  0.00     0.049 A 
ATOM     45  C   UNL A   1      40.718  30.870  34.922  1.00  0.00     0.074 A 
ATOM     46  C   UNL A   1      42.943  27.163  30.284  1.00  0.00     0.029 A 
ATOM     47  N   UNL A   1      41.753  28.591  31.504  1.00  0.00    -0.354 N 
ATOM     48  N   UNL A   1      41.113  30.142  33.906  1.00  0.00    -0.248 NA
ATOM     49  C   UNL A   1      41.474  30.632  36.160  1.00  0.00     0.031 C 
ATOM     50  C   UNL A   1      43.474  27.189  31.578  1.00  0.00     0.029 A 
ATOM     51  C   UNL A   1      42.744  28.092  32.333  1.00  0.00     0.049 A 
ATOM     52  H   UNL A   1      41.077  29.256  31.768  1.00  0.00     0.167 HD
ATOM     53  C   UNL A   1      42.179  29.382  34.373  1.00  0.00     0.074 A 
ATOM     54  C   UNL A   1      42.375  29.745  35.760  1.00  0.00     0.031 C 
ATOM     55  C   UNL A   1      42.929  28.468  33.711  1.00  0.00     0.037 A 
BRANCH  42  56
ATOM     56  C   UNL A   1      41.171  27.539  27.866  1.00  0.00     0.057 A 
ATOM     57  C   UNL A   1      40.576  26.293  27.630  1.00  0.00     0.134 A 
ATOM     58  C   UNL A   1      41.954  28.087  26.842  1.00  0.00     0.134 A 
ATOM     59  F   UNL A   1      39.827  25.708  28.577  1.00  0.00    -0.206 F 
ATOM     60  C   UNL A   1      40.766  25.610  26.427  1.00  0.00     0.040 A 
ATOM     61  C   UNL A   1      42.134  27.424  25.627  1.00  0.00     0.040 A 
ATOM     62  F   UNL A   1      42.550  29.277  27.003  1.00  0.00    -0.206 F 
ATOM     63  C   UNL A   1      41.543  26.179  25.419  1.00  0.00     0.006 A 
ENDBRANCH  42  56
BRANCH  43  64
ATOM     64  C   UNL A   1      39.351  32.637  36.244  1.00  0.00     0.057 A 
ATOM     65  C   UNL A   1      40.009  33.836  36.536  1.00  0.00     0.134 A 
ATOM     66  C   UNL A   1      38.447  32.147  37.195  1.00  0.00     0.134 A 
ATOM     67  F   UNL A   1      40.905  34.342  35.675  1.00  0.00    -0.206 F 
ATOM     68  C   UNL A   1      39.791  34.515  37.735  1.00  0.00     0.040 A 
ATOM     69  C   UNL A   1      38.202  32.828  38.388  1.00  0.00     0.040 A 
ATOM     70  F   UNL A   1      37.785  31.002  36.973  1.00  0.00    -0.206 F 
ATOM     71  C   UNL A   1      38.880  34.013  38.663  1.00  0.00     0.006 A 
ENDBRANCH  43  64
BRANCH  55  72
ATOM     72  C   UNL A   1      44.052  27.821  34.467  1.00  0.00     0.057 A 
ATOM     73  C   UNL A   1      45.321  28.406  34.547  1.00  0.00     0.134 A 
ATOM     74  C   UNL A   1      43.847  26.619  35.158  1.00  0.00     0.134 A 
ATOM     75  F   UNL A   1      45.585  29.549  33.898  1.00  0.00    -0.206 F 
ATOM     76  C   UNL A   1      46.355  27.808  35.272  1.00  0.00     0.040 A 
ATOM     77  C   UNL A   1      44.864  26.025  35.905  1.00  0.00     0.040 A 
ATOM     78  F   UNL A   1      42.650  26.012  35.129  1.00  0.00    -0.206 F 
ATOM     79  C   UNL A   1      46.124  26.617  35.959  1.00  0.00     0.006 A 
ENDBRANCH  55  72
ENDBRANCH  29  30
ENDBRANCH  22  24
ENDBRANCH  21  22
ENDBRANCH  20  21
ENDBRANCH  19  20
ENDBRANCH   1  19
TORSDOF 16
ENDMDL
MODEL 3
REMARK VINA RESULT:     -10.2      5.863     10.252
REMARK SMILES C[C@@H](C(=O)OCCOCCOC(=O)c1ccc(-c2c3nc(c(-c4c(F)cccc4F)c4ccc([nH]4)c(-c4c(F)cccc4F)c4nc(c(-c5c(F)cccc5F)c5ccc2[nH]5)C=C4)C=C3)cc1)c1ccn(C(F)F)c(=O)c1
REMARK SMILES IDX 8 1 7 2 6 3 5 4 3 5 4 6 2 7 1 8 68 9 69 10 77 11 70 12 75 13
REMARK SMILES IDX 71 14 76 15 72 16 73 17 74 18 9 19 10 20 11 21 12 22 13 23
REMARK SMILES IDX 14 24 15 25 67 26 16 27 66 28 17 29 18 30 19 31 60 32 20 33
REMARK SMILES IDX 65 34 59 35 61 36 21 37 64 38 58 39 57 40 22 42 48 43 31 44
REMARK SMILES IDX 47 45 32 46 35 47 46 48 62 49 33 50 34 51 45 53 63 54 36 55
REMARK SMILES IDX 23 56 24 57 29 58 25 59 26 60 28 61 30 62 27 63 49 64 50 65
REMARK SMILES IDX 55 66 51 67 52 68 54 69 56 70 53 71 37 72 38 73 43 74 39 75
REMARK SMILES IDX 40 76 42 77 44 78 41 79
REMARK H PARENT 61 41 35 52
REMARK Flexibility Score: inf
ROOT
ATOM      1  O   UNL A   1      38.232  22.177  25.418  1.00  0.00    -0.374 OA
ENDROOT
BRANCH   1   2
ATOM      2  C   UNL A   1      37.169  23.126  25.544  1.00  0.00     0.202 C 
BRANCH   2   3
ATOM      3  C   UNL A   1      36.257  23.256  24.322  1.00  0.00     0.261 C 
BRANCH   3   4
ATOM      4  O   UNL A   1      34.936  22.779  24.646  1.00  0.00    -0.463 OA
BRANCH   4   5
ATOM      5  C   UNL A   1      34.034  22.765  23.627  1.00  0.00     0.313 C 
ATOM      6  O   UNL A   1      34.286  23.110  22.477  1.00  0.00    -0.252 OA
BRANCH   5   7
ATOM      7  C   UNL A   1      32.656  22.254  24.072  1.00  0.00     0.126 C 
ATOM      8  C   UNL A   1      32.140  22.857  25.385  1.00  0.00     0.025 C 
BRANCH   7   9
ATOM      9  C   UNL A   1      32.685  20.728  24.071  1.00  0.00    -0.027 A 
ATOM     10  C   UNL A   1      33.024  20.077  25.326  1.00  0.00     0.023 A 
ATOM     11  C   UNL A   1      32.428  19.952  23.002  1.00  0.00     0.076 A 
ATOM     12  C   UNL A   1      33.074  18.742  25.415  1.00  0.00     0.095 A 
ATOM     13  C   UNL A   1      32.453  18.463  23.090  1.00  0.00     0.255 A 
ATOM     14  N   UNL A   1      32.802  17.940  24.322  1.00  0.00    -0.258 N 
ATOM     15  O   UNL A   1      32.172  17.818  22.085  1.00  0.00    -0.269 OA
BRANCH  14  16
ATOM     16  C   UNL A   1      32.849  16.506  24.437  1.00  0.00     0.451 C 
ATOM     17  F   UNL A   1      33.976  16.007  23.873  1.00  0.00    -0.185 F 
ATOM     18  F   UNL A   1      32.826  16.122  25.737  1.00  0.00    -0.185 F 
ENDBRANCH  14  16
ENDBRANCH   7   9
ENDBRANCH   5   7
ENDBRANCH   4   5
ENDBRANCH   3   4
ENDBRANCH   2   3
ENDBRANCH   1   2
BRANCH   1  19
ATOM     19  C   UNL A   1      37.867  20.822  25.170  1.00  0.00     0.202 C 
BRANCH  19  20
ATOM     20  C   UNL A   1      39.024  19.822  25.064  1.00  0.00     0.261 C 
BRANCH  20  21
ATOM     21  O   UNL A   1      39.769  19.723  26.292  1.00  0.00    -0.460 OA
BRANCH  21  22
ATOM     22  C   UNL A   1      41.108  19.617  26.125  1.00  0.00     0.338 C 
ATOM     23  O   UNL A   1      41.721  18.696  25.601  1.00  0.00    -0.246 OA
BRANCH  22  24
ATOM     24  C   UNL A   1      41.774  20.871  26.519  1.00  0.00     0.060 A 
ATOM     25  C   UNL A   1      41.819  21.167  27.888  1.00  0.00     0.016 A 
ATOM     26  C   UNL A   1      42.273  21.777  25.580  1.00  0.00     0.016 A 
ATOM     27  C   UNL A   1      42.310  22.396  28.320  1.00  0.00     0.010 A 
ATOM     28  C   UNL A   1      42.760  23.015  26.017  1.00  0.00     0.010 A 
ATOM     29  C   UNL A   1      42.745  23.343  27.384  1.00  0.00    -0.014 A 
BRANCH  29  30
ATOM     30  C   UNL A   1      43.032  24.726  27.837  1.00  0.00     0.031 A 
ATOM     31  C   UNL A   1      44.464  25.169  27.959  1.00  0.00     0.074 A 
ATOM     32  C   UNL A   1      42.035  25.592  28.086  1.00  0.00     0.049 A 
ATOM     33  N   UNL A   1      44.947  26.328  28.328  1.00  0.00    -0.248 NA
ATOM     34  C   UNL A   1      45.491  24.171  27.617  1.00  0.00     0.031 C 
ATOM     35  C   UNL A   1      40.609  25.296  27.963  1.00  0.00     0.029 A 
ATOM     36  N   UNL A   1      42.074  26.902  28.493  1.00  0.00    -0.354 N 
ATOM     37  C   UNL A   1      46.328  26.200  28.265  1.00  0.00     0.074 A 
ATOM     38  C   UNL A   1      46.610  24.841  27.852  1.00  0.00     0.031 C 
ATOM     39  C   UNL A   1      39.907  26.394  28.293  1.00  0.00     0.029 A 
ATOM     40  C   UNL A   1      40.832  27.458  28.673  1.00  0.00     0.049 A 
ATOM     41  H   UNL A   1      42.914  27.395  28.641  1.00  0.00     0.167 HD
ATOM     42  C   UNL A   1      47.278  27.131  28.519  1.00  0.00     0.037 A 
ATOM     43  C   UNL A   1      40.485  28.685  29.110  1.00  0.00     0.037 A 
ATOM     44  C   UNL A   1      47.000  28.483  28.924  1.00  0.00     0.049 A 
ATOM     45  C   UNL A   1      41.561  29.682  29.451  1.00  0.00     0.074 A 
ATOM     46  C   UNL A   1      47.894  29.507  29.183  1.00  0.00     0.029 A 
ATOM     47  N   UNL A   1      45.730  28.996  29.136  1.00  0.00    -0.354 N 
ATOM     48  N   UNL A   1      42.863  29.557  29.363  1.00  0.00    -0.248 NA
ATOM     49  C   UNL A   1      41.117  30.990  29.953  1.00  0.00     0.031 C 
ATOM     50  C   UNL A   1      47.166  30.629  29.595  1.00  0.00     0.029 A 
ATOM     51  C   UNL A   1      45.817  30.316  29.549  1.00  0.00     0.049 A 
ATOM     52  H   UNL A   1      44.891  28.498  29.012  1.00  0.00     0.167 HD
ATOM     53  C   UNL A   1      43.392  30.776  29.770  1.00  0.00     0.074 A 
ATOM     54  C   UNL A   1      42.270  31.631  30.096  1.00  0.00     0.031 C 
ATOM     55  C   UNL A   1      44.690  31.155  29.863  1.00  0.00     0.037 A 
BRANCH  42  56
ATOM     56  C   UNL A   1      48.711  26.709  28.386  1.00  0.00     0.057 A 
ATOM     57  C   UNL A   1      49.441  26.215  29.474  1.00  0.00     0.134 A 
ATOM     58  C   UNL A   1      49.360  26.772  27.147  1.00  0.00     0.134 A 
ATOM     59  F   UNL A   1      48.881  26.143  30.691  1.00  0.00    -0.206 F 
ATOM     60  C   UNL A   1      50.772  25.815  29.339  1.00  0.00     0.040 A 
ATOM     61  C   UNL A   1      50.683  26.356  26.993  1.00  0.00     0.040 A 
ATOM     62  F   UNL A   1      48.717  27.234  26.064  1.00  0.00    -0.206 F 
ATOM     63  C   UNL A   1      51.394  25.879  28.093  1.00  0.00     0.006 A 
ENDBRANCH  42  56
BRANCH  43  64
ATOM     64  C   UNL A   1      39.053  29.042  29.261  1.00  0.00     0.057 A 
ATOM     65  C   UNL A   1      38.376  28.838  30.468  1.00  0.00     0.134 A 
ATOM     66  C   UNL A   1      38.321  29.575  28.192  1.00  0.00     0.134 A 
ATOM     67  F   UNL A   1      39.018  28.308  31.520  1.00  0.00    -0.206 F 
ATOM     68  C   UNL A   1      37.020  29.135  30.605  1.00  0.00     0.040 A 
ATOM     69  C   UNL A   1      36.970  29.898  28.322  1.00  0.00     0.040 A 
ATOM     70  F   UNL A   1      38.912  29.793  27.008  1.00  0.00    -0.206 F 
ATOM     71  C   UNL A   1      36.314  29.672  29.530  1.00  0.00     0.006 A 
ENDBRANCH  43  64
BRANCH  55  72
ATOM     72  C   UNL A   1      44.967  32.562  30.303  1.00  0.00     0.057 A 
ATOM     73  C   UNL A   1      45.243  32.877  31.640  1.00  0.00     0.134 A 
ATOM     74  C   UNL A   1      44.999  33.608  29.371  1.00  0.00     0.134 A 
ATOM     75  F   UNL A   1      45.214  31.923  32.582  1.00  0.00    -0.206 F 
ATOM     76  C   UNL A   1      45.521  34.186  32.037  1.00  0.00     0.040 A 
ATOM     77  C   UNL A   1      45.301  34.916  29.752  1.00  0.00     0.040 A 
ATOM     78  F   UNL A   1      44.753  33.372  28.073  1.00  0.00    -0.206 F 
ATOM     79  C   UNL A   1      45.558  35.208  31.090  1.00  0.00     0.006 A 
ENDBRANCH  55  72
ENDBRANCH  29  30
ENDBRANCH  22  24
ENDBRANCH  21  22
ENDBRANCH  20  21
ENDBRANCH  19  20
ENDBRANCH   1  19
TORSDOF 16
ENDMDL
