MODEL 1
REMARK VINA RESULT:     -10.9      0.000      0.000
REMARK SMILES C[C@H](NC(=O)N1CC[C@H](C(=O)OCCOCCOC(=O)c2ccc(-c3c4nc(c(-c5c(F)cccc5F)c5ccc([nH]5)c(-c5c(F)cccc5F)c5nc(c(-c6c(F)cccc6F)c6ccc3[nH]6)C=C5)C=C4)cc2)[C@@H]1C)[C@@H]1CCCO1
REMARK SMILES IDX 14 1 13 2 12 3 10 4 11 5 9 6 6 7 7 8 75 9 8 10 76 11 4 12
REMARK SMILES IDX 3 13 5 15 2 16 1 17 77 18 78 19 81 20 79 21 80 22 15 23
REMARK SMILES IDX 16 24 17 25 18 26 19 27 20 28 21 29 22 30 74 31 23 32 73 33
REMARK SMILES IDX 24 34 25 35 26 36 67 37 27 38 72 39 66 40 68 41 28 42 71 43
REMARK SMILES IDX 65 44 64 45 29 47 55 48 38 49 54 50 39 51 42 52 53 53 69 54
REMARK SMILES IDX 40 55 41 56 52 58 70 59 43 60 30 61 31 62 36 63 32 64 33 65
REMARK SMILES IDX 35 66 37 67 34 68 56 69 57 70 62 71 58 72 59 73 61 74 63 75
REMARK SMILES IDX 60 76 44 77 45 78 50 79 46 80 47 81 49 82 51 83 48 84
REMARK H PARENT 3 14 68 46 42 57
REMARK Flexibility Score: inf
ROOT
ATOM      1  C   UNL A   1      39.837  21.180  26.508  1.00  0.00     0.202 C 
ENDROOT
BRANCH   1   2
ATOM      2  C   UNL A   1      38.772  21.543  25.470  1.00  0.00     0.261 C 
BRANCH   2   3
ATOM      3  O   UNL A   1      37.595  22.041  26.122  1.00  0.00    -0.463 OA
BRANCH   3   4
ATOM      4  C   UNL A   1      36.412  21.760  25.507  1.00  0.00     0.311 C 
ATOM      5  O   UNL A   1      36.049  20.648  25.160  1.00  0.00    -0.252 OA
BRANCH   4   6
ATOM      6  C   UNL A   1      35.631  23.045  25.314  1.00  0.00     0.123 C 
ATOM      7  N   UNL A   1      33.252  22.912  25.339  1.00  0.00    -0.321 N 
ATOM      8  C   UNL A   1      33.715  22.423  24.055  1.00  0.00     0.122 C 
ATOM      9  C   UNL A   1      34.386  23.229  26.212  1.00  0.00     0.098 C 
ATOM     10  C   UNL A   1      35.072  23.088  23.896  1.00  0.00     0.039 C 
ATOM     11  C   UNL A   1      34.364  22.434  27.516  1.00  0.00     0.032 C 
BRANCH   7  12
ATOM     12  C   UNL A   1      31.920  22.908  25.608  1.00  0.00     0.317 C 
ATOM     13  N   UNL A   1      31.248  24.067  25.783  1.00  0.00    -0.333 N 
ATOM     14  H   UNL A   1      30.444  23.992  26.347  1.00  0.00     0.165 HD
ATOM     15  O   UNL A   1      31.265  21.864  25.626  1.00  0.00    -0.249 OA
BRANCH  13  16
ATOM     16  C   UNL A   1      31.512  25.417  25.276  1.00  0.00     0.109 C 
ATOM     17  C   UNL A   1      30.200  26.118  24.907  1.00  0.00     0.034 C 
BRANCH  16  18
ATOM     18  C   UNL A   1      32.256  26.259  26.339  1.00  0.00     0.140 C 
ATOM     19  C   UNL A   1      31.499  27.487  26.826  1.00  0.00     0.036 C 
ATOM     20  O   UNL A   1      33.515  26.747  25.820  1.00  0.00    -0.376 OA
ATOM     21  C   UNL A   1      32.634  28.361  27.304  1.00  0.00     0.031 C 
ATOM     22  C   UNL A   1      33.682  28.109  26.242  1.00  0.00     0.160 C 
ENDBRANCH  16  18
ENDBRANCH  13  16
ENDBRANCH   7  12
ENDBRANCH   4   6
ENDBRANCH   3   4
ENDBRANCH   2   3
ENDBRANCH   1   2
BRANCH   1  23
ATOM     23  O   UNL A   1      40.932  20.394  26.039  1.00  0.00    -0.374 OA
BRANCH  23  24
ATOM     24  C   UNL A   1      42.216  20.607  26.625  1.00  0.00     0.202 C 
BRANCH  24  25
ATOM     25  C   UNL A   1      43.229  21.425  25.817  1.00  0.00     0.261 C 
BRANCH  25  26
ATOM     26  O   UNL A   1      42.607  22.492  25.079  1.00  0.00    -0.460 OA
BRANCH  26  27
ATOM     27  C   UNL A   1      43.344  23.625  24.990  1.00  0.00     0.338 C 
ATOM     28  O   UNL A   1      44.301  23.837  24.261  1.00  0.00    -0.246 OA
BRANCH  27  29
ATOM     29  C   UNL A   1      42.735  24.688  25.805  1.00  0.00     0.060 A 
ATOM     30  C   UNL A   1      43.462  25.869  25.993  1.00  0.00     0.016 A 
ATOM     31  C   UNL A   1      41.528  24.478  26.473  1.00  0.00     0.016 A 
ATOM     32  C   UNL A   1      43.002  26.836  26.884  1.00  0.00     0.010 A 
ATOM     33  C   UNL A   1      41.075  25.442  27.378  1.00  0.00     0.010 A 
ATOM     34  C   UNL A   1      41.827  26.607  27.612  1.00  0.00    -0.014 A 
BRANCH  34  35
ATOM     35  C   UNL A   1      41.474  27.500  28.739  1.00  0.00     0.031 A 
ATOM     36  C   UNL A   1      42.263  27.401  30.015  1.00  0.00     0.074 A 
ATOM     37  C   UNL A   1      40.475  28.393  28.626  1.00  0.00     0.049 A 
ATOM     38  N   UNL A   1      42.077  28.009  31.157  1.00  0.00    -0.248 NA
ATOM     39  C   UNL A   1      43.422  26.491  29.998  1.00  0.00     0.031 C 
ATOM     40  C   UNL A   1      39.679  28.623  27.422  1.00  0.00     0.029 A 
ATOM     41  N   UNL A   1      39.956  29.265  29.548  1.00  0.00    -0.354 N 
ATOM     42  C   UNL A   1      43.088  27.554  31.995  1.00  0.00     0.074 A 
ATOM     43  C   UNL A   1      43.870  26.600  31.239  1.00  0.00     0.031 C 
ATOM     44  C   UNL A   1      38.757  29.566  27.686  1.00  0.00     0.029 A 
ATOM     45  C   UNL A   1      38.877  29.975  29.084  1.00  0.00     0.049 A 
ATOM     46  H   UNL A   1      40.322  29.372  30.457  1.00  0.00     0.167 HD
ATOM     47  C   UNL A   1      43.342  27.904  33.278  1.00  0.00     0.037 A 
ATOM     48  C   UNL A   1      38.063  30.834  29.728  1.00  0.00     0.037 A 
ATOM     49  C   UNL A   1      42.557  28.847  34.029  1.00  0.00     0.049 A 
ATOM     50  C   UNL A   1      38.311  31.137  31.181  1.00  0.00     0.074 A 
ATOM     51  C   UNL A   1      42.724  29.259  35.339  1.00  0.00     0.029 A 
ATOM     52  N   UNL A   1      41.454  29.522  33.532  1.00  0.00    -0.354 N 
ATOM     53  N   UNL A   1      39.264  30.699  31.968  1.00  0.00    -0.248 NA
ATOM     54  C   UNL A   1      37.366  32.053  31.839  1.00  0.00     0.031 C 
ATOM     55  C   UNL A   1      41.699  30.159  35.647  1.00  0.00     0.029 A 
ATOM     56  C   UNL A   1      40.920  30.338  34.515  1.00  0.00     0.049 A 
ATOM     57  H   UNL A   1      41.103  29.436  32.617  1.00  0.00     0.167 HD
ATOM     58  C   UNL A   1      39.056  31.309  33.199  1.00  0.00     0.074 A 
ATOM     59  C   UNL A   1      37.887  32.152  33.054  1.00  0.00     0.031 C 
ATOM     60  C   UNL A   1      39.769  31.187  34.343  1.00  0.00     0.037 A 
BRANCH  47  61
ATOM     61  C   UNL A   1      44.507  27.243  33.953  1.00  0.00     0.057 A 
ATOM     62  C   UNL A   1      45.784  27.815  33.946  1.00  0.00     0.134 A 
ATOM     63  C   UNL A   1      44.342  26.033  34.639  1.00  0.00     0.134 A 
ATOM     64  F   UNL A   1      46.012  28.965  33.292  1.00  0.00    -0.206 F 
ATOM     65  C   UNL A   1      46.863  27.197  34.581  1.00  0.00     0.040 A 
ATOM     66  C   UNL A   1      45.407  25.418  35.296  1.00  0.00     0.040 A 
ATOM     67  F   UNL A   1      43.143  25.434  34.685  1.00  0.00    -0.206 F 
ATOM     68  C   UNL A   1      46.674  25.998  35.264  1.00  0.00     0.006 A 
ENDBRANCH  47  61
BRANCH  48  69
ATOM     69  C   UNL A   1      36.921  31.457  29.013  1.00  0.00     0.057 A 
ATOM     70  C   UNL A   1      36.961  32.798  28.615  1.00  0.00     0.134 A 
ATOM     71  C   UNL A   1      35.752  30.736  28.740  1.00  0.00     0.134 A 
ATOM     72  F   UNL A   1      38.043  33.546  28.872  1.00  0.00    -0.206 F 
ATOM     73  C   UNL A   1      35.872  33.406  27.986  1.00  0.00     0.040 A 
ATOM     74  C   UNL A   1      34.665  31.326  28.091  1.00  0.00     0.040 A 
ATOM     75  F   UNL A   1      35.650  29.447  29.097  1.00  0.00    -0.206 F 
ATOM     76  C   UNL A   1      34.722  32.667  27.719  1.00  0.00     0.006 A 
ENDBRANCH  48  69
BRANCH  60  77
ATOM     77  C   UNL A   1      39.342  32.021  35.515  1.00  0.00     0.057 A 
ATOM     78  C   UNL A   1      39.735  33.356  35.656  1.00  0.00     0.134 A 
ATOM     79  C   UNL A   1      38.478  31.492  36.483  1.00  0.00     0.134 A 
ATOM     80  F   UNL A   1      40.570  33.917  34.769  1.00  0.00    -0.206 F 
ATOM     81  C   UNL A   1      39.296  34.134  36.730  1.00  0.00     0.040 A 
ATOM     82  C   UNL A   1      38.015  32.265  37.548  1.00  0.00     0.040 A 
ATOM     83  F   UNL A   1      38.058  30.220  36.399  1.00  0.00    -0.206 F 
ATOM     84  C   UNL A   1      38.427  33.590  37.675  1.00  0.00     0.006 A 
ENDBRANCH  60  77
ENDBRANCH  34  35
ENDBRANCH  27  29
ENDBRANCH  26  27
ENDBRANCH  25  26
ENDBRANCH  24  25
ENDBRANCH  23  24
ENDBRANCH   1  23
TORSDOF 17
ENDMDL
MODEL 2
REMARK VINA RESULT:     -10.4      2.827      8.396
REMARK SMILES C[C@H](NC(=O)N1CC[C@H](C(=O)OCCOCCOC(=O)c2ccc(-c3c4nc(c(-c5c(F)cccc5F)c5ccc([nH]5)c(-c5c(F)cccc5F)c5nc(c(-c6c(F)cccc6F)c6ccc3[nH]6)C=C5)C=C4)cc2)[C@@H]1C)[C@@H]1CCCO1
REMARK SMILES IDX 14 1 13 2 12 3 10 4 11 5 9 6 6 7 7 8 75 9 8 10 76 11 4 12
REMARK SMILES IDX 3 13 5 15 2 16 1 17 77 18 78 19 81 20 79 21 80 22 15 23
REMARK SMILES IDX 16 24 17 25 18 26 19 27 20 28 21 29 22 30 74 31 23 32 73 33
REMARK SMILES IDX 24 34 25 35 26 36 67 37 27 38 72 39 66 40 68 41 28 42 71 43
REMARK SMILES IDX 65 44 64 45 29 47 55 48 38 49 54 50 39 51 42 52 53 53 69 54
REMARK SMILES IDX 40 55 41 56 52 58 70 59 43 60 30 61 31 62 36 63 32 64 33 65
REMARK SMILES IDX 35 66 37 67 34 68 56 69 57 70 62 71 58 72 59 73 61 74 63 75
REMARK SMILES IDX 60 76 44 77 45 78 50 79 46 80 47 81 49 82 51 83 48 84
REMARK H PARENT 3 14 68 46 42 57
REMARK Flexibility Score: inf
ROOT
ATOM      1  C   UNL A   1      31.807  29.527  25.324  1.00  0.00     0.202 C 
ENDROOT
BRANCH   1   2
ATOM      2  C   UNL A   1      31.561  28.162  25.974  1.00  0.00     0.261 C 
BRANCH   2   3
ATOM      3  O   UNL A   1      31.996  27.113  25.099  1.00  0.00    -0.463 OA
BRANCH   3   4
ATOM      4  C   UNL A   1      33.116  26.440  25.491  1.00  0.00     0.311 C 
ATOM      5  O   UNL A   1      33.945  26.859  26.283  1.00  0.00    -0.252 OA
BRANCH   4   6
ATOM      6  C   UNL A   1      33.170  25.102  24.779  1.00  0.00     0.123 C 
ATOM      7  N   UNL A   1      33.467  23.149  26.111  1.00  0.00    -0.321 N 
ATOM      8  C   UNL A   1      34.750  23.815  26.000  1.00  0.00     0.122 C 
ATOM      9  C   UNL A   1      32.417  23.936  25.459  1.00  0.00     0.098 C 
ATOM     10  C   UNL A   1      34.616  24.621  24.719  1.00  0.00     0.039 C 
ATOM     11  C   UNL A   1      31.291  24.320  26.416  1.00  0.00     0.032 C 
BRANCH   7  12
ATOM     12  C   UNL A   1      33.372  22.015  26.854  1.00  0.00     0.317 C 
ATOM     13  N   UNL A   1      33.341  20.802  26.260  1.00  0.00    -0.333 N 
ATOM     14  H   UNL A   1      32.882  20.104  26.782  1.00  0.00     0.165 HD
ATOM     15  O   UNL A   1      33.389  22.043  28.086  1.00  0.00    -0.249 OA
BRANCH  13  16
ATOM     16  C   UNL A   1      33.873  20.349  24.972  1.00  0.00     0.109 C 
ATOM     17  C   UNL A   1      35.405  20.365  24.988  1.00  0.00     0.034 C 
BRANCH  16  18
ATOM     18  C   UNL A   1      33.384  18.915  24.658  1.00  0.00     0.140 C 
ATOM     19  C   UNL A   1      34.481  17.938  24.261  1.00  0.00     0.036 C 
ATOM     20  O   UNL A   1      32.441  18.922  23.560  1.00  0.00    -0.376 OA
ATOM     21  C   UNL A   1      33.698  16.923  23.464  1.00  0.00     0.031 C 
ATOM     22  C   UNL A   1      32.737  17.810  22.702  1.00  0.00     0.160 C 
ENDBRANCH  16  18
ENDBRANCH  13  16
ENDBRANCH   7  12
ENDBRANCH   4   6
ENDBRANCH   3   4
ENDBRANCH   2   3
ENDBRANCH   1   2
BRANCH   1  23
ATOM     23  O   UNL A   1      32.172  30.588  26.205  1.00  0.00    -0.374 OA
BRANCH  23  24
ATOM     24  C   UNL A   1      31.261  31.674  26.369  1.00  0.00     0.202 C 
BRANCH  24  25
ATOM     25  C   UNL A   1      31.861  33.074  26.542  1.00  0.00     0.261 C 
BRANCH  25  26
ATOM     26  O   UNL A   1      31.877  33.498  27.917  1.00  0.00    -0.460 OA
BRANCH  26  27
ATOM     27  C   UNL A   1      32.862  34.373  28.230  1.00  0.00     0.338 C 
ATOM     28  O   UNL A   1      32.766  35.582  28.375  1.00  0.00    -0.246 OA
BRANCH  27  29
ATOM     29  C   UNL A   1      34.102  33.646  28.545  1.00  0.00     0.060 A 
ATOM     30  C   UNL A   1      34.030  32.598  29.471  1.00  0.00     0.016 A 
ATOM     31  C   UNL A   1      35.330  34.066  28.034  1.00  0.00     0.016 A 
ATOM     32  C   UNL A   1      35.198  31.986  29.922  1.00  0.00     0.010 A 
ATOM     33  C   UNL A   1      36.502  33.461  28.499  1.00  0.00     0.010 A 
ATOM     34  C   UNL A   1      36.442  32.444  29.468  1.00  0.00    -0.014 A 
BRANCH  34  35
ATOM     35  C   UNL A   1      37.683  31.982  30.131  1.00  0.00     0.031 A 
ATOM     36  C   UNL A   1      38.408  30.796  29.559  1.00  0.00     0.074 A 
ATOM     37  C   UNL A   1      38.163  32.614  31.216  1.00  0.00     0.049 A 
ATOM     38  N   UNL A   1      39.454  30.159  30.020  1.00  0.00    -0.248 NA
ATOM     39  C   UNL A   1      37.882  30.255  28.295  1.00  0.00     0.031 C 
ATOM     40  C   UNL A   1      37.582  33.809  31.824  1.00  0.00     0.029 A 
ATOM     41  N   UNL A   1      39.248  32.325  32.003  1.00  0.00    -0.354 N 
ATOM     42  C   UNL A   1      39.707  29.142  29.108  1.00  0.00     0.074 A 
ATOM     43  C   UNL A   1      38.693  29.230  28.080  1.00  0.00     0.031 C 
ATOM     44  C   UNL A   1      38.310  34.143  32.905  1.00  0.00     0.029 A 
ATOM     45  C   UNL A   1      39.382  33.165  33.081  1.00  0.00     0.049 A 
ATOM     46  H   UNL A   1      39.873  31.587  31.813  1.00  0.00     0.167 HD
ATOM     47  C   UNL A   1      40.700  28.222  29.125  1.00  0.00     0.037 A 
ATOM     48  C   UNL A   1      40.253  33.125  34.107  1.00  0.00     0.037 A 
ATOM     49  C   UNL A   1      41.702  28.133  30.153  1.00  0.00     0.049 A 
ATOM     50  C   UNL A   1      41.292  32.036  34.152  1.00  0.00     0.074 A 
ATOM     51  C   UNL A   1      42.742  27.228  30.269  1.00  0.00     0.029 A 
ATOM     52  N   UNL A   1      41.785  28.984  31.244  1.00  0.00    -0.354 N 
ATOM     53  N   UNL A   1      41.521  31.074  33.290  1.00  0.00    -0.248 NA
ATOM     54  C   UNL A   1      42.190  32.023  35.316  1.00  0.00     0.031 C 
ATOM     55  C   UNL A   1      43.434  27.509  31.451  1.00  0.00     0.029 A 
ATOM     56  C   UNL A   1      42.850  28.615  32.048  1.00  0.00     0.049 A 
ATOM     57  H   UNL A   1      41.178  29.738  31.421  1.00  0.00     0.167 HD
ATOM     58  C   UNL A   1      42.608  30.366  33.788  1.00  0.00     0.074 A 
ATOM     59  C   UNL A   1      42.995  31.010  35.026  1.00  0.00     0.031 C 
ATOM     60  C   UNL A   1      43.232  29.283  33.265  1.00  0.00     0.037 A 
BRANCH  47  61
ATOM     61  C   UNL A   1      40.732  27.224  28.006  1.00  0.00     0.057 A 
ATOM     62  C   UNL A   1      39.996  26.034  28.060  1.00  0.00     0.134 A 
ATOM     63  C   UNL A   1      41.486  27.468  26.852  1.00  0.00     0.134 A 
ATOM     64  F   UNL A   1      39.267  25.733  29.145  1.00  0.00    -0.206 F 
ATOM     65  C   UNL A   1      40.026  25.111  27.013  1.00  0.00     0.040 A 
ATOM     66  C   UNL A   1      41.505  26.565  25.790  1.00  0.00     0.040 A 
ATOM     67  F   UNL A   1      42.211  28.591  26.737  1.00  0.00    -0.206 F 
ATOM     68  C   UNL A   1      40.777  25.379  25.871  1.00  0.00     0.006 A 
ENDBRANCH  47  61
BRANCH  48  69
ATOM     69  C   UNL A   1      40.174  34.135  35.192  1.00  0.00     0.057 A 
ATOM     70  C   UNL A   1      39.438  33.889  36.357  1.00  0.00     0.134 A 
ATOM     71  C   UNL A   1      40.805  35.379  35.078  1.00  0.00     0.134 A 
ATOM     72  F   UNL A   1      38.791  32.726  36.513  1.00  0.00    -0.206 F 
ATOM     73  C   UNL A   1      39.317  34.852  37.361  1.00  0.00     0.040 A 
ATOM     74  C   UNL A   1      40.712  36.342  36.085  1.00  0.00     0.040 A 
ATOM     75  F   UNL A   1      41.525  35.676  33.985  1.00  0.00    -0.206 F 
ATOM     76  C   UNL A   1      39.959  36.081  37.228  1.00  0.00     0.006 A 
ENDBRANCH  48  69
BRANCH  60  77
ATOM     77  C   UNL A   1      44.431  28.757  33.999  1.00  0.00     0.057 A 
ATOM     78  C   UNL A   1      45.717  29.255  33.769  1.00  0.00     0.134 A 
ATOM     79  C   UNL A   1      44.280  27.777  34.989  1.00  0.00     0.134 A 
ATOM     80  F   UNL A   1      45.928  30.186  32.825  1.00  0.00    -0.206 F 
ATOM     81  C   UNL A   1      46.818  28.786  34.489  1.00  0.00     0.040 A 
ATOM     82  C   UNL A   1      45.369  27.317  35.731  1.00  0.00     0.040 A 
ATOM     83  F   UNL A   1      43.070  27.266  35.263  1.00  0.00    -0.206 F 
ATOM     84  C   UNL A   1      46.643  27.820  35.478  1.00  0.00     0.006 A 
ENDBRANCH  60  77
ENDBRANCH  34  35
ENDBRANCH  27  29
ENDBRANCH  26  27
ENDBRANCH  25  26
ENDBRANCH  24  25
ENDBRANCH  23  24
ENDBRANCH   1  23
TORSDOF 17
ENDMDL
MODEL 3
REMARK VINA RESULT:     -10.4      1.590      2.442
REMARK SMILES C[C@H](NC(=O)N1CC[C@H](C(=O)OCCOCCOC(=O)c2ccc(-c3c4nc(c(-c5c(F)cccc5F)c5ccc([nH]5)c(-c5c(F)cccc5F)c5nc(c(-c6c(F)cccc6F)c6ccc3[nH]6)C=C5)C=C4)cc2)[C@@H]1C)[C@@H]1CCCO1
REMARK SMILES IDX 14 1 13 2 12 3 10 4 11 5 9 6 6 7 7 8 75 9 8 10 76 11 4 12
REMARK SMILES IDX 3 13 5 15 2 16 1 17 77 18 78 19 81 20 79 21 80 22 15 23
REMARK SMILES IDX 16 24 17 25 18 26 19 27 20 28 21 29 22 30 74 31 23 32 73 33
REMARK SMILES IDX 24 34 25 35 26 36 67 37 27 38 72 39 66 40 68 41 28 42 71 43
REMARK SMILES IDX 65 44 64 45 29 47 55 48 38 49 54 50 39 51 42 52 53 53 69 54
REMARK SMILES IDX 40 55 41 56 52 58 70 59 43 60 30 61 31 62 36 63 32 64 33 65
REMARK SMILES IDX 35 66 37 67 34 68 56 69 57 70 62 71 58 72 59 73 61 74 63 75
REMARK SMILES IDX 60 76 44 77 45 78 50 79 46 80 47 81 49 82 51 83 48 84
REMARK H PARENT 3 14 68 46 42 57
REMARK Flexibility Score: inf
ROOT
ATOM      1  C   UNL A   1      37.875  21.726  25.444  1.00  0.00     0.202 C 
ENDROOT
BRANCH   1   2
ATOM      2  C   UNL A   1      36.711  21.328  24.533  1.00  0.00     0.261 C 
BRANCH   2   3
ATOM      3  O   UNL A   1      35.830  20.430  25.221  1.00  0.00    -0.463 OA
BRANCH   3   4
ATOM      4  C   UNL A   1      34.497  20.667  25.060  1.00  0.00     0.311 C 
ATOM      5  O   UNL A   1      33.628  19.810  25.045  1.00  0.00    -0.252 OA
BRANCH   4   6
ATOM      6  C   UNL A   1      34.271  22.157  24.895  1.00  0.00     0.123 C 
ATOM      7  N   UNL A   1      32.391  23.124  25.994  1.00  0.00    -0.321 N 
ATOM      8  C   UNL A   1      31.912  22.423  24.820  1.00  0.00     0.122 C 
ATOM      9  C   UNL A   1      33.834  22.928  26.161  1.00  0.00     0.098 C 
ATOM     10  C   UNL A   1      33.128  22.388  23.911  1.00  0.00     0.039 C 
ATOM     11  C   UNL A   1      34.188  22.288  27.502  1.00  0.00     0.032 C 
BRANCH   7  12
ATOM     12  C   UNL A   1      31.496  23.739  26.810  1.00  0.00     0.317 C 
ATOM     13  N   UNL A   1      31.423  25.087  26.864  1.00  0.00    -0.333 N 
ATOM     14  H   UNL A   1      31.078  25.444  27.714  1.00  0.00     0.165 HD
ATOM     15  O   UNL A   1      30.671  23.101  27.467  1.00  0.00    -0.249 OA
BRANCH  13  16
ATOM     16  C   UNL A   1      31.772  26.109  25.871  1.00  0.00     0.109 C 
ATOM     17  C   UNL A   1      30.512  26.630  25.171  1.00  0.00     0.034 C 
BRANCH  16  18
ATOM     18  C   UNL A   1      32.504  27.293  26.546  1.00  0.00     0.140 C 
ATOM     19  C   UNL A   1      31.592  28.315  27.208  1.00  0.00     0.036 C 
ATOM     20  O   UNL A   1      33.291  28.027  25.580  1.00  0.00    -0.376 OA
ATOM     21  C   UNL A   1      32.468  29.544  27.194  1.00  0.00     0.031 C 
ATOM     22  C   UNL A   1      33.132  29.431  25.839  1.00  0.00     0.160 C 
ENDBRANCH  16  18
ENDBRANCH  13  16
ENDBRANCH   7  12
ENDBRANCH   4   6
ENDBRANCH   3   4
ENDBRANCH   2   3
ENDBRANCH   1   2
BRANCH   1  23
ATOM     23  O   UNL A   1      38.957  20.799  25.527  1.00  0.00    -0.374 OA
BRANCH  23  24
ATOM     24  C   UNL A   1      39.951  21.008  26.529  1.00  0.00     0.202 C 
BRANCH  24  25
ATOM     25  C   UNL A   1      41.033  22.055  26.237  1.00  0.00     0.261 C 
BRANCH  25  26
ATOM     26  O   UNL A   1      40.586  23.396  26.508  1.00  0.00    -0.460 OA
BRANCH  26  27
ATOM     27  C   UNL A   1      41.566  24.330  26.516  1.00  0.00     0.338 C 
ATOM     28  O   UNL A   1      42.617  24.313  25.893  1.00  0.00    -0.246 OA
BRANCH  27  29
ATOM     29  C   UNL A   1      41.132  25.509  27.282  1.00  0.00     0.060 A 
ATOM     30  C   UNL A   1      41.862  26.694  27.131  1.00  0.00     0.016 A 
ATOM     31  C   UNL A   1      40.105  25.416  28.222  1.00  0.00     0.016 A 
ATOM     32  C   UNL A   1      41.592  27.788  27.952  1.00  0.00     0.010 A 
ATOM     33  C   UNL A   1      39.846  26.508  29.055  1.00  0.00     0.010 A 
ATOM     34  C   UNL A   1      40.610  27.684  28.946  1.00  0.00    -0.014 A 
BRANCH  34  35
ATOM     35  C   UNL A   1      40.498  28.737  29.982  1.00  0.00     0.031 A 
ATOM     36  C   UNL A   1      41.447  28.708  31.148  1.00  0.00     0.074 A 
ATOM     37  C   UNL A   1      39.575  29.709  29.881  1.00  0.00     0.049 A 
ATOM     38  N   UNL A   1      41.476  29.464  32.214  1.00  0.00    -0.248 NA
ATOM     39  C   UNL A   1      42.507  27.687  31.102  1.00  0.00     0.031 C 
ATOM     40  C   UNL A   1      38.641  29.876  28.769  1.00  0.00     0.029 A 
ATOM     41  N   UNL A   1      39.268  30.734  30.739  1.00  0.00    -0.354 N 
ATOM     42  C   UNL A   1      42.550  29.008  32.968  1.00  0.00     0.074 A 
ATOM     43  C   UNL A   1      43.133  27.895  32.250  1.00  0.00     0.031 C 
ATOM     44  C   UNL A   1      37.851  30.935  29.022  1.00  0.00     0.029 A 
ATOM     45  C   UNL A   1      38.201  31.493  30.326  1.00  0.00     0.049 A 
ATOM     46  H   UNL A   1      39.767  30.910  31.570  1.00  0.00     0.167 HD
ATOM     47  C   UNL A   1      43.012  29.480  34.151  1.00  0.00     0.037 A 
ATOM     48  C   UNL A   1      37.564  32.502  30.950  1.00  0.00     0.037 A 
ATOM     49  C   UNL A   1      42.426  30.582  34.865  1.00  0.00     0.049 A 
ATOM     50  C   UNL A   1      38.039  32.949  32.307  1.00  0.00     0.074 A 
ATOM     51  C   UNL A   1      42.810  31.128  36.077  1.00  0.00     0.029 A 
ATOM     52  N   UNL A   1      41.327  31.305  34.429  1.00  0.00    -0.354 N 
ATOM     53  N   UNL A   1      39.050  32.510  33.017  1.00  0.00    -0.248 NA
ATOM     54  C   UNL A   1      37.279  34.030  32.954  1.00  0.00     0.031 C 
ATOM     55  C   UNL A   1      41.920  32.160  36.392  1.00  0.00     0.029 A 
ATOM     56  C   UNL A   1      41.009  32.283  35.355  1.00  0.00     0.049 A 
ATOM     57  H   UNL A   1      40.845  31.148  33.585  1.00  0.00     0.167 HD
ATOM     58  C   UNL A   1      39.071  33.281  34.172  1.00  0.00     0.074 A 
ATOM     59  C   UNL A   1      37.972  34.218  34.068  1.00  0.00     0.031 C 
ATOM     60  C   UNL A   1      39.925  33.221  35.222  1.00  0.00     0.037 A 
BRANCH  47  61
ATOM     61  C   UNL A   1      44.197  28.786  34.752  1.00  0.00     0.057 A 
ATOM     62  C   UNL A   1      44.051  27.684  35.604  1.00  0.00     0.134 A 
ATOM     63  C   UNL A   1      45.499  29.209  34.457  1.00  0.00     0.134 A 
ATOM     64  F   UNL A   1      42.830  27.240  35.939  1.00  0.00    -0.206 F 
ATOM     65  C   UNL A   1      45.158  27.039  36.157  1.00  0.00     0.040 A 
ATOM     66  C   UNL A   1      46.614  28.558  34.986  1.00  0.00     0.040 A 
ATOM     67  F   UNL A   1      45.707  30.257  33.647  1.00  0.00    -0.206 F 
ATOM     68  C   UNL A   1      46.445  27.472  35.843  1.00  0.00     0.006 A 
ENDBRANCH  47  61
BRANCH  48  69
ATOM     69  C   UNL A   1      36.392  33.151  30.312  1.00  0.00     0.057 A 
ATOM     70  C   UNL A   1      36.553  34.083  29.280  1.00  0.00     0.134 A 
ATOM     71  C   UNL A   1      35.086  32.881  30.739  1.00  0.00     0.134 A 
ATOM     72  F   UNL A   1      37.781  34.402  28.845  1.00  0.00    -0.206 F 
ATOM     73  C   UNL A   1      35.460  34.736  28.707  1.00  0.00     0.040 A 
ATOM     74  C   UNL A   1      33.982  33.509  30.158  1.00  0.00     0.040 A 
ATOM     75  F   UNL A   1      34.864  31.999  31.725  1.00  0.00    -0.206 F 
ATOM     76  C   UNL A   1      34.169  34.445  29.144  1.00  0.00     0.006 A 
ENDBRANCH  48  69
BRANCH  60  77
ATOM     77  C   UNL A   1      39.740  34.228  36.319  1.00  0.00     0.057 A 
ATOM     78  C   UNL A   1      39.021  33.933  37.482  1.00  0.00     0.134 A 
ATOM     79  C   UNL A   1      40.341  35.491  36.229  1.00  0.00     0.134 A 
ATOM     80  F   UNL A   1      38.412  32.746  37.622  1.00  0.00    -0.206 F 
ATOM     81  C   UNL A   1      38.892  34.866  38.513  1.00  0.00     0.040 A 
ATOM     82  C   UNL A   1      40.238  36.423  37.263  1.00  0.00     0.040 A 
ATOM     83  F   UNL A   1      41.052  35.831  35.143  1.00  0.00    -0.206 F 
ATOM     84  C   UNL A   1      39.509  36.112  38.408  1.00  0.00     0.006 A 
ENDBRANCH  60  77
ENDBRANCH  34  35
ENDBRANCH  27  29
ENDBRANCH  26  27
ENDBRANCH  25  26
ENDBRANCH  24  25
ENDBRANCH  23  24
ENDBRANCH   1  23
TORSDOF 17
ENDMDL
