MODEL 1
REMARK VINA RESULT:     -11.9      0.000      0.000
REMARK SMILES C[C@@H](C(=O)OCCOCCOC(=O)c1ccc(-c2c3nc(c(-c4c(F)cccc4F)c4ccc([nH]4)c(-c4c(F)cccc4F)c4nc(c(-c5c(F)cccc5F)c5ccc2[nH]5)C=C4)C=C3)cc1)c1ccc(-c2cccc(OC(=O)Nc3ccccc3)c2)c(F)c1
REMARK SMILES IDX 6 1 5 2 3 3 4 4 2 5 1 6 68 7 69 8 90 9 70 10 88 11 71 12
REMARK SMILES IDX 89 13 72 14 73 15 87 16 74 17 76 18 75 19 77 20 78 21 79 22
REMARK SMILES IDX 80 23 81 25 82 26 86 27 83 28 85 29 84 30 7 31 8 32 9 33
REMARK SMILES IDX 10 34 11 35 12 36 13 37 14 38 15 39 67 40 16 41 66 42 17 43
REMARK SMILES IDX 18 44 19 45 60 46 20 47 65 48 59 49 61 50 21 51 64 52 58 53
REMARK SMILES IDX 57 54 22 56 48 57 31 58 47 59 32 60 35 61 46 62 62 63 33 64
REMARK SMILES IDX 34 65 45 67 63 68 36 69 23 70 24 71 29 72 25 73 26 74 28 75
REMARK SMILES IDX 30 76 27 77 49 78 50 79 55 80 51 81 52 82 54 83 56 84 53 85
REMARK SMILES IDX 37 86 38 87 43 88 39 89 40 90 42 91 44 92 41 93
REMARK H PARENT 80 24 61 55 35 66
REMARK Flexibility Score: inf
ROOT
ATOM      1  C   UNL A   1      32.890  35.647  29.412  1.00  0.00     0.261 C 
ENDROOT
BRANCH   1   2
ATOM      2  O   UNL A   1      32.854  34.324  28.864  1.00  0.00    -0.463 OA
BRANCH   2   3
ATOM      3  C   UNL A   1      33.888  33.997  28.041  1.00  0.00     0.313 C 
ATOM      4  O   UNL A   1      34.381  34.763  27.220  1.00  0.00    -0.252 OA
BRANCH   3   5
ATOM      5  C   UNL A   1      34.436  32.596  28.325  1.00  0.00     0.126 C 
ATOM      6  C   UNL A   1      35.962  32.548  28.150  1.00  0.00     0.025 C 
BRANCH   5   7
ATOM      7  C   UNL A   1      33.688  31.467  27.598  1.00  0.00    -0.031 A 
ATOM      8  C   UNL A   1      34.239  30.179  27.457  1.00  0.00     0.005 A 
ATOM      9  C   UNL A   1      32.474  31.712  26.939  1.00  0.00     0.044 A 
ATOM     10  C   UNL A   1      33.623  29.199  26.661  1.00  0.00     0.012 A 
ATOM     11  C   UNL A   1      31.867  30.733  26.147  1.00  0.00     0.131 A 
ATOM     12  C   UNL A   1      32.441  29.471  25.960  1.00  0.00     0.018 A 
ATOM     13  F   UNL A   1      30.726  31.056  25.517  1.00  0.00    -0.206 F 
BRANCH  12  14
ATOM     14  C   UNL A   1      31.922  28.524  24.959  1.00  0.00    -0.012 A 
ATOM     15  C   UNL A   1      31.732  28.875  23.613  1.00  0.00     0.009 A 
ATOM     16  C   UNL A   1      31.522  27.240  25.374  1.00  0.00     0.056 A 
ATOM     17  C   UNL A   1      31.154  27.971  22.713  1.00  0.00     0.004 A 
ATOM     18  C   UNL A   1      30.920  26.353  24.485  1.00  0.00     0.133 A 
ATOM     19  C   UNL A   1      30.742  26.711  23.150  1.00  0.00     0.047 A 
BRANCH  18  20
ATOM     20  O   UNL A   1      30.419  25.078  24.849  1.00  0.00    -0.410 OA
BRANCH  20  21
ATOM     21  C   UNL A   1      30.536  24.483  26.106  1.00  0.00     0.417 C 
ATOM     22  O   UNL A   1      29.677  24.484  26.983  1.00  0.00    -0.224 OA
ATOM     23  N   UNL A   1      31.683  23.757  26.302  1.00  0.00    -0.291 N 
ATOM     24  H   UNL A   1      31.696  23.236  27.137  1.00  0.00     0.173 HD
BRANCH  23  25
ATOM     25  C   UNL A   1      32.838  23.628  25.520  1.00  0.00     0.044 A 
ATOM     26  C   UNL A   1      33.844  24.582  25.718  1.00  0.00     0.026 A 
ATOM     27  C   UNL A   1      33.020  22.641  24.552  1.00  0.00     0.026 A 
ATOM     28  C   UNL A   1      35.034  24.522  24.993  1.00  0.00     0.002 A 
ATOM     29  C   UNL A   1      34.205  22.592  23.811  1.00  0.00     0.002 A 
ATOM     30  C   UNL A   1      35.216  23.525  24.038  1.00  0.00     0.000 A 
ENDBRANCH  23  25
ENDBRANCH  20  21
ENDBRANCH  18  20
ENDBRANCH  12  14
ENDBRANCH   5   7
ENDBRANCH   3   5
ENDBRANCH   2   3
ENDBRANCH   1   2
BRANCH   1  31
ATOM     31  C   UNL A   1      33.657  35.665  30.737  1.00  0.00     0.202 C 
BRANCH  31  32
ATOM     32  O   UNL A   1      33.432  34.569  31.621  1.00  0.00    -0.374 OA
BRANCH  32  33
ATOM     33  C   UNL A   1      34.071  34.593  32.899  1.00  0.00     0.202 C 
BRANCH  33  34
ATOM     34  C   UNL A   1      34.313  33.246  33.594  1.00  0.00     0.261 C 
BRANCH  34  35
ATOM     35  O   UNL A   1      35.208  32.386  32.862  1.00  0.00    -0.460 OA
BRANCH  35  36
ATOM     36  C   UNL A   1      36.422  32.211  33.439  1.00  0.00     0.338 C 
ATOM     37  O   UNL A   1      36.745  32.482  34.584  1.00  0.00    -0.246 OA
BRANCH  36  38
ATOM     38  C   UNL A   1      37.317  31.462  32.538  1.00  0.00     0.060 A 
ATOM     39  C   UNL A   1      38.228  30.572  33.123  1.00  0.00     0.016 A 
ATOM     40  C   UNL A   1      37.351  31.713  31.166  1.00  0.00     0.016 A 
ATOM     41  C   UNL A   1      39.206  29.960  32.342  1.00  0.00     0.010 A 
ATOM     42  C   UNL A   1      38.342  31.105  30.384  1.00  0.00     0.010 A 
ATOM     43  C   UNL A   1      39.294  30.253  30.974  1.00  0.00    -0.014 A 
BRANCH  43  44
ATOM     44  C   UNL A   1      40.469  29.780  30.202  1.00  0.00     0.031 A 
ATOM     45  C   UNL A   1      41.625  30.717  29.975  1.00  0.00     0.074 A 
ATOM     46  C   UNL A   1      40.527  28.518  29.740  1.00  0.00     0.049 A 
ATOM     47  N   UNL A   1      42.734  30.522  29.310  1.00  0.00    -0.248 NA
ATOM     48  C   UNL A   1      41.513  32.053  30.582  1.00  0.00     0.031 C 
ATOM     49  C   UNL A   1      39.493  27.502  29.930  1.00  0.00     0.029 A 
ATOM     50  N   UNL A   1      41.499  27.879  29.012  1.00  0.00    -0.354 N 
ATOM     51  C   UNL A   1      43.451  31.707  29.415  1.00  0.00     0.074 A 
ATOM     52  C   UNL A   1      42.638  32.628  30.180  1.00  0.00     0.031 C 
ATOM     53  C   UNL A   1      39.881  26.368  29.320  1.00  0.00     0.029 A 
ATOM     54  C   UNL A   1      41.173  26.589  28.674  1.00  0.00     0.049 A 
ATOM     55  H   UNL A   1      42.348  28.306  28.755  1.00  0.00     0.167 HD
ATOM     56  C   UNL A   1      44.680  32.000  28.927  1.00  0.00     0.037 A 
ATOM     57  C   UNL A   1      41.833  25.696  27.911  1.00  0.00     0.037 A 
ATOM     58  C   UNL A   1      45.490  31.086  28.163  1.00  0.00     0.049 A 
ATOM     59  C   UNL A   1      43.166  26.069  27.318  1.00  0.00     0.074 A 
ATOM     60  C   UNL A   1      46.752  31.287  27.634  1.00  0.00     0.029 A 
ATOM     61  N   UNL A   1      45.112  29.798  27.816  1.00  0.00    -0.354 N 
ATOM     62  N   UNL A   1      43.841  27.186  27.438  1.00  0.00    -0.248 NA
ATOM     63  C   UNL A   1      43.829  25.055  26.484  1.00  0.00     0.031 C 
ATOM     64  C   UNL A   1      47.119  30.137  26.926  1.00  0.00     0.029 A 
ATOM     65  C   UNL A   1      46.107  29.201  27.059  1.00  0.00     0.049 A 
ATOM     66  H   UNL A   1      44.261  29.371  28.069  1.00  0.00     0.167 HD
ATOM     67  C   UNL A   1      45.019  27.000  26.722  1.00  0.00     0.074 A 
ATOM     68  C   UNL A   1      44.969  25.658  26.180  1.00  0.00     0.031 C 
ATOM     69  C   UNL A   1      46.047  27.862  26.531  1.00  0.00     0.037 A 
BRANCH  56  70
ATOM     70  C   UNL A   1      45.217  33.377  29.186  1.00  0.00     0.057 A 
ATOM     71  C   UNL A   1      46.008  33.664  30.307  1.00  0.00     0.134 A 
ATOM     72  C   UNL A   1      44.966  34.422  28.288  1.00  0.00     0.134 A 
ATOM     73  F   UNL A   1      46.274  32.711  31.212  1.00  0.00    -0.206 F 
ATOM     74  C   UNL A   1      46.510  34.946  30.536  1.00  0.00     0.040 A 
ATOM     75  C   UNL A   1      45.485  35.702  28.493  1.00  0.00     0.040 A 
ATOM     76  F   UNL A   1      44.220  34.214  27.192  1.00  0.00    -0.206 F 
ATOM     77  C   UNL A   1      46.255  35.967  29.623  1.00  0.00     0.006 A 
ENDBRANCH  56  70
BRANCH  57  78
ATOM     78  C   UNL A   1      41.236  24.363  27.646  1.00  0.00     0.057 A 
ATOM     79  C   UNL A   1      41.678  23.220  28.321  1.00  0.00     0.134 A 
ATOM     80  C   UNL A   1      40.224  24.198  26.692  1.00  0.00     0.134 A 
ATOM     81  F   UNL A   1      42.661  23.309  29.228  1.00  0.00    -0.206 F 
ATOM     82  C   UNL A   1      41.146  21.958  28.048  1.00  0.00     0.040 A 
ATOM     83  C   UNL A   1      39.666  22.948  26.426  1.00  0.00     0.040 A 
ATOM     84  F   UNL A   1      39.758  25.254  26.010  1.00  0.00    -0.206 F 
ATOM     85  C   UNL A   1      40.132  21.821  27.100  1.00  0.00     0.006 A 
ENDBRANCH  57  78
BRANCH  69  86
ATOM     86  C   UNL A   1      47.219  27.371  25.733  1.00  0.00     0.057 A 
ATOM     87  C   UNL A   1      48.288  26.690  26.328  1.00  0.00     0.134 A 
ATOM     88  C   UNL A   1      47.257  27.545  24.343  1.00  0.00     0.134 A 
ATOM     89  F   UNL A   1      48.319  26.500  27.655  1.00  0.00    -0.206 F 
ATOM     90  C   UNL A   1      49.365  26.220  25.573  1.00  0.00     0.040 A 
ATOM     91  C   UNL A   1      48.315  27.057  23.574  1.00  0.00     0.040 A 
ATOM     92  F   UNL A   1      46.260  28.180  23.708  1.00  0.00    -0.206 F 
ATOM     93  C   UNL A   1      49.376  26.398  24.191  1.00  0.00     0.006 A 
ENDBRANCH  69  86
ENDBRANCH  43  44
ENDBRANCH  36  38
ENDBRANCH  35  36
ENDBRANCH  34  35
ENDBRANCH  33  34
ENDBRANCH  32  33
ENDBRANCH  31  32
ENDBRANCH   1  31
TORSDOF 19
ENDMDL
MODEL 2
REMARK VINA RESULT:     -11.7      4.309      8.412
REMARK SMILES C[C@@H](C(=O)OCCOCCOC(=O)c1ccc(-c2c3nc(c(-c4c(F)cccc4F)c4ccc([nH]4)c(-c4c(F)cccc4F)c4nc(c(-c5c(F)cccc5F)c5ccc2[nH]5)C=C4)C=C3)cc1)c1ccc(-c2cccc(OC(=O)Nc3ccccc3)c2)c(F)c1
REMARK SMILES IDX 6 1 5 2 3 3 4 4 2 5 1 6 68 7 69 8 90 9 70 10 88 11 71 12
REMARK SMILES IDX 89 13 72 14 73 15 87 16 74 17 76 18 75 19 77 20 78 21 79 22
REMARK SMILES IDX 80 23 81 25 82 26 86 27 83 28 85 29 84 30 7 31 8 32 9 33
REMARK SMILES IDX 10 34 11 35 12 36 13 37 14 38 15 39 67 40 16 41 66 42 17 43
REMARK SMILES IDX 18 44 19 45 60 46 20 47 65 48 59 49 61 50 21 51 64 52 58 53
REMARK SMILES IDX 57 54 22 56 48 57 31 58 47 59 32 60 35 61 46 62 62 63 33 64
REMARK SMILES IDX 34 65 45 67 63 68 36 69 23 70 24 71 29 72 25 73 26 74 28 75
REMARK SMILES IDX 30 76 27 77 49 78 50 79 55 80 51 81 52 82 54 83 56 84 53 85
REMARK SMILES IDX 37 86 38 87 43 88 39 89 40 90 42 91 44 92 41 93
REMARK H PARENT 80 24 61 55 35 66
REMARK Flexibility Score: inf
ROOT
ATOM      1  C   UNL A   1      32.496  27.428  23.440  1.00  0.00     0.261 C 
ENDROOT
BRANCH   1   2
ATOM      2  O   UNL A   1      33.511  26.530  22.973  1.00  0.00    -0.463 OA
BRANCH   2   3
ATOM      3  C   UNL A   1      33.102  25.593  22.074  1.00  0.00     0.313 C 
ATOM      4  O   UNL A   1      32.987  25.800  20.870  1.00  0.00    -0.252 OA
BRANCH   3   5
ATOM      5  C   UNL A   1      32.899  24.219  22.718  1.00  0.00     0.126 C 
ATOM      6  C   UNL A   1      31.532  24.128  23.416  1.00  0.00     0.025 C 
BRANCH   5   7
ATOM      7  C   UNL A   1      34.076  23.748  23.586  1.00  0.00    -0.031 A 
ATOM      8  C   UNL A   1      34.153  24.042  24.960  1.00  0.00     0.005 A 
ATOM      9  C   UNL A   1      35.184  23.106  23.013  1.00  0.00     0.044 A 
ATOM     10  C   UNL A   1      35.301  23.744  25.713  1.00  0.00     0.012 A 
ATOM     11  C   UNL A   1      36.325  22.815  23.767  1.00  0.00     0.131 A 
ATOM     12  C   UNL A   1      36.426  23.156  25.120  1.00  0.00     0.018 A 
ATOM     13  F   UNL A   1      37.359  22.234  23.138  1.00  0.00    -0.206 F 
BRANCH  12  14
ATOM     14  C   UNL A   1      37.698  23.050  25.853  1.00  0.00    -0.012 A 
ATOM     15  C   UNL A   1      38.241  24.119  26.584  1.00  0.00     0.009 A 
ATOM     16  C   UNL A   1      38.447  21.863  25.757  1.00  0.00     0.056 A 
ATOM     17  C   UNL A   1      39.496  24.004  27.194  1.00  0.00     0.004 A 
ATOM     18  C   UNL A   1      39.708  21.759  26.339  1.00  0.00     0.133 A 
ATOM     19  C   UNL A   1      40.233  22.825  27.067  1.00  0.00     0.047 A 
BRANCH  18  20
ATOM     20  O   UNL A   1      40.551  20.627  26.216  1.00  0.00    -0.410 OA
BRANCH  20  21
ATOM     21  C   UNL A   1      41.225  19.994  27.262  1.00  0.00     0.417 C 
ATOM     22  O   UNL A   1      40.728  19.647  28.330  1.00  0.00    -0.224 OA
ATOM     23  N   UNL A   1      42.527  19.656  26.996  1.00  0.00    -0.291 N 
ATOM     24  H   UNL A   1      42.951  19.096  27.686  1.00  0.00     0.173 HD
BRANCH  23  25
ATOM     25  C   UNL A   1      43.358  19.968  25.912  1.00  0.00     0.044 A 
ATOM     26  C   UNL A   1      43.844  18.893  25.159  1.00  0.00     0.026 A 
ATOM     27  C   UNL A   1      43.746  21.264  25.571  1.00  0.00     0.026 A 
ATOM     28  C   UNL A   1      44.667  19.111  24.054  1.00  0.00     0.002 A 
ATOM     29  C   UNL A   1      44.586  21.482  24.475  1.00  0.00     0.002 A 
ATOM     30  C   UNL A   1      45.038  20.408  23.711  1.00  0.00     0.000 A 
ENDBRANCH  23  25
ENDBRANCH  20  21
ENDBRANCH  18  20
ENDBRANCH  12  14
ENDBRANCH   5   7
ENDBRANCH   3   5
ENDBRANCH   2   3
ENDBRANCH   1   2
BRANCH   1  31
ATOM     31  C   UNL A   1      32.359  27.347  24.963  1.00  0.00     0.202 C 
BRANCH  31  32
ATOM     32  O   UNL A   1      31.422  28.236  25.568  1.00  0.00    -0.374 OA
BRANCH  32  33
ATOM     33  C   UNL A   1      31.771  28.830  26.820  1.00  0.00     0.202 C 
BRANCH  33  34
ATOM     34  C   UNL A   1      32.064  30.337  26.829  1.00  0.00     0.261 C 
BRANCH  34  35
ATOM     35  O   UNL A   1      33.455  30.643  26.610  1.00  0.00    -0.460 OA
BRANCH  35  36
ATOM     36  C   UNL A   1      33.968  31.575  27.451  1.00  0.00     0.338 C 
ATOM     37  O   UNL A   1      33.415  32.575  27.876  1.00  0.00    -0.246 OA
BRANCH  36  38
ATOM     38  C   UNL A   1      35.283  31.142  27.958  1.00  0.00     0.060 A 
ATOM     39  C   UNL A   1      35.413  29.807  28.363  1.00  0.00     0.016 A 
ATOM     40  C   UNL A   1      36.329  32.047  28.149  1.00  0.00     0.016 A 
ATOM     41  C   UNL A   1      36.576  29.381  29.001  1.00  0.00     0.010 A 
ATOM     42  C   UNL A   1      37.493  31.619  28.799  1.00  0.00     0.010 A 
ATOM     43  C   UNL A   1      37.608  30.293  29.259  1.00  0.00    -0.014 A 
BRANCH  43  44
ATOM     44  C   UNL A   1      38.736  29.891  30.134  1.00  0.00     0.031 A 
ATOM     45  C   UNL A   1      38.812  30.438  31.533  1.00  0.00     0.074 A 
ATOM     46  C   UNL A   1      39.662  29.015  29.704  1.00  0.00     0.049 A 
ATOM     47  N   UNL A   1      39.720  30.241  32.454  1.00  0.00    -0.248 NA
ATOM     48  C   UNL A   1      37.716  31.327  31.948  1.00  0.00     0.031 C 
ATOM     49  C   UNL A   1      39.676  28.380  28.387  1.00  0.00     0.029 A 
ATOM     50  N   UNL A   1      40.773  28.512  30.332  1.00  0.00    -0.354 N 
ATOM     51  C   UNL A   1      39.308  30.981  33.555  1.00  0.00     0.074 A 
ATOM     52  C   UNL A   1      38.086  31.657  33.178  1.00  0.00     0.031 C 
ATOM     53  C   UNL A   1      40.754  27.581  28.300  1.00  0.00     0.029 A 
ATOM     54  C   UNL A   1      41.518  27.672  29.542  1.00  0.00     0.049 A 
ATOM     55  H   UNL A   1      41.014  28.734  31.261  1.00  0.00     0.167 HD
ATOM     56  C   UNL A   1      39.890  31.080  34.775  1.00  0.00     0.037 A 
ATOM     57  C   UNL A   1      42.695  27.064  29.787  1.00  0.00     0.037 A 
ATOM     58  C   UNL A   1      41.107  30.410  35.151  1.00  0.00     0.049 A 
ATOM     59  C   UNL A   1      43.360  27.247  31.126  1.00  0.00     0.074 A 
ATOM     60  C   UNL A   1      41.769  30.440  36.366  1.00  0.00     0.029 A 
ATOM     61  N   UNL A   1      41.848  29.591  34.313  1.00  0.00    -0.354 N 
ATOM     62  N   UNL A   1      42.953  27.934  32.165  1.00  0.00    -0.248 NA
ATOM     63  C   UNL A   1      44.649  26.567  31.325  1.00  0.00     0.031 C 
ATOM     64  C   UNL A   1      42.936  29.678  36.248  1.00  0.00     0.029 A 
ATOM     65  C   UNL A   1      42.973  29.130  34.977  1.00  0.00     0.049 A 
ATOM     66  H   UNL A   1      41.611  29.370  33.383  1.00  0.00     0.167 HD
ATOM     67  C   UNL A   1      43.917  27.748  33.149  1.00  0.00     0.074 A 
ATOM     68  C   UNL A   1      44.924  26.872  32.586  1.00  0.00     0.031 C 
ATOM     69  C   UNL A   1      43.964  28.254  34.405  1.00  0.00     0.037 A 
BRANCH  56  70
ATOM     70  C   UNL A   1      39.225  31.966  35.787  1.00  0.00     0.057 A 
ATOM     71  C   UNL A   1      38.256  31.480  36.674  1.00  0.00     0.134 A 
ATOM     72  C   UNL A   1      39.581  33.316  35.898  1.00  0.00     0.134 A 
ATOM     73  F   UNL A   1      37.860  30.199  36.611  1.00  0.00    -0.206 F 
ATOM     74  C   UNL A   1      37.649  32.308  37.619  1.00  0.00     0.040 A 
ATOM     75  C   UNL A   1      39.000  34.149  36.856  1.00  0.00     0.040 A 
ATOM     76  F   UNL A   1      40.506  33.846  35.082  1.00  0.00    -0.206 F 
ATOM     77  C   UNL A   1      38.027  33.646  37.716  1.00  0.00     0.006 A 
ENDBRANCH  56  70
BRANCH  57  78
ATOM     78  C   UNL A   1      43.334  26.235  28.734  1.00  0.00     0.057 A 
ATOM     79  C   UNL A   1      44.231  26.791  27.815  1.00  0.00     0.134 A 
ATOM     80  C   UNL A   1      43.045  24.871  28.610  1.00  0.00     0.134 A 
ATOM     81  F   UNL A   1      44.530  28.096  27.867  1.00  0.00    -0.206 F 
ATOM     82  C   UNL A   1      44.805  26.023  26.799  1.00  0.00     0.040 A 
ATOM     83  C   UNL A   1      43.630  24.086  27.616  1.00  0.00     0.040 A 
ATOM     84  F   UNL A   1      42.193  24.279  29.459  1.00  0.00    -0.206 F 
ATOM     85  C   UNL A   1      44.508  24.664  26.701  1.00  0.00     0.006 A 
ENDBRANCH  57  78
BRANCH  69  86
ATOM     86  C   UNL A   1      45.122  27.848  35.270  1.00  0.00     0.057 A 
ATOM     87  C   UNL A   1      46.293  28.612  35.347  1.00  0.00     0.134 A 
ATOM     88  C   UNL A   1      45.047  26.698  36.067  1.00  0.00     0.134 A 
ATOM     89  F   UNL A   1      46.434  29.719  34.602  1.00  0.00    -0.206 F 
ATOM     90  C   UNL A   1      47.357  28.236  36.169  1.00  0.00     0.040 A 
ATOM     91  C   UNL A   1      46.094  26.325  36.912  1.00  0.00     0.040 A 
ATOM     92  F   UNL A   1      43.951  25.925  36.047  1.00  0.00    -0.206 F 
ATOM     93  C   UNL A   1      47.255  27.093  36.960  1.00  0.00     0.006 A 
ENDBRANCH  69  86
ENDBRANCH  43  44
ENDBRANCH  36  38
ENDBRANCH  35  36
ENDBRANCH  34  35
ENDBRANCH  33  34
ENDBRANCH  32  33
ENDBRANCH  31  32
ENDBRANCH   1  31
TORSDOF 19
ENDMDL
MODEL 3
REMARK VINA RESULT:     -11.5      4.947     10.418
REMARK SMILES C[C@@H](C(=O)OCCOCCOC(=O)c1ccc(-c2c3nc(c(-c4c(F)cccc4F)c4ccc([nH]4)c(-c4c(F)cccc4F)c4nc(c(-c5c(F)cccc5F)c5ccc2[nH]5)C=C4)C=C3)cc1)c1ccc(-c2cccc(OC(=O)Nc3ccccc3)c2)c(F)c1
REMARK SMILES IDX 6 1 5 2 3 3 4 4 2 5 1 6 68 7 69 8 90 9 70 10 88 11 71 12
REMARK SMILES IDX 89 13 72 14 73 15 87 16 74 17 76 18 75 19 77 20 78 21 79 22
REMARK SMILES IDX 80 23 81 25 82 26 86 27 83 28 85 29 84 30 7 31 8 32 9 33
REMARK SMILES IDX 10 34 11 35 12 36 13 37 14 38 15 39 67 40 16 41 66 42 17 43
REMARK SMILES IDX 18 44 19 45 60 46 20 47 65 48 59 49 61 50 21 51 64 52 58 53
REMARK SMILES IDX 57 54 22 56 48 57 31 58 47 59 32 60 35 61 46 62 62 63 33 64
REMARK SMILES IDX 34 65 45 67 63 68 36 69 23 70 24 71 29 72 25 73 26 74 28 75
REMARK SMILES IDX 30 76 27 77 49 78 50 79 55 80 51 81 52 82 54 83 56 84 53 85
REMARK SMILES IDX 37 86 38 87 43 88 39 89 40 90 42 91 44 92 41 93
REMARK H PARENT 80 24 61 55 35 66
REMARK Flexibility Score: inf
ROOT
ATOM      1  C   UNL A   1      42.455  19.917  26.140  1.00  0.00     0.261 C 
ENDROOT
BRANCH   1   2
ATOM      2  O   UNL A   1      41.514  20.909  25.712  1.00  0.00    -0.463 OA
BRANCH   2   3
ATOM      3  C   UNL A   1      40.546  21.232  26.612  1.00  0.00     0.313 C 
ATOM      4  O   UNL A   1      40.347  20.621  27.657  1.00  0.00    -0.252 OA
BRANCH   3   5
ATOM      5  C   UNL A   1      39.794  22.508  26.223  1.00  0.00     0.126 C 
ATOM      6  C   UNL A   1      40.036  23.631  27.244  1.00  0.00     0.025 C 
BRANCH   5   7
ATOM      7  C   UNL A   1      38.313  22.288  25.875  1.00  0.00    -0.031 A 
ATOM      8  C   UNL A   1      37.888  21.215  25.070  1.00  0.00     0.005 A 
ATOM      9  C   UNL A   1      37.337  23.224  26.250  1.00  0.00     0.044 A 
ATOM     10  C   UNL A   1      36.559  21.107  24.630  1.00  0.00     0.012 A 
ATOM     11  C   UNL A   1      36.016  23.112  25.806  1.00  0.00     0.131 A 
ATOM     12  C   UNL A   1      35.603  22.077  24.960  1.00  0.00     0.018 A 
ATOM     13  F   UNL A   1      35.148  24.068  26.176  1.00  0.00    -0.206 F 
BRANCH  12  14
ATOM     14  C   UNL A   1      34.278  22.081  24.319  1.00  0.00    -0.012 A 
ATOM     15  C   UNL A   1      33.499  20.920  24.185  1.00  0.00     0.009 A 
ATOM     16  C   UNL A   1      33.800  23.273  23.744  1.00  0.00     0.056 A 
ATOM     17  C   UNL A   1      32.283  20.952  23.490  1.00  0.00     0.004 A 
ATOM     18  C   UNL A   1      32.606  23.297  23.028  1.00  0.00     0.133 A 
ATOM     19  C   UNL A   1      31.838  22.139  22.907  1.00  0.00     0.047 A 
BRANCH  18  20
ATOM     20  O   UNL A   1      32.103  24.438  22.354  1.00  0.00    -0.410 OA
BRANCH  20  21
ATOM     21  C   UNL A   1      32.863  25.359  21.632  1.00  0.00     0.417 C 
ATOM     22  O   UNL A   1      33.278  25.207  20.486  1.00  0.00    -0.224 OA
ATOM     23  N   UNL A   1      33.055  26.568  22.251  1.00  0.00    -0.291 N 
ATOM     24  H   UNL A   1      33.476  27.253  21.683  1.00  0.00     0.173 HD
BRANCH  23  25
ATOM     25  C   UNL A   1      32.755  26.997  23.551  1.00  0.00     0.044 A 
ATOM     26  C   UNL A   1      33.682  26.678  24.550  1.00  0.00     0.026 A 
ATOM     27  C   UNL A   1      31.590  27.680  23.900  1.00  0.00     0.026 A 
ATOM     28  C   UNL A   1      33.472  27.077  25.870  1.00  0.00     0.002 A 
ATOM     29  C   UNL A   1      31.369  28.063  25.226  1.00  0.00     0.002 A 
ATOM     30  C   UNL A   1      32.314  27.772  26.209  1.00  0.00     0.000 A 
ENDBRANCH  23  25
ENDBRANCH  20  21
ENDBRANCH  18  20
ENDBRANCH  12  14
ENDBRANCH   5   7
ENDBRANCH   3   5
ENDBRANCH   2   3
ENDBRANCH   1   2
BRANCH   1  31
ATOM     31  C   UNL A   1      43.691  19.914  25.236  1.00  0.00     0.202 C 
BRANCH  31  32
ATOM     32  O   UNL A   1      44.843  20.597  25.727  1.00  0.00    -0.374 OA
BRANCH  32  33
ATOM     33  C   UNL A   1      45.610  21.371  24.803  1.00  0.00     0.202 C 
BRANCH  33  34
ATOM     34  C   UNL A   1      46.318  22.621  25.345  1.00  0.00     0.261 C 
BRANCH  34  35
ATOM     35  O   UNL A   1      45.461  23.449  26.153  1.00  0.00    -0.460 OA
BRANCH  35  36
ATOM     36  C   UNL A   1      44.881  24.480  25.489  1.00  0.00     0.338 C 
ATOM     37  O   UNL A   1      44.933  24.715  24.293  1.00  0.00    -0.246 OA
BRANCH  36  38
ATOM     38  C   UNL A   1      43.993  25.238  26.390  1.00  0.00     0.060 A 
ATOM     39  C   UNL A   1      44.025  26.636  26.305  1.00  0.00     0.016 A 
ATOM     40  C   UNL A   1      43.237  24.604  27.377  1.00  0.00     0.016 A 
ATOM     41  C   UNL A   1      43.335  27.408  27.237  1.00  0.00     0.010 A 
ATOM     42  C   UNL A   1      42.552  25.382  28.319  1.00  0.00     0.010 A 
ATOM     43  C   UNL A   1      42.626  26.787  28.274  1.00  0.00    -0.014 A 
BRANCH  43  44
ATOM     44  C   UNL A   1      42.088  27.610  29.384  1.00  0.00     0.031 A 
ATOM     45  C   UNL A   1      42.781  27.583  30.720  1.00  0.00     0.074 A 
ATOM     46  C   UNL A   1      41.019  28.404  29.198  1.00  0.00     0.049 A 
ATOM     47  N   UNL A   1      42.468  28.200  31.830  1.00  0.00    -0.248 NA
ATOM     48  C   UNL A   1      43.989  26.748  30.814  1.00  0.00     0.031 C 
ATOM     49  C   UNL A   1      40.287  28.551  27.941  1.00  0.00     0.029 A 
ATOM     50  N   UNL A   1      40.362  29.234  30.071  1.00  0.00    -0.354 N 
ATOM     51  C   UNL A   1      43.436  27.828  32.755  1.00  0.00     0.074 A 
ATOM     52  C   UNL A   1      44.329  26.907  32.086  1.00  0.00     0.031 C 
ATOM     53  C   UNL A   1      39.270  29.411  28.129  1.00  0.00     0.029 A 
ATOM     54  C   UNL A   1      39.264  29.849  29.523  1.00  0.00     0.049 A 
ATOM     55  H   UNL A   1      40.650  29.374  31.002  1.00  0.00     0.167 HD
ATOM     56  C   UNL A   1      43.575  28.226  34.043  1.00  0.00     0.037 A 
ATOM     57  C   UNL A   1      38.346  30.657  30.089  1.00  0.00     0.037 A 
ATOM     58  C   UNL A   1      42.687  29.141  34.710  1.00  0.00     0.049 A 
ATOM     59  C   UNL A   1      38.481  31.028  31.542  1.00  0.00     0.074 A 
ATOM     60  C   UNL A   1      42.750  29.613  36.009  1.00  0.00     0.029 A 
ATOM     61  N   UNL A   1      41.568  29.721  34.130  1.00  0.00    -0.354 N 
ATOM     62  N   UNL A   1      39.410  30.685  32.401  1.00  0.00    -0.248 NA
ATOM     63  C   UNL A   1      37.439  31.902  32.103  1.00  0.00     0.031 C 
ATOM     64  C   UNL A   1      41.643  30.440  36.231  1.00  0.00     0.029 A 
ATOM     65  C   UNL A   1      40.920  30.525  35.052  1.00  0.00     0.049 A 
ATOM     66  H   UNL A   1      41.277  29.579  33.200  1.00  0.00     0.167 HD
ATOM     67  C   UNL A   1      39.082  31.321  33.594  1.00  0.00     0.074 A 
ATOM     68  C   UNL A   1      37.875  32.081  33.343  1.00  0.00     0.031 C 
ATOM     69  C   UNL A   1      39.722  31.281  34.787  1.00  0.00     0.037 A 
BRANCH  56  70
ATOM     70  C   UNL A   1      44.722  27.654  34.822  1.00  0.00     0.057 A 
ATOM     71  C   UNL A   1      45.946  28.326  34.939  1.00  0.00     0.134 A 
ATOM     72  C   UNL A   1      44.592  26.431  35.491  1.00  0.00     0.134 A 
ATOM     73  F   UNL A   1      46.141  29.496  34.312  1.00  0.00    -0.206 F 
ATOM     74  C   UNL A   1      47.005  27.791  35.674  1.00  0.00     0.040 A 
ATOM     75  C   UNL A   1      45.635  25.898  36.250  1.00  0.00     0.040 A 
ATOM     76  F   UNL A   1      43.445  25.737  35.424  1.00  0.00    -0.206 F 
ATOM     77  C   UNL A   1      46.848  26.577  36.339  1.00  0.00     0.006 A 
ENDBRANCH  56  70
BRANCH  57  78
ATOM     78  C   UNL A   1      37.203  31.158  29.285  1.00  0.00     0.057 A 
ATOM     79  C   UNL A   1      36.109  30.340  28.986  1.00  0.00     0.134 A 
ATOM     80  C   UNL A   1      37.191  32.464  28.778  1.00  0.00     0.134 A 
ATOM     81  F   UNL A   1      36.073  29.073  29.422  1.00  0.00    -0.206 F 
ATOM     82  C   UNL A   1      35.049  30.795  28.198  1.00  0.00     0.040 A 
ATOM     83  C   UNL A   1      36.128  32.940  28.010  1.00  0.00     0.040 A 
ATOM     84  F   UNL A   1      38.211  33.297  29.028  1.00  0.00    -0.206 F 
ATOM     85  C   UNL A   1      35.055  32.102  27.711  1.00  0.00     0.006 A 
ENDBRANCH  57  78
BRANCH  69  86
ATOM     86  C   UNL A   1      39.153  32.107  35.904  1.00  0.00     0.057 A 
ATOM     87  C   UNL A   1      39.528  33.441  36.104  1.00  0.00     0.134 A 
ATOM     88  C   UNL A   1      38.186  31.571  36.764  1.00  0.00     0.134 A 
ATOM     89  F   UNL A   1      40.457  34.012  35.322  1.00  0.00    -0.206 F 
ATOM     90  C   UNL A   1      38.978  34.207  37.134  1.00  0.00     0.040 A 
ATOM     91  C   UNL A   1      37.610  32.334  37.781  1.00  0.00     0.040 A 
ATOM     92  F   UNL A   1      37.776  30.302  36.622  1.00  0.00    -0.206 F 
ATOM     93  C   UNL A   1      38.011  33.655  37.971  1.00  0.00     0.006 A 
ENDBRANCH  69  86
ENDBRANCH  43  44
ENDBRANCH  36  38
ENDBRANCH  35  36
ENDBRANCH  34  35
ENDBRANCH  33  34
ENDBRANCH  32  33
ENDBRANCH  31  32
ENDBRANCH   1  31
TORSDOF 19
ENDMDL
