MODEL 1
REMARK VINA RESULT:     -10.9      0.000      0.000
REMARK SMILES Cc1ccccc1CSCC(=O)Nc1ccc(C)c(C(=O)OCCOCCOC(=O)c2ccc(-c3c4nc(c(-c5c(F)cccc5F)c5ccc([nH]5)c(-c5c(F)cccc5F)c5nc(c(-c6c(F)cccc6F)c6ccc3[nH]6)C=C5)C=C4)cc2)c1
REMARK SMILES IDX 23 1 22 2 20 3 21 4 19 5 14 6 15 7 85 8 16 9 17 10 18 11
REMARK SMILES IDX 13 12 11 13 12 14 10 16 9 17 8 18 7 19 1 20 2 21 3 22 4 23
REMARK SMILES IDX 6 24 5 25 24 26 25 27 26 28 27 29 28 30 29 31 30 32 31 33
REMARK SMILES IDX 32 34 84 35 33 36 83 37 34 38 35 39 36 40 77 41 37 42 82 43
REMARK SMILES IDX 76 44 78 45 38 46 81 47 75 48 74 49 39 51 65 52 48 53 64 54
REMARK SMILES IDX 49 55 52 56 63 57 79 58 50 59 51 60 62 62 80 63 53 64 40 65
REMARK SMILES IDX 41 66 46 67 42 68 43 69 45 70 47 71 44 72 66 73 67 74 72 75
REMARK SMILES IDX 68 76 69 77 71 78 73 79 70 80 54 81 55 82 60 83 56 84 57 85
REMARK SMILES IDX 59 86 61 87 58 88
REMARK H PARENT 13 15 78 50 52 61
REMARK Flexibility Score: inf
ROOT
ATOM      1  C   UNL A   1      31.763  29.680  26.582  1.00  0.00     0.261 C 
ENDROOT
BRANCH   1   2
ATOM      2  O   UNL A   1      31.612  28.760  25.500  1.00  0.00    -0.460 OA
BRANCH   2   3
ATOM      3  C   UNL A   1      32.676  28.109  24.975  1.00  0.00     0.338 C 
ATOM      4  O   UNL A   1      33.828  28.468  24.942  1.00  0.00    -0.246 OA
BRANCH   3   5
ATOM      5  C   UNL A   1      32.183  26.762  24.602  1.00  0.00     0.065 A 
ATOM      6  C   UNL A   1      30.619  25.045  25.168  1.00  0.00     0.042 A 
ATOM      7  C   UNL A   1      30.591  24.658  23.832  1.00  0.00     0.026 A 
ATOM      8  C   UNL A   1      31.341  26.160  25.545  1.00  0.00     0.042 A 
ATOM      9  C   UNL A   1      31.513  25.167  22.930  1.00  0.00     0.006 A 
ATOM     10  C   UNL A   1      32.378  26.181  23.322  1.00  0.00    -0.036 A 
ATOM     11  C   UNL A   1      33.399  26.622  22.306  1.00  0.00     0.045 C 
BRANCH   6  12
ATOM     12  N   UNL A   1      29.897  24.330  26.116  1.00  0.00    -0.325 N 
ATOM     13  C   UNL A   1      30.331  23.220  26.797  1.00  0.00     0.234 C 
ATOM     14  O   UNL A   1      29.557  22.739  27.633  1.00  0.00    -0.274 OA
ATOM     15  H   UNL A   1      28.988  24.649  26.317  1.00  0.00     0.169 HD
BRANCH  13  16
ATOM     16  C   UNL A   1      31.766  22.708  26.700  1.00  0.00     0.170 C 
BRANCH  16  17
ATOM     17  S   UNL A   1      32.196  21.485  25.435  1.00  0.00    -0.147 SA
BRANCH  17  18
ATOM     18  C   UNL A   1      33.331  22.433  24.366  1.00  0.00     0.105 C 
BRANCH  18  19
ATOM     19  C   UNL A   1      34.761  22.311  24.794  1.00  0.00    -0.035 A 
ATOM     20  C   UNL A   1      35.052  24.814  25.378  1.00  0.00     0.044 C 
ATOM     21  C   UNL A   1      35.555  23.406  25.184  1.00  0.00    -0.047 A 
ATOM     22  C   UNL A   1      36.922  23.188  25.414  1.00  0.00     0.004 A 
ATOM     23  C   UNL A   1      37.480  21.914  25.315  1.00  0.00     0.000 A 
ATOM     24  C   UNL A   1      35.327  21.019  24.765  1.00  0.00     0.005 A 
ATOM     25  C   UNL A   1      36.677  20.823  25.015  1.00  0.00     0.000 A 
ENDBRANCH  18  19
ENDBRANCH  17  18
ENDBRANCH  16  17
ENDBRANCH  13  16
ENDBRANCH   6  12
ENDBRANCH   3   5
ENDBRANCH   2   3
ENDBRANCH   1   2
BRANCH   1  26
ATOM     26  C   UNL A   1      31.439  31.063  26.142  1.00  0.00     0.202 C 
BRANCH  26  27
ATOM     27  O   UNL A   1      32.313  31.886  26.896  1.00  0.00    -0.374 OA
BRANCH  27  28
ATOM     28  C   UNL A   1      33.531  31.290  27.273  1.00  0.00     0.202 C 
BRANCH  28  29
ATOM     29  C   UNL A   1      34.184  32.021  28.453  1.00  0.00     0.261 C 
BRANCH  29  30
ATOM     30  O   UNL A   1      33.736  33.399  28.479  1.00  0.00    -0.460 OA
BRANCH  30  31
ATOM     31  C   UNL A   1      33.888  34.081  29.652  1.00  0.00     0.338 C 
ATOM     32  O   UNL A   1      33.053  34.817  30.155  1.00  0.00    -0.246 OA
BRANCH  31  33
ATOM     33  C   UNL A   1      35.325  34.059  30.072  1.00  0.00     0.060 A 
ATOM     34  C   UNL A   1      36.349  34.273  29.120  1.00  0.00     0.016 A 
ATOM     35  C   UNL A   1      35.633  33.467  31.291  1.00  0.00     0.016 A 
ATOM     36  C   UNL A   1      37.632  33.733  29.320  1.00  0.00     0.010 A 
ATOM     37  C   UNL A   1      36.849  32.831  31.422  1.00  0.00     0.010 A 
ATOM     38  C   UNL A   1      37.849  32.926  30.432  1.00  0.00    -0.014 A 
BRANCH  38  39
ATOM     39  C   UNL A   1      38.999  32.046  30.684  1.00  0.00     0.031 A 
ATOM     40  C   UNL A   1      38.892  30.667  30.173  1.00  0.00     0.074 A 
ATOM     41  C   UNL A   1      40.219  32.538  31.019  1.00  0.00     0.049 A 
ATOM     42  N   UNL A   1      39.801  29.774  30.307  1.00  0.00    -0.248 NA
ATOM     43  C   UNL A   1      37.703  30.164  29.494  1.00  0.00     0.031 C 
ATOM     44  C   UNL A   1      41.545  32.032  30.649  1.00  0.00     0.029 A 
ATOM     45  N   UNL A   1      40.531  33.671  31.769  1.00  0.00    -0.354 N 
ATOM     46  C   UNL A   1      39.484  28.720  29.486  1.00  0.00     0.074 A 
ATOM     47  C   UNL A   1      38.117  28.958  29.104  1.00  0.00     0.031 C 
ATOM     48  C   UNL A   1      42.492  32.688  31.345  1.00  0.00     0.029 A 
ATOM     49  C   UNL A   1      41.813  33.522  32.321  1.00  0.00     0.049 A 
ATOM     50  H   UNL A   1      39.945  34.453  31.892  1.00  0.00     0.167 HD
ATOM     51  C   UNL A   1      40.486  27.854  29.157  1.00  0.00     0.037 A 
ATOM     52  C   UNL A   1      41.950  33.551  33.672  1.00  0.00     0.037 A 
ATOM     53  C   UNL A   1      41.716  28.199  29.904  1.00  0.00     0.049 A 
ATOM     54  C   UNL A   1      42.280  32.161  34.144  1.00  0.00     0.074 A 
ATOM     55  C   UNL A   1      42.918  28.813  29.588  1.00  0.00     0.029 A 
ATOM     56  N   UNL A   1      41.659  28.214  31.293  1.00  0.00    -0.354 N 
ATOM     57  N   UNL A   1      42.419  31.156  33.322  1.00  0.00    -0.248 NA
ATOM     58  C   UNL A   1      42.438  31.760  35.532  1.00  0.00     0.031 C 
ATOM     59  C   UNL A   1      43.562  29.197  30.814  1.00  0.00     0.029 A 
ATOM     60  C   UNL A   1      42.773  28.786  31.878  1.00  0.00     0.049 A 
ATOM     61  H   UNL A   1      40.902  27.854  31.807  1.00  0.00     0.167 HD
ATOM     62  C   UNL A   1      42.655  30.010  33.994  1.00  0.00     0.074 A 
ATOM     63  C   UNL A   1      42.616  30.431  35.392  1.00  0.00     0.031 C 
ATOM     64  C   UNL A   1      42.852  28.824  33.341  1.00  0.00     0.037 A 
BRANCH  51  65
ATOM     65  C   UNL A   1      40.426  26.803  28.057  1.00  0.00     0.057 A 
ATOM     66  C   UNL A   1      39.658  25.637  28.240  1.00  0.00     0.134 A 
ATOM     67  C   UNL A   1      41.106  26.832  26.819  1.00  0.00     0.134 A 
ATOM     68  F   UNL A   1      38.911  25.454  29.337  1.00  0.00    -0.206 F 
ATOM     69  C   UNL A   1      39.608  24.589  27.304  1.00  0.00     0.040 A 
ATOM     70  C   UNL A   1      41.074  25.789  25.882  1.00  0.00     0.040 A 
ATOM     71  F   UNL A   1      41.826  27.872  26.407  1.00  0.00    -0.206 F 
ATOM     72  C   UNL A   1      40.327  24.655  26.122  1.00  0.00     0.006 A 
ENDBRANCH  51  65
BRANCH  52  73
ATOM     73  C   UNL A   1      41.016  34.561  34.277  1.00  0.00     0.057 A 
ATOM     74  C   UNL A   1      39.857  34.075  34.922  1.00  0.00     0.134 A 
ATOM     75  C   UNL A   1      41.488  35.809  34.708  1.00  0.00     0.134 A 
ATOM     76  F   UNL A   1      39.347  32.880  34.582  1.00  0.00    -0.206 F 
ATOM     77  C   UNL A   1      39.289  34.720  36.030  1.00  0.00     0.040 A 
ATOM     78  C   UNL A   1      40.934  36.455  35.826  1.00  0.00     0.040 A 
ATOM     79  F   UNL A   1      42.596  36.336  34.169  1.00  0.00    -0.206 F 
ATOM     80  C   UNL A   1      39.860  35.893  36.514  1.00  0.00     0.006 A 
ENDBRANCH  52  73
BRANCH  64  81
ATOM     81  C   UNL A   1      43.065  27.559  34.109  1.00  0.00     0.057 A 
ATOM     82  C   UNL A   1      42.003  26.843  34.671  1.00  0.00     0.134 A 
ATOM     83  C   UNL A   1      44.346  27.015  34.315  1.00  0.00     0.134 A 
ATOM     84  F   UNL A   1      40.764  27.355  34.710  1.00  0.00    -0.206 F 
ATOM     85  C   UNL A   1      42.178  25.569  35.210  1.00  0.00     0.040 A 
ATOM     86  C   UNL A   1      44.542  25.775  34.915  1.00  0.00     0.040 A 
ATOM     87  F   UNL A   1      45.468  27.630  33.922  1.00  0.00    -0.206 F 
ATOM     88  C   UNL A   1      43.450  25.023  35.314  1.00  0.00     0.006 A 
ENDBRANCH  64  81
ENDBRANCH  38  39
ENDBRANCH  31  33
ENDBRANCH  30  31
ENDBRANCH  29  30
ENDBRANCH  28  29
ENDBRANCH  27  28
ENDBRANCH  26  27
ENDBRANCH   1  26
TORSDOF 19
ENDMDL
MODEL 2
REMARK VINA RESULT:     -10.8      2.225      4.174
REMARK SMILES Cc1ccccc1CSCC(=O)Nc1ccc(C)c(C(=O)OCCOCCOC(=O)c2ccc(-c3c4nc(c(-c5c(F)cccc5F)c5ccc([nH]5)c(-c5c(F)cccc5F)c5nc(c(-c6c(F)cccc6F)c6ccc3[nH]6)C=C5)C=C4)cc2)c1
REMARK SMILES IDX 23 1 22 2 20 3 21 4 19 5 14 6 15 7 85 8 16 9 17 10 18 11
REMARK SMILES IDX 13 12 11 13 12 14 10 16 9 17 8 18 7 19 1 20 2 21 3 22 4 23
REMARK SMILES IDX 6 24 5 25 24 26 25 27 26 28 27 29 28 30 29 31 30 32 31 33
REMARK SMILES IDX 32 34 84 35 33 36 83 37 34 38 35 39 36 40 77 41 37 42 82 43
REMARK SMILES IDX 76 44 78 45 38 46 81 47 75 48 74 49 39 51 65 52 48 53 64 54
REMARK SMILES IDX 49 55 52 56 63 57 79 58 50 59 51 60 62 62 80 63 53 64 40 65
REMARK SMILES IDX 41 66 46 67 42 68 43 69 45 70 47 71 44 72 66 73 67 74 72 75
REMARK SMILES IDX 68 76 69 77 71 78 73 79 70 80 54 81 55 82 60 83 56 84 57 85
REMARK SMILES IDX 59 86 61 87 58 88
REMARK H PARENT 13 15 78 50 52 61
REMARK Flexibility Score: inf
ROOT
ATOM      1  C   UNL A   1      31.949  26.492  26.851  1.00  0.00     0.261 C 
ENDROOT
BRANCH   1   2
ATOM      2  O   UNL A   1      31.002  25.459  26.575  1.00  0.00    -0.460 OA
BRANCH   2   3
ATOM      3  C   UNL A   1      31.299  24.157  26.786  1.00  0.00     0.338 C 
ATOM      4  O   UNL A   1      30.675  23.343  27.423  1.00  0.00    -0.246 OA
BRANCH   3   5
ATOM      5  C   UNL A   1      32.465  23.861  25.920  1.00  0.00     0.065 A 
ATOM      6  C   UNL A   1      33.507  24.375  23.832  1.00  0.00     0.042 A 
ATOM      7  C   UNL A   1      34.744  24.088  24.401  1.00  0.00     0.026 A 
ATOM      8  C   UNL A   1      32.371  24.357  24.614  1.00  0.00     0.042 A 
ATOM      9  C   UNL A   1      34.824  23.480  25.644  1.00  0.00     0.006 A 
ATOM     10  C   UNL A   1      33.673  23.288  26.397  1.00  0.00    -0.036 A 
ATOM     11  C   UNL A   1      33.837  22.551  27.700  1.00  0.00     0.045 C 
BRANCH   6  12
ATOM     12  N   UNL A   1      33.421  24.711  22.485  1.00  0.00    -0.325 N 
ATOM     13  C   UNL A   1      33.415  25.982  21.966  1.00  0.00     0.234 C 
ATOM     14  O   UNL A   1      33.370  26.082  20.734  1.00  0.00    -0.274 OA
ATOM     15  H   UNL A   1      33.357  23.966  21.844  1.00  0.00     0.169 HD
BRANCH  13  16
ATOM     16  C   UNL A   1      33.661  27.219  22.825  1.00  0.00     0.170 C 
BRANCH  16  17
ATOM     17  S   UNL A   1      32.443  28.560  22.832  1.00  0.00    -0.147 SA
BRANCH  17  18
ATOM     18  C   UNL A   1      30.910  27.678  22.382  1.00  0.00     0.105 C 
BRANCH  18  19
ATOM     19  C   UNL A   1      29.685  28.513  22.592  1.00  0.00    -0.035 A 
ATOM     20  C   UNL A   1      28.383  26.702  23.902  1.00  0.00     0.044 C 
ATOM     21  C   UNL A   1      28.516  28.039  23.219  1.00  0.00    -0.047 A 
ATOM     22  C   UNL A   1      27.380  28.863  23.219  1.00  0.00     0.004 A 
ATOM     23  C   UNL A   1      27.411  30.141  22.663  1.00  0.00     0.000 A 
ATOM     24  C   UNL A   1      29.719  29.832  22.094  1.00  0.00     0.005 A 
ATOM     25  C   UNL A   1      28.590  30.637  22.121  1.00  0.00     0.000 A 
ENDBRANCH  18  19
ENDBRANCH  17  18
ENDBRANCH  16  17
ENDBRANCH  13  16
ENDBRANCH   6  12
ENDBRANCH   3   5
ENDBRANCH   2   3
ENDBRANCH   1   2
BRANCH   1  26
ATOM     26  C   UNL A   1      31.363  27.829  26.568  1.00  0.00     0.202 C 
BRANCH  26  27
ATOM     27  O   UNL A   1      32.123  28.722  27.363  1.00  0.00    -0.374 OA
BRANCH  27  28
ATOM     28  C   UNL A   1      32.117  30.065  26.939  1.00  0.00     0.202 C 
BRANCH  28  29
ATOM     29  C   UNL A   1      33.533  30.648  26.870  1.00  0.00     0.261 C 
BRANCH  29  30
ATOM     30  O   UNL A   1      34.002  30.947  28.209  1.00  0.00    -0.460 OA
BRANCH  30  31
ATOM     31  C   UNL A   1      34.240  32.258  28.507  1.00  0.00     0.338 C 
ATOM     32  O   UNL A   1      33.658  33.212  28.013  1.00  0.00    -0.246 OA
BRANCH  31  33
ATOM     33  C   UNL A   1      35.520  32.382  29.274  1.00  0.00     0.060 A 
ATOM     34  C   UNL A   1      36.677  32.903  28.651  1.00  0.00     0.016 A 
ATOM     35  C   UNL A   1      35.642  31.646  30.447  1.00  0.00     0.016 A 
ATOM     36  C   UNL A   1      37.957  32.535  29.103  1.00  0.00     0.010 A 
ATOM     37  C   UNL A   1      36.892  31.187  30.804  1.00  0.00     0.010 A 
ATOM     38  C   UNL A   1      38.058  31.595  30.124  1.00  0.00    -0.014 A 
BRANCH  38  39
ATOM     39  C   UNL A   1      39.262  30.867  30.549  1.00  0.00     0.031 A 
ATOM     40  C   UNL A   1      39.521  29.582  29.875  1.00  0.00     0.074 A 
ATOM     41  C   UNL A   1      40.267  31.478  31.226  1.00  0.00     0.049 A 
ATOM     42  N   UNL A   1      40.523  28.824  30.126  1.00  0.00    -0.248 NA
ATOM     43  C   UNL A   1      38.624  29.017  28.873  1.00  0.00     0.031 C 
ATOM     44  C   UNL A   1      41.711  31.236  31.138  1.00  0.00     0.029 A 
ATOM     45  N   UNL A   1      40.195  32.517  32.153  1.00  0.00    -0.354 N 
ATOM     46  C   UNL A   1      40.593  27.872  29.139  1.00  0.00     0.074 A 
ATOM     47  C   UNL A   1      39.325  27.960  28.463  1.00  0.00     0.031 C 
ATOM     48  C   UNL A   1      42.345  31.912  32.115  1.00  0.00     0.029 A 
ATOM     49  C   UNL A   1      41.327  32.478  32.982  1.00  0.00     0.049 A 
ATOM     50  H   UNL A   1      39.465  33.175  32.216  1.00  0.00     0.167 HD
ATOM     51  C   UNL A   1      41.782  27.224  28.970  1.00  0.00     0.037 A 
ATOM     52  C   UNL A   1      41.151  32.321  34.320  1.00  0.00     0.037 A 
ATOM     53  C   UNL A   1      42.732  27.629  30.030  1.00  0.00     0.049 A 
ATOM     54  C   UNL A   1      41.613  30.939  34.698  1.00  0.00     0.074 A 
ATOM     55  C   UNL A   1      43.843  28.456  30.090  1.00  0.00     0.029 A 
ATOM     56  N   UNL A   1      42.365  27.425  31.355  1.00  0.00    -0.354 N 
ATOM     57  N   UNL A   1      42.110  30.103  33.827  1.00  0.00    -0.248 NA
ATOM     58  C   UNL A   1      41.528  30.359  36.028  1.00  0.00     0.031 C 
ATOM     59  C   UNL A   1      44.118  28.740  31.472  1.00  0.00     0.029 A 
ATOM     60  C   UNL A   1      43.199  28.060  32.256  1.00  0.00     0.049 A 
ATOM     61  H   UNL A   1      41.589  26.882  31.624  1.00  0.00     0.167 HD
ATOM     62  C   UNL A   1      42.393  28.916  34.403  1.00  0.00     0.074 A 
ATOM     63  C   UNL A   1      41.969  29.109  35.787  1.00  0.00     0.031 C 
ATOM     64  C   UNL A   1      42.941  27.885  33.689  1.00  0.00     0.037 A 
BRANCH  51  65
ATOM     65  C   UNL A   1      42.159  26.356  27.778  1.00  0.00     0.057 A 
ATOM     66  C   UNL A   1      42.627  25.043  27.984  1.00  0.00     0.134 A 
ATOM     67  C   UNL A   1      42.131  26.727  26.416  1.00  0.00     0.134 A 
ATOM     68  F   UNL A   1      42.683  24.503  29.209  1.00  0.00    -0.206 F 
ATOM     69  C   UNL A   1      43.062  24.205  26.944  1.00  0.00     0.040 A 
ATOM     70  C   UNL A   1      42.573  25.905  25.368  1.00  0.00     0.040 A 
ATOM     71  F   UNL A   1      41.653  27.893  25.987  1.00  0.00    -0.206 F 
ATOM     72  C   UNL A   1      43.048  24.637  25.628  1.00  0.00     0.006 A 
ENDBRANCH  51  65
BRANCH  52  73
ATOM     73  C   UNL A   1      39.940  33.077  34.786  1.00  0.00     0.057 A 
ATOM     74  C   UNL A   1      38.762  32.336  35.033  1.00  0.00     0.134 A 
ATOM     75  C   UNL A   1      40.072  34.283  35.490  1.00  0.00     0.134 A 
ATOM     76  F   UNL A   1      38.563  31.162  34.412  1.00  0.00    -0.206 F 
ATOM     77  C   UNL A   1      37.843  32.698  36.027  1.00  0.00     0.040 A 
ATOM     78  C   UNL A   1      39.164  34.644  36.499  1.00  0.00     0.040 A 
ATOM     79  F   UNL A   1      41.169  35.037  35.338  1.00  0.00    -0.206 F 
ATOM     80  C   UNL A   1      38.070  33.834  36.798  1.00  0.00     0.006 A 
ENDBRANCH  52  73
BRANCH  64  81
ATOM     81  C   UNL A   1      43.202  26.564  34.338  1.00  0.00     0.057 A 
ATOM     82  C   UNL A   1      42.165  25.733  34.774  1.00  0.00     0.134 A 
ATOM     83  C   UNL A   1      44.505  26.079  34.552  1.00  0.00     0.134 A 
ATOM     84  F   UNL A   1      40.895  26.164  34.803  1.00  0.00    -0.206 F 
ATOM     85  C   UNL A   1      42.398  24.423  35.193  1.00  0.00     0.040 A 
ATOM     86  C   UNL A   1      44.754  24.798  35.035  1.00  0.00     0.040 A 
ATOM     87  F   UNL A   1      45.600  26.797  34.276  1.00  0.00    -0.206 F 
ATOM     88  C   UNL A   1      43.697  23.946  35.305  1.00  0.00     0.006 A 
ENDBRANCH  64  81
ENDBRANCH  38  39
ENDBRANCH  31  33
ENDBRANCH  30  31
ENDBRANCH  29  30
ENDBRANCH  28  29
ENDBRANCH  27  28
ENDBRANCH  26  27
ENDBRANCH   1  26
TORSDOF 19
ENDMDL
MODEL 3
REMARK VINA RESULT:     -10.7      3.754      8.594
REMARK SMILES Cc1ccccc1CSCC(=O)Nc1ccc(C)c(C(=O)OCCOCCOC(=O)c2ccc(-c3c4nc(c(-c5c(F)cccc5F)c5ccc([nH]5)c(-c5c(F)cccc5F)c5nc(c(-c6c(F)cccc6F)c6ccc3[nH]6)C=C5)C=C4)cc2)c1
REMARK SMILES IDX 23 1 22 2 20 3 21 4 19 5 14 6 15 7 85 8 16 9 17 10 18 11
REMARK SMILES IDX 13 12 11 13 12 14 10 16 9 17 8 18 7 19 1 20 2 21 3 22 4 23
REMARK SMILES IDX 6 24 5 25 24 26 25 27 26 28 27 29 28 30 29 31 30 32 31 33
REMARK SMILES IDX 32 34 84 35 33 36 83 37 34 38 35 39 36 40 77 41 37 42 82 43
REMARK SMILES IDX 76 44 78 45 38 46 81 47 75 48 74 49 39 51 65 52 48 53 64 54
REMARK SMILES IDX 49 55 52 56 63 57 79 58 50 59 51 60 62 62 80 63 53 64 40 65
REMARK SMILES IDX 41 66 46 67 42 68 43 69 45 70 47 71 44 72 66 73 67 74 72 75
REMARK SMILES IDX 68 76 69 77 71 78 73 79 70 80 54 81 55 82 60 83 56 84 57 85
REMARK SMILES IDX 59 86 61 87 58 88
REMARK H PARENT 13 15 78 50 52 61
REMARK Flexibility Score: inf
ROOT
ATOM      1  C   UNL A   1      36.871  21.809  24.629  1.00  0.00     0.261 C 
ENDROOT
BRANCH   1   2
ATOM      2  O   UNL A   1      35.675  21.721  25.404  1.00  0.00    -0.460 OA
BRANCH   2   3
ATOM      3  C   UNL A   1      34.560  21.130  24.914  1.00  0.00     0.338 C 
ATOM      4  O   UNL A   1      34.294  19.954  24.877  1.00  0.00    -0.246 OA
BRANCH   3   5
ATOM      5  C   UNL A   1      33.626  22.235  24.589  1.00  0.00     0.065 A 
ATOM      6  C   UNL A   1      32.588  23.431  22.800  1.00  0.00     0.042 A 
ATOM      7  C   UNL A   1      31.504  23.696  23.632  1.00  0.00     0.026 A 
ATOM      8  C   UNL A   1      33.611  22.618  23.243  1.00  0.00     0.042 A 
ATOM      9  C   UNL A   1      31.576  23.429  24.990  1.00  0.00     0.006 A 
ATOM     10  C   UNL A   1      32.676  22.756  25.507  1.00  0.00    -0.036 A 
ATOM     11  C   UNL A   1      32.712  22.575  27.002  1.00  0.00     0.045 C 
BRANCH   6  12
ATOM     12  N   UNL A   1      32.624  23.959  21.514  1.00  0.00    -0.325 N 
ATOM     13  C   UNL A   1      32.934  25.253  21.178  1.00  0.00     0.234 C 
ATOM     14  O   UNL A   1      32.951  25.529  19.972  1.00  0.00    -0.274 OA
ATOM     15  H   UNL A   1      32.405  23.346  20.775  1.00  0.00     0.169 HD
BRANCH  13  16
ATOM     16  C   UNL A   1      33.440  26.267  22.201  1.00  0.00     0.170 C 
BRANCH  16  17
ATOM     17  S   UNL A   1      32.560  27.836  22.416  1.00  0.00    -0.147 SA
BRANCH  17  18
ATOM     18  C   UNL A   1      31.634  27.538  23.961  1.00  0.00     0.105 C 
BRANCH  18  19
ATOM     19  C   UNL A   1      32.224  28.261  25.132  1.00  0.00    -0.035 A 
ATOM     20  C   UNL A   1      33.809  26.339  25.827  1.00  0.00     0.044 C 
ATOM     21  C   UNL A   1      33.157  27.685  26.015  1.00  0.00    -0.047 A 
ATOM     22  C   UNL A   1      33.519  28.406  27.163  1.00  0.00     0.004 A 
ATOM     23  C   UNL A   1      33.017  29.684  27.406  1.00  0.00     0.000 A 
ATOM     24  C   UNL A   1      31.778  29.580  25.358  1.00  0.00     0.005 A 
ATOM     25  C   UNL A   1      32.164  30.283  26.490  1.00  0.00     0.000 A 
ENDBRANCH  18  19
ENDBRANCH  17  18
ENDBRANCH  16  17
ENDBRANCH  13  16
ENDBRANCH   6  12
ENDBRANCH   3   5
ENDBRANCH   2   3
ENDBRANCH   1   2
BRANCH   1  26
ATOM     26  C   UNL A   1      37.835  20.752  25.033  1.00  0.00     0.202 C 
BRANCH  26  27
ATOM     27  O   UNL A   1      38.812  21.440  25.796  1.00  0.00    -0.374 OA
BRANCH  27  28
ATOM     28  C   UNL A   1      39.912  20.665  26.211  1.00  0.00     0.202 C 
BRANCH  28  29
ATOM     29  C   UNL A   1      40.668  21.323  27.372  1.00  0.00     0.261 C 
BRANCH  29  30
ATOM     30  O   UNL A   1      40.278  22.714  27.480  1.00  0.00    -0.460 OA
BRANCH  30  31
ATOM     31  C   UNL A   1      41.049  23.630  26.823  1.00  0.00     0.338 C 
ATOM     32  O   UNL A   1      42.142  23.407  26.324  1.00  0.00    -0.246 OA
BRANCH  31  33
ATOM     33  C   UNL A   1      40.527  25.011  27.077  1.00  0.00     0.060 A 
ATOM     34  C   UNL A   1      40.785  26.051  26.154  1.00  0.00     0.016 A 
ATOM     35  C   UNL A   1      40.131  25.323  28.372  1.00  0.00     0.016 A 
ATOM     36  C   UNL A   1      40.819  27.391  26.582  1.00  0.00     0.010 A 
ATOM     37  C   UNL A   1      40.293  26.619  28.812  1.00  0.00     0.010 A 
ATOM     38  C   UNL A   1      40.668  27.661  27.938  1.00  0.00    -0.014 A 
BRANCH  38  39
ATOM     39  C   UNL A   1      40.947  28.927  28.631  1.00  0.00     0.031 A 
ATOM     40  C   UNL A   1      39.819  29.867  28.754  1.00  0.00     0.074 A 
ATOM     41  C   UNL A   1      42.033  29.082  29.431  1.00  0.00     0.049 A 
ATOM     42  N   UNL A   1      39.891  31.011  29.326  1.00  0.00    -0.248 NA
ATOM     43  C   UNL A   1      38.501  29.603  28.186  1.00  0.00     0.031 C 
ATOM     44  C   UNL A   1      42.156  29.860  30.668  1.00  0.00     0.029 A 
ATOM     45  N   UNL A   1      43.301  28.515  29.308  1.00  0.00    -0.354 N 
ATOM     46  C   UNL A   1      38.612  31.482  29.495  1.00  0.00     0.074 A 
ATOM     47  C   UNL A   1      37.802  30.634  28.661  1.00  0.00     0.031 C 
ATOM     48  C   UNL A   1      43.447  29.913  31.045  1.00  0.00     0.029 A 
ATOM     49  C   UNL A   1      44.235  29.320  29.978  1.00  0.00     0.049 A 
ATOM     50  H   UNL A   1      43.508  27.681  28.827  1.00  0.00     0.167 HD
ATOM     51  C   UNL A   1      38.418  32.463  30.424  1.00  0.00     0.037 A 
ATOM     52  C   UNL A   1      45.264  29.854  29.269  1.00  0.00     0.037 A 
ATOM     53  C   UNL A   1      39.722  32.903  30.971  1.00  0.00     0.049 A 
ATOM     54  C   UNL A   1      45.031  31.336  29.143  1.00  0.00     0.074 A 
ATOM     55  C   UNL A   1      40.406  32.703  32.160  1.00  0.00     0.029 A 
ATOM     56  N   UNL A   1      40.675  33.392  30.086  1.00  0.00    -0.354 N 
ATOM     57  N   UNL A   1      43.999  31.932  29.676  1.00  0.00    -0.248 NA
ATOM     58  C   UNL A   1      45.872  32.258  28.397  1.00  0.00     0.031 C 
ATOM     59  C   UNL A   1      41.779  33.075  31.956  1.00  0.00     0.029 A 
ATOM     60  C   UNL A   1      41.926  33.534  30.656  1.00  0.00     0.049 A 
ATOM     61  H   UNL A   1      40.479  33.613  29.147  1.00  0.00     0.167 HD
ATOM     62  C   UNL A   1      43.989  33.246  29.370  1.00  0.00     0.074 A 
ATOM     63  C   UNL A   1      45.170  33.400  28.524  1.00  0.00     0.031 C 
ATOM     64  C   UNL A   1      43.010  34.082  29.835  1.00  0.00     0.037 A 
BRANCH  51  65
ATOM     65  C   UNL A   1      37.072  32.921  30.965  1.00  0.00     0.057 A 
ATOM     66  C   UNL A   1      36.618  32.448  32.213  1.00  0.00     0.134 A 
ATOM     67  C   UNL A   1      36.150  33.782  30.329  1.00  0.00     0.134 A 
ATOM     68  F   UNL A   1      37.376  31.653  32.979  1.00  0.00    -0.206 F 
ATOM     69  C   UNL A   1      35.358  32.766  32.748  1.00  0.00     0.040 A 
ATOM     70  C   UNL A   1      34.886  34.099  30.847  1.00  0.00     0.040 A 
ATOM     71  F   UNL A   1      36.406  34.403  29.181  1.00  0.00    -0.206 F 
ATOM     72  C   UNL A   1      34.479  33.587  32.061  1.00  0.00     0.006 A 
ENDBRANCH  51  65
BRANCH  52  73
ATOM     73  C   UNL A   1      45.758  28.880  28.238  1.00  0.00     0.057 A 
ATOM     74  C   UNL A   1      45.393  29.111  26.893  1.00  0.00     0.134 A 
ATOM     75  C   UNL A   1      46.939  28.153  28.444  1.00  0.00     0.134 A 
ATOM     76  F   UNL A   1      44.284  29.813  26.607  1.00  0.00    -0.206 F 
ATOM     77  C   UNL A   1      46.229  28.770  25.820  1.00  0.00     0.040 A 
ATOM     78  C   UNL A   1      47.790  27.821  27.376  1.00  0.00     0.040 A 
ATOM     79  F   UNL A   1      47.375  27.909  29.688  1.00  0.00    -0.206 F 
ATOM     80  C   UNL A   1      47.457  28.164  26.067  1.00  0.00     0.006 A 
ENDBRANCH  52  73
BRANCH  64  81
ATOM     81  C   UNL A   1      42.994  35.525  29.444  1.00  0.00     0.057 A 
ATOM     82  C   UNL A   1      42.280  35.986  28.333  1.00  0.00     0.134 A 
ATOM     83  C   UNL A   1      43.696  36.505  30.169  1.00  0.00     0.134 A 
ATOM     84  F   UNL A   1      41.733  35.132  27.455  1.00  0.00    -0.206 F 
ATOM     85  C   UNL A   1      42.101  37.347  28.086  1.00  0.00     0.040 A 
ATOM     86  C   UNL A   1      43.582  37.863  29.891  1.00  0.00     0.040 A 
ATOM     87  F   UNL A   1      44.498  36.210  31.199  1.00  0.00    -0.206 F 
ATOM     88  C   UNL A   1      42.738  38.291  28.881  1.00  0.00     0.006 A 
ENDBRANCH  64  81
ENDBRANCH  38  39
ENDBRANCH  31  33
ENDBRANCH  30  31
ENDBRANCH  29  30
ENDBRANCH  28  29
ENDBRANCH  27  28
ENDBRANCH  26  27
ENDBRANCH   1  26
TORSDOF 19
ENDMDL
