MODEL 1
REMARK VINA RESULT:     -10.4      0.000      0.000
REMARK SMILES CCS(=O)(=O)c1ccccc1NC[C@H]1CC[C@H](C(=O)OCCOCCOC(=O)c2ccc(-c3c4nc(c(-c5c(F)cccc5F)c5ccc([nH]5)c(-c5c(F)cccc5F)c5nc(c(-c6c(F)cccc6F)c6ccc3[nH]6)C=C5)C=C4)cc2)O1
REMARK SMILES IDX 21 1 20 2 18 3 19 4 17 5 14 6 15 7 83 8 16 9 13 10 12 11
REMARK SMILES IDX 11 13 6 14 7 15 8 16 10 17 9 18 3 19 4 20 5 21 2 22 1 23
REMARK SMILES IDX 22 24 23 25 24 26 25 27 26 28 27 29 28 30 29 31 30 32 82 33
REMARK SMILES IDX 31 34 81 35 32 36 33 37 34 38 75 39 35 40 80 41 74 42 76 43
REMARK SMILES IDX 36 44 79 45 73 46 72 47 37 49 63 50 46 51 62 52 47 53 50 54
REMARK SMILES IDX 61 55 77 56 48 57 49 58 60 60 78 61 51 62 38 63 39 64 44 65
REMARK SMILES IDX 40 66 41 67 43 68 45 69 42 70 64 71 65 72 70 73 66 74 67 75
REMARK SMILES IDX 69 76 71 77 68 78 52 79 53 80 58 81 54 82 55 83 57 84 59 85
REMARK SMILES IDX 56 86
REMARK H PARENT 12 12 76 48 50 59
REMARK Flexibility Score: inf
ROOT
ATOM      1  C   UNL A   1      34.833  32.285  27.955  1.00  0.00     0.261 C 
ENDROOT
BRANCH   1   2
ATOM      2  O   UNL A   1      34.172  31.071  28.352  1.00  0.00    -0.461 OA
BRANCH   2   3
ATOM      3  C   UNL A   1      33.269  30.557  27.470  1.00  0.00     0.335 C 
ATOM      4  O   UNL A   1      32.468  31.218  26.819  1.00  0.00    -0.249 OA
BRANCH   3   5
ATOM      5  C   UNL A   1      33.374  29.031  27.369  1.00  0.00     0.228 C 
ATOM      6  C   UNL A   1      33.152  27.609  25.517  1.00  0.00     0.138 C 
ATOM      7  C   UNL A   1      31.760  27.914  26.051  1.00  0.00     0.037 C 
ATOM      8  O   UNL A   1      33.974  28.635  26.122  1.00  0.00    -0.361 OA
ATOM      9  C   UNL A   1      32.049  28.281  27.485  1.00  0.00     0.047 C 
BRANCH   6  10
ATOM     10  C   UNL A   1      33.755  26.232  25.893  1.00  0.00     0.145 C 
BRANCH  10  11
ATOM     11  N   UNL A   1      33.741  25.269  24.795  1.00  0.00    -0.381 N 
ATOM     12  H   UNL A   1      33.241  25.527  23.987  1.00  0.00     0.160 HD
BRANCH  11  13
ATOM     13  C   UNL A   1      34.356  24.037  24.773  1.00  0.00     0.053 A 
ATOM     14  C   UNL A   1      33.670  22.812  24.875  1.00  0.00     0.090 A 
ATOM     15  C   UNL A   1      34.373  21.587  24.788  1.00  0.00     0.022 A 
ATOM     16  C   UNL A   1      35.753  21.554  24.629  1.00  0.00     0.001 A 
ATOM     17  C   UNL A   1      35.760  23.961  24.649  1.00  0.00     0.027 A 
ATOM     18  C   UNL A   1      36.450  22.747  24.572  1.00  0.00     0.002 A 
BRANCH  14  19
ATOM     19  S   UNL A   1      31.918  22.564  25.128  1.00  0.00     0.180 S 
ATOM     20  O   UNL A   1      31.736  21.131  25.289  1.00  0.00    -0.224 OA
ATOM     21  O   UNL A   1      31.281  23.248  24.013  1.00  0.00    -0.224 OA
BRANCH  19  22
ATOM     22  C   UNL A   1      31.267  23.324  26.579  1.00  0.00     0.139 C 
ATOM     23  C   UNL A   1      30.320  24.478  26.337  1.00  0.00     0.021 C 
ENDBRANCH  19  22
ENDBRANCH  14  19
ENDBRANCH  11  13
ENDBRANCH  10  11
ENDBRANCH   6  10
ENDBRANCH   3   5
ENDBRANCH   2   3
ENDBRANCH   1   2
BRANCH   1  24
ATOM     24  C   UNL A   1      34.341  33.472  28.788  1.00  0.00     0.202 C 
BRANCH  24  25
ATOM     25  O   UNL A   1      34.086  33.199  30.166  1.00  0.00    -0.374 OA
BRANCH  25  26
ATOM     26  C   UNL A   1      34.401  34.222  31.106  1.00  0.00     0.202 C 
BRANCH  26  27
ATOM     27  C   UNL A   1      34.571  33.765  32.562  1.00  0.00     0.261 C 
BRANCH  27  28
ATOM     28  O   UNL A   1      35.007  32.394  32.655  1.00  0.00    -0.460 OA
BRANCH  28  29
ATOM     29  C   UNL A   1      36.213  32.227  33.246  1.00  0.00     0.338 C 
ATOM     30  O   UNL A   1      36.522  32.517  34.397  1.00  0.00    -0.246 OA
BRANCH  29  31
ATOM     31  C   UNL A   1      37.124  31.471  32.369  1.00  0.00     0.060 A 
ATOM     32  C   UNL A   1      38.221  30.847  32.974  1.00  0.00     0.016 A 
ATOM     33  C   UNL A   1      36.975  31.454  30.979  1.00  0.00     0.016 A 
ATOM     34  C   UNL A   1      39.203  30.248  32.190  1.00  0.00     0.010 A 
ATOM     35  C   UNL A   1      37.969  30.856  30.192  1.00  0.00     0.010 A 
ATOM     36  C   UNL A   1      39.106  30.285  30.791  1.00  0.00    -0.014 A 
BRANCH  36  37
ATOM     37  C   UNL A   1      40.270  29.844  29.982  1.00  0.00     0.031 A 
ATOM     38  C   UNL A   1      41.407  30.800  29.743  1.00  0.00     0.074 A 
ATOM     39  C   UNL A   1      40.349  28.580  29.526  1.00  0.00     0.049 A 
ATOM     40  N   UNL A   1      42.541  30.600  29.121  1.00  0.00    -0.248 NA
ATOM     41  C   UNL A   1      41.246  32.161  30.279  1.00  0.00     0.031 C 
ATOM     42  C   UNL A   1      39.330  27.550  29.712  1.00  0.00     0.029 A 
ATOM     43  N   UNL A   1      41.340  27.951  28.816  1.00  0.00    -0.354 N 
ATOM     44  C   UNL A   1      43.231  31.804  29.193  1.00  0.00     0.074 A 
ATOM     45  C   UNL A   1      42.373  32.739  29.889  1.00  0.00     0.031 C 
ATOM     46  C   UNL A   1      39.749  26.413  29.130  1.00  0.00     0.029 A 
ATOM     47  C   UNL A   1      41.057  26.641  28.517  1.00  0.00     0.049 A 
ATOM     48  H   UNL A   1      42.177  28.396  28.547  1.00  0.00     0.167 HD
ATOM     49  C   UNL A   1      44.469  32.102  28.734  1.00  0.00     0.037 A 
ATOM     50  C   UNL A   1      41.767  25.732  27.822  1.00  0.00     0.037 A 
ATOM     51  C   UNL A   1      45.329  31.175  28.046  1.00  0.00     0.049 A 
ATOM     52  C   UNL A   1      43.121  26.104  27.279  1.00  0.00     0.074 A 
ATOM     53  C   UNL A   1      46.612  31.380  27.568  1.00  0.00     0.029 A 
ATOM     54  N   UNL A   1      44.989  29.869  27.729  1.00  0.00    -0.354 N 
ATOM     55  N   UNL A   1      43.776  27.233  27.390  1.00  0.00    -0.248 NA
ATOM     56  C   UNL A   1      43.837  25.067  26.519  1.00  0.00     0.031 C 
ATOM     57  C   UNL A   1      47.033  30.211  26.926  1.00  0.00     0.029 A 
ATOM     58  C   UNL A   1      46.028  29.264  27.041  1.00  0.00     0.049 A 
ATOM     59  H   UNL A   1      44.136  29.436  27.960  1.00  0.00     0.167 HD
ATOM     60  C   UNL A   1      44.988  27.038  26.736  1.00  0.00     0.074 A 
ATOM     61  C   UNL A   1      44.983  25.675  26.246  1.00  0.00     0.031 C 
ATOM     62  C   UNL A   1      46.011  27.908  26.558  1.00  0.00     0.037 A 
BRANCH  49  63
ATOM     63  C   UNL A   1      44.968  33.501  28.948  1.00  0.00     0.057 A 
ATOM     64  C   UNL A   1      44.657  34.538  28.060  1.00  0.00     0.134 A 
ATOM     65  C   UNL A   1      45.730  33.821  30.078  1.00  0.00     0.134 A 
ATOM     66  F   UNL A   1      43.941  34.294  26.951  1.00  0.00    -0.206 F 
ATOM     67  C   UNL A   1      45.101  35.843  28.280  1.00  0.00     0.040 A 
ATOM     68  C   UNL A   1      46.161  35.127  30.320  1.00  0.00     0.040 A 
ATOM     69  F   UNL A   1      46.058  32.873  30.969  1.00  0.00    -0.206 F 
ATOM     70  C   UNL A   1      45.849  36.142  29.417  1.00  0.00     0.006 A 
ENDBRANCH  49  63
BRANCH  50  71
ATOM     71  C   UNL A   1      41.213  24.376  27.590  1.00  0.00     0.057 A 
ATOM     72  C   UNL A   1      40.183  24.159  26.667  1.00  0.00     0.134 A 
ATOM     73  C   UNL A   1      41.681  23.269  28.308  1.00  0.00     0.134 A 
ATOM     74  F   UNL A   1      39.676  25.184  25.968  1.00  0.00    -0.206 F 
ATOM     75  C   UNL A   1      39.625  22.892  26.480  1.00  0.00     0.040 A 
ATOM     76  C   UNL A   1      41.149  21.994  28.114  1.00  0.00     0.040 A 
ATOM     77  F   UNL A   1      42.667  23.413  29.206  1.00  0.00    -0.206 F 
ATOM     78  C   UNL A   1      40.112  21.805  27.203  1.00  0.00     0.006 A 
ENDBRANCH  50  71
BRANCH  62  79
ATOM     79  C   UNL A   1      47.219  27.406  25.821  1.00  0.00     0.057 A 
ATOM     80  C   UNL A   1      47.355  27.557  24.436  1.00  0.00     0.134 A 
ATOM     81  C   UNL A   1      48.270  26.786  26.510  1.00  0.00     0.134 A 
ATOM     82  F   UNL A   1      46.378  28.130  23.716  1.00  0.00    -0.206 F 
ATOM     83  C   UNL A   1      48.480  27.087  23.757  1.00  0.00     0.040 A 
ATOM     84  C   UNL A   1      49.412  26.334  25.846  1.00  0.00     0.040 A 
ATOM     85  F   UNL A   1      48.208  26.618  27.840  1.00  0.00    -0.206 F 
ATOM     86  C   UNL A   1      49.515  26.478  24.464  1.00  0.00     0.006 A 
ENDBRANCH  62  79
ENDBRANCH  36  37
ENDBRANCH  29  31
ENDBRANCH  28  29
ENDBRANCH  27  28
ENDBRANCH  26  27
ENDBRANCH  25  26
ENDBRANCH  24  25
ENDBRANCH   1  24
TORSDOF 19
ENDMDL
MODEL 2
REMARK VINA RESULT:     -10.3      1.015      6.205
REMARK SMILES CCS(=O)(=O)c1ccccc1NC[C@H]1CC[C@H](C(=O)OCCOCCOC(=O)c2ccc(-c3c4nc(c(-c5c(F)cccc5F)c5ccc([nH]5)c(-c5c(F)cccc5F)c5nc(c(-c6c(F)cccc6F)c6ccc3[nH]6)C=C5)C=C4)cc2)O1
REMARK SMILES IDX 21 1 20 2 18 3 19 4 17 5 14 6 15 7 83 8 16 9 13 10 12 11
REMARK SMILES IDX 11 13 6 14 7 15 8 16 10 17 9 18 3 19 4 20 5 21 2 22 1 23
REMARK SMILES IDX 22 24 23 25 24 26 25 27 26 28 27 29 28 30 29 31 30 32 82 33
REMARK SMILES IDX 31 34 81 35 32 36 33 37 34 38 75 39 35 40 80 41 74 42 76 43
REMARK SMILES IDX 36 44 79 45 73 46 72 47 37 49 63 50 46 51 62 52 47 53 50 54
REMARK SMILES IDX 61 55 77 56 48 57 49 58 60 60 78 61 51 62 38 63 39 64 44 65
REMARK SMILES IDX 40 66 41 67 43 68 45 69 42 70 64 71 65 72 70 73 66 74 67 75
REMARK SMILES IDX 69 76 71 77 68 78 52 79 53 80 58 81 54 82 55 83 57 84 59 85
REMARK SMILES IDX 56 86
REMARK H PARENT 12 12 76 48 50 59
REMARK Flexibility Score: inf
ROOT
ATOM      1  C   UNL A   1      34.559  31.929  27.777  1.00  0.00     0.261 C 
ENDROOT
BRANCH   1   2
ATOM      2  O   UNL A   1      33.183  31.623  28.064  1.00  0.00    -0.461 OA
BRANCH   2   3
ATOM      3  C   UNL A   1      32.520  30.885  27.129  1.00  0.00     0.335 C 
ATOM      4  O   UNL A   1      31.727  31.337  26.311  1.00  0.00    -0.249 OA
BRANCH   3   5
ATOM      5  C   UNL A   1      32.890  29.400  27.206  1.00  0.00     0.228 C 
ATOM      6  C   UNL A   1      32.930  27.753  25.537  1.00  0.00     0.138 C 
ATOM      7  C   UNL A   1      31.504  27.872  26.051  1.00  0.00     0.037 C 
ATOM      8  O   UNL A   1      33.557  28.970  26.005  1.00  0.00    -0.361 OA
ATOM      9  C   UNL A   1      31.715  28.450  27.428  1.00  0.00     0.047 C 
BRANCH   6  10
ATOM     10  C   UNL A   1      33.762  26.555  26.062  1.00  0.00     0.145 C 
BRANCH  10  11
ATOM     11  N   UNL A   1      33.523  25.313  25.334  1.00  0.00    -0.381 N 
ATOM     12  H   UNL A   1      32.586  25.019  25.255  1.00  0.00     0.160 HD
BRANCH  11  13
ATOM     13  C   UNL A   1      34.473  24.509  24.744  1.00  0.00     0.053 A 
ATOM     14  C   UNL A   1      34.334  23.932  23.467  1.00  0.00     0.090 A 
ATOM     15  C   UNL A   1      35.382  23.162  22.911  1.00  0.00     0.022 A 
ATOM     16  C   UNL A   1      36.560  22.929  23.611  1.00  0.00     0.001 A 
ATOM     17  C   UNL A   1      35.667  24.219  25.437  1.00  0.00     0.027 A 
ATOM     18  C   UNL A   1      36.697  23.450  24.884  1.00  0.00     0.002 A 
BRANCH  14  19
ATOM     19  S   UNL A   1      32.921  24.029  22.377  1.00  0.00     0.180 S 
ATOM     20  O   UNL A   1      31.821  23.400  23.090  1.00  0.00    -0.224 OA
ATOM     21  O   UNL A   1      33.382  23.460  21.120  1.00  0.00    -0.224 OA
BRANCH  19  22
ATOM     22  C   UNL A   1      32.401  25.668  21.988  1.00  0.00     0.139 C 
ATOM     23  C   UNL A   1      33.487  26.720  22.030  1.00  0.00     0.021 C 
ENDBRANCH  19  22
ENDBRANCH  14  19
ENDBRANCH  11  13
ENDBRANCH  10  11
ENDBRANCH   6  10
ENDBRANCH   3   5
ENDBRANCH   2   3
ENDBRANCH   1   2
BRANCH   1  24
ATOM     24  C   UNL A   1      34.975  33.244  28.442  1.00  0.00     0.202 C 
BRANCH  24  25
ATOM     25  O   UNL A   1      34.108  33.721  29.471  1.00  0.00    -0.374 OA
BRANCH  25  26
ATOM     26  C   UNL A   1      34.715  34.280  30.633  1.00  0.00     0.202 C 
BRANCH  26  27
ATOM     27  C   UNL A   1      34.502  33.503  31.939  1.00  0.00     0.261 C 
BRANCH  27  28
ATOM     28  O   UNL A   1      34.996  32.152  31.857  1.00  0.00    -0.460 OA
BRANCH  28  29
ATOM     29  C   UNL A   1      36.074  31.899  32.634  1.00  0.00     0.338 C 
ATOM     30  O   UNL A   1      36.182  32.095  33.840  1.00  0.00    -0.246 OA
BRANCH  29  31
ATOM     31  C   UNL A   1      37.107  31.174  31.875  1.00  0.00     0.060 A 
ATOM     32  C   UNL A   1      38.188  30.656  32.599  1.00  0.00     0.016 A 
ATOM     33  C   UNL A   1      37.082  31.087  30.480  1.00  0.00     0.016 A 
ATOM     34  C   UNL A   1      39.273  30.097  31.931  1.00  0.00     0.010 A 
ATOM     35  C   UNL A   1      38.179  30.529  29.809  1.00  0.00     0.010 A 
ATOM     36  C   UNL A   1      39.296  30.067  30.529  1.00  0.00    -0.014 A 
BRANCH  36  37
ATOM     37  C   UNL A   1      40.553  29.677  29.843  1.00  0.00     0.031 A 
ATOM     38  C   UNL A   1      40.693  28.283  29.294  1.00  0.00     0.074 A 
ATOM     39  C   UNL A   1      41.535  30.577  29.646  1.00  0.00     0.049 A 
ATOM     40  N   UNL A   1      41.677  27.757  28.609  1.00  0.00    -0.248 NA
ATOM     41  C   UNL A   1      39.575  27.361  29.548  1.00  0.00     0.031 C 
ATOM     42  C   UNL A   1      41.512  31.965  30.102  1.00  0.00     0.029 A 
ATOM     43  N   UNL A   1      42.739  30.453  29.000  1.00  0.00    -0.354 N 
ATOM     44  C   UNL A   1      41.296  26.446  28.346  1.00  0.00     0.074 A 
ATOM     45  C   UNL A   1      40.008  26.247  28.974  1.00  0.00     0.031 C 
ATOM     46  C   UNL A   1      42.652  32.566  29.722  1.00  0.00     0.029 A 
ATOM     47  C   UNL A   1      43.490  31.602  29.011  1.00  0.00     0.049 A 
ATOM     48  H   UNL A   1      43.037  29.619  28.569  1.00  0.00     0.167 HD
ATOM     49  C   UNL A   1      41.953  25.498  27.636  1.00  0.00     0.037 A 
ATOM     50  C   UNL A   1      44.717  31.847  28.510  1.00  0.00     0.037 A 
ATOM     51  C   UNL A   1      43.231  25.692  27.004  1.00  0.00     0.049 A 
ATOM     52  C   UNL A   1      45.447  30.760  27.768  1.00  0.00     0.074 A 
ATOM     53  C   UNL A   1      43.960  24.797  26.240  1.00  0.00     0.029 A 
ATOM     54  N   UNL A   1      43.977  26.859  27.071  1.00  0.00    -0.354 N 
ATOM     55  N   UNL A   1      45.058  29.539  27.492  1.00  0.00    -0.248 NA
ATOM     56  C   UNL A   1      46.787  31.091  27.259  1.00  0.00     0.031 C 
ATOM     57  C   UNL A   1      45.166  25.407  25.879  1.00  0.00     0.029 A 
ATOM     58  C   UNL A   1      45.168  26.698  26.383  1.00  0.00     0.049 A 
ATOM     59  H   UNL A   1      43.699  27.679  27.538  1.00  0.00     0.167 HD
ATOM     60  C   UNL A   1      46.091  28.965  26.761  1.00  0.00     0.074 A 
ATOM     61  C   UNL A   1      47.117  29.977  26.620  1.00  0.00     0.031 C 
ATOM     62  C   UNL A   1      46.181  27.712  26.251  1.00  0.00     0.037 A 
BRANCH  49  63
ATOM     63  C   UNL A   1      41.302  24.152  27.515  1.00  0.00     0.057 A 
ATOM     64  C   UNL A   1      40.234  23.925  26.638  1.00  0.00     0.134 A 
ATOM     65  C   UNL A   1      41.778  23.061  28.252  1.00  0.00     0.134 A 
ATOM     66  F   UNL A   1      39.724  24.932  25.912  1.00  0.00    -0.206 F 
ATOM     67  C   UNL A   1      39.651  22.663  26.510  1.00  0.00     0.040 A 
ATOM     68  C   UNL A   1      41.218  21.790  28.117  1.00  0.00     0.040 A 
ATOM     69  F   UNL A   1      42.802  23.212  29.107  1.00  0.00    -0.206 F 
ATOM     70  C   UNL A   1      40.149  21.589  27.246  1.00  0.00     0.006 A 
ENDBRANCH  49  63
BRANCH  50  71
ATOM     71  C   UNL A   1      45.344  33.178  28.699  1.00  0.00     0.057 A 
ATOM     72  C   UNL A   1      46.179  33.442  29.790  1.00  0.00     0.134 A 
ATOM     73  C   UNL A   1      45.098  34.227  27.805  1.00  0.00     0.134 A 
ATOM     74  F   UNL A   1      46.432  32.484  30.693  1.00  0.00    -0.206 F 
ATOM     75  C   UNL A   1      46.733  34.707  29.997  1.00  0.00     0.040 A 
ATOM     76  C   UNL A   1      45.664  35.490  27.987  1.00  0.00     0.040 A 
ATOM     77  F   UNL A   1      44.306  34.037  26.739  1.00  0.00    -0.206 F 
ATOM     78  C   UNL A   1      46.478  35.734  29.090  1.00  0.00     0.006 A 
ENDBRANCH  50  71
BRANCH  62  79
ATOM     79  C   UNL A   1      47.422  27.374  25.477  1.00  0.00     0.057 A 
ATOM     80  C   UNL A   1      47.532  27.636  24.105  1.00  0.00     0.134 A 
ATOM     81  C   UNL A   1      48.530  26.803  26.116  1.00  0.00     0.134 A 
ATOM     82  F   UNL A   1      46.501  28.171  23.432  1.00  0.00    -0.206 F 
ATOM     83  C   UNL A   1      48.688  27.320  23.391  1.00  0.00     0.040 A 
ATOM     84  C   UNL A   1      49.701  26.504  25.418  1.00  0.00     0.040 A 
ATOM     85  F   UNL A   1      48.495  26.535  27.431  1.00  0.00    -0.206 F 
ATOM     86  C   UNL A   1      49.780  26.756  24.050  1.00  0.00     0.006 A 
ENDBRANCH  62  79
ENDBRANCH  36  37
ENDBRANCH  29  31
ENDBRANCH  28  29
ENDBRANCH  27  28
ENDBRANCH  26  27
ENDBRANCH  25  26
ENDBRANCH  24  25
ENDBRANCH   1  24
TORSDOF 19
ENDMDL
MODEL 3
REMARK VINA RESULT:     -10.0      1.329      2.370
REMARK SMILES CCS(=O)(=O)c1ccccc1NC[C@H]1CC[C@H](C(=O)OCCOCCOC(=O)c2ccc(-c3c4nc(c(-c5c(F)cccc5F)c5ccc([nH]5)c(-c5c(F)cccc5F)c5nc(c(-c6c(F)cccc6F)c6ccc3[nH]6)C=C5)C=C4)cc2)O1
REMARK SMILES IDX 21 1 20 2 18 3 19 4 17 5 14 6 15 7 83 8 16 9 13 10 12 11
REMARK SMILES IDX 11 13 6 14 7 15 8 16 10 17 9 18 3 19 4 20 5 21 2 22 1 23
REMARK SMILES IDX 22 24 23 25 24 26 25 27 26 28 27 29 28 30 29 31 30 32 82 33
REMARK SMILES IDX 31 34 81 35 32 36 33 37 34 38 75 39 35 40 80 41 74 42 76 43
REMARK SMILES IDX 36 44 79 45 73 46 72 47 37 49 63 50 46 51 62 52 47 53 50 54
REMARK SMILES IDX 61 55 77 56 48 57 49 58 60 60 78 61 51 62 38 63 39 64 44 65
REMARK SMILES IDX 40 66 41 67 43 68 45 69 42 70 64 71 65 72 70 73 66 74 67 75
REMARK SMILES IDX 69 76 71 77 68 78 52 79 53 80 58 81 54 82 55 83 57 84 59 85
REMARK SMILES IDX 56 86
REMARK H PARENT 12 12 76 48 50 59
REMARK Flexibility Score: inf
ROOT
ATOM      1  C   UNL A   1      34.888  34.376  29.605  1.00  0.00     0.261 C 
ENDROOT
BRANCH   1   2
ATOM      2  O   UNL A   1      34.233  33.115  29.377  1.00  0.00    -0.461 OA
BRANCH   2   3
ATOM      3  C   UNL A   1      33.525  33.001  28.218  1.00  0.00     0.335 C 
ATOM      4  O   UNL A   1      32.591  33.723  27.892  1.00  0.00    -0.249 OA
BRANCH   3   5
ATOM      5  C   UNL A   1      34.044  31.856  27.343  1.00  0.00     0.228 C 
ATOM      6  C   UNL A   1      33.893  29.533  27.628  1.00  0.00     0.138 C 
ATOM      7  C   UNL A   1      35.079  30.033  28.436  1.00  0.00     0.037 C 
ATOM      8  O   UNL A   1      33.137  30.737  27.362  1.00  0.00    -0.361 OA
ATOM      9  C   UNL A   1      35.421  31.319  27.727  1.00  0.00     0.047 C 
BRANCH   6  10
ATOM     10  C   UNL A   1      34.210  28.859  26.269  1.00  0.00     0.145 C 
BRANCH  10  11
ATOM     11  N   UNL A   1      33.558  27.565  26.091  1.00  0.00    -0.381 N 
ATOM     12  H   UNL A   1      34.002  26.786  26.499  1.00  0.00     0.160 HD
BRANCH  11  13
ATOM     13  C   UNL A   1      32.385  27.320  25.411  1.00  0.00     0.053 A 
ATOM     14  C   UNL A   1      31.743  26.069  25.375  1.00  0.00     0.090 A 
ATOM     15  C   UNL A   1      30.509  25.916  24.698  1.00  0.00     0.022 A 
ATOM     16  C   UNL A   1      29.913  26.979  24.030  1.00  0.00     0.001 A 
ATOM     17  C   UNL A   1      31.767  28.365  24.692  1.00  0.00     0.027 A 
ATOM     18  C   UNL A   1      30.552  28.205  24.017  1.00  0.00     0.002 A 
BRANCH  14  19
ATOM     19  S   UNL A   1      32.304  24.535  26.100  1.00  0.00     0.180 S 
ATOM     20  O   UNL A   1      31.555  24.378  27.336  1.00  0.00    -0.224 OA
ATOM     21  O   UNL A   1      33.753  24.656  26.148  1.00  0.00    -0.224 OA
BRANCH  19  22
ATOM     22  C   UNL A   1      31.985  23.099  25.128  1.00  0.00     0.139 C 
ATOM     23  C   UNL A   1      30.933  22.163  25.681  1.00  0.00     0.021 C 
ENDBRANCH  19  22
ENDBRANCH  14  19
ENDBRANCH  11  13
ENDBRANCH  10  11
ENDBRANCH   6  10
ENDBRANCH   3   5
ENDBRANCH   2   3
ENDBRANCH   1   2
BRANCH   1  24
ATOM     24  C   UNL A   1      34.087  35.238  30.584  1.00  0.00     0.202 C 
BRANCH  24  25
ATOM     25  O   UNL A   1      33.207  34.530  31.458  1.00  0.00    -0.374 OA
BRANCH  25  26
ATOM     26  C   UNL A   1      33.662  34.279  32.784  1.00  0.00     0.202 C 
BRANCH  26  27
ATOM     27  C   UNL A   1      34.532  33.028  32.968  1.00  0.00     0.261 C 
BRANCH  27  28
ATOM     28  O   UNL A   1      35.936  33.313  32.811  1.00  0.00    -0.460 OA
BRANCH  28  29
ATOM     29  C   UNL A   1      36.758  32.473  33.482  1.00  0.00     0.338 C 
ATOM     30  O   UNL A   1      36.754  32.235  34.685  1.00  0.00    -0.246 OA
BRANCH  29  31
ATOM     31  C   UNL A   1      37.600  31.707  32.546  1.00  0.00     0.060 A 
ATOM     32  C   UNL A   1      38.657  30.971  33.094  1.00  0.00     0.016 A 
ATOM     33  C   UNL A   1      37.432  31.785  31.161  1.00  0.00     0.016 A 
ATOM     34  C   UNL A   1      39.582  30.351  32.258  1.00  0.00     0.010 A 
ATOM     35  C   UNL A   1      38.369  31.166  30.322  1.00  0.00     0.010 A 
ATOM     36  C   UNL A   1      39.470  30.479  30.866  1.00  0.00    -0.014 A 
BRANCH  36  37
ATOM     37  C   UNL A   1      40.587  30.005  30.013  1.00  0.00     0.031 A 
ATOM     38  C   UNL A   1      41.728  30.937  29.705  1.00  0.00     0.074 A 
ATOM     39  C   UNL A   1      40.625  28.733  29.574  1.00  0.00     0.049 A 
ATOM     40  N   UNL A   1      42.829  30.707  29.035  1.00  0.00    -0.248 NA
ATOM     41  C   UNL A   1      41.614  32.309  30.224  1.00  0.00     0.031 C 
ATOM     42  C   UNL A   1      39.598  27.723  29.825  1.00  0.00     0.029 A 
ATOM     43  N   UNL A   1      41.572  28.075  28.831  1.00  0.00    -0.354 N 
ATOM     44  C   UNL A   1      43.540  31.901  29.054  1.00  0.00     0.074 A 
ATOM     45  C   UNL A   1      42.731  32.862  29.773  1.00  0.00     0.031 C 
ATOM     46  C   UNL A   1      39.972  26.570  29.244  1.00  0.00     0.029 A 
ATOM     47  C   UNL A   1      41.253  26.766  28.568  1.00  0.00     0.049 A 
ATOM     48  H   UNL A   1      42.402  28.501  28.516  1.00  0.00     0.167 HD
ATOM     49  C   UNL A   1      44.761  32.170  28.534  1.00  0.00     0.037 A 
ATOM     50  C   UNL A   1      41.916  25.833  27.856  1.00  0.00     0.037 A 
ATOM     51  C   UNL A   1      45.573  31.217  27.823  1.00  0.00     0.049 A 
ATOM     52  C   UNL A   1      43.249  26.173  27.245  1.00  0.00     0.074 A 
ATOM     53  C   UNL A   1      46.836  31.392  27.284  1.00  0.00     0.029 A 
ATOM     54  N   UNL A   1      45.197  29.912  27.545  1.00  0.00    -0.354 N 
ATOM     55  N   UNL A   1      43.927  27.293  27.306  1.00  0.00    -0.248 NA
ATOM     56  C   UNL A   1      43.912  25.112  26.470  1.00  0.00     0.031 C 
ATOM     57  C   UNL A   1      47.207  30.206  26.642  1.00  0.00     0.029 A 
ATOM     58  C   UNL A   1      46.193  29.279  26.820  1.00  0.00     0.049 A 
ATOM     59  H   UNL A   1      44.349  29.498  27.822  1.00  0.00     0.167 HD
ATOM     60  C   UNL A   1      45.103  27.066  26.601  1.00  0.00     0.074 A 
ATOM     61  C   UNL A   1      45.054  25.695  26.135  1.00  0.00     0.031 C 
ATOM     62  C   UNL A   1      46.132  27.916  26.362  1.00  0.00     0.037 A 
BRANCH  49  63
ATOM     63  C   UNL A   1      45.292  33.563  28.701  1.00  0.00     0.057 A 
ATOM     64  C   UNL A   1      44.985  34.583  27.792  1.00  0.00     0.134 A 
ATOM     65  C   UNL A   1      46.082  33.898  29.807  1.00  0.00     0.134 A 
ATOM     66  F   UNL A   1      44.242  34.324  26.704  1.00  0.00    -0.206 F 
ATOM     67  C   UNL A   1      45.459  35.884  27.968  1.00  0.00     0.040 A 
ATOM     68  C   UNL A   1      46.544  35.200  30.006  1.00  0.00     0.040 A 
ATOM     69  F   UNL A   1      46.408  32.967  30.717  1.00  0.00    -0.206 F 
ATOM     70  C   UNL A   1      46.235  36.197  29.083  1.00  0.00     0.006 A 
ENDBRANCH  49  63
BRANCH  50  71
ATOM     71  C   UNL A   1      41.329  24.483  27.673  1.00  0.00     0.057 A 
ATOM     72  C   UNL A   1      41.800  23.380  28.394  1.00  0.00     0.134 A 
ATOM     73  C   UNL A   1      40.301  24.260  26.749  1.00  0.00     0.134 A 
ATOM     74  F   UNL A   1      42.799  23.527  29.275  1.00  0.00    -0.206 F 
ATOM     75  C   UNL A   1      41.284  22.099  28.189  1.00  0.00     0.040 A 
ATOM     76  C   UNL A   1      39.759  22.989  26.551  1.00  0.00     0.040 A 
ATOM     77  F   UNL A   1      39.807  25.277  26.028  1.00  0.00    -0.206 F 
ATOM     78  C   UNL A   1      40.256  21.903  27.268  1.00  0.00     0.006 A 
ENDBRANCH  50  71
BRANCH  62  79
ATOM     79  C   UNL A   1      47.296  27.381  25.579  1.00  0.00     0.057 A 
ATOM     80  C   UNL A   1      47.393  27.549  24.192  1.00  0.00     0.134 A 
ATOM     81  C   UNL A   1      48.344  26.710  26.223  1.00  0.00     0.134 A 
ATOM     82  F   UNL A   1      46.417  28.171  23.513  1.00  0.00    -0.206 F 
ATOM     83  C   UNL A   1      48.478  27.049  23.470  1.00  0.00     0.040 A 
ATOM     84  C   UNL A   1      49.446  26.227  25.516  1.00  0.00     0.040 A 
ATOM     85  F   UNL A   1      48.317  26.523  27.552  1.00  0.00    -0.206 F 
ATOM     86  C   UNL A   1      49.511  26.390  24.134  1.00  0.00     0.006 A 
ENDBRANCH  62  79
ENDBRANCH  36  37
ENDBRANCH  29  31
ENDBRANCH  28  29
ENDBRANCH  27  28
ENDBRANCH  26  27
ENDBRANCH  25  26
ENDBRANCH  24  25
ENDBRANCH   1  24
TORSDOF 19
ENDMDL
