MODEL 1
REMARK VINA RESULT:     -11.0      0.000      0.000
REMARK SMILES CC(C)CSc1cc2c(cc1Cl)C=C(C(=O)OCCOCCOC(=O)c1ccc(-c3c4nc(c(-c5c(F)cccc5F)c5ccc([nH]5)c(-c5c(F)cccc5F)c5nc(c(-c6c(F)cccc6F)c6ccc3[nH]6)C=C5)C=C4)cc1)[C@@H](C(F)(F)F)O2
REMARK SMILES IDX 19 1 18 2 17 3 15 4 16 5 14 6 6 7 7 8 11 9 8 10 10 11 12 12
REMARK SMILES IDX 9 13 85 14 13 15 80 16 5 17 4 18 2 19 1 20 3 21 81 22 82 23
REMARK SMILES IDX 83 24 84 25 20 26 21 27 22 28 23 29 24 30 25 31 26 32 27 33
REMARK SMILES IDX 79 34 28 35 78 36 29 37 30 38 31 39 72 40 32 41 77 42 71 43
REMARK SMILES IDX 73 44 33 45 76 46 70 47 69 48 34 50 60 51 43 52 59 53 44 54
REMARK SMILES IDX 47 55 58 56 74 57 45 58 46 59 57 61 75 62 48 63 35 64 36 65
REMARK SMILES IDX 41 66 37 67 38 68 40 69 42 70 39 71 61 72 62 73 67 74 63 75
REMARK SMILES IDX 64 76 66 77 68 78 65 79 49 80 50 81 55 82 51 83 52 84 54 85
REMARK SMILES IDX 56 86 53 87
REMARK H PARENT 73 49 47 60
REMARK Flexibility Score: inf
ROOT
ATOM      1  C   UNL A   1      38.166  21.740  25.913  1.00  0.00     0.202 C 
ENDROOT
BRANCH   1   2
ATOM      2  C   UNL A   1      37.330  22.717  25.081  1.00  0.00     0.261 C 
BRANCH   2   3
ATOM      3  O   UNL A   1      36.604  23.642  25.906  1.00  0.00    -0.460 OA
BRANCH   3   4
ATOM      4  C   UNL A   1      35.260  23.492  25.867  1.00  0.00     0.338 C 
ATOM      5  O   UNL A   1      34.587  22.717  26.528  1.00  0.00    -0.246 OA
BRANCH   4   6
ATOM      6  C   UNL A   1      34.672  24.520  24.989  1.00  0.00     0.087 C 
ATOM      7  C   UNL A   1      31.917  28.389  23.376  1.00  0.00     0.030 A 
ATOM      8  C   UNL A   1      32.487  27.258  22.760  1.00  0.00     0.063 A 
ATOM      9  C   UNL A   1      32.316  28.703  24.684  1.00  0.00     0.055 A 
ATOM     10  C   UNL A   1      33.316  26.390  23.472  1.00  0.00     0.129 A 
ATOM     11  C   UNL A   1      33.122  27.815  25.406  1.00  0.00     0.033 A 
ATOM     12  Cl  UNL A   1      31.886  30.170  25.488  1.00  0.00    -0.083 Cl
ATOM     13  C   UNL A   1      33.584  26.638  24.814  1.00  0.00     0.019 A 
ATOM     14  O   UNL A   1      33.796  25.310  22.790  1.00  0.00    -0.475 OA
ATOM     15  C   UNL A   1      34.276  25.641  25.606  1.00  0.00     0.027 C 
ATOM     16  C   UNL A   1      34.527  24.276  23.513  1.00  0.00     0.316 C 
BRANCH   7  17
ATOM     17  S   UNL A   1      30.713  29.272  22.387  1.00  0.00    -0.124 SA
BRANCH  17  18
ATOM     18  C   UNL A   1      29.175  29.222  23.397  1.00  0.00     0.078 C 
BRANCH  18  19
ATOM     19  C   UNL A   1      27.930  29.978  22.892  1.00  0.00    -0.007 C 
ATOM     20  C   UNL A   1      27.655  31.308  23.593  1.00  0.00     0.008 C 
ATOM     21  C   UNL A   1      28.108  30.256  21.391  1.00  0.00     0.008 C 
ENDBRANCH  18  19
ENDBRANCH  17  18
ENDBRANCH   7  17
BRANCH  16  22
ATOM     22  C   UNL A   1      33.865  22.927  23.190  1.00  0.00     0.430 C 
ATOM     23  F   UNL A   1      33.537  22.843  21.878  1.00  0.00    -0.167 F 
ATOM     24  F   UNL A   1      34.688  21.885  23.449  1.00  0.00    -0.167 F 
ATOM     25  F   UNL A   1      32.734  22.738  23.905  1.00  0.00    -0.167 F 
ENDBRANCH  16  22
ENDBRANCH   4   6
ENDBRANCH   3   4
ENDBRANCH   2   3
ENDBRANCH   1   2
BRANCH   1  26
ATOM     26  O   UNL A   1      39.456  22.170  26.339  1.00  0.00    -0.374 OA
BRANCH  26  27
ATOM     27  C   UNL A   1      40.490  21.198  26.476  1.00  0.00     0.202 C 
BRANCH  27  28
ATOM     28  C   UNL A   1      41.865  21.503  25.867  1.00  0.00     0.261 C 
BRANCH  28  29
ATOM     29  O   UNL A   1      42.006  22.868  25.443  1.00  0.00    -0.460 OA
BRANCH  29  30
ATOM     30  C   UNL A   1      43.072  23.519  25.971  1.00  0.00     0.338 C 
ATOM     31  O   UNL A   1      44.247  23.386  25.665  1.00  0.00    -0.246 OA
BRANCH  30  32
ATOM     32  C   UNL A   1      42.597  24.583  26.875  1.00  0.00     0.060 A 
ATOM     33  C   UNL A   1      41.481  24.392  27.690  1.00  0.00     0.016 A 
ATOM     34  C   UNL A   1      43.323  25.782  26.928  1.00  0.00     0.016 A 
ATOM     35  C   UNL A   1      41.107  25.401  28.581  1.00  0.00     0.010 A 
ATOM     36  C   UNL A   1      42.951  26.784  27.825  1.00  0.00     0.010 A 
ATOM     37  C   UNL A   1      41.850  26.594  28.670  1.00  0.00    -0.014 A 
BRANCH  37  38
ATOM     38  C   UNL A   1      41.519  27.585  29.723  1.00  0.00     0.031 A 
ATOM     39  C   UNL A   1      40.385  28.550  29.562  1.00  0.00     0.074 A 
ATOM     40  C   UNL A   1      42.256  27.595  30.851  1.00  0.00     0.049 A 
ATOM     41  N   UNL A   1      39.888  29.392  30.434  1.00  0.00    -0.248 NA
ATOM     42  C   UNL A   1      39.725  28.583  28.249  1.00  0.00     0.031 C 
ATOM     43  C   UNL A   1      43.414  26.737  31.106  1.00  0.00     0.029 A 
ATOM     44  N   UNL A   1      42.131  28.336  31.998  1.00  0.00    -0.354 N 
ATOM     45  C   UNL A   1      38.841  30.036  29.789  1.00  0.00     0.074 A 
ATOM     46  C   UNL A   1      38.815  29.531  28.431  1.00  0.00     0.031 C 
ATOM     47  C   UNL A   1      43.866  26.967  32.349  1.00  0.00     0.029 A 
ATOM     48  C   UNL A   1      43.050  28.007  32.965  1.00  0.00     0.049 A 
ATOM     49  H   UNL A   1      41.449  29.035  32.116  1.00  0.00     0.167 HD
ATOM     50  C   UNL A   1      37.968  30.943  30.290  1.00  0.00     0.037 A 
ATOM     51  C   UNL A   1      43.210  28.486  34.212  1.00  0.00     0.037 A 
ATOM     52  C   UNL A   1      38.019  31.467  31.632  1.00  0.00     0.049 A 
ATOM     53  C   UNL A   1      42.262  29.538  34.721  1.00  0.00     0.074 A 
ATOM     54  C   UNL A   1      37.166  32.372  32.242  1.00  0.00     0.029 A 
ATOM     55  N   UNL A   1      38.991  31.147  32.570  1.00  0.00    -0.354 N 
ATOM     56  N   UNL A   1      41.219  30.072  34.133  1.00  0.00    -0.248 NA
ATOM     57  C   UNL A   1      42.512  30.047  36.077  1.00  0.00     0.031 C 
ATOM     58  C   UNL A   1      37.655  32.643  33.525  1.00  0.00     0.029 A 
ATOM     59  C   UNL A   1      38.776  31.859  33.741  1.00  0.00     0.049 A 
ATOM     60  H   UNL A   1      39.726  30.508  32.426  1.00  0.00     0.167 HD
ATOM     61  C   UNL A   1      40.672  30.954  35.055  1.00  0.00     0.074 A 
ATOM     62  C   UNL A   1      41.485  30.866  36.250  1.00  0.00     0.031 C 
ATOM     63  C   UNL A   1      39.593  31.766  34.924  1.00  0.00     0.037 A 
BRANCH  50  64
ATOM     64  C   UNL A   1      36.884  31.433  29.372  1.00  0.00     0.057 A 
ATOM     65  C   UNL A   1      35.778  30.629  29.068  1.00  0.00     0.134 A 
ATOM     66  C   UNL A   1      36.946  32.697  28.768  1.00  0.00     0.134 A 
ATOM     67  F   UNL A   1      35.657  29.404  29.602  1.00  0.00    -0.206 F 
ATOM     68  C   UNL A   1      34.772  31.067  28.203  1.00  0.00     0.040 A 
ATOM     69  C   UNL A   1      35.934  33.156  27.925  1.00  0.00     0.040 A 
ATOM     70  F   UNL A   1      37.976  33.520  29.020  1.00  0.00    -0.206 F 
ATOM     71  C   UNL A   1      34.844  32.338  27.637  1.00  0.00     0.006 A 
ENDBRANCH  50  64
BRANCH  51  72
ATOM     72  C   UNL A   1      44.296  27.969  35.083  1.00  0.00     0.057 A 
ATOM     73  C   UNL A   1      44.111  26.838  35.887  1.00  0.00     0.134 A 
ATOM     74  C   UNL A   1      45.562  28.568  35.094  1.00  0.00     0.134 A 
ATOM     75  F   UNL A   1      42.919  26.224  35.928  1.00  0.00    -0.206 F 
ATOM     76  C   UNL A   1      45.144  26.317  36.665  1.00  0.00     0.040 A 
ATOM     77  C   UNL A   1      46.614  28.040  35.844  1.00  0.00     0.040 A 
ATOM     78  F   UNL A   1      45.807  29.644  34.332  1.00  0.00    -0.206 F 
ATOM     79  C   UNL A   1      46.406  26.911  36.634  1.00  0.00     0.006 A 
ENDBRANCH  51  72
BRANCH  63  80
ATOM     80  C   UNL A   1      39.215  32.594  36.121  1.00  0.00     0.057 A 
ATOM     81  C   UNL A   1      39.712  33.896  36.272  1.00  0.00     0.134 A 
ATOM     82  C   UNL A   1      38.365  32.110  37.124  1.00  0.00     0.134 A 
ATOM     83  F   UNL A   1      40.538  34.422  35.356  1.00  0.00    -0.206 F 
ATOM     84  C   UNL A   1      39.373  34.685  37.373  1.00  0.00     0.040 A 
ATOM     85  C   UNL A   1      37.990  32.902  38.212  1.00  0.00     0.040 A 
ATOM     86  F   UNL A   1      37.840  30.878  37.035  1.00  0.00    -0.206 F 
ATOM     87  C   UNL A   1      38.500  34.192  38.341  1.00  0.00     0.006 A 
ENDBRANCH  63  80
ENDBRANCH  37  38
ENDBRANCH  30  32
ENDBRANCH  29  30
ENDBRANCH  28  29
ENDBRANCH  27  28
ENDBRANCH  26  27
ENDBRANCH   1  26
TORSDOF 18
ENDMDL
MODEL 2
REMARK VINA RESULT:     -11.0      3.738      7.256
REMARK SMILES CC(C)CSc1cc2c(cc1Cl)C=C(C(=O)OCCOCCOC(=O)c1ccc(-c3c4nc(c(-c5c(F)cccc5F)c5ccc([nH]5)c(-c5c(F)cccc5F)c5nc(c(-c6c(F)cccc6F)c6ccc3[nH]6)C=C5)C=C4)cc1)[C@@H](C(F)(F)F)O2
REMARK SMILES IDX 19 1 18 2 17 3 15 4 16 5 14 6 6 7 7 8 11 9 8 10 10 11 12 12
REMARK SMILES IDX 9 13 85 14 13 15 80 16 5 17 4 18 2 19 1 20 3 21 81 22 82 23
REMARK SMILES IDX 83 24 84 25 20 26 21 27 22 28 23 29 24 30 25 31 26 32 27 33
REMARK SMILES IDX 79 34 28 35 78 36 29 37 30 38 31 39 72 40 32 41 77 42 71 43
REMARK SMILES IDX 73 44 33 45 76 46 70 47 69 48 34 50 60 51 43 52 59 53 44 54
REMARK SMILES IDX 47 55 58 56 74 57 45 58 46 59 57 61 75 62 48 63 35 64 36 65
REMARK SMILES IDX 41 66 37 67 38 68 40 69 42 70 39 71 61 72 62 73 67 74 63 75
REMARK SMILES IDX 64 76 66 77 68 78 65 79 49 80 50 81 55 82 51 83 52 84 54 85
REMARK SMILES IDX 56 86 53 87
REMARK H PARENT 73 49 47 60
REMARK Flexibility Score: inf
ROOT
ATOM      1  C   UNL A   1      36.538  20.845  25.050  1.00  0.00     0.202 C 
ENDROOT
BRANCH   1   2
ATOM      2  C   UNL A   1      35.465  21.463  25.951  1.00  0.00     0.261 C 
BRANCH   2   3
ATOM      3  O   UNL A   1      34.717  22.486  25.274  1.00  0.00    -0.460 OA
BRANCH   3   4
ATOM      4  C   UNL A   1      33.717  23.028  26.008  1.00  0.00     0.338 C 
ATOM      5  O   UNL A   1      33.327  22.659  27.104  1.00  0.00    -0.246 OA
BRANCH   4   6
ATOM      6  C   UNL A   1      33.230  24.255  25.352  1.00  0.00     0.087 C 
ATOM      7  C   UNL A   1      31.521  28.919  24.655  1.00  0.00     0.030 A 
ATOM      8  C   UNL A   1      31.429  27.715  23.930  1.00  0.00     0.063 A 
ATOM      9  C   UNL A   1      32.438  28.986  25.715  1.00  0.00     0.055 A 
ATOM     10  C   UNL A   1      32.121  26.574  24.337  1.00  0.00     0.129 A 
ATOM     11  C   UNL A   1      33.107  27.832  26.140  1.00  0.00     0.033 A 
ATOM     12  Cl  UNL A   1      32.831  30.447  26.548  1.00  0.00    -0.083 Cl
ATOM     13  C   UNL A   1      32.914  26.618  25.479  1.00  0.00     0.019 A 
ATOM     14  O   UNL A   1      31.943  25.452  23.580  1.00  0.00    -0.475 OA
ATOM     15  C   UNL A   1      33.472  25.393  26.015  1.00  0.00     0.027 C 
ATOM     16  C   UNL A   1      32.498  24.184  24.041  1.00  0.00     0.316 C 
BRANCH   7  17
ATOM     17  S   UNL A   1      30.408  30.217  24.125  1.00  0.00    -0.124 SA
BRANCH  17  18
ATOM     18  C   UNL A   1      29.338  29.408  22.865  1.00  0.00     0.078 C 
BRANCH  18  19
ATOM     19  C   UNL A   1      27.861  29.835  22.758  1.00  0.00    -0.007 C 
ATOM     20  C   UNL A   1      26.850  28.783  23.212  1.00  0.00     0.008 C 
ATOM     21  C   UNL A   1      27.658  31.096  23.615  1.00  0.00     0.008 C 
ENDBRANCH  18  19
ENDBRANCH  17  18
ENDBRANCH   7  17
BRANCH  16  22
ATOM     22  C   UNL A   1      31.360  23.152  24.044  1.00  0.00     0.430 C 
ATOM     23  F   UNL A   1      30.758  23.091  25.256  1.00  0.00    -0.167 F 
ATOM     24  F   UNL A   1      30.394  23.462  23.150  1.00  0.00    -0.167 F 
ATOM     25  F   UNL A   1      31.805  21.911  23.747  1.00  0.00    -0.167 F 
ENDBRANCH  16  22
ENDBRANCH   4   6
ENDBRANCH   3   4
ENDBRANCH   2   3
ENDBRANCH   1   2
BRANCH   1  26
ATOM     26  O   UNL A   1      37.747  21.577  24.864  1.00  0.00    -0.374 OA
BRANCH  26  27
ATOM     27  C   UNL A   1      38.880  21.239  25.661  1.00  0.00     0.202 C 
BRANCH  27  28
ATOM     28  C   UNL A   1      39.476  19.832  25.523  1.00  0.00     0.261 C 
BRANCH  28  29
ATOM     29  O   UNL A   1      40.528  19.568  26.464  1.00  0.00    -0.460 OA
BRANCH  29  30
ATOM     30  C   UNL A   1      41.774  19.869  26.021  1.00  0.00     0.338 C 
ATOM     31  O   UNL A   1      42.422  19.274  25.173  1.00  0.00    -0.246 OA
BRANCH  30  32
ATOM     32  C   UNL A   1      42.196  21.164  26.587  1.00  0.00     0.060 A 
ATOM     33  C   UNL A   1      42.559  22.228  25.761  1.00  0.00     0.016 A 
ATOM     34  C   UNL A   1      42.184  21.315  27.981  1.00  0.00     0.016 A 
ATOM     35  C   UNL A   1      42.887  23.457  26.337  1.00  0.00     0.010 A 
ATOM     36  C   UNL A   1      42.504  22.546  28.553  1.00  0.00     0.010 A 
ATOM     37  C   UNL A   1      42.842  23.632  27.733  1.00  0.00    -0.014 A 
BRANCH  37  38
ATOM     38  C   UNL A   1      43.052  24.982  28.309  1.00  0.00     0.031 A 
ATOM     39  C   UNL A   1      44.418  25.466  28.694  1.00  0.00     0.074 A 
ATOM     40  C   UNL A   1      41.984  25.786  28.471  1.00  0.00     0.049 A 
ATOM     41  N   UNL A   1      44.788  26.658  29.091  1.00  0.00    -0.248 NA
ATOM     42  C   UNL A   1      45.510  24.485  28.632  1.00  0.00     0.031 C 
ATOM     43  C   UNL A   1      40.599  25.412  28.178  1.00  0.00     0.029 A 
ATOM     44  N   UNL A   1      41.894  27.086  28.901  1.00  0.00    -0.354 N 
ATOM     45  C   UNL A   1      46.158  26.581  29.301  1.00  0.00     0.074 A 
ATOM     46  C   UNL A   1      46.542  25.207  29.047  1.00  0.00     0.031 C 
ATOM     47  C   UNL A   1      39.803  26.472  28.392  1.00  0.00     0.029 A 
ATOM     48  C   UNL A   1      40.616  27.587  28.866  1.00  0.00     0.049 A 
ATOM     49  H   UNL A   1      42.671  27.608  29.205  1.00  0.00     0.167 HD
ATOM     50  C   UNL A   1      47.018  27.569  29.648  1.00  0.00     0.037 A 
ATOM     51  C   UNL A   1      40.154  28.814  29.172  1.00  0.00     0.037 A 
ATOM     52  C   UNL A   1      46.626  28.927  29.933  1.00  0.00     0.049 A 
ATOM     53  C   UNL A   1      41.125  29.874  29.614  1.00  0.00     0.074 A 
ATOM     54  C   UNL A   1      47.425  30.006  30.271  1.00  0.00     0.029 A 
ATOM     55  N   UNL A   1      45.317  29.389  29.934  1.00  0.00    -0.354 N 
ATOM     56  N   UNL A   1      42.430  29.814  29.720  1.00  0.00    -0.248 NA
ATOM     57  C   UNL A   1      40.553  31.180  29.971  1.00  0.00     0.031 C 
ATOM     58  C   UNL A   1      46.597  31.104  30.532  1.00  0.00     0.029 A 
ATOM     59  C   UNL A   1      45.285  30.728  30.295  1.00  0.00     0.049 A 
ATOM     60  H   UNL A   1      44.527  28.846  29.710  1.00  0.00     0.167 HD
ATOM     61  C   UNL A   1      42.838  31.078  30.124  1.00  0.00     0.074 A 
ATOM     62  C   UNL A   1      41.643  31.891  30.221  1.00  0.00     0.031 C 
ATOM     63  C   UNL A   1      44.090  31.527  30.392  1.00  0.00     0.037 A 
BRANCH  50  64
ATOM     64  C   UNL A   1      48.474  27.209  29.747  1.00  0.00     0.057 A 
ATOM     65  C   UNL A   1      49.315  27.296  28.631  1.00  0.00     0.134 A 
ATOM     66  C   UNL A   1      49.040  26.753  30.946  1.00  0.00     0.134 A 
ATOM     67  F   UNL A   1      48.840  27.715  27.448  1.00  0.00    -0.206 F 
ATOM     68  C   UNL A   1      50.667  26.949  28.706  1.00  0.00     0.040 A 
ATOM     69  C   UNL A   1      50.394  26.430  31.040  1.00  0.00     0.040 A 
ATOM     70  F   UNL A   1      48.291  26.652  32.055  1.00  0.00    -0.206 F 
ATOM     71  C   UNL A   1      51.211  26.525  29.916  1.00  0.00     0.006 A 
ENDBRANCH  50  64
BRANCH  51  72
ATOM     72  C   UNL A   1      38.705  29.121  29.058  1.00  0.00     0.057 A 
ATOM     73  C   UNL A   1      37.850  29.029  30.163  1.00  0.00     0.134 A 
ATOM     74  C   UNL A   1      38.152  29.562  27.850  1.00  0.00     0.134 A 
ATOM     75  F   UNL A   1      38.316  28.605  31.347  1.00  0.00    -0.206 F 
ATOM     76  C   UNL A   1      36.500  29.368  30.073  1.00  0.00     0.040 A 
ATOM     77  C   UNL A   1      36.810  29.934  27.752  1.00  0.00     0.040 A 
ATOM     78  F   UNL A   1      38.923  29.687  26.759  1.00  0.00    -0.206 F 
ATOM     79  C   UNL A   1      35.980  29.836  28.867  1.00  0.00     0.006 A 
ENDBRANCH  51  72
BRANCH  63  80
ATOM     80  C   UNL A   1      44.226  32.973  30.781  1.00  0.00     0.057 A 
ATOM     81  C   UNL A   1      44.384  33.962  29.800  1.00  0.00     0.134 A 
ATOM     82  C   UNL A   1      44.204  33.392  32.117  1.00  0.00     0.134 A 
ATOM     83  F   UNL A   1      44.423  33.634  28.499  1.00  0.00    -0.206 F 
ATOM     84  C   UNL A   1      44.509  35.312  30.135  1.00  0.00     0.040 A 
ATOM     85  C   UNL A   1      44.293  34.742  32.463  1.00  0.00     0.040 A 
ATOM     86  F   UNL A   1      44.041  32.500  33.107  1.00  0.00    -0.206 F 
ATOM     87  C   UNL A   1      44.452  35.706  31.469  1.00  0.00     0.006 A 
ENDBRANCH  63  80
ENDBRANCH  37  38
ENDBRANCH  30  32
ENDBRANCH  29  30
ENDBRANCH  28  29
ENDBRANCH  27  28
ENDBRANCH  26  27
ENDBRANCH   1  26
TORSDOF 18
ENDMDL
MODEL 3
REMARK VINA RESULT:     -10.9      3.199      7.984
REMARK SMILES CC(C)CSc1cc2c(cc1Cl)C=C(C(=O)OCCOCCOC(=O)c1ccc(-c3c4nc(c(-c5c(F)cccc5F)c5ccc([nH]5)c(-c5c(F)cccc5F)c5nc(c(-c6c(F)cccc6F)c6ccc3[nH]6)C=C5)C=C4)cc1)[C@@H](C(F)(F)F)O2
REMARK SMILES IDX 19 1 18 2 17 3 15 4 16 5 14 6 6 7 7 8 11 9 8 10 10 11 12 12
REMARK SMILES IDX 9 13 85 14 13 15 80 16 5 17 4 18 2 19 1 20 3 21 81 22 82 23
REMARK SMILES IDX 83 24 84 25 20 26 21 27 22 28 23 29 24 30 25 31 26 32 27 33
REMARK SMILES IDX 79 34 28 35 78 36 29 37 30 38 31 39 72 40 32 41 77 42 71 43
REMARK SMILES IDX 73 44 33 45 76 46 70 47 69 48 34 50 60 51 43 52 59 53 44 54
REMARK SMILES IDX 47 55 58 56 74 57 45 58 46 59 57 61 75 62 48 63 35 64 36 65
REMARK SMILES IDX 41 66 37 67 38 68 40 69 42 70 39 71 61 72 62 73 67 74 63 75
REMARK SMILES IDX 64 76 66 77 68 78 65 79 49 80 50 81 55 82 51 83 52 84 54 85
REMARK SMILES IDX 56 86 53 87
REMARK H PARENT 73 49 47 60
REMARK Flexibility Score: inf
ROOT
ATOM      1  C   UNL A   1      31.142  28.949  24.278  1.00  0.00     0.202 C 
ENDROOT
BRANCH   1   2
ATOM      2  C   UNL A   1      32.138  28.562  23.180  1.00  0.00     0.261 C 
BRANCH   2   3
ATOM      3  O   UNL A   1      33.144  27.657  23.660  1.00  0.00    -0.460 OA
BRANCH   3   4
ATOM      4  C   UNL A   1      33.472  26.672  22.792  1.00  0.00     0.338 C 
ATOM      5  O   UNL A   1      33.860  26.805  21.643  1.00  0.00    -0.246 OA
BRANCH   4   6
ATOM      6  C   UNL A   1      33.430  25.369  23.481  1.00  0.00     0.087 C 
ATOM      7  C   UNL A   1      34.538  20.671  24.843  1.00  0.00     0.030 A 
ATOM      8  C   UNL A   1      33.371  21.457  24.872  1.00  0.00     0.063 A 
ATOM      9  C   UNL A   1      35.761  21.309  24.585  1.00  0.00     0.055 A 
ATOM     10  C   UNL A   1      33.401  22.806  24.513  1.00  0.00     0.129 A 
ATOM     11  C   UNL A   1      35.784  22.652  24.194  1.00  0.00     0.033 A 
ATOM     12  Cl  UNL A   1      37.296  20.531  24.738  1.00  0.00    -0.083 Cl
ATOM     13  C   UNL A   1      34.600  23.387  24.117  1.00  0.00     0.019 A 
ATOM     14  O   UNL A   1      32.210  23.472  24.549  1.00  0.00    -0.475 OA
ATOM     15  C   UNL A   1      34.601  24.723  23.556  1.00  0.00     0.027 C 
ATOM     16  C   UNL A   1      32.137  24.832  24.028  1.00  0.00     0.316 C 
BRANCH   7  17
ATOM     17  S   UNL A   1      34.287  18.920  25.123  1.00  0.00    -0.124 SA
BRANCH  17  18
ATOM     18  C   UNL A   1      32.648  18.572  24.362  1.00  0.00     0.078 C 
BRANCH  18  19
ATOM     19  C   UNL A   1      32.587  17.698  23.094  1.00  0.00    -0.007 C 
ATOM     20  C   UNL A   1      32.387  18.467  21.789  1.00  0.00     0.008 C 
ATOM     21  C   UNL A   1      33.902  16.908  22.987  1.00  0.00     0.008 C 
ENDBRANCH  18  19
ENDBRANCH  17  18
ENDBRANCH   7  17
BRANCH  16  22
ATOM     22  C   UNL A   1      30.989  24.877  23.006  1.00  0.00     0.430 C 
ATOM     23  F   UNL A   1      30.188  25.949  23.217  1.00  0.00    -0.167 F 
ATOM     24  F   UNL A   1      31.446  24.982  21.737  1.00  0.00    -0.167 F 
ATOM     25  F   UNL A   1      30.215  23.771  23.069  1.00  0.00    -0.167 F 
ENDBRANCH  16  22
ENDBRANCH   4   6
ENDBRANCH   3   4
ENDBRANCH   2   3
ENDBRANCH   1   2
BRANCH   1  26
ATOM     26  O   UNL A   1      31.123  28.157  25.463  1.00  0.00    -0.374 OA
BRANCH  26  27
ATOM     27  C   UNL A   1      31.723  28.681  26.645  1.00  0.00     0.202 C 
BRANCH  27  28
ATOM     28  C   UNL A   1      31.887  30.202  26.767  1.00  0.00     0.261 C 
BRANCH  28  29
ATOM     29  O   UNL A   1      33.220  30.653  26.484  1.00  0.00    -0.460 OA
BRANCH  29  30
ATOM     30  C   UNL A   1      33.662  31.655  27.284  1.00  0.00     0.338 C 
ATOM     31  O   UNL A   1      33.056  32.664  27.610  1.00  0.00    -0.246 OA
BRANCH  30  32
ATOM     32  C   UNL A   1      34.956  31.273  27.878  1.00  0.00     0.060 A 
ATOM     33  C   UNL A   1      35.970  32.212  28.064  1.00  0.00     0.016 A 
ATOM     34  C   UNL A   1      35.129  29.945  28.294  1.00  0.00     0.016 A 
ATOM     35  C   UNL A   1      37.154  31.822  28.693  1.00  0.00     0.010 A 
ATOM     36  C   UNL A   1      36.310  29.560  28.929  1.00  0.00     0.010 A 
ATOM     37  C   UNL A   1      37.326  30.501  29.149  1.00  0.00    -0.014 A 
BRANCH  37  38
ATOM     38  C   UNL A   1      38.530  30.149  29.941  1.00  0.00     0.031 A 
ATOM     39  C   UNL A   1      38.732  30.669  31.332  1.00  0.00     0.074 A 
ATOM     40  C   UNL A   1      39.446  29.331  29.388  1.00  0.00     0.049 A 
ATOM     41  N   UNL A   1      39.663  30.359  32.200  1.00  0.00    -0.248 NA
ATOM     42  C   UNL A   1      37.771  31.673  31.810  1.00  0.00     0.031 C 
ATOM     43  C   UNL A   1      39.384  28.798  28.026  1.00  0.00     0.029 A 
ATOM     44  N   UNL A   1      40.595  28.790  29.906  1.00  0.00    -0.354 N 
ATOM     45  C   UNL A   1      39.387  31.106  33.337  1.00  0.00     0.074 A 
ATOM     46  C   UNL A   1      38.238  31.932  33.024  1.00  0.00     0.031 C 
ATOM     47  C   UNL A   1      40.423  27.971  27.831  1.00  0.00     0.029 A 
ATOM     48  C   UNL A   1      41.238  27.939  29.041  1.00  0.00     0.049 A 
ATOM     49  H   UNL A   1      40.926  28.993  30.810  1.00  0.00     0.167 HD
ATOM     50  C   UNL A   1      40.017  31.086  34.537  1.00  0.00     0.037 A 
ATOM     51  C   UNL A   1      42.355  27.207  29.209  1.00  0.00     0.037 A 
ATOM     52  C   UNL A   1      41.181  30.288  34.831  1.00  0.00     0.049 A 
ATOM     53  C   UNL A   1      43.068  27.252  30.532  1.00  0.00     0.074 A 
ATOM     54  C   UNL A   1      41.878  30.181  36.023  1.00  0.00     0.029 A 
ATOM     55  N   UNL A   1      41.833  29.472  33.917  1.00  0.00    -0.354 N 
ATOM     56  N   UNL A   1      42.745  27.892  31.630  1.00  0.00    -0.248 NA
ATOM     57  C   UNL A   1      44.303  26.461  30.640  1.00  0.00     0.031 C 
ATOM     58  C   UNL A   1      42.983  29.348  35.814  1.00  0.00     0.029 A 
ATOM     59  C   UNL A   1      42.941  28.884  34.510  1.00  0.00     0.049 A 
ATOM     60  H   UNL A   1      41.551  29.332  32.984  1.00  0.00     0.167 HD
ATOM     61  C   UNL A   1      43.715  27.557  32.566  1.00  0.00     0.074 A 
ATOM     62  C   UNL A   1      44.625  26.639  31.913  1.00  0.00     0.031 C 
ATOM     63  C   UNL A   1      43.842  27.973  33.850  1.00  0.00     0.037 A 
BRANCH  50  64
ATOM     64  C   UNL A   1      39.459  31.966  35.620  1.00  0.00     0.057 A 
ATOM     65  C   UNL A   1      38.439  31.511  36.464  1.00  0.00     0.134 A 
ATOM     66  C   UNL A   1      39.919  33.276  35.813  1.00  0.00     0.134 A 
ATOM     67  F   UNL A   1      37.943  30.272  36.330  1.00  0.00    -0.206 F 
ATOM     68  C   UNL A   1      37.901  32.325  37.465  1.00  0.00     0.040 A 
ATOM     69  C   UNL A   1      39.410  34.089  36.827  1.00  0.00     0.040 A 
ATOM     70  F   UNL A   1      40.899  33.773  35.043  1.00  0.00    -0.206 F 
ATOM     71  C   UNL A   1      38.395  33.614  37.654  1.00  0.00     0.006 A 
ENDBRANCH  50  64
BRANCH  51  72
ATOM     72  C   UNL A   1      42.866  26.352  28.108  1.00  0.00     0.057 A 
ATOM     73  C   UNL A   1      42.391  25.049  27.915  1.00  0.00     0.134 A 
ATOM     74  C   UNL A   1      43.809  26.836  27.193  1.00  0.00     0.134 A 
ATOM     75  F   UNL A   1      41.493  24.523  28.761  1.00  0.00    -0.206 F 
ATOM     76  C   UNL A   1      42.828  24.261  26.850  1.00  0.00     0.040 A 
ATOM     77  C   UNL A   1      44.233  26.070  26.106  1.00  0.00     0.040 A 
ATOM     78  F   UNL A   1      44.290  28.082  27.314  1.00  0.00    -0.206 F 
ATOM     79  C   UNL A   1      43.743  24.777  25.933  1.00  0.00     0.006 A 
ENDBRANCH  51  72
BRANCH  63  80
ATOM     80  C   UNL A   1      44.990  27.406  34.639  1.00  0.00     0.057 A 
ATOM     81  C   UNL A   1      46.229  28.060  34.664  1.00  0.00     0.134 A 
ATOM     82  C   UNL A   1      44.875  26.218  35.373  1.00  0.00     0.134 A 
ATOM     83  F   UNL A   1      46.415  29.198  33.978  1.00  0.00    -0.206 F 
ATOM     84  C   UNL A   1      47.308  27.554  35.392  1.00  0.00     0.040 A 
ATOM     85  C   UNL A   1      45.937  25.721  36.132  1.00  0.00     0.040 A 
ATOM     86  F   UNL A   1      43.712  25.548  35.406  1.00  0.00    -0.206 F 
ATOM     87  C   UNL A   1      47.160  26.388  36.138  1.00  0.00     0.006 A 
ENDBRANCH  63  80
ENDBRANCH  37  38
ENDBRANCH  30  32
ENDBRANCH  29  30
ENDBRANCH  28  29
ENDBRANCH  27  28
ENDBRANCH  26  27
ENDBRANCH   1  26
TORSDOF 18
ENDMDL
