MODEL 1
REMARK VINA RESULT:     -11.7      0.000      0.000
REMARK SMILES CS(=O)(=O)c1ccc(/C=C(/C(=O)OCCOCCOC(=O)c2ccc(-c3c4nc(c(-c5c(F)cccc5F)c5ccc([nH]5)c(-c5c(F)cccc5F)c5nc(c(-c6c(F)cccc6F)c6ccc3[nH]6)C=C5)C=C4)cc2)c2ccc(O)cc2)cc1
REMARK SMILES IDX 16 1 15 2 14 3 13 4 11 5 12 6 10 7 9 8 8 9 5 10 6 11 84 12
REMARK SMILES IDX 7 13 83 14 2 15 1 16 3 17 4 18 76 19 77 20 82 21 78 22 81 23
REMARK SMILES IDX 79 24 80 25 17 27 18 28 19 29 20 30 21 31 22 32 23 33 75 34
REMARK SMILES IDX 24 35 74 36 25 37 26 38 27 39 68 40 28 41 73 42 67 43 69 44
REMARK SMILES IDX 29 45 72 46 66 47 65 48 30 50 56 51 39 52 55 53 40 54 43 55
REMARK SMILES IDX 54 56 70 57 41 58 42 59 53 61 71 62 44 63 31 64 32 65 37 66
REMARK SMILES IDX 33 67 34 68 36 69 38 70 35 71 57 72 58 73 63 74 59 75 60 76
REMARK SMILES IDX 62 77 64 78 61 79 45 80 46 81 51 82 47 83 48 84 50 85 52 86
REMARK SMILES IDX 49 87
REMARK H PARENT 80 26 69 49 43 60
REMARK Flexibility Score: inf
ROOT
ATOM      1  O   UNL A   1      30.826  29.280  24.208  1.00  0.00    -0.374 OA
ENDROOT
BRANCH   1   2
ATOM      2  C   UNL A   1      30.611  27.934  23.777  1.00  0.00     0.202 C 
BRANCH   2   3
ATOM      3  C   UNL A   1      31.563  27.403  22.704  1.00  0.00     0.261 C 
BRANCH   3   4
ATOM      4  O   UNL A   1      32.623  26.631  23.297  1.00  0.00    -0.460 OA
BRANCH   4   5
ATOM      5  C   UNL A   1      33.169  25.693  22.480  1.00  0.00     0.338 C 
ATOM      6  O   UNL A   1      33.633  25.904  21.369  1.00  0.00    -0.246 OA
BRANCH   5   7
ATOM      7  C   UNL A   1      33.239  24.349  23.139  1.00  0.00     0.067 C 
ATOM      8  C   UNL A   1      32.154  23.539  23.145  1.00  0.00     0.024 C 
BRANCH   8   9
ATOM      9  C   UNL A   1      32.100  22.091  23.473  1.00  0.00    -0.025 A 
ATOM     10  C   UNL A   1      32.525  19.340  23.843  1.00  0.00     0.067 A 
ATOM     11  C   UNL A   1      32.516  20.194  24.945  1.00  0.00     0.021 A 
ATOM     12  C   UNL A   1      32.216  19.825  22.574  1.00  0.00     0.021 A 
ATOM     13  C   UNL A   1      32.263  21.556  24.758  1.00  0.00     0.009 A 
ATOM     14  C   UNL A   1      31.997  21.195  22.395  1.00  0.00     0.009 A 
BRANCH  10  15
ATOM     15  S   UNL A   1      33.111  17.671  24.025  1.00  0.00     0.175 S 
ATOM     16  C   UNL A   1      34.848  17.849  24.303  1.00  0.00     0.163 C 
ATOM     17  O   UNL A   1      32.925  17.001  22.751  1.00  0.00    -0.224 OA
ATOM     18  O   UNL A   1      32.512  17.135  25.234  1.00  0.00    -0.224 OA
ENDBRANCH  10  15
ENDBRANCH   8   9
BRANCH   7  19
ATOM     19  C   UNL A   1      34.559  23.963  23.674  1.00  0.00    -0.011 A 
ATOM     20  C   UNL A   1      34.915  24.360  24.973  1.00  0.00     0.013 A 
ATOM     21  C   UNL A   1      35.445  23.176  22.929  1.00  0.00     0.013 A 
ATOM     22  C   UNL A   1      36.126  23.952  25.530  1.00  0.00     0.047 A 
ATOM     23  C   UNL A   1      36.655  22.761  23.491  1.00  0.00     0.047 A 
ATOM     24  C   UNL A   1      36.979  23.146  24.789  1.00  0.00     0.115 A 
BRANCH  24  25
ATOM     25  O   UNL A   1      38.136  22.740  25.385  1.00  0.00    -0.508 OA
ATOM     26  H   UNL A   1      38.104  22.238  26.175  1.00  0.00     0.293 HD
ENDBRANCH  24  25
ENDBRANCH   7  19
ENDBRANCH   5   7
ENDBRANCH   4   5
ENDBRANCH   3   4
ENDBRANCH   2   3
ENDBRANCH   1   2
BRANCH   1  27
ATOM     27  C   UNL A   1      31.772  29.488  25.252  1.00  0.00     0.202 C 
BRANCH  27  28
ATOM     28  C   UNL A   1      31.724  30.839  25.975  1.00  0.00     0.261 C 
BRANCH  28  29
ATOM     29  O   UNL A   1      32.479  30.833  27.196  1.00  0.00    -0.460 OA
BRANCH  29  30
ATOM     30  C   UNL A   1      33.274  31.915  27.365  1.00  0.00     0.338 C 
ATOM     31  O   UNL A   1      32.962  33.093  27.248  1.00  0.00    -0.246 OA
BRANCH  30  32
ATOM     32  C   UNL A   1      34.583  31.495  27.891  1.00  0.00     0.060 A 
ATOM     33  C   UNL A   1      34.721  30.157  28.279  1.00  0.00     0.016 A 
ATOM     34  C   UNL A   1      35.636  32.397  28.055  1.00  0.00     0.016 A 
ATOM     35  C   UNL A   1      35.900  29.724  28.881  1.00  0.00     0.010 A 
ATOM     36  C   UNL A   1      36.815  31.964  28.669  1.00  0.00     0.010 A 
ATOM     37  C   UNL A   1      36.937  30.636  29.115  1.00  0.00    -0.014 A 
BRANCH  37  38
ATOM     38  C   UNL A   1      38.082  30.232  29.963  1.00  0.00     0.031 A 
ATOM     39  C   UNL A   1      39.106  29.288  29.398  1.00  0.00     0.074 A 
ATOM     40  C   UNL A   1      38.223  30.721  31.207  1.00  0.00     0.049 A 
ATOM     41  N   UNL A   1      40.169  28.780  29.965  1.00  0.00    -0.248 NA
ATOM     42  C   UNL A   1      38.900  28.857  28.005  1.00  0.00     0.031 C 
ATOM     43  C   UNL A   1      37.315  31.670  31.849  1.00  0.00     0.029 A 
ATOM     44  N   UNL A   1      39.184  30.477  32.154  1.00  0.00    -0.354 N 
ATOM     45  C   UNL A   1      40.758  27.970  29.002  1.00  0.00     0.074 A 
ATOM     46  C   UNL A   1      39.917  28.028  27.825  1.00  0.00     0.031 C 
ATOM     47  C   UNL A   1      37.759  31.921  33.093  1.00  0.00     0.029 A 
ATOM     48  C   UNL A   1      38.964  31.131  33.340  1.00  0.00     0.049 A 
ATOM     49  H   UNL A   1      39.959  29.890  31.998  1.00  0.00     0.167 HD
ATOM     50  C   UNL A   1      41.901  27.249  29.088  1.00  0.00     0.037 A 
ATOM     51  C   UNL A   1      39.648  31.081  34.500  1.00  0.00     0.037 A 
ATOM     52  C   UNL A   1      42.736  27.195  30.259  1.00  0.00     0.049 A 
ATOM     53  C   UNL A   1      40.881  30.221  34.592  1.00  0.00     0.074 A 
ATOM     54  C   UNL A   1      43.923  26.508  30.440  1.00  0.00     0.029 A 
ATOM     55  N   UNL A   1      42.465  27.850  31.451  1.00  0.00    -0.354 N 
ATOM     56  N   UNL A   1      41.442  29.478  33.669  1.00  0.00    -0.248 NA
ATOM     57  C   UNL A   1      41.577  30.197  35.887  1.00  0.00     0.031 C 
ATOM     58  C   UNL A   1      44.348  26.713  31.758  1.00  0.00     0.029 A 
ATOM     59  C   UNL A   1      43.450  27.564  32.381  1.00  0.00     0.049 A 
ATOM     60  H   UNL A   1      41.687  28.431  31.612  1.00  0.00     0.167 HD
ATOM     61  C   UNL A   1      42.570  28.922  34.261  1.00  0.00     0.074 A 
ATOM     62  C   UNL A   1      42.618  29.420  35.619  1.00  0.00     0.031 C 
ATOM     63  C   UNL A   1      43.486  28.076  33.727  1.00  0.00     0.037 A 
BRANCH  50  64
ATOM     64  C   UNL A   1      42.300  26.443  27.889  1.00  0.00     0.057 A 
ATOM     65  C   UNL A   1      41.875  25.120  27.711  1.00  0.00     0.134 A 
ATOM     66  C   UNL A   1      43.098  27.006  26.885  1.00  0.00     0.134 A 
ATOM     67  F   UNL A   1      41.122  24.517  28.645  1.00  0.00    -0.206 F 
ATOM     68  C   UNL A   1      42.247  24.379  26.589  1.00  0.00     0.040 A 
ATOM     69  C   UNL A   1      43.456  26.283  25.746  1.00  0.00     0.040 A 
ATOM     70  F   UNL A   1      43.536  28.269  26.992  1.00  0.00    -0.206 F 
ATOM     71  C   UNL A   1      43.035  24.963  25.598  1.00  0.00     0.006 A 
ENDBRANCH  50  64
BRANCH  51  72
ATOM     72  C   UNL A   1      39.180  31.859  35.672  1.00  0.00     0.057 A 
ATOM     73  C   UNL A   1      38.269  31.320  36.586  1.00  0.00     0.134 A 
ATOM     74  C   UNL A   1      39.621  33.170  35.897  1.00  0.00     0.134 A 
ATOM     75  F   UNL A   1      37.793  30.078  36.410  1.00  0.00    -0.206 F 
ATOM     76  C   UNL A   1      37.800  32.059  37.674  1.00  0.00     0.040 A 
ATOM     77  C   UNL A   1      39.179  33.912  36.994  1.00  0.00     0.040 A 
ATOM     78  F   UNL A   1      40.497  33.744  35.058  1.00  0.00    -0.206 F 
ATOM     79  C   UNL A   1      38.259  33.358  37.882  1.00  0.00     0.006 A 
ENDBRANCH  51  72
BRANCH  63  80
ATOM     80  C   UNL A   1      44.636  27.667  34.599  1.00  0.00     0.057 A 
ATOM     81  C   UNL A   1      45.814  28.419  34.671  1.00  0.00     0.134 A 
ATOM     82  C   UNL A   1      44.542  26.529  35.412  1.00  0.00     0.134 A 
ATOM     83  F   UNL A   1      45.971  29.512  33.910  1.00  0.00    -0.206 F 
ATOM     84  C   UNL A   1      46.868  28.044  35.506  1.00  0.00     0.040 A 
ATOM     85  C   UNL A   1      45.578  26.158  36.269  1.00  0.00     0.040 A 
ATOM     86  F   UNL A   1      43.436  25.771  35.397  1.00  0.00    -0.206 F 
ATOM     87  C   UNL A   1      46.747  26.913  36.314  1.00  0.00     0.006 A 
ENDBRANCH  63  80
ENDBRANCH  37  38
ENDBRANCH  30  32
ENDBRANCH  29  30
ENDBRANCH  28  29
ENDBRANCH  27  28
ENDBRANCH   1  27
TORSDOF 18
ENDMDL
MODEL 2
REMARK VINA RESULT:     -11.6      2.988      6.642
REMARK SMILES CS(=O)(=O)c1ccc(/C=C(/C(=O)OCCOCCOC(=O)c2ccc(-c3c4nc(c(-c5c(F)cccc5F)c5ccc([nH]5)c(-c5c(F)cccc5F)c5nc(c(-c6c(F)cccc6F)c6ccc3[nH]6)C=C5)C=C4)cc2)c2ccc(O)cc2)cc1
REMARK SMILES IDX 16 1 15 2 14 3 13 4 11 5 12 6 10 7 9 8 8 9 5 10 6 11 84 12
REMARK SMILES IDX 7 13 83 14 2 15 1 16 3 17 4 18 76 19 77 20 82 21 78 22 81 23
REMARK SMILES IDX 79 24 80 25 17 27 18 28 19 29 20 30 21 31 22 32 23 33 75 34
REMARK SMILES IDX 24 35 74 36 25 37 26 38 27 39 68 40 28 41 73 42 67 43 69 44
REMARK SMILES IDX 29 45 72 46 66 47 65 48 30 50 56 51 39 52 55 53 40 54 43 55
REMARK SMILES IDX 54 56 70 57 41 58 42 59 53 61 71 62 44 63 31 64 32 65 37 66
REMARK SMILES IDX 33 67 34 68 36 69 38 70 35 71 57 72 58 73 63 74 59 75 60 76
REMARK SMILES IDX 62 77 64 78 61 79 45 80 46 81 51 82 47 83 48 84 50 85 52 86
REMARK SMILES IDX 49 87
REMARK H PARENT 80 26 69 49 43 60
REMARK Flexibility Score: inf
ROOT
ATOM      1  O   UNL A   1      32.364  29.796  25.123  1.00  0.00    -0.374 OA
ENDROOT
BRANCH   1   2
ATOM      2  C   UNL A   1      32.952  29.036  24.065  1.00  0.00     0.202 C 
BRANCH   2   3
ATOM      3  C   UNL A   1      32.737  27.523  24.113  1.00  0.00     0.261 C 
BRANCH   3   4
ATOM      4  O   UNL A   1      33.907  26.825  23.651  1.00  0.00    -0.460 OA
BRANCH   4   5
ATOM      5  C   UNL A   1      33.667  25.864  22.720  1.00  0.00     0.338 C 
ATOM      6  O   UNL A   1      33.612  26.046  21.512  1.00  0.00    -0.246 OA
BRANCH   5   7
ATOM      7  C   UNL A   1      33.573  24.501  23.334  1.00  0.00     0.067 C 
ATOM      8  C   UNL A   1      32.424  23.790  23.237  1.00  0.00     0.024 C 
BRANCH   8   9
ATOM      9  C   UNL A   1      32.221  22.344  23.507  1.00  0.00    -0.025 A 
ATOM     10  C   UNL A   1      32.381  19.557  23.812  1.00  0.00     0.067 A 
ATOM     11  C   UNL A   1      32.354  20.376  24.939  1.00  0.00     0.021 A 
ATOM     12  C   UNL A   1      32.219  20.103  22.540  1.00  0.00     0.021 A 
ATOM     13  C   UNL A   1      32.233  21.761  24.782  1.00  0.00     0.009 A 
ATOM     14  C   UNL A   1      32.132  21.492  22.394  1.00  0.00     0.009 A 
BRANCH  10  15
ATOM     15  S   UNL A   1      32.807  17.839  23.981  1.00  0.00     0.175 S 
ATOM     16  C   UNL A   1      34.511  17.859  24.452  1.00  0.00     0.163 C 
ATOM     17  O   UNL A   1      32.710  17.234  22.665  1.00  0.00    -0.224 OA
ATOM     18  O   UNL A   1      32.037  17.313  25.093  1.00  0.00    -0.224 OA
ENDBRANCH  10  15
ENDBRANCH   8   9
BRANCH   7  19
ATOM     19  C   UNL A   1      34.813  23.982  23.943  1.00  0.00    -0.011 A 
ATOM     20  C   UNL A   1      35.692  23.215  23.160  1.00  0.00     0.013 A 
ATOM     21  C   UNL A   1      35.150  24.271  25.269  1.00  0.00     0.013 A 
ATOM     22  C   UNL A   1      36.902  22.770  23.687  1.00  0.00     0.047 A 
ATOM     23  C   UNL A   1      36.368  23.831  25.795  1.00  0.00     0.047 A 
ATOM     24  C   UNL A   1      37.235  23.092  24.995  1.00  0.00     0.115 A 
BRANCH  24  25
ATOM     25  O   UNL A   1      38.445  22.667  25.459  1.00  0.00    -0.508 OA
ATOM     26  H   UNL A   1      39.130  22.459  24.856  1.00  0.00     0.293 HD
ENDBRANCH  24  25
ENDBRANCH   7  19
ENDBRANCH   5   7
ENDBRANCH   4   5
ENDBRANCH   3   4
ENDBRANCH   2   3
ENDBRANCH   1   2
BRANCH   1  27
ATOM     27  C   UNL A   1      32.292  29.182  26.406  1.00  0.00     0.202 C 
BRANCH  27  28
ATOM     28  C   UNL A   1      33.504  29.357  27.329  1.00  0.00     0.261 C 
BRANCH  28  29
ATOM     29  O   UNL A   1      34.087  30.664  27.221  1.00  0.00    -0.460 OA
BRANCH  29  30
ATOM     30  C   UNL A   1      34.772  31.061  28.319  1.00  0.00     0.338 C 
ATOM     31  O   UNL A   1      34.377  31.795  29.217  1.00  0.00    -0.246 OA
BRANCH  30  32
ATOM     32  C   UNL A   1      36.054  30.343  28.395  1.00  0.00     0.060 A 
ATOM     33  C   UNL A   1      36.390  29.755  29.621  1.00  0.00     0.016 A 
ATOM     34  C   UNL A   1      36.936  30.290  27.314  1.00  0.00     0.016 A 
ATOM     35  C   UNL A   1      37.635  29.153  29.787  1.00  0.00     0.010 A 
ATOM     36  C   UNL A   1      38.189  29.694  27.484  1.00  0.00     0.010 A 
ATOM     37  C   UNL A   1      38.556  29.155  28.731  1.00  0.00    -0.014 A 
BRANCH  37  38
ATOM     38  C   UNL A   1      39.951  28.731  28.983  1.00  0.00     0.031 A 
ATOM     39  C   UNL A   1      40.883  29.681  29.681  1.00  0.00     0.074 A 
ATOM     40  C   UNL A   1      40.374  27.508  28.622  1.00  0.00     0.049 A 
ATOM     41  N   UNL A   1      42.148  29.533  29.980  1.00  0.00    -0.248 NA
ATOM     42  C   UNL A   1      40.312  30.973  30.096  1.00  0.00     0.031 C 
ATOM     43  C   UNL A   1      39.553  26.488  27.972  1.00  0.00     0.029 A 
ATOM     44  N   UNL A   1      41.607  26.920  28.746  1.00  0.00    -0.354 N 
ATOM     45  C   UNL A   1      42.524  30.711  30.615  1.00  0.00     0.074 A 
ATOM     46  C   UNL A   1      41.364  31.575  30.629  1.00  0.00     0.031 C 
ATOM     47  C   UNL A   1      40.309  25.400  27.745  1.00  0.00     0.029 A 
ATOM     48  C   UNL A   1      41.671  25.659  28.209  1.00  0.00     0.049 A 
ATOM     49  H   UNL A   1      42.373  27.361  29.181  1.00  0.00     0.167 HD
ATOM     50  C   UNL A   1      43.726  31.038  31.145  1.00  0.00     0.037 A 
ATOM     51  C   UNL A   1      42.717  24.819  28.089  1.00  0.00     0.037 A 
ATOM     52  C   UNL A   1      44.878  30.176  31.130  1.00  0.00     0.049 A 
ATOM     53  C   UNL A   1      44.061  25.232  28.628  1.00  0.00     0.074 A 
ATOM     54  C   UNL A   1      46.136  30.408  31.657  1.00  0.00     0.029 A 
ATOM     55  N   UNL A   1      44.912  28.916  30.553  1.00  0.00    -0.354 N 
ATOM     56  N   UNL A   1      44.400  26.337  29.247  1.00  0.00    -0.248 NA
ATOM     57  C   UNL A   1      45.166  24.278  28.455  1.00  0.00     0.031 C 
ATOM     58  C   UNL A   1      46.944  29.306  31.358  1.00  0.00     0.029 A 
ATOM     59  C   UNL A   1      46.176  28.368  30.687  1.00  0.00     0.049 A 
ATOM     60  H   UNL A   1      44.150  28.476  30.110  1.00  0.00     0.167 HD
ATOM     61  C   UNL A   1      45.747  26.199  29.563  1.00  0.00     0.074 A 
ATOM     62  C   UNL A   1      46.160  24.900  29.075  1.00  0.00     0.031 C 
ATOM     63  C   UNL A   1      46.567  27.069  30.202  1.00  0.00     0.037 A 
BRANCH  50  64
ATOM     64  C   UNL A   1      43.860  32.397  31.764  1.00  0.00     0.057 A 
ATOM     65  C   UNL A   1      43.622  32.616  33.127  1.00  0.00     0.134 A 
ATOM     66  C   UNL A   1      44.257  33.496  30.993  1.00  0.00     0.134 A 
ATOM     67  F   UNL A   1      43.223  31.607  33.918  1.00  0.00    -0.206 F 
ATOM     68  C   UNL A   1      43.754  33.883  33.696  1.00  0.00     0.040 A 
ATOM     69  C   UNL A   1      44.417  34.763  31.555  1.00  0.00     0.040 A 
ATOM     70  F   UNL A   1      44.503  33.354  29.681  1.00  0.00    -0.206 F 
ATOM     71  C   UNL A   1      44.159  34.961  32.910  1.00  0.00     0.006 A 
ENDBRANCH  50  64
BRANCH  51  72
ATOM     72  C   UNL A   1      42.542  23.506  27.421  1.00  0.00     0.057 A 
ATOM     73  C   UNL A   1      42.670  23.372  26.035  1.00  0.00     0.134 A 
ATOM     74  C   UNL A   1      42.223  22.355  28.154  1.00  0.00     0.134 A 
ATOM     75  F   UNL A   1      42.952  24.443  25.278  1.00  0.00    -0.206 F 
ATOM     76  C   UNL A   1      42.475  22.146  25.397  1.00  0.00     0.040 A 
ATOM     77  C   UNL A   1      42.048  21.118  27.532  1.00  0.00     0.040 A 
ATOM     78  F   UNL A   1      42.086  22.417  29.487  1.00  0.00    -0.206 F 
ATOM     79  C   UNL A   1      42.167  21.013  26.147  1.00  0.00     0.006 A 
ENDBRANCH  51  72
BRANCH  63  80
ATOM     80  C   UNL A   1      47.982  26.631  30.443  1.00  0.00     0.057 A 
ATOM     81  C   UNL A   1      48.348  25.906  31.583  1.00  0.00     0.134 A 
ATOM     82  C   UNL A   1      48.980  26.899  29.497  1.00  0.00     0.134 A 
ATOM     83  F   UNL A   1      47.442  25.628  32.532  1.00  0.00    -0.206 F 
ATOM     84  C   UNL A   1      49.662  25.481  31.785  1.00  0.00     0.040 A 
ATOM     85  C   UNL A   1      50.291  26.457  29.675  1.00  0.00     0.040 A 
ATOM     86  F   UNL A   1      48.693  27.581  28.378  1.00  0.00    -0.206 F 
ATOM     87  C   UNL A   1      50.636  25.750  30.824  1.00  0.00     0.006 A 
ENDBRANCH  63  80
ENDBRANCH  37  38
ENDBRANCH  30  32
ENDBRANCH  29  30
ENDBRANCH  28  29
ENDBRANCH  27  28
ENDBRANCH   1  27
TORSDOF 18
ENDMDL
MODEL 3
REMARK VINA RESULT:     -11.6      0.652      6.051
REMARK SMILES CS(=O)(=O)c1ccc(/C=C(/C(=O)OCCOCCOC(=O)c2ccc(-c3c4nc(c(-c5c(F)cccc5F)c5ccc([nH]5)c(-c5c(F)cccc5F)c5nc(c(-c6c(F)cccc6F)c6ccc3[nH]6)C=C5)C=C4)cc2)c2ccc(O)cc2)cc1
REMARK SMILES IDX 16 1 15 2 14 3 13 4 11 5 12 6 10 7 9 8 8 9 5 10 6 11 84 12
REMARK SMILES IDX 7 13 83 14 2 15 1 16 3 17 4 18 76 19 77 20 82 21 78 22 81 23
REMARK SMILES IDX 79 24 80 25 17 27 18 28 19 29 20 30 21 31 22 32 23 33 75 34
REMARK SMILES IDX 24 35 74 36 25 37 26 38 27 39 68 40 28 41 73 42 67 43 69 44
REMARK SMILES IDX 29 45 72 46 66 47 65 48 30 50 56 51 39 52 55 53 40 54 43 55
REMARK SMILES IDX 54 56 70 57 41 58 42 59 53 61 71 62 44 63 31 64 32 65 37 66
REMARK SMILES IDX 33 67 34 68 36 69 38 70 35 71 57 72 58 73 63 74 59 75 60 76
REMARK SMILES IDX 62 77 64 78 61 79 45 80 46 81 51 82 47 83 48 84 50 85 52 86
REMARK SMILES IDX 49 87
REMARK H PARENT 80 26 69 49 43 60
REMARK Flexibility Score: inf
ROOT
ATOM      1  O   UNL A   1      33.095  29.323  24.867  1.00  0.00    -0.374 OA
ENDROOT
BRANCH   1   2
ATOM      2  C   UNL A   1      33.219  27.979  24.398  1.00  0.00     0.202 C 
BRANCH   2   3
ATOM      3  C   UNL A   1      32.374  27.603  23.179  1.00  0.00     0.261 C 
BRANCH   3   4
ATOM      4  O   UNL A   1      32.054  26.199  23.192  1.00  0.00    -0.460 OA
BRANCH   4   5
ATOM      5  C   UNL A   1      32.950  25.406  22.548  1.00  0.00     0.338 C 
ATOM      6  O   UNL A   1      33.626  25.737  21.584  1.00  0.00    -0.246 OA
BRANCH   5   7
ATOM      7  C   UNL A   1      33.107  24.077  23.223  1.00  0.00     0.067 C 
ATOM      8  C   UNL A   1      32.094  23.179  23.195  1.00  0.00     0.024 C 
BRANCH   8   9
ATOM      9  C   UNL A   1      32.149  21.733  23.534  1.00  0.00    -0.025 A 
ATOM     10  C   UNL A   1      32.775  19.023  23.919  1.00  0.00     0.067 A 
ATOM     11  C   UNL A   1      32.719  19.883  25.014  1.00  0.00     0.021 A 
ATOM     12  C   UNL A   1      32.417  19.475  22.650  1.00  0.00     0.021 A 
ATOM     13  C   UNL A   1      32.366  21.223  24.821  1.00  0.00     0.009 A 
ATOM     14  C   UNL A   1      32.098  20.824  22.464  1.00  0.00     0.009 A 
BRANCH  10  15
ATOM     15  S   UNL A   1      33.483  17.402  24.106  1.00  0.00     0.175 S 
ATOM     16  C   UNL A   1      32.548  16.670  25.416  1.00  0.00     0.163 C 
ATOM     17  O   UNL A   1      34.848  17.572  24.566  1.00  0.00    -0.224 OA
ATOM     18  O   UNL A   1      33.201  16.669  22.885  1.00  0.00    -0.224 OA
ENDBRANCH  10  15
ENDBRANCH   8   9
BRANCH   7  19
ATOM     19  C   UNL A   1      34.433  23.806  23.811  1.00  0.00    -0.011 A 
ATOM     20  C   UNL A   1      35.374  23.073  23.069  1.00  0.00     0.013 A 
ATOM     21  C   UNL A   1      34.785  24.297  25.073  1.00  0.00     0.013 A 
ATOM     22  C   UNL A   1      36.657  22.860  23.570  1.00  0.00     0.047 A 
ATOM     23  C   UNL A   1      36.074  24.090  25.570  1.00  0.00     0.047 A 
ATOM     24  C   UNL A   1      37.000  23.381  24.810  1.00  0.00     0.115 A 
BRANCH  24  25
ATOM     25  O   UNL A   1      38.276  23.181  25.245  1.00  0.00    -0.508 OA
ATOM     26  H   UNL A   1      38.492  23.327  26.145  1.00  0.00     0.293 HD
ENDBRANCH  24  25
ENDBRANCH   7  19
ENDBRANCH   5   7
ENDBRANCH   4   5
ENDBRANCH   3   4
ENDBRANCH   2   3
ENDBRANCH   1   2
BRANCH   1  27
ATOM     27  C   UNL A   1      31.802  29.752  25.284  1.00  0.00     0.202 C 
BRANCH  27  28
ATOM     28  C   UNL A   1      31.735  31.012  26.154  1.00  0.00     0.261 C 
BRANCH  28  29
ATOM     29  O   UNL A   1      32.564  30.914  27.321  1.00  0.00    -0.460 OA
BRANCH  29  30
ATOM     30  C   UNL A   1      33.369  31.984  27.524  1.00  0.00     0.338 C 
ATOM     31  O   UNL A   1      33.055  33.167  27.497  1.00  0.00    -0.246 OA
BRANCH  30  32
ATOM     32  C   UNL A   1      34.700  31.531  27.963  1.00  0.00     0.060 A 
ATOM     33  C   UNL A   1      34.860  30.165  28.224  1.00  0.00     0.016 A 
ATOM     34  C   UNL A   1      35.752  32.425  28.170  1.00  0.00     0.016 A 
ATOM     35  C   UNL A   1      36.063  29.692  28.742  1.00  0.00     0.010 A 
ATOM     36  C   UNL A   1      36.955  31.951  28.699  1.00  0.00     0.010 A 
ATOM     37  C   UNL A   1      37.102  30.589  29.020  1.00  0.00    -0.014 A 
BRANCH  37  38
ATOM     38  C   UNL A   1      38.280  30.122  29.786  1.00  0.00     0.031 A 
ATOM     39  C   UNL A   1      38.472  30.613  31.193  1.00  0.00     0.074 A 
ATOM     40  C   UNL A   1      39.149  29.250  29.247  1.00  0.00     0.049 A 
ATOM     41  N   UNL A   1      39.439  30.360  32.036  1.00  0.00    -0.248 NA
ATOM     42  C   UNL A   1      37.434  31.515  31.719  1.00  0.00     0.031 C 
ATOM     43  C   UNL A   1      39.047  28.676  27.907  1.00  0.00     0.029 A 
ATOM     44  N   UNL A   1      40.295  28.702  29.764  1.00  0.00    -0.354 N 
ATOM     45  C   UNL A   1      39.129  31.070  33.189  1.00  0.00     0.074 A 
ATOM     46  C   UNL A   1      37.901  31.790  32.927  1.00  0.00     0.031 C 
ATOM     47  C   UNL A   1      40.097  27.861  27.703  1.00  0.00     0.029 A 
ATOM     48  C   UNL A   1      40.954  27.879  28.886  1.00  0.00     0.049 A 
ATOM     49  H   UNL A   1      40.614  28.881  30.679  1.00  0.00     0.167 HD
ATOM     50  C   UNL A   1      39.802  31.112  34.363  1.00  0.00     0.037 A 
ATOM     51  C   UNL A   1      42.128  27.230  29.019  1.00  0.00     0.037 A 
ATOM     52  C   UNL A   1      41.022  30.393  34.621  1.00  0.00     0.049 A 
ATOM     53  C   UNL A   1      42.892  27.343  30.312  1.00  0.00     0.074 A 
ATOM     54  C   UNL A   1      41.771  30.355  35.784  1.00  0.00     0.029 A 
ATOM     55  N   UNL A   1      41.674  29.591  33.698  1.00  0.00    -0.354 N 
ATOM     56  N   UNL A   1      42.578  27.998  31.403  1.00  0.00    -0.248 NA
ATOM     57  C   UNL A   1      44.172  26.624  30.390  1.00  0.00     0.031 C 
ATOM     58  C   UNL A   1      42.901  29.564  35.549  1.00  0.00     0.029 A 
ATOM     59  C   UNL A   1      42.830  29.073  34.255  1.00  0.00     0.049 A 
ATOM     60  H   UNL A   1      41.362  29.416  32.780  1.00  0.00     0.167 HD
ATOM     61  C   UNL A   1      43.603  27.747  32.306  1.00  0.00     0.074 A 
ATOM     62  C   UNL A   1      44.545  26.873  31.638  1.00  0.00     0.031 C 
ATOM     63  C   UNL A   1      43.752  28.197  33.578  1.00  0.00     0.037 A 
BRANCH  50  64
ATOM     64  C   UNL A   1      39.243  31.982  35.448  1.00  0.00     0.057 A 
ATOM     65  C   UNL A   1      38.375  31.481  36.427  1.00  0.00     0.134 A 
ATOM     66  C   UNL A   1      39.599  33.334  35.532  1.00  0.00     0.134 A 
ATOM     67  F   UNL A   1      37.983  30.197  36.393  1.00  0.00    -0.206 F 
ATOM     68  C   UNL A   1      37.864  32.297  37.436  1.00  0.00     0.040 A 
ATOM     69  C   UNL A   1      39.114  34.155  36.550  1.00  0.00     0.040 A 
ATOM     70  F   UNL A   1      40.428  33.877  34.627  1.00  0.00    -0.206 F 
ATOM     71  C   UNL A   1      38.239  33.638  37.504  1.00  0.00     0.006 A 
ENDBRANCH  50  64
BRANCH  51  72
ATOM     72  C   UNL A   1      42.660  26.423  27.894  1.00  0.00     0.057 A 
ATOM     73  C   UNL A   1      42.381  25.057  27.784  1.00  0.00     0.134 A 
ATOM     74  C   UNL A   1      43.477  26.995  26.910  1.00  0.00     0.134 A 
ATOM     75  F   UNL A   1      41.623  24.447  28.708  1.00  0.00    -0.206 F 
ATOM     76  C   UNL A   1      42.904  24.284  26.746  1.00  0.00     0.040 A 
ATOM     77  C   UNL A   1      43.988  26.240  25.854  1.00  0.00     0.040 A 
ATOM     78  F   UNL A   1      43.782  28.301  26.959  1.00  0.00    -0.206 F 
ATOM     79  C   UNL A   1      43.707  24.877  25.775  1.00  0.00     0.006 A 
ENDBRANCH  51  72
BRANCH  63  80
ATOM     80  C   UNL A   1      44.954  27.723  34.340  1.00  0.00     0.057 A 
ATOM     81  C   UNL A   1      46.153  28.446  34.353  1.00  0.00     0.134 A 
ATOM     82  C   UNL A   1      44.893  26.553  35.108  1.00  0.00     0.134 A 
ATOM     83  F   UNL A   1      46.279  29.568  33.629  1.00  0.00    -0.206 F 
ATOM     84  C   UNL A   1      47.257  28.010  35.087  1.00  0.00     0.040 A 
ATOM     85  C   UNL A   1      45.982  26.121  35.866  1.00  0.00     0.040 A 
ATOM     86  F   UNL A   1      43.771  25.820  35.146  1.00  0.00    -0.206 F 
ATOM     87  C   UNL A   1      47.170  26.848  35.853  1.00  0.00     0.006 A 
ENDBRANCH  63  80
ENDBRANCH  37  38
ENDBRANCH  30  32
ENDBRANCH  29  30
ENDBRANCH  28  29
ENDBRANCH  27  28
ENDBRANCH   1  27
TORSDOF 18
ENDMDL
