MODEL 1
REMARK VINA RESULT:     -10.8      0.000      0.000
REMARK SMILES O=C(OCCOCCOC(=O)[C@H]1C=C[C@H](NS(=O)(=O)c2ccc(F)c(F)c2F)C1)c1ccc(-c2c3nc(c(-c4c(F)cccc4F)c4ccc([nH]4)c(-c4c(F)cccc4F)c4nc(c(-c5c(F)cccc5F)c5ccc2[nH]5)C=C4)C=C3)cc1
REMARK SMILES IDX 7 1 6 2 5 3 4 4 3 5 2 6 1 7 30 8 31 9 83 10 32 11 82 12
REMARK SMILES IDX 33 13 34 14 35 15 76 16 36 17 81 18 75 19 77 20 37 21 80 22
REMARK SMILES IDX 74 23 73 24 38 26 64 27 47 28 63 29 48 30 51 31 62 32 78 33
REMARK SMILES IDX 49 34 50 35 61 37 79 38 52 39 39 40 40 41 45 42 41 43 42 44
REMARK SMILES IDX 44 45 46 46 43 47 65 48 66 49 71 50 67 51 68 52 70 53 72 54
REMARK SMILES IDX 69 55 53 56 54 57 59 58 55 59 56 60 58 61 60 62 57 63 8 64
REMARK SMILES IDX 9 65 10 66 11 67 12 68 13 69 29 70 14 71 15 72 16 73 17 75
REMARK SMILES IDX 18 76 19 77 20 78 21 79 27 80 22 81 25 82 28 83 23 84 26 85
REMARK SMILES IDX 24 86
REMARK H PARENT 77 25 51 36 16 74
REMARK Flexibility Score: inf
ROOT
ATOM      1  C   UNL A   1      40.383  21.812  27.012  1.00  0.00     0.202 C 
ENDROOT
BRANCH   1   2
ATOM      2  O   UNL A   1      41.183  21.768  25.831  1.00  0.00    -0.374 OA
BRANCH   2   3
ATOM      3  C   UNL A   1      42.497  21.240  25.996  1.00  0.00     0.202 C 
BRANCH   3   4
ATOM      4  C   UNL A   1      43.599  21.970  25.228  1.00  0.00     0.261 C 
BRANCH   4   5
ATOM      5  O   UNL A   1      43.168  23.292  24.884  1.00  0.00    -0.460 OA
BRANCH   5   6
ATOM      6  C   UNL A   1      43.752  24.457  25.250  1.00  0.00     0.338 C 
ATOM      7  O   UNL A   1      44.730  24.858  24.624  1.00  0.00    -0.246 OA
BRANCH   6   8
ATOM      8  C   UNL A   1      43.224  25.316  26.351  1.00  0.00     0.060 A 
ATOM      9  C   UNL A   1      42.306  24.892  27.310  1.00  0.00     0.016 A 
ATOM     10  C   UNL A   1      43.756  26.608  26.474  1.00  0.00     0.016 A 
ATOM     11  C   UNL A   1      41.875  25.719  28.326  1.00  0.00     0.010 A 
ATOM     12  C   UNL A   1      43.369  27.440  27.530  1.00  0.00     0.010 A 
ATOM     13  C   UNL A   1      42.425  26.987  28.457  1.00  0.00    -0.014 A 
BRANCH  13  14
ATOM     14  C   UNL A   1      41.925  27.808  29.564  1.00  0.00     0.031 A 
ATOM     15  C   UNL A   1      42.752  27.916  30.801  1.00  0.00     0.074 A 
ATOM     16  C   UNL A   1      40.838  28.573  29.358  1.00  0.00     0.049 A 
ATOM     17  N   UNL A   1      42.495  28.551  31.909  1.00  0.00    -0.248 NA
ATOM     18  C   UNL A   1      44.057  27.231  30.781  1.00  0.00     0.031 C 
ATOM     19  C   UNL A   1      40.074  28.631  28.106  1.00  0.00     0.029 A 
ATOM     20  N   UNL A   1      40.215  29.481  30.168  1.00  0.00    -0.354 N 
ATOM     21  C   UNL A   1      43.582  28.309  32.736  1.00  0.00     0.074 A 
ATOM     22  C   UNL A   1      44.515  27.488  31.997  1.00  0.00     0.031 C 
ATOM     23  C   UNL A   1      39.106  29.552  28.224  1.00  0.00     0.029 A 
ATOM     24  C   UNL A   1      39.129  30.082  29.580  1.00  0.00     0.049 A 
ATOM     25  H   UNL A   1      40.516  29.683  31.083  1.00  0.00     0.167 HD
ATOM     26  C   UNL A   1      43.760  28.729  34.007  1.00  0.00     0.037 A 
ATOM     27  C   UNL A   1      38.232  30.934  30.109  1.00  0.00     0.037 A 
ATOM     28  C   UNL A   1      42.805  29.552  34.699  1.00  0.00     0.049 A 
ATOM     29  C   UNL A   1      38.408  31.312  31.553  1.00  0.00     0.074 A 
ATOM     30  C   UNL A   1      42.813  29.975  36.013  1.00  0.00     0.029 A 
ATOM     31  N   UNL A   1      41.664  30.083  34.107  1.00  0.00    -0.354 N 
ATOM     32  N   UNL A   1      39.382  30.995  32.375  1.00  0.00    -0.248 NA
ATOM     33  C   UNL A   1      37.355  32.137  32.153  1.00  0.00     0.031 C 
ATOM     34  C   UNL A   1      41.657  30.737  36.226  1.00  0.00     0.029 A 
ATOM     35  C   UNL A   1      40.952  30.820  35.034  1.00  0.00     0.049 A 
ATOM     36  H   UNL A   1      41.402  29.953  33.167  1.00  0.00     0.167 HD
ATOM     37  C   UNL A   1      39.061  31.579  33.589  1.00  0.00     0.074 A 
ATOM     38  C   UNL A   1      37.816  32.296  33.386  1.00  0.00     0.031 C 
ATOM     39  C   UNL A   1      39.719  31.520  34.773  1.00  0.00     0.037 A 
BRANCH  26  40
ATOM     40  C   UNL A   1      44.969  28.224  34.728  1.00  0.00     0.057 A 
ATOM     41  C   UNL A   1      44.933  27.094  35.555  1.00  0.00     0.134 A 
ATOM     42  C   UNL A   1      46.188  28.907  34.618  1.00  0.00     0.134 A 
ATOM     43  F   UNL A   1      43.789  26.417  35.730  1.00  0.00    -0.206 F 
ATOM     44  C   UNL A   1      46.063  26.672  36.260  1.00  0.00     0.040 A 
ATOM     45  C   UNL A   1      47.327  28.483  35.304  1.00  0.00     0.040 A 
ATOM     46  F   UNL A   1      46.286  30.005  33.854  1.00  0.00    -0.206 F 
ATOM     47  C   UNL A   1      47.264  27.365  36.133  1.00  0.00     0.006 A 
ENDBRANCH  26  40
BRANCH  27  48
ATOM     48  C   UNL A   1      37.070  31.404  29.310  1.00  0.00     0.057 A 
ATOM     49  C   UNL A   1      35.966  30.581  29.066  1.00  0.00     0.134 A 
ATOM     50  C   UNL A   1      37.044  32.690  28.753  1.00  0.00     0.134 A 
ATOM     51  F   UNL A   1      35.936  29.331  29.552  1.00  0.00    -0.206 F 
ATOM     52  C   UNL A   1      34.888  31.011  28.288  1.00  0.00     0.040 A 
ATOM     53  C   UNL A   1      35.961  33.145  27.999  1.00  0.00     0.040 A 
ATOM     54  F   UNL A   1      38.069  33.535  28.944  1.00  0.00    -0.206 F 
ATOM     55  C   UNL A   1      34.882  32.299  27.757  1.00  0.00     0.006 A 
ENDBRANCH  27  48
BRANCH  39  56
ATOM     56  C   UNL A   1      39.107  32.271  35.912  1.00  0.00     0.057 A 
ATOM     57  C   UNL A   1      38.215  31.655  36.797  1.00  0.00     0.134 A 
ATOM     58  C   UNL A   1      39.448  33.607  36.147  1.00  0.00     0.134 A 
ATOM     59  F   UNL A   1      37.843  30.379  36.610  1.00  0.00    -0.206 F 
ATOM     60  C   UNL A   1      37.668  32.351  37.874  1.00  0.00     0.040 A 
ATOM     61  C   UNL A   1      38.924  34.307  37.232  1.00  0.00     0.040 A 
ATOM     62  F   UNL A   1      40.303  34.246  35.334  1.00  0.00    -0.206 F 
ATOM     63  C   UNL A   1      38.028  33.679  38.096  1.00  0.00     0.006 A 
ENDBRANCH  39  56
ENDBRANCH  13  14
ENDBRANCH   6   8
ENDBRANCH   5   6
ENDBRANCH   4   5
ENDBRANCH   3   4
ENDBRANCH   2   3
ENDBRANCH   1   2
BRANCH   1  64
ATOM     64  C   UNL A   1      39.303  22.883  26.868  1.00  0.00     0.261 C 
BRANCH  64  65
ATOM     65  O   UNL A   1      38.704  22.792  25.560  1.00  0.00    -0.463 OA
BRANCH  65  66
ATOM     66  C   UNL A   1      37.594  22.004  25.455  1.00  0.00     0.312 C 
ATOM     67  O   UNL A   1      37.603  20.798  25.239  1.00  0.00    -0.252 OA
BRANCH  66  68
ATOM     68  C   UNL A   1      36.316  22.786  25.744  1.00  0.00     0.123 C 
ATOM     69  C   UNL A   1      35.892  23.540  24.521  1.00  0.00    -0.015 C 
ATOM     70  C   UNL A   1      35.087  21.911  26.023  1.00  0.00     0.043 C 
ATOM     71  C   UNL A   1      34.615  23.321  24.201  1.00  0.00    -0.011 C 
ATOM     72  C   UNL A   1      33.921  22.616  25.309  1.00  0.00     0.093 C 
BRANCH  72  73
ATOM     73  N   UNL A   1      33.293  23.560  26.237  1.00  0.00    -0.204 NA
ATOM     74  H   UNL A   1      33.981  24.301  26.367  1.00  0.00     0.142 HD
BRANCH  73  75
ATOM     75  S   UNL A   1      31.834  24.357  26.022  1.00  0.00     0.244 S 
ATOM     76  O   UNL A   1      31.311  23.920  24.747  1.00  0.00    -0.207 OA
ATOM     77  O   UNL A   1      31.046  24.226  27.226  1.00  0.00    -0.207 OA
BRANCH  75  78
ATOM     78  C   UNL A   1      32.258  26.059  25.842  1.00  0.00     0.121 A 
ATOM     79  C   UNL A   1      33.586  26.483  26.015  1.00  0.00     0.028 A 
ATOM     80  C   UNL A   1      31.268  26.963  25.481  1.00  0.00     0.181 A 
ATOM     81  C   UNL A   1      33.907  27.828  25.820  1.00  0.00     0.044 A 
ATOM     82  C   UNL A   1      31.596  28.297  25.281  1.00  0.00     0.195 A 
ATOM     83  F   UNL A   1      30.004  26.563  25.286  1.00  0.00    -0.202 F 
ATOM     84  C   UNL A   1      32.907  28.726  25.452  1.00  0.00     0.161 A 
ATOM     85  F   UNL A   1      30.649  29.166  24.903  1.00  0.00    -0.200 F 
ATOM     86  F   UNL A   1      33.224  30.013  25.252  1.00  0.00    -0.204 F 
ENDBRANCH  75  78
ENDBRANCH  73  75
ENDBRANCH  72  73
ENDBRANCH  66  68
ENDBRANCH  65  66
ENDBRANCH  64  65
ENDBRANCH   1  64
TORSDOF 17
ENDMDL
MODEL 2
REMARK VINA RESULT:     -10.7      1.416      2.256
REMARK SMILES O=C(OCCOCCOC(=O)[C@H]1C=C[C@H](NS(=O)(=O)c2ccc(F)c(F)c2F)C1)c1ccc(-c2c3nc(c(-c4c(F)cccc4F)c4ccc([nH]4)c(-c4c(F)cccc4F)c4nc(c(-c5c(F)cccc5F)c5ccc2[nH]5)C=C4)C=C3)cc1
REMARK SMILES IDX 7 1 6 2 5 3 4 4 3 5 2 6 1 7 30 8 31 9 83 10 32 11 82 12
REMARK SMILES IDX 33 13 34 14 35 15 76 16 36 17 81 18 75 19 77 20 37 21 80 22
REMARK SMILES IDX 74 23 73 24 38 26 64 27 47 28 63 29 48 30 51 31 62 32 78 33
REMARK SMILES IDX 49 34 50 35 61 37 79 38 52 39 39 40 40 41 45 42 41 43 42 44
REMARK SMILES IDX 44 45 46 46 43 47 65 48 66 49 71 50 67 51 68 52 70 53 72 54
REMARK SMILES IDX 69 55 53 56 54 57 59 58 55 59 56 60 58 61 60 62 57 63 8 64
REMARK SMILES IDX 9 65 10 66 11 67 12 68 13 69 29 70 14 71 15 72 16 73 17 75
REMARK SMILES IDX 18 76 19 77 20 78 21 79 27 80 22 81 25 82 28 83 23 84 26 85
REMARK SMILES IDX 24 86
REMARK H PARENT 77 25 51 36 16 74
REMARK Flexibility Score: inf
ROOT
ATOM      1  C   UNL A   1      40.490  19.856  26.093  1.00  0.00     0.202 C 
ENDROOT
BRANCH   1   2
ATOM      2  O   UNL A   1      41.915  19.803  26.046  1.00  0.00    -0.374 OA
BRANCH   2   3
ATOM      3  C   UNL A   1      42.590  20.981  26.482  1.00  0.00     0.202 C 
BRANCH   3   4
ATOM      4  C   UNL A   1      43.529  21.617  25.457  1.00  0.00     0.261 C 
BRANCH   4   5
ATOM      5  O   UNL A   1      43.021  22.892  25.045  1.00  0.00    -0.460 OA
BRANCH   5   6
ATOM      6  C   UNL A   1      43.574  24.103  25.287  1.00  0.00     0.338 C 
ATOM      7  O   UNL A   1      44.434  24.530  24.520  1.00  0.00    -0.246 OA
BRANCH   6   8
ATOM      8  C   UNL A   1      43.145  24.978  26.416  1.00  0.00     0.060 A 
ATOM      9  C   UNL A   1      43.593  26.283  26.616  1.00  0.00     0.016 A 
ATOM     10  C   UNL A   1      42.162  24.479  27.283  1.00  0.00     0.016 A 
ATOM     11  C   UNL A   1      43.139  27.060  27.662  1.00  0.00     0.010 A 
ATOM     12  C   UNL A   1      41.652  25.274  28.316  1.00  0.00     0.010 A 
ATOM     13  C   UNL A   1      42.147  26.569  28.499  1.00  0.00    -0.014 A 
BRANCH  13  14
ATOM     14  C   UNL A   1      41.708  27.453  29.584  1.00  0.00     0.031 A 
ATOM     15  C   UNL A   1      42.547  27.540  30.815  1.00  0.00     0.074 A 
ATOM     16  C   UNL A   1      40.674  28.283  29.359  1.00  0.00     0.049 A 
ATOM     17  N   UNL A   1      42.338  28.222  31.906  1.00  0.00    -0.248 NA
ATOM     18  C   UNL A   1      43.803  26.769  30.811  1.00  0.00     0.031 C 
ATOM     19  C   UNL A   1      39.910  28.357  28.108  1.00  0.00     0.029 A 
ATOM     20  N   UNL A   1      40.117  29.253  30.145  1.00  0.00    -0.354 N 
ATOM     21  C   UNL A   1      43.410  27.932  32.736  1.00  0.00     0.074 A 
ATOM     22  C   UNL A   1      44.282  27.029  32.018  1.00  0.00     0.031 C 
ATOM     23  C   UNL A   1      39.006  29.344  28.203  1.00  0.00     0.029 A 
ATOM     24  C   UNL A   1      39.071  29.909  29.543  1.00  0.00     0.049 A 
ATOM     25  H   UNL A   1      40.435  29.461  31.052  1.00  0.00     0.167 HD
ATOM     26  C   UNL A   1      43.621  28.375  33.994  1.00  0.00     0.037 A 
ATOM     27  C   UNL A   1      38.236  30.834  30.049  1.00  0.00     0.037 A 
ATOM     28  C   UNL A   1      42.727  29.279  34.664  1.00  0.00     0.049 A 
ATOM     29  C   UNL A   1      38.444  31.240  31.481  1.00  0.00     0.074 A 
ATOM     30  C   UNL A   1      42.770  29.737  35.966  1.00  0.00     0.029 A 
ATOM     31  N   UNL A   1      41.622  29.868  34.061  1.00  0.00    -0.354 N 
ATOM     32  N   UNL A   1      39.398  30.881  32.309  1.00  0.00    -0.248 NA
ATOM     33  C   UNL A   1      37.450  32.150  32.061  1.00  0.00     0.031 C 
ATOM     34  C   UNL A   1      41.669  30.581  36.161  1.00  0.00     0.029 A 
ATOM     35  C   UNL A   1      40.965  30.677  34.969  1.00  0.00     0.049 A 
ATOM     36  H   UNL A   1      41.347  29.729  33.126  1.00  0.00     0.167 HD
ATOM     37  C   UNL A   1      39.122  31.521  33.508  1.00  0.00     0.074 A 
ATOM     38  C   UNL A   1      37.927  32.313  33.287  1.00  0.00     0.031 C 
ATOM     39  C   UNL A   1      39.781  31.451  34.690  1.00  0.00     0.037 A 
BRANCH  26  40
ATOM     40  C   UNL A   1      44.798  27.810  34.725  1.00  0.00     0.057 A 
ATOM     41  C   UNL A   1      46.061  28.414  34.692  1.00  0.00     0.134 A 
ATOM     42  C   UNL A   1      44.669  26.616  35.447  1.00  0.00     0.134 A 
ATOM     43  F   UNL A   1      46.259  29.539  33.990  1.00  0.00    -0.206 F 
ATOM     44  C   UNL A   1      47.159  27.840  35.339  1.00  0.00     0.040 A 
ATOM     45  C   UNL A   1      45.755  26.044  36.112  1.00  0.00     0.040 A 
ATOM     46  F   UNL A   1      43.490  25.980  35.506  1.00  0.00    -0.206 F 
ATOM     47  C   UNL A   1      47.006  26.654  36.054  1.00  0.00     0.006 A 
ENDBRANCH  26  40
BRANCH  27  48
ATOM     48  C   UNL A   1      37.104  31.358  29.241  1.00  0.00     0.057 A 
ATOM     49  C   UNL A   1      37.114  32.654  28.717  1.00  0.00     0.134 A 
ATOM     50  C   UNL A   1      35.969  30.574  28.987  1.00  0.00     0.134 A 
ATOM     51  F   UNL A   1      38.160  33.464  28.940  1.00  0.00    -0.206 F 
ATOM     52  C   UNL A   1      36.036  33.158  27.985  1.00  0.00     0.040 A 
ATOM     53  C   UNL A   1      34.898  31.053  28.231  1.00  0.00     0.040 A 
ATOM     54  F   UNL A   1      35.889  29.321  29.459  1.00  0.00    -0.206 F 
ATOM     55  C   UNL A   1      34.926  32.354  27.736  1.00  0.00     0.006 A 
ENDBRANCH  27  48
BRANCH  39  56
ATOM     56  C   UNL A   1      39.225  32.273  35.809  1.00  0.00     0.057 A 
ATOM     57  C   UNL A   1      38.315  31.737  36.727  1.00  0.00     0.134 A 
ATOM     58  C   UNL A   1      39.640  33.597  35.992  1.00  0.00     0.134 A 
ATOM     59  F   UNL A   1      37.873  30.477  36.591  1.00  0.00    -0.206 F 
ATOM     60  C   UNL A   1      37.821  32.499  37.785  1.00  0.00     0.040 A 
ATOM     61  C   UNL A   1      39.170  34.362  37.057  1.00  0.00     0.040 A 
ATOM     62  F   UNL A   1      40.516  34.160  35.146  1.00  0.00    -0.206 F 
ATOM     63  C   UNL A   1      38.254  33.813  37.955  1.00  0.00     0.006 A 
ENDBRANCH  39  56
ENDBRANCH  13  14
ENDBRANCH   6   8
ENDBRANCH   5   6
ENDBRANCH   4   5
ENDBRANCH   3   4
ENDBRANCH   2   3
ENDBRANCH   1   2
BRANCH   1  64
ATOM     64  C   UNL A   1      40.027  21.310  26.179  1.00  0.00     0.261 C 
BRANCH  64  65
ATOM     65  O   UNL A   1      38.602  21.375  25.975  1.00  0.00    -0.463 OA
BRANCH  65  66
ATOM     66  C   UNL A   1      38.049  22.624  25.952  1.00  0.00     0.312 C 
ATOM     67  O   UNL A   1      38.636  23.660  26.241  1.00  0.00    -0.252 OA
BRANCH  66  68
ATOM     68  C   UNL A   1      36.621  22.601  25.417  1.00  0.00     0.123 C 
ATOM     69  C   UNL A   1      35.833  23.725  26.017  1.00  0.00    -0.015 C 
ATOM     70  C   UNL A   1      36.502  22.893  23.915  1.00  0.00     0.043 C 
ATOM     71  C   UNL A   1      35.208  24.461  25.096  1.00  0.00    -0.011 C 
ATOM     72  C   UNL A   1      35.255  23.782  23.776  1.00  0.00     0.093 C 
BRANCH  72  73
ATOM     73  N   UNL A   1      34.081  22.930  23.567  1.00  0.00    -0.204 NA
ATOM     74  H   UNL A   1      33.554  22.988  24.438  1.00  0.00     0.142 HD
BRANCH  73  75
ATOM     75  S   UNL A   1      32.933  23.086  22.355  1.00  0.00     0.244 S 
ATOM     76  O   UNL A   1      33.651  23.435  21.150  1.00  0.00    -0.207 OA
ATOM     77  O   UNL A   1      32.060  21.934  22.386  1.00  0.00    -0.207 OA
BRANCH  75  78
ATOM     78  C   UNL A   1      31.975  24.496  22.804  1.00  0.00     0.121 A 
ATOM     79  C   UNL A   1      30.743  24.339  23.459  1.00  0.00     0.028 A 
ATOM     80  C   UNL A   1      32.481  25.762  22.543  1.00  0.00     0.181 A 
ATOM     81  C   UNL A   1      30.024  25.472  23.849  1.00  0.00     0.044 A 
ATOM     82  C   UNL A   1      31.765  26.884  22.940  1.00  0.00     0.195 A 
ATOM     83  F   UNL A   1      33.669  25.922  21.944  1.00  0.00    -0.202 F 
ATOM     84  C   UNL A   1      30.543  26.738  23.587  1.00  0.00     0.161 A 
ATOM     85  F   UNL A   1      32.265  28.106  22.716  1.00  0.00    -0.200 F 
ATOM     86  F   UNL A   1      29.856  27.820  23.976  1.00  0.00    -0.204 F 
ENDBRANCH  75  78
ENDBRANCH  73  75
ENDBRANCH  72  73
ENDBRANCH  66  68
ENDBRANCH  65  66
ENDBRANCH  64  65
ENDBRANCH   1  64
TORSDOF 17
ENDMDL
MODEL 3
REMARK VINA RESULT:     -10.6      4.732      9.567
REMARK SMILES O=C(OCCOCCOC(=O)[C@H]1C=C[C@H](NS(=O)(=O)c2ccc(F)c(F)c2F)C1)c1ccc(-c2c3nc(c(-c4c(F)cccc4F)c4ccc([nH]4)c(-c4c(F)cccc4F)c4nc(c(-c5c(F)cccc5F)c5ccc2[nH]5)C=C4)C=C3)cc1
REMARK SMILES IDX 7 1 6 2 5 3 4 4 3 5 2 6 1 7 30 8 31 9 83 10 32 11 82 12
REMARK SMILES IDX 33 13 34 14 35 15 76 16 36 17 81 18 75 19 77 20 37 21 80 22
REMARK SMILES IDX 74 23 73 24 38 26 64 27 47 28 63 29 48 30 51 31 62 32 78 33
REMARK SMILES IDX 49 34 50 35 61 37 79 38 52 39 39 40 40 41 45 42 41 43 42 44
REMARK SMILES IDX 44 45 46 46 43 47 65 48 66 49 71 50 67 51 68 52 70 53 72 54
REMARK SMILES IDX 69 55 53 56 54 57 59 58 55 59 56 60 58 61 60 62 57 63 8 64
REMARK SMILES IDX 9 65 10 66 11 67 12 68 13 69 29 70 14 71 15 72 16 73 17 75
REMARK SMILES IDX 18 76 19 77 20 78 21 79 27 80 22 81 25 82 28 83 23 84 26 85
REMARK SMILES IDX 24 86
REMARK H PARENT 77 25 51 36 16 74
REMARK Flexibility Score: inf
ROOT
ATOM      1  C   UNL A   1      35.176  33.297  28.006  1.00  0.00     0.202 C 
ENDROOT
BRANCH   1   2
ATOM      2  O   UNL A   1      35.257  34.182  29.124  1.00  0.00    -0.374 OA
BRANCH   2   3
ATOM      3  C   UNL A   1      34.163  34.121  30.037  1.00  0.00     0.202 C 
BRANCH   3   4
ATOM      4  C   UNL A   1      34.544  33.921  31.504  1.00  0.00     0.261 C 
BRANCH   4   5
ATOM      5  O   UNL A   1      34.893  32.551  31.741  1.00  0.00    -0.460 OA
BRANCH   5   6
ATOM      6  C   UNL A   1      35.988  32.093  32.391  1.00  0.00     0.338 C 
ATOM      7  O   UNL A   1      35.993  32.085  33.620  1.00  0.00    -0.246 OA
BRANCH   6   8
ATOM      8  C   UNL A   1      37.178  31.539  31.682  1.00  0.00     0.060 A 
ATOM      9  C   UNL A   1      37.455  31.741  30.331  1.00  0.00     0.016 A 
ATOM     10  C   UNL A   1      38.121  30.840  32.451  1.00  0.00     0.016 A 
ATOM     11  C   UNL A   1      38.588  31.230  29.732  1.00  0.00     0.010 A 
ATOM     12  C   UNL A   1      39.300  30.362  31.869  1.00  0.00     0.010 A 
ATOM     13  C   UNL A   1      39.528  30.563  30.504  1.00  0.00    -0.014 A 
BRANCH  13  14
ATOM     14  C   UNL A   1      40.711  30.054  29.801  1.00  0.00     0.031 A 
ATOM     15  C   UNL A   1      41.931  30.910  29.748  1.00  0.00     0.074 A 
ATOM     16  C   UNL A   1      40.714  28.772  29.393  1.00  0.00     0.049 A 
ATOM     17  N   UNL A   1      43.070  30.683  29.158  1.00  0.00    -0.248 NA
ATOM     18  C   UNL A   1      41.868  32.190  30.476  1.00  0.00     0.031 C 
ATOM     19  C   UNL A   1      39.600  27.831  29.561  1.00  0.00     0.029 A 
ATOM     20  N   UNL A   1      41.693  28.024  28.800  1.00  0.00    -0.354 N 
ATOM     21  C   UNL A   1      43.846  31.806  29.404  1.00  0.00     0.074 A 
ATOM     22  C   UNL A   1      43.060  32.707  30.216  1.00  0.00     0.031 C 
ATOM     23  C   UNL A   1      39.974  26.624  29.112  1.00  0.00     0.029 A 
ATOM     24  C   UNL A   1      41.313  26.728  28.550  1.00  0.00     0.049 A 
ATOM     25  H   UNL A   1      42.582  28.380  28.576  1.00  0.00     0.167 HD
ATOM     26  C   UNL A   1      45.099  32.054  28.964  1.00  0.00     0.037 A 
ATOM     27  C   UNL A   1      41.971  25.755  27.895  1.00  0.00     0.037 A 
ATOM     28  C   UNL A   1      45.844  31.122  28.163  1.00  0.00     0.049 A 
ATOM     29  C   UNL A   1      43.327  26.091  27.341  1.00  0.00     0.074 A 
ATOM     30  C   UNL A   1      47.083  31.279  27.575  1.00  0.00     0.029 A 
ATOM     31  N   UNL A   1      45.404  29.841  27.849  1.00  0.00    -0.354 N 
ATOM     32  N   UNL A   1      44.021  27.197  27.478  1.00  0.00    -0.248 NA
ATOM     33  C   UNL A   1      43.978  25.065  26.519  1.00  0.00     0.031 C 
ATOM     34  C   UNL A   1      47.379  30.102  26.875  1.00  0.00     0.029 A 
ATOM     35  C   UNL A   1      46.342  29.200  27.062  1.00  0.00     0.049 A 
ATOM     36  H   UNL A   1      44.550  29.449  28.142  1.00  0.00     0.167 HD
ATOM     37  C   UNL A   1      45.192  27.003  26.761  1.00  0.00     0.074 A 
ATOM     38  C   UNL A   1      45.124  25.660  26.217  1.00  0.00     0.031 C 
ATOM     39  C   UNL A   1      46.224  27.856  26.554  1.00  0.00     0.037 A 
BRANCH  26  40
ATOM     40  C   UNL A   1      45.670  33.403  29.265  1.00  0.00     0.057 A 
ATOM     41  C   UNL A   1      45.454  34.512  28.437  1.00  0.00     0.134 A 
ATOM     42  C   UNL A   1      46.485  33.585  30.391  1.00  0.00     0.134 A 
ATOM     43  F   UNL A   1      44.713  34.395  27.326  1.00  0.00    -0.206 F 
ATOM     44  C   UNL A   1      46.042  35.750  28.710  1.00  0.00     0.040 A 
ATOM     45  C   UNL A   1      47.063  34.822  30.682  1.00  0.00     0.040 A 
ATOM     46  F   UNL A   1      46.744  32.560  31.216  1.00  0.00    -0.206 F 
ATOM     47  C   UNL A   1      46.846  35.907  29.836  1.00  0.00     0.006 A 
ENDBRANCH  26  40
BRANCH  27  48
ATOM     48  C   UNL A   1      41.332  24.433  27.661  1.00  0.00     0.057 A 
ATOM     49  C   UNL A   1      41.726  23.292  28.367  1.00  0.00     0.134 A 
ATOM     50  C   UNL A   1      40.319  24.275  26.704  1.00  0.00     0.134 A 
ATOM     51  F   UNL A   1      42.704  23.368  29.282  1.00  0.00    -0.206 F 
ATOM     52  C   UNL A   1      41.149  22.043  28.123  1.00  0.00     0.040 A 
ATOM     53  C   UNL A   1      39.712  23.040  26.471  1.00  0.00     0.040 A 
ATOM     54  F   UNL A   1      39.892  25.325  25.987  1.00  0.00    -0.206 F 
ATOM     55  C   UNL A   1      40.135  21.916  27.176  1.00  0.00     0.006 A 
ENDBRANCH  27  48
BRANCH  39  56
ATOM     56  C   UNL A   1      47.356  27.339  25.725  1.00  0.00     0.057 A 
ATOM     57  C   UNL A   1      47.423  27.581  24.348  1.00  0.00     0.134 A 
ATOM     58  C   UNL A   1      48.408  26.633  26.320  1.00  0.00     0.134 A 
ATOM     59  F   UNL A   1      46.435  28.241  23.723  1.00  0.00    -0.206 F 
ATOM     60  C   UNL A   1      48.495  27.120  23.584  1.00  0.00     0.040 A 
ATOM     61  C   UNL A   1      49.494  26.186  25.571  1.00  0.00     0.040 A 
ATOM     62  F   UNL A   1      48.398  26.379  27.637  1.00  0.00    -0.206 F 
ATOM     63  C   UNL A   1      49.537  26.427  24.198  1.00  0.00     0.006 A 
ENDBRANCH  39  56
ENDBRANCH  13  14
ENDBRANCH   6   8
ENDBRANCH   5   6
ENDBRANCH   4   5
ENDBRANCH   3   4
ENDBRANCH   2   3
ENDBRANCH   1   2
BRANCH   1  64
ATOM     64  C   UNL A   1      34.432  32.023  28.405  1.00  0.00     0.261 C 
BRANCH  64  65
ATOM     65  O   UNL A   1      34.426  31.101  27.298  1.00  0.00    -0.463 OA
BRANCH  65  66
ATOM     66  C   UNL A   1      34.695  29.795  27.595  1.00  0.00     0.312 C 
ATOM     67  O   UNL A   1      35.506  29.415  28.430  1.00  0.00    -0.252 OA
BRANCH  66  68
ATOM     68  C   UNL A   1      33.783  28.842  26.829  1.00  0.00     0.123 C 
ATOM     69  C   UNL A   1      32.352  29.242  27.019  1.00  0.00    -0.015 C 
ATOM     70  C   UNL A   1      33.934  28.909  25.303  1.00  0.00     0.043 C 
ATOM     71  C   UNL A   1      31.696  29.362  25.864  1.00  0.00    -0.011 C 
ATOM     72  C   UNL A   1      32.503  28.796  24.753  1.00  0.00     0.093 C 
BRANCH  72  73
ATOM     73  N   UNL A   1      32.187  27.383  24.525  1.00  0.00    -0.204 NA
ATOM     74  H   UNL A   1      31.724  27.074  25.379  1.00  0.00     0.142 HD
BRANCH  73  75
ATOM     75  S   UNL A   1      31.263  26.751  23.278  1.00  0.00     0.244 S 
ATOM     76  O   UNL A   1      32.135  26.647  22.130  1.00  0.00    -0.207 OA
ATOM     77  O   UNL A   1      30.545  25.595  23.767  1.00  0.00    -0.207 OA
BRANCH  75  78
ATOM     78  C   UNL A   1      30.075  27.999  22.904  1.00  0.00     0.121 A 
ATOM     79  C   UNL A   1      30.445  29.134  22.165  1.00  0.00     0.028 A 
ATOM     80  C   UNL A   1      28.760  27.818  23.312  1.00  0.00     0.181 A 
ATOM     81  C   UNL A   1      29.476  30.086  21.839  1.00  0.00     0.044 A 
ATOM     82  C   UNL A   1      27.801  28.764  22.978  1.00  0.00     0.195 A 
ATOM     83  F   UNL A   1      28.392  26.725  23.994  1.00  0.00    -0.202 F 
ATOM     84  C   UNL A   1      28.158  29.892  22.247  1.00  0.00     0.161 A 
ATOM     85  F   UNL A   1      26.525  28.577  23.344  1.00  0.00    -0.200 F 
ATOM     86  F   UNL A   1      27.231  30.802  21.919  1.00  0.00    -0.204 F 
ENDBRANCH  75  78
ENDBRANCH  73  75
ENDBRANCH  72  73
ENDBRANCH  66  68
ENDBRANCH  65  66
ENDBRANCH  64  65
ENDBRANCH   1  64
TORSDOF 17
ENDMDL
