MODEL 1
REMARK VINA RESULT:     -11.0      0.000      0.000
REMARK SMILES CC1(C)COCCN1C(=O)N1CCO[C@@H](CC(=O)OCCOCCOC(=O)c2ccc(-c3c4nc(c(-c5c(F)cccc5F)c5ccc([nH]5)c(-c5c(F)cccc5F)c5nc(c(-c6c(F)cccc6F)c6ccc3[nH]6)C=C5)C=C4)cc2)C1
REMARK SMILES IDX 21 1 20 2 19 3 17 4 18 5 16 6 15 7 11 8 12 9 82 10 13 11
REMARK SMILES IDX 14 12 9 13 10 14 8 15 1 16 2 17 3 18 4 19 5 20 7 21 6 22
REMARK SMILES IDX 22 23 23 24 24 25 25 26 26 27 27 28 28 29 29 30 81 31 30 32
REMARK SMILES IDX 80 33 31 34 32 35 33 36 74 37 34 38 79 39 73 40 75 41 35 42
REMARK SMILES IDX 78 43 72 44 71 45 36 47 62 48 45 49 61 50 46 51 49 52 60 53
REMARK SMILES IDX 76 54 47 55 48 56 59 58 77 59 50 60 37 61 38 62 43 63 39 64
REMARK SMILES IDX 40 65 42 66 44 67 41 68 63 69 64 70 69 71 65 72 66 73 68 74
REMARK SMILES IDX 70 75 67 76 51 77 52 78 57 79 53 80 54 81 56 82 58 83 55 84
REMARK H PARENT 75 46 49 57
REMARK Flexibility Score: inf
ROOT
ATOM      1  C   UNL A   1      40.378  20.432  26.305  1.00  0.00     0.202 C 
ENDROOT
BRANCH   1   2
ATOM      2  C   UNL A   1      39.697  21.791  26.419  1.00  0.00     0.261 C 
BRANCH   2   3
ATOM      3  O   UNL A   1      38.571  21.894  25.520  1.00  0.00    -0.463 OA
BRANCH   3   4
ATOM      4  C   UNL A   1      37.730  22.934  25.738  1.00  0.00     0.308 C 
ATOM      5  O   UNL A   1      38.052  23.982  26.288  1.00  0.00    -0.252 OA
BRANCH   4   6
ATOM      6  C   UNL A   1      36.313  22.681  25.302  1.00  0.00     0.156 C 
BRANCH   6   7
ATOM      7  C   UNL A   1      35.334  22.067  26.303  1.00  0.00     0.149 C 
ATOM      8  N   UNL A   1      33.126  23.190  25.848  1.00  0.00    -0.320 N 
ATOM      9  C   UNL A   1      32.656  21.957  25.219  1.00  0.00     0.150 C 
ATOM     10  C   UNL A   1      34.188  22.961  26.823  1.00  0.00     0.154 C 
ATOM     11  C   UNL A   1      33.807  21.093  24.711  1.00  0.00     0.182 C 
ATOM     12  O   UNL A   1      34.786  20.847  25.737  1.00  0.00    -0.374 OA
BRANCH   8  13
ATOM     13  C   UNL A   1      32.137  24.084  26.227  1.00  0.00     0.320 C 
ATOM     14  O   UNL A   1      31.586  23.986  27.324  1.00  0.00    -0.248 OA
BRANCH  13  15
ATOM     15  N   UNL A   1      31.864  25.134  25.351  1.00  0.00    -0.315 N 
ATOM     16  C   UNL A   1      33.935  25.333  23.984  1.00  0.00     0.037 C 
ATOM     17  C   UNL A   1      32.915  26.092  24.855  1.00  0.00     0.062 C 
ATOM     18  C   UNL A   1      33.699  26.807  25.957  1.00  0.00     0.037 C 
ATOM     19  C   UNL A   1      32.251  27.230  24.015  1.00  0.00     0.188 C 
ATOM     20  O   UNL A   1      31.373  26.737  23.001  1.00  0.00    -0.377 OA
ATOM     21  C   UNL A   1      30.824  24.807  24.364  1.00  0.00     0.150 C 
ATOM     22  C   UNL A   1      30.296  26.020  23.609  1.00  0.00     0.182 C 
ENDBRANCH  13  15
ENDBRANCH   8  13
ENDBRANCH   6   7
ENDBRANCH   4   6
ENDBRANCH   3   4
ENDBRANCH   2   3
ENDBRANCH   1   2
BRANCH   1  23
ATOM     23  O   UNL A   1      41.676  20.399  25.717  1.00  0.00    -0.374 OA
BRANCH  23  24
ATOM     24  C   UNL A   1      42.677  21.257  26.250  1.00  0.00     0.202 C 
BRANCH  24  25
ATOM     25  C   UNL A   1      43.694  21.878  25.275  1.00  0.00     0.261 C 
BRANCH  25  26
ATOM     26  O   UNL A   1      43.227  23.019  24.542  1.00  0.00    -0.460 OA
BRANCH  26  27
ATOM     27  C   UNL A   1      43.916  24.152  24.824  1.00  0.00     0.338 C 
ATOM     28  O   UNL A   1      45.074  24.406  24.521  1.00  0.00    -0.246 OA
BRANCH  27  29
ATOM     29  C   UNL A   1      43.060  25.144  25.498  1.00  0.00     0.060 A 
ATOM     30  C   UNL A   1      43.632  26.387  25.796  1.00  0.00     0.016 A 
ATOM     31  C   UNL A   1      41.801  24.801  25.999  1.00  0.00     0.016 A 
ATOM     32  C   UNL A   1      42.990  27.254  26.677  1.00  0.00     0.010 A 
ATOM     33  C   UNL A   1      41.161  25.671  26.892  1.00  0.00     0.010 A 
ATOM     34  C   UNL A   1      41.788  26.868  27.284  1.00  0.00    -0.014 A 
BRANCH  34  35
ATOM     35  C   UNL A   1      41.351  27.595  28.503  1.00  0.00     0.031 A 
ATOM     36  C   UNL A   1      42.157  27.427  29.765  1.00  0.00     0.074 A 
ATOM     37  C   UNL A   1      40.321  28.458  28.474  1.00  0.00     0.049 A 
ATOM     38  N   UNL A   1      42.012  28.007  30.930  1.00  0.00    -0.248 NA
ATOM     39  C   UNL A   1      43.285  26.481  29.704  1.00  0.00     0.031 C 
ATOM     40  C   UNL A   1      39.486  28.742  27.310  1.00  0.00     0.029 A 
ATOM     41  N   UNL A   1      39.813  29.264  29.462  1.00  0.00    -0.354 N 
ATOM     42  C   UNL A   1      43.027  27.499  31.733  1.00  0.00     0.074 A 
ATOM     43  C   UNL A   1      43.761  26.541  30.938  1.00  0.00     0.031 C 
ATOM     44  C   UNL A   1      38.566  29.662  27.651  1.00  0.00     0.029 A 
ATOM     45  C   UNL A   1      38.740  30.019  29.058  1.00  0.00     0.049 A 
ATOM     46  H   UNL A   1      40.181  29.296  30.374  1.00  0.00     0.167 HD
ATOM     47  C   UNL A   1      43.331  27.810  33.016  1.00  0.00     0.037 A 
ATOM     48  C   UNL A   1      37.987  30.897  29.748  1.00  0.00     0.037 A 
ATOM     49  C   UNL A   1      42.610  28.763  33.815  1.00  0.00     0.049 A 
ATOM     50  C   UNL A   1      38.318  31.196  31.187  1.00  0.00     0.074 A 
ATOM     51  C   UNL A   1      42.839  29.140  35.126  1.00  0.00     0.029 A 
ATOM     52  N   UNL A   1      41.516  29.489  33.374  1.00  0.00    -0.354 N 
ATOM     53  N   UNL A   1      39.290  30.722  31.929  1.00  0.00    -0.248 NA
ATOM     54  C   UNL A   1      37.454  32.162  31.880  1.00  0.00     0.031 C 
ATOM     55  C   UNL A   1      41.864  30.077  35.489  1.00  0.00     0.029 A 
ATOM     56  C   UNL A   1      41.052  30.307  34.389  1.00  0.00     0.049 A 
ATOM     57  H   UNL A   1      41.127  29.433  32.471  1.00  0.00     0.167 HD
ATOM     58  C   UNL A   1      39.173  31.355  33.161  1.00  0.00     0.074 A 
ATOM     59  C   UNL A   1      38.040  32.252  33.065  1.00  0.00     0.031 C 
ATOM     60  C   UNL A   1      39.935  31.208  34.271  1.00  0.00     0.037 A 
BRANCH  47  61
ATOM     61  C   UNL A   1      44.493  27.095  33.637  1.00  0.00     0.057 A 
ATOM     62  C   UNL A   1      45.795  27.606  33.569  1.00  0.00     0.134 A 
ATOM     63  C   UNL A   1      44.304  25.890  34.326  1.00  0.00     0.134 A 
ATOM     64  F   UNL A   1      46.044  28.746  32.908  1.00  0.00    -0.206 F 
ATOM     65  C   UNL A   1      46.872  26.935  34.150  1.00  0.00     0.040 A 
ATOM     66  C   UNL A   1      45.369  25.221  34.929  1.00  0.00     0.040 A 
ATOM     67  F   UNL A   1      43.080  25.348  34.427  1.00  0.00    -0.206 F 
ATOM     68  C   UNL A   1      46.660  25.741  34.837  1.00  0.00     0.006 A 
ENDBRANCH  47  61
BRANCH  48  69
ATOM     69  C   UNL A   1      36.842  31.570  29.089  1.00  0.00     0.057 A 
ATOM     70  C   UNL A   1      35.646  30.891  28.837  1.00  0.00     0.134 A 
ATOM     71  C   UNL A   1      36.929  32.904  28.670  1.00  0.00     0.134 A 
ATOM     72  F   UNL A   1      35.511  29.605  29.194  1.00  0.00    -0.206 F 
ATOM     73  C   UNL A   1      34.581  31.506  28.175  1.00  0.00     0.040 A 
ATOM     74  C   UNL A   1      35.865  33.537  28.026  1.00  0.00     0.040 A 
ATOM     75  F   UNL A   1      38.050  33.607  28.881  1.00  0.00    -0.206 F 
ATOM     76  C   UNL A   1      34.689  32.835  27.771  1.00  0.00     0.006 A 
ENDBRANCH  48  69
BRANCH  60  77
ATOM     77  C   UNL A   1      39.602  32.068  35.454  1.00  0.00     0.057 A 
ATOM     78  C   UNL A   1      40.140  33.351  35.613  1.00  0.00     0.134 A 
ATOM     79  C   UNL A   1      38.703  31.617  36.429  1.00  0.00     0.134 A 
ATOM     80  F   UNL A   1      41.014  33.836  34.718  1.00  0.00    -0.206 F 
ATOM     81  C   UNL A   1      39.813  34.146  36.712  1.00  0.00     0.040 A 
ATOM     82  C   UNL A   1      38.352  32.411  37.521  1.00  0.00     0.040 A 
ATOM     83  F   UNL A   1      38.145  30.401  36.331  1.00  0.00    -0.206 F 
ATOM     84  C   UNL A   1      38.913  33.678  37.668  1.00  0.00     0.006 A 
ENDBRANCH  60  77
ENDBRANCH  34  35
ENDBRANCH  27  29
ENDBRANCH  26  27
ENDBRANCH  25  26
ENDBRANCH  24  25
ENDBRANCH  23  24
ENDBRANCH   1  23
TORSDOF 17
ENDMDL
MODEL 2
REMARK VINA RESULT:     -11.0      4.364      9.598
REMARK SMILES CC1(C)COCCN1C(=O)N1CCO[C@@H](CC(=O)OCCOCCOC(=O)c2ccc(-c3c4nc(c(-c5c(F)cccc5F)c5ccc([nH]5)c(-c5c(F)cccc5F)c5nc(c(-c6c(F)cccc6F)c6ccc3[nH]6)C=C5)C=C4)cc2)C1
REMARK SMILES IDX 21 1 20 2 19 3 17 4 18 5 16 6 15 7 11 8 12 9 82 10 13 11
REMARK SMILES IDX 14 12 9 13 10 14 8 15 1 16 2 17 3 18 4 19 5 20 7 21 6 22
REMARK SMILES IDX 22 23 23 24 24 25 25 26 26 27 27 28 28 29 29 30 81 31 30 32
REMARK SMILES IDX 80 33 31 34 32 35 33 36 74 37 34 38 79 39 73 40 75 41 35 42
REMARK SMILES IDX 78 43 72 44 71 45 36 47 62 48 45 49 61 50 46 51 49 52 60 53
REMARK SMILES IDX 76 54 47 55 48 56 59 58 77 59 50 60 37 61 38 62 43 63 39 64
REMARK SMILES IDX 40 65 42 66 44 67 41 68 63 69 64 70 69 71 65 72 66 73 68 74
REMARK SMILES IDX 70 75 67 76 51 77 52 78 57 79 53 80 54 81 56 82 58 83 55 84
REMARK H PARENT 75 46 49 57
REMARK Flexibility Score: inf
ROOT
ATOM      1  C   UNL A   1      34.589  33.551  28.790  1.00  0.00     0.202 C 
ENDROOT
BRANCH   1   2
ATOM      2  C   UNL A   1      35.078  32.323  28.030  1.00  0.00     0.261 C 
BRANCH   2   3
ATOM      3  O   UNL A   1      33.976  31.576  27.469  1.00  0.00    -0.463 OA
BRANCH   3   4
ATOM      4  C   UNL A   1      34.211  30.264  27.226  1.00  0.00     0.308 C 
ATOM      5  O   UNL A   1      34.955  29.557  27.896  1.00  0.00    -0.252 OA
BRANCH   4   6
ATOM      6  C   UNL A   1      33.523  29.734  25.998  1.00  0.00     0.156 C 
BRANCH   6   7
ATOM      7  C   UNL A   1      31.994  29.706  25.966  1.00  0.00     0.149 C 
ATOM      8  N   UNL A   1      31.388  27.406  25.137  1.00  0.00    -0.320 N 
ATOM      9  C   UNL A   1      30.981  27.051  26.494  1.00  0.00     0.150 C 
ATOM     10  C   UNL A   1      31.317  28.843  24.880  1.00  0.00     0.154 C 
ATOM     11  C   UNL A   1      31.666  27.916  27.548  1.00  0.00     0.182 C 
ATOM     12  O   UNL A   1      31.502  29.321  27.277  1.00  0.00    -0.374 OA
BRANCH   8  13
ATOM     13  C   UNL A   1      30.901  26.587  24.130  1.00  0.00     0.320 C 
ATOM     14  O   UNL A   1      29.691  26.497  23.921  1.00  0.00    -0.248 OA
BRANCH  13  15
ATOM     15  N   UNL A   1      31.843  25.947  23.326  1.00  0.00    -0.315 N 
ATOM     16  C   UNL A   1      31.326  23.528  23.598  1.00  0.00     0.037 C 
ATOM     17  C   UNL A   1      32.431  24.600  23.653  1.00  0.00     0.062 C 
ATOM     18  C   UNL A   1      33.089  24.507  25.030  1.00  0.00     0.037 C 
ATOM     19  C   UNL A   1      33.559  24.244  22.631  1.00  0.00     0.188 C 
ATOM     20  O   UNL A   1      33.150  24.397  21.271  1.00  0.00    -0.377 OA
ATOM     21  C   UNL A   1      31.637  26.189  21.890  1.00  0.00     0.150 C 
ATOM     22  C   UNL A   1      32.816  25.765  21.024  1.00  0.00     0.182 C 
ENDBRANCH  13  15
ENDBRANCH   8  13
ENDBRANCH   6   7
ENDBRANCH   4   6
ENDBRANCH   3   4
ENDBRANCH   2   3
ENDBRANCH   1   2
BRANCH   1  23
ATOM     23  O   UNL A   1      34.059  33.342  30.096  1.00  0.00    -0.374 OA
BRANCH  23  24
ATOM     24  C   UNL A   1      34.267  34.352  31.076  1.00  0.00     0.202 C 
BRANCH  24  25
ATOM     25  C   UNL A   1      35.064  33.981  32.339  1.00  0.00     0.261 C 
BRANCH  25  26
ATOM     26  O   UNL A   1      35.055  32.590  32.689  1.00  0.00    -0.460 OA
BRANCH  26  27
ATOM     27  C   UNL A   1      36.201  32.184  33.288  1.00  0.00     0.338 C 
ATOM     28  O   UNL A   1      36.603  32.500  34.399  1.00  0.00    -0.246 OA
BRANCH  27  29
ATOM     29  C   UNL A   1      36.918  31.199  32.460  1.00  0.00     0.060 A 
ATOM     30  C   UNL A   1      37.974  30.503  33.061  1.00  0.00     0.016 A 
ATOM     31  C   UNL A   1      36.692  31.101  31.084  1.00  0.00     0.016 A 
ATOM     32  C   UNL A   1      38.869  29.784  32.273  1.00  0.00     0.010 A 
ATOM     33  C   UNL A   1      37.599  30.385  30.293  1.00  0.00     0.010 A 
ATOM     34  C   UNL A   1      38.727  29.782  30.879  1.00  0.00    -0.014 A 
BRANCH  34  35
ATOM     35  C   UNL A   1      39.895  29.380  30.055  1.00  0.00     0.031 A 
ATOM     36  C   UNL A   1      41.007  30.377  29.853  1.00  0.00     0.074 A 
ATOM     37  C   UNL A   1      40.015  28.132  29.570  1.00  0.00     0.049 A 
ATOM     38  N   UNL A   1      42.151  30.234  29.233  1.00  0.00    -0.248 NA
ATOM     39  C   UNL A   1      40.806  31.713  30.438  1.00  0.00     0.031 C 
ATOM     40  C   UNL A   1      39.033  27.063  29.728  1.00  0.00     0.029 A 
ATOM     41  N   UNL A   1      41.034  27.554  28.854  1.00  0.00    -0.354 N 
ATOM     42  C   UNL A   1      42.801  31.457  29.354  1.00  0.00     0.074 A 
ATOM     43  C   UNL A   1      41.915  32.340  30.078  1.00  0.00     0.031 C 
ATOM     44  C   UNL A   1      39.497  25.954  29.124  1.00  0.00     0.029 A 
ATOM     45  C   UNL A   1      40.801  26.241  28.528  1.00  0.00     0.049 A 
ATOM     46  H   UNL A   1      41.852  28.036  28.597  1.00  0.00     0.167 HD
ATOM     47  C   UNL A   1      44.032  31.812  28.915  1.00  0.00     0.037 A 
ATOM     48  C   UNL A   1      41.557  25.373  27.829  1.00  0.00     0.037 A 
ATOM     49  C   UNL A   1      44.923  30.941  28.197  1.00  0.00     0.049 A 
ATOM     50  C   UNL A   1      42.905  25.804  27.313  1.00  0.00     0.074 A 
ATOM     51  C   UNL A   1      46.187  31.213  27.706  1.00  0.00     0.029 A 
ATOM     52  N   UNL A   1      44.638  29.626  27.869  1.00  0.00    -0.354 N 
ATOM     53  N   UNL A   1      43.515  26.956  27.450  1.00  0.00    -0.248 NA
ATOM     54  C   UNL A   1      43.675  24.807  26.555  1.00  0.00     0.031 C 
ATOM     55  C   UNL A   1      46.658  30.067  27.052  1.00  0.00     0.029 A 
ATOM     56  C   UNL A   1      45.699  29.074  27.173  1.00  0.00     0.049 A 
ATOM     57  H   UNL A   1      43.806  29.153  28.097  1.00  0.00     0.167 HD
ATOM     58  C   UNL A   1      44.748  26.812  26.825  1.00  0.00     0.074 A 
ATOM     59  C   UNL A   1      44.804  25.458  26.316  1.00  0.00     0.031 C 
ATOM     60  C   UNL A   1      45.746  27.718  26.689  1.00  0.00     0.037 A 
BRANCH  47  61
ATOM     61  C   UNL A   1      44.479  33.216  29.191  1.00  0.00     0.057 A 
ATOM     62  C   UNL A   1      45.181  33.551  30.355  1.00  0.00     0.134 A 
ATOM     63  C   UNL A   1      44.219  34.241  28.273  1.00  0.00     0.134 A 
ATOM     64  F   UNL A   1      45.446  32.618  31.282  1.00  0.00    -0.206 F 
ATOM     65  C   UNL A   1      45.595  34.861  30.606  1.00  0.00     0.040 A 
ATOM     66  C   UNL A   1      44.646  35.549  28.502  1.00  0.00     0.040 A 
ATOM     67  F   UNL A   1      43.550  33.985  27.138  1.00  0.00    -0.206 F 
ATOM     68  C   UNL A   1      45.331  35.863  29.674  1.00  0.00     0.006 A 
ENDBRANCH  47  61
BRANCH  48  69
ATOM     69  C   UNL A   1      41.064  23.998  27.574  1.00  0.00     0.057 A 
ATOM     70  C   UNL A   1      41.595  22.897  28.254  1.00  0.00     0.134 A 
ATOM     71  C   UNL A   1      40.067  23.751  26.622  1.00  0.00     0.134 A 
ATOM     72  F   UNL A   1      42.569  23.068  29.160  1.00  0.00    -0.206 F 
ATOM     73  C   UNL A   1      41.167  21.596  27.985  1.00  0.00     0.040 A 
ATOM     74  C   UNL A   1      39.614  22.457  26.358  1.00  0.00     0.040 A 
ATOM     75  F   UNL A   1      39.521  24.765  25.936  1.00  0.00    -0.206 F 
ATOM     76  C   UNL A   1      40.170  21.374  27.036  1.00  0.00     0.006 A 
ENDBRANCH  48  69
BRANCH  60  77
ATOM     77  C   UNL A   1      47.000  27.263  26.003  1.00  0.00     0.057 A 
ATOM     78  C   UNL A   1      48.026  26.607  26.694  1.00  0.00     0.134 A 
ATOM     79  C   UNL A   1      47.166  27.456  24.625  1.00  0.00     0.134 A 
ATOM     80  F   UNL A   1      47.931  26.402  28.016  1.00  0.00    -0.206 F 
ATOM     81  C   UNL A   1      49.183  26.178  26.043  1.00  0.00     0.040 A 
ATOM     82  C   UNL A   1      48.309  27.012  23.959  1.00  0.00     0.040 A 
ATOM     83  F   UNL A   1      46.216  28.069  23.903  1.00  0.00    -0.206 F 
ATOM     84  C   UNL A   1      49.325  26.376  24.670  1.00  0.00     0.006 A 
ENDBRANCH  60  77
ENDBRANCH  34  35
ENDBRANCH  27  29
ENDBRANCH  26  27
ENDBRANCH  25  26
ENDBRANCH  24  25
ENDBRANCH  23  24
ENDBRANCH   1  23
TORSDOF 17
ENDMDL
MODEL 3
REMARK VINA RESULT:     -10.8      0.672      6.264
REMARK SMILES CC1(C)COCCN1C(=O)N1CCO[C@@H](CC(=O)OCCOCCOC(=O)c2ccc(-c3c4nc(c(-c5c(F)cccc5F)c5ccc([nH]5)c(-c5c(F)cccc5F)c5nc(c(-c6c(F)cccc6F)c6ccc3[nH]6)C=C5)C=C4)cc2)C1
REMARK SMILES IDX 21 1 20 2 19 3 17 4 18 5 16 6 15 7 11 8 12 9 82 10 13 11
REMARK SMILES IDX 14 12 9 13 10 14 8 15 1 16 2 17 3 18 4 19 5 20 7 21 6 22
REMARK SMILES IDX 22 23 23 24 24 25 25 26 26 27 27 28 28 29 29 30 81 31 30 32
REMARK SMILES IDX 80 33 31 34 32 35 33 36 74 37 34 38 79 39 73 40 75 41 35 42
REMARK SMILES IDX 78 43 72 44 71 45 36 47 62 48 45 49 61 50 46 51 49 52 60 53
REMARK SMILES IDX 76 54 47 55 48 56 59 58 77 59 50 60 37 61 38 62 43 63 39 64
REMARK SMILES IDX 40 65 42 66 44 67 41 68 63 69 64 70 69 71 65 72 66 73 68 74
REMARK SMILES IDX 70 75 67 76 51 77 52 78 57 79 53 80 54 81 56 82 58 83 55 84
REMARK H PARENT 75 46 49 57
REMARK Flexibility Score: inf
ROOT
ATOM      1  C   UNL A   1      40.393  20.078  25.970  1.00  0.00     0.202 C 
ENDROOT
BRANCH   1   2
ATOM      2  C   UNL A   1      39.688  21.396  26.270  1.00  0.00     0.261 C 
BRANCH   2   3
ATOM      3  O   UNL A   1      38.568  21.609  25.382  1.00  0.00    -0.463 OA
BRANCH   3   4
ATOM      4  C   UNL A   1      37.744  22.635  25.701  1.00  0.00     0.308 C 
ATOM      5  O   UNL A   1      38.085  23.627  26.337  1.00  0.00    -0.252 OA
BRANCH   4   6
ATOM      6  C   UNL A   1      36.319  22.438  25.263  1.00  0.00     0.156 C 
BRANCH   6   7
ATOM      7  C   UNL A   1      35.311  21.878  26.269  1.00  0.00     0.149 C 
ATOM      8  N   UNL A   1      33.180  23.155  25.857  1.00  0.00    -0.320 N 
ATOM      9  C   UNL A   1      32.620  21.966  25.218  1.00  0.00     0.150 C 
ATOM     10  C   UNL A   1      34.235  22.840  26.816  1.00  0.00     0.154 C 
ATOM     11  C   UNL A   1      33.703  21.033  24.683  1.00  0.00     0.182 C 
ATOM     12  O   UNL A   1      34.674  20.706  25.693  1.00  0.00    -0.374 OA
BRANCH   8  13
ATOM     13  C   UNL A   1      32.259  24.109  26.261  1.00  0.00     0.320 C 
ATOM     14  O   UNL A   1      31.609  23.958  27.296  1.00  0.00    -0.248 OA
BRANCH  13  15
ATOM     15  N   UNL A   1      32.172  25.269  25.492  1.00  0.00    -0.315 N 
ATOM     16  C   UNL A   1      29.748  25.831  25.521  1.00  0.00     0.037 C 
ATOM     17  C   UNL A   1      30.983  25.601  24.629  1.00  0.00     0.062 C 
ATOM     18  C   UNL A   1      30.614  24.525  23.607  1.00  0.00     0.037 C 
ATOM     19  C   UNL A   1      31.272  26.887  23.790  1.00  0.00     0.188 C 
ATOM     20  O   UNL A   1      31.753  27.975  24.581  1.00  0.00    -0.377 OA
ATOM     21  C   UNL A   1      32.808  26.432  26.126  1.00  0.00     0.150 C 
ATOM     22  C   UNL A   1      32.997  27.614  25.184  1.00  0.00     0.182 C 
ENDBRANCH  13  15
ENDBRANCH   8  13
ENDBRANCH   6   7
ENDBRANCH   4   6
ENDBRANCH   3   4
ENDBRANCH   2   3
ENDBRANCH   1   2
BRANCH   1  23
ATOM     23  O   UNL A   1      41.812  20.112  25.838  1.00  0.00    -0.374 OA
BRANCH  23  24
ATOM     24  C   UNL A   1      42.505  21.259  26.316  1.00  0.00     0.202 C 
BRANCH  24  25
ATOM     25  C   UNL A   1      43.443  21.995  25.343  1.00  0.00     0.261 C 
BRANCH  25  26
ATOM     26  O   UNL A   1      42.893  23.167  24.723  1.00  0.00    -0.460 OA
BRANCH  26  27
ATOM     27  C   UNL A   1      43.585  24.296  25.011  1.00  0.00     0.338 C 
ATOM     28  O   UNL A   1      44.718  24.580  24.645  1.00  0.00    -0.246 OA
BRANCH  27  29
ATOM     29  C   UNL A   1      42.763  25.245  25.782  1.00  0.00     0.060 A 
ATOM     30  C   UNL A   1      43.178  26.582  25.804  1.00  0.00     0.016 A 
ATOM     31  C   UNL A   1      41.733  24.806  26.617  1.00  0.00     0.016 A 
ATOM     32  C   UNL A   1      42.631  27.464  26.732  1.00  0.00     0.010 A 
ATOM     33  C   UNL A   1      41.190  25.692  27.556  1.00  0.00     0.010 A 
ATOM     34  C   UNL A   1      41.687  27.004  27.659  1.00  0.00    -0.014 A 
BRANCH  34  35
ATOM     35  C   UNL A   1      41.439  27.822  28.874  1.00  0.00     0.031 A 
ATOM     36  C   UNL A   1      40.253  28.752  28.882  1.00  0.00     0.074 A 
ATOM     37  C   UNL A   1      42.190  27.681  29.980  1.00  0.00     0.049 A 
ATOM     38  N   UNL A   1      39.798  29.513  29.845  1.00  0.00    -0.248 NA
ATOM     39  C   UNL A   1      39.470  28.829  27.637  1.00  0.00     0.031 C 
ATOM     40  C   UNL A   1      43.338  26.789  30.117  1.00  0.00     0.029 A 
ATOM     41  N   UNL A   1      42.081  28.286  31.207  1.00  0.00    -0.354 N 
ATOM     42  C   UNL A   1      38.680  30.153  29.324  1.00  0.00     0.074 A 
ATOM     43  C   UNL A   1      38.542  29.719  27.952  1.00  0.00     0.031 C 
ATOM     44  C   UNL A   1      43.831  26.905  31.363  1.00  0.00     0.029 A 
ATOM     45  C   UNL A   1      43.041  27.887  32.104  1.00  0.00     0.049 A 
ATOM     46  H   UNL A   1      41.383  28.945  31.423  1.00  0.00     0.167 HD
ATOM     47  C   UNL A   1      37.832  31.015  29.934  1.00  0.00     0.037 A 
ATOM     48  C   UNL A   1      43.254  28.273  33.377  1.00  0.00     0.037 A 
ATOM     49  C   UNL A   1      37.958  31.451  31.299  1.00  0.00     0.049 A 
ATOM     50  C   UNL A   1      42.324  29.267  34.021  1.00  0.00     0.074 A 
ATOM     51  C   UNL A   1      37.153  32.328  32.003  1.00  0.00     0.029 A 
ATOM     52  N   UNL A   1      38.958  31.040  32.164  1.00  0.00    -0.354 N 
ATOM     53  N   UNL A   1      41.261  29.850  33.523  1.00  0.00    -0.248 NA
ATOM     54  C   UNL A   1      42.617  29.645  35.411  1.00  0.00     0.031 C 
ATOM     55  C   UNL A   1      37.683  32.470  33.291  1.00  0.00     0.029 A 
ATOM     56  C   UNL A   1      38.796  31.651  33.396  1.00  0.00     0.049 A 
ATOM     57  H   UNL A   1      39.676  30.406  31.939  1.00  0.00     0.167 HD
ATOM     58  C   UNL A   1      40.743  30.637  34.546  1.00  0.00     0.074 A 
ATOM     59  C   UNL A   1      41.603  30.450  35.695  1.00  0.00     0.031 C 
ATOM     60  C   UNL A   1      39.651  31.440  34.535  1.00  0.00     0.037 A 
BRANCH  47  61
ATOM     61  C   UNL A   1      36.698  31.557  29.116  1.00  0.00     0.057 A 
ATOM     62  C   UNL A   1      35.582  30.775  28.797  1.00  0.00     0.134 A 
ATOM     63  C   UNL A   1      36.716  32.880  28.658  1.00  0.00     0.134 A 
ATOM     64  F   UNL A   1      35.513  29.494  29.191  1.00  0.00    -0.206 F 
ATOM     65  C   UNL A   1      34.529  31.284  28.035  1.00  0.00     0.040 A 
ATOM     66  C   UNL A   1      35.661  33.407  27.914  1.00  0.00     0.040 A 
ATOM     67  F   UNL A   1      37.758  33.681  28.930  1.00  0.00    -0.206 F 
ATOM     68  C   UNL A   1      34.565  32.607  27.596  1.00  0.00     0.006 A 
ENDBRANCH  47  61
BRANCH  48  69
ATOM     69  C   UNL A   1      44.397  27.715  34.139  1.00  0.00     0.057 A 
ATOM     70  C   UNL A   1      44.245  26.595  34.963  1.00  0.00     0.134 A 
ATOM     71  C   UNL A   1      45.664  28.309  34.082  1.00  0.00     0.134 A 
ATOM     72  F   UNL A   1      43.050  25.998  35.077  1.00  0.00    -0.206 F 
ATOM     73  C   UNL A   1      45.307  26.095  35.719  1.00  0.00     0.040 A 
ATOM     74  C   UNL A   1      46.740  27.807  34.816  1.00  0.00     0.040 A 
ATOM     75  F   UNL A   1      45.872  29.387  33.313  1.00  0.00    -0.206 F 
ATOM     76  C   UNL A   1      46.560  26.700  35.643  1.00  0.00     0.006 A 
ENDBRANCH  48  69
BRANCH  60  77
ATOM     77  C   UNL A   1      39.298  32.139  35.814  1.00  0.00     0.057 A 
ATOM     78  C   UNL A   1      38.399  31.589  36.735  1.00  0.00     0.134 A 
ATOM     79  C   UNL A   1      39.893  33.364  36.142  1.00  0.00     0.134 A 
ATOM     80  F   UNL A   1      37.787  30.423  36.474  1.00  0.00    -0.206 F 
ATOM     81  C   UNL A   1      38.086  32.243  37.927  1.00  0.00     0.040 A 
ATOM     82  C   UNL A   1      39.606  34.017  37.341  1.00  0.00     0.040 A 
ATOM     83  F   UNL A   1      40.772  33.940  35.307  1.00  0.00    -0.206 F 
ATOM     84  C   UNL A   1      38.695  33.459  38.235  1.00  0.00     0.006 A 
ENDBRANCH  60  77
ENDBRANCH  34  35
ENDBRANCH  27  29
ENDBRANCH  26  27
ENDBRANCH  25  26
ENDBRANCH  24  25
ENDBRANCH  23  24
ENDBRANCH   1  23
TORSDOF 17
ENDMDL
