MODEL 1
REMARK VINA RESULT:      -8.7      0.000      0.000
REMARK SMILES Cc1nc2cc(SCC(=O)OCCOCCOC(=O)c3ccc(-c4c5nc(c(-c6c(F)cccc6F)c6ccc([nH]6)c(-c6c(F)cccc6F)c6nc(c(-c7c(F)cccc7F)c7ccc4[nH]7)C=C6)C=C5)cc3)ccc2s1
REMARK SMILES IDX 14 1 13 2 12 3 11 4 9 5 10 6 8 7 7 8 6 9 1 10 2 11 3 12
REMARK SMILES IDX 77 13 4 14 76 15 5 16 75 17 74 18 15 19 16 20 17 21 18 22
REMARK SMILES IDX 19 23 20 24 21 25 73 26 22 27 72 28 23 29 24 30 25 31 66 32
REMARK SMILES IDX 26 33 71 34 65 35 67 36 27 37 70 38 64 39 63 40 28 42 54 43
REMARK SMILES IDX 37 44 53 45 38 46 41 47 52 48 68 49 39 50 40 51 51 53 69 54
REMARK SMILES IDX 42 55 29 56 30 57 35 58 31 59 32 60 34 61 36 62 33 63 55 64
REMARK SMILES IDX 56 65 61 66 57 67 58 68 60 69 62 70 59 71 43 72 44 73 49 74
REMARK SMILES IDX 45 75 46 76 48 77 50 78 47 79
REMARK H PARENT 67 41 41 52
REMARK Flexibility Score: inf
ROOT
ATOM      1  O   UNL A   1      35.088  36.019  33.069  1.00  0.00    -0.374 OA
ENDROOT
BRANCH   1   2
ATOM      2  C   UNL A   1      35.166  34.858  33.897  1.00  0.00     0.202 C 
BRANCH   2   3
ATOM      3  C   UNL A   1      36.572  34.396  34.298  1.00  0.00     0.261 C 
BRANCH   3   4
ATOM      4  O   UNL A   1      36.611  33.043  34.796  1.00  0.00    -0.463 OA
BRANCH   4   5
ATOM      5  C   UNL A   1      37.097  32.879  36.057  1.00  0.00     0.316 C 
ATOM      6  O   UNL A   1      36.683  33.492  37.039  1.00  0.00    -0.251 OA
BRANCH   5   7
ATOM      7  C   UNL A   1      38.260  31.918  36.182  1.00  0.00     0.197 C 
BRANCH   7   8
ATOM      8  S   UNL A   1      38.786  31.066  34.664  1.00  0.00    -0.114 SA
BRANCH   8   9
ATOM      9  C   UNL A   1      40.344  30.269  35.043  1.00  0.00     0.010 A 
ATOM     10  C   UNL A   1      45.402  30.603  38.429  1.00  0.00     0.079 C 
ATOM     11  C   UNL A   1      44.284  30.255  37.509  1.00  0.00     0.091 A 
ATOM     12  N   UNL A   1      43.119  30.864  37.503  1.00  0.00    -0.241 NA
ATOM     13  S   UNL A   1      44.477  29.010  36.342  1.00  0.00    -0.119 S 
ATOM     14  C   UNL A   1      42.325  30.355  36.489  1.00  0.00     0.083 A 
ATOM     15  C   UNL A   1      42.892  29.322  35.745  1.00  0.00     0.055 A 
ATOM     16  C   UNL A   1      41.038  30.812  36.141  1.00  0.00     0.045 A 
ATOM     17  C   UNL A   1      42.201  28.719  34.683  1.00  0.00     0.022 A 
ATOM     18  C   UNL A   1      40.927  29.210  34.345  1.00  0.00     0.016 A 
ENDBRANCH   8   9
ENDBRANCH   7   8
ENDBRANCH   5   7
ENDBRANCH   4   5
ENDBRANCH   3   4
ENDBRANCH   2   3
ENDBRANCH   1   2
BRANCH   1  19
ATOM     19  C   UNL A   1      33.796  36.588  32.869  1.00  0.00     0.202 C 
BRANCH  19  20
ATOM     20  C   UNL A   1      33.253  36.537  31.439  1.00  0.00     0.261 C 
BRANCH  20  21
ATOM     21  O   UNL A   1      32.923  35.201  31.035  1.00  0.00    -0.460 OA
BRANCH  21  22
ATOM     22  C   UNL A   1      33.200  34.939  29.741  1.00  0.00     0.338 C 
ATOM     23  O   UNL A   1      32.686  35.442  28.748  1.00  0.00    -0.246 OA
BRANCH  22  24
ATOM     24  C   UNL A   1      34.370  34.058  29.643  1.00  0.00     0.060 A 
ATOM     25  C   UNL A   1      34.594  33.179  30.708  1.00  0.00     0.016 A 
ATOM     26  C   UNL A   1      35.291  34.175  28.600  1.00  0.00     0.016 A 
ATOM     27  C   UNL A   1      35.784  32.464  30.772  1.00  0.00     0.010 A 
ATOM     28  C   UNL A   1      36.489  33.457  28.669  1.00  0.00     0.010 A 
ATOM     29  C   UNL A   1      36.758  32.637  29.779  1.00  0.00    -0.014 A 
BRANCH  29  30
ATOM     30  C   UNL A   1      38.107  32.072  30.010  1.00  0.00     0.031 A 
ATOM     31  C   UNL A   1      39.057  32.802  30.920  1.00  0.00     0.074 A 
ATOM     32  C   UNL A   1      38.441  30.881  29.486  1.00  0.00     0.049 A 
ATOM     33  N   UNL A   1      40.242  32.443  31.341  1.00  0.00    -0.248 NA
ATOM     34  C   UNL A   1      38.608  34.109  31.426  1.00  0.00     0.031 C 
ATOM     35  C   UNL A   1      37.589  30.077  28.611  1.00  0.00     0.029 A 
ATOM     36  N   UNL A   1      39.583  30.135  29.627  1.00  0.00    -0.354 N 
ATOM     37  C   UNL A   1      40.675  33.472  32.167  1.00  0.00     0.074 A 
ATOM     38  C   UNL A   1      39.645  34.488  32.158  1.00  0.00     0.031 C 
ATOM     39  C   UNL A   1      38.236  28.941  28.299  1.00  0.00     0.029 A 
ATOM     40  C   UNL A   1      39.550  28.948  28.939  1.00  0.00     0.049 A 
ATOM     41  H   UNL A   1      40.352  30.423  30.169  1.00  0.00     0.167 HD
ATOM     42  C   UNL A   1      41.823  33.556  32.882  1.00  0.00     0.037 A 
ATOM     43  C   UNL A   1      40.477  27.977  28.841  1.00  0.00     0.037 A 
ATOM     44  C   UNL A   1      42.846  32.545  32.884  1.00  0.00     0.049 A 
ATOM     45  C   UNL A   1      41.765  28.116  29.607  1.00  0.00     0.074 A 
ATOM     46  C   UNL A   1      44.040  32.523  33.583  1.00  0.00     0.029 A 
ATOM     47  N   UNL A   1      42.795  31.375  32.141  1.00  0.00    -0.354 N 
ATOM     48  N   UNL A   1      42.148  29.074  30.415  1.00  0.00    -0.248 NA
ATOM     49  C   UNL A   1      42.746  27.033  29.452  1.00  0.00     0.031 C 
ATOM     50  C   UNL A   1      44.731  31.358  33.229  1.00  0.00     0.029 A 
ATOM     51  C   UNL A   1      43.947  30.635  32.344  1.00  0.00     0.049 A 
ATOM     52  H   UNL A   1      42.049  31.110  31.555  1.00  0.00     0.167 HD
ATOM     53  C   UNL A   1      43.402  28.704  30.879  1.00  0.00     0.074 A 
ATOM     54  C   UNL A   1      43.708  27.423  30.277  1.00  0.00     0.031 C 
ATOM     55  C   UNL A   1      44.230  29.363  31.727  1.00  0.00     0.037 A 
BRANCH  42  56
ATOM     56  C   UNL A   1      42.034  34.794  33.703  1.00  0.00     0.057 A 
ATOM     57  C   UNL A   1      42.756  35.890  33.212  1.00  0.00     0.134 A 
ATOM     58  C   UNL A   1      41.496  34.899  34.991  1.00  0.00     0.134 A 
ATOM     59  F   UNL A   1      43.311  35.848  31.992  1.00  0.00    -0.206 F 
ATOM     60  C   UNL A   1      42.956  37.037  33.985  1.00  0.00     0.040 A 
ATOM     61  C   UNL A   1      41.670  36.049  35.763  1.00  0.00     0.040 A 
ATOM     62  F   UNL A   1      40.792  33.886  35.519  1.00  0.00    -0.206 F 
ATOM     63  C   UNL A   1      42.407  37.120  35.262  1.00  0.00     0.006 A 
ENDBRANCH  42  56
BRANCH  43  64
ATOM     64  C   UNL A   1      40.218  26.787  27.994  1.00  0.00     0.057 A 
ATOM     65  C   UNL A   1      39.412  25.735  28.441  1.00  0.00     0.134 A 
ATOM     66  C   UNL A   1      40.778  26.673  26.715  1.00  0.00     0.134 A 
ATOM     67  F   UNL A   1      38.865  25.778  29.665  1.00  0.00    -0.206 F 
ATOM     68  C   UNL A   1      39.181  24.606  27.653  1.00  0.00     0.040 A 
ATOM     69  C   UNL A   1      40.537  25.560  25.908  1.00  0.00     0.040 A 
ATOM     70  F   UNL A   1      41.558  27.649  26.228  1.00  0.00    -0.206 F 
ATOM     71  C   UNL A   1      39.741  24.519  26.380  1.00  0.00     0.006 A 
ENDBRANCH  43  64
BRANCH  55  72
ATOM     72  C   UNL A   1      45.535  28.701  32.057  1.00  0.00     0.057 A 
ATOM     73  C   UNL A   1      45.604  27.622  32.947  1.00  0.00     0.134 A 
ATOM     74  C   UNL A   1      46.726  29.127  31.458  1.00  0.00     0.134 A 
ATOM     75  F   UNL A   1      44.500  27.176  33.564  1.00  0.00    -0.206 F 
ATOM     76  C   UNL A   1      46.819  27.004  33.249  1.00  0.00     0.040 A 
ATOM     77  C   UNL A   1      47.943  28.502  31.732  1.00  0.00     0.040 A 
ATOM     78  F   UNL A   1      46.725  30.149  30.590  1.00  0.00    -0.206 F 
ATOM     79  C   UNL A   1      47.992  27.441  32.636  1.00  0.00     0.006 A 
ENDBRANCH  55  72
ENDBRANCH  29  30
ENDBRANCH  22  24
ENDBRANCH  21  22
ENDBRANCH  20  21
ENDBRANCH  19  20
ENDBRANCH   1  19
TORSDOF 16
ENDMDL
MODEL 2
REMARK VINA RESULT:      -8.7      5.635     11.323
REMARK SMILES Cc1nc2cc(SCC(=O)OCCOCCOC(=O)c3ccc(-c4c5nc(c(-c6c(F)cccc6F)c6ccc([nH]6)c(-c6c(F)cccc6F)c6nc(c(-c7c(F)cccc7F)c7ccc4[nH]7)C=C6)C=C5)cc3)ccc2s1
REMARK SMILES IDX 14 1 13 2 12 3 11 4 9 5 10 6 8 7 7 8 6 9 1 10 2 11 3 12
REMARK SMILES IDX 77 13 4 14 76 15 5 16 75 17 74 18 15 19 16 20 17 21 18 22
REMARK SMILES IDX 19 23 20 24 21 25 73 26 22 27 72 28 23 29 24 30 25 31 66 32
REMARK SMILES IDX 26 33 71 34 65 35 67 36 27 37 70 38 64 39 63 40 28 42 54 43
REMARK SMILES IDX 37 44 53 45 38 46 41 47 52 48 68 49 39 50 40 51 51 53 69 54
REMARK SMILES IDX 42 55 29 56 30 57 35 58 31 59 32 60 34 61 36 62 33 63 55 64
REMARK SMILES IDX 56 65 61 66 57 67 58 68 60 69 62 70 59 71 43 72 44 73 49 74
REMARK SMILES IDX 45 75 46 76 48 77 50 78 47 79
REMARK H PARENT 67 41 41 52
REMARK Flexibility Score: inf
ROOT
ATOM      1  O   UNL A   1      43.402  20.689  24.979  1.00  0.00    -0.374 OA
ENDROOT
BRANCH   1   2
ATOM      2  C   UNL A   1      42.629  19.697  25.658  1.00  0.00     0.202 C 
BRANCH   2   3
ATOM      3  C   UNL A   1      42.225  20.015  27.103  1.00  0.00     0.261 C 
BRANCH   3   4
ATOM      4  O   UNL A   1      40.809  20.231  27.268  1.00  0.00    -0.463 OA
BRANCH   4   5
ATOM      5  C   UNL A   1      40.387  21.524  27.215  1.00  0.00     0.316 C 
ATOM      6  O   UNL A   1      40.766  22.404  27.985  1.00  0.00    -0.251 OA
BRANCH   5   7
ATOM      7  C   UNL A   1      39.340  21.819  26.162  1.00  0.00     0.197 C 
BRANCH   7   8
ATOM      8  S   UNL A   1      38.450  23.398  26.310  1.00  0.00    -0.114 SA
BRANCH   8   9
ATOM      9  C   UNL A   1      36.808  23.119  25.652  1.00  0.00     0.010 A 
ATOM     10  C   UNL A   1      32.699  18.861  24.185  1.00  0.00     0.079 C 
ATOM     11  C   UNL A   1      33.481  20.098  24.467  1.00  0.00     0.091 A 
ATOM     12  N   UNL A   1      34.611  20.116  25.138  1.00  0.00    -0.241 NA
ATOM     13  S   UNL A   1      32.939  21.618  23.881  1.00  0.00    -0.119 S 
ATOM     14  C   UNL A   1      35.122  21.403  25.168  1.00  0.00     0.083 A 
ATOM     15  C   UNL A   1      34.341  22.372  24.539  1.00  0.00     0.055 A 
ATOM     16  C   UNL A   1      36.350  21.791  25.740  1.00  0.00     0.045 A 
ATOM     17  C   UNL A   1      34.742  23.716  24.488  1.00  0.00     0.022 A 
ATOM     18  C   UNL A   1      35.983  24.069  25.050  1.00  0.00     0.016 A 
ENDBRANCH   8   9
ENDBRANCH   7   8
ENDBRANCH   5   7
ENDBRANCH   4   5
ENDBRANCH   3   4
ENDBRANCH   2   3
ENDBRANCH   1   2
BRANCH   1  19
ATOM     19  C   UNL A   1      44.727  20.916  25.453  1.00  0.00     0.202 C 
BRANCH  19  20
ATOM     20  C   UNL A   1      45.251  22.348  25.326  1.00  0.00     0.261 C 
BRANCH  20  21
ATOM     21  O   UNL A   1      44.187  23.309  25.275  1.00  0.00    -0.460 OA
BRANCH  21  22
ATOM     22  C   UNL A   1      44.609  24.590  25.298  1.00  0.00     0.338 C 
ATOM     23  O   UNL A   1      45.511  25.093  24.636  1.00  0.00    -0.246 OA
BRANCH  22  24
ATOM     24  C   UNL A   1      43.710  25.405  26.123  1.00  0.00     0.060 A 
ATOM     25  C   UNL A   1      44.132  26.703  26.431  1.00  0.00     0.016 A 
ATOM     26  C   UNL A   1      42.547  24.874  26.684  1.00  0.00     0.016 A 
ATOM     27  C   UNL A   1      43.427  27.452  27.366  1.00  0.00     0.010 A 
ATOM     28  C   UNL A   1      41.841  25.629  27.625  1.00  0.00     0.010 A 
ATOM     29  C   UNL A   1      42.307  26.900  28.003  1.00  0.00    -0.014 A 
BRANCH  29  30
ATOM     30  C   UNL A   1      41.742  27.612  29.172  1.00  0.00     0.031 A 
ATOM     31  C   UNL A   1      42.442  27.507  30.499  1.00  0.00     0.074 A 
ATOM     32  C   UNL A   1      40.672  28.412  29.025  1.00  0.00     0.049 A 
ATOM     33  N   UNL A   1      42.182  28.121  31.624  1.00  0.00    -0.248 NA
ATOM     34  C   UNL A   1      43.590  26.588  30.564  1.00  0.00     0.031 C 
ATOM     35  C   UNL A   1      39.932  28.608  27.779  1.00  0.00     0.029 A 
ATOM     36  N   UNL A   1      40.032  29.219  29.930  1.00  0.00    -0.354 N 
ATOM     37  C   UNL A   1      43.139  27.672  32.527  1.00  0.00     0.074 A 
ATOM     38  C   UNL A   1      43.960  26.706  31.831  1.00  0.00     0.031 C 
ATOM     39  C   UNL A   1      38.940  29.489  27.997  1.00  0.00     0.029 A 
ATOM     40  C   UNL A   1      38.969  29.905  29.398  1.00  0.00     0.049 A 
ATOM     41  H   UNL A   1      40.309  29.299  30.871  1.00  0.00     0.167 HD
ATOM     42  C   UNL A   1      43.325  28.045  33.815  1.00  0.00     0.037 A 
ATOM     43  C   UNL A   1      38.119  30.771  29.978  1.00  0.00     0.037 A 
ATOM     44  C   UNL A   1      42.503  29.004  34.503  1.00  0.00     0.049 A 
ATOM     45  C   UNL A   1      38.317  31.133  31.425  1.00  0.00     0.074 A 
ATOM     46  C   UNL A   1      42.613  29.464  35.804  1.00  0.00     0.029 A 
ATOM     47  N   UNL A   1      41.408  29.646  33.943  1.00  0.00    -0.354 N 
ATOM     48  N   UNL A   1      39.248  30.733  32.258  1.00  0.00    -0.248 NA
ATOM     49  C   UNL A   1      37.351  32.073  32.011  1.00  0.00     0.031 C 
ATOM     50  C   UNL A   1      41.559  30.353  36.042  1.00  0.00     0.029 A 
ATOM     51  C   UNL A   1      40.819  30.479  34.877  1.00  0.00     0.049 A 
ATOM     52  H   UNL A   1      41.097  29.526  33.016  1.00  0.00     0.167 HD
ATOM     53  C   UNL A   1      38.993  31.383  33.457  1.00  0.00     0.074 A 
ATOM     54  C   UNL A   1      37.831  32.220  33.238  1.00  0.00     0.031 C 
ATOM     55  C   UNL A   1      39.657  31.298  34.636  1.00  0.00     0.037 A 
BRANCH  42  56
ATOM     56  C   UNL A   1      44.451  27.396  34.564  1.00  0.00     0.057 A 
ATOM     57  C   UNL A   1      45.726  27.976  34.628  1.00  0.00     0.134 A 
ATOM     58  C   UNL A   1      44.258  26.186  35.241  1.00  0.00     0.134 A 
ATOM     59  F   UNL A   1      45.982  29.127  33.988  1.00  0.00    -0.206 F 
ATOM     60  C   UNL A   1      46.773  27.363  35.320  1.00  0.00     0.040 A 
ATOM     61  C   UNL A   1      45.291  25.576  35.955  1.00  0.00     0.040 A 
ATOM     62  F   UNL A   1      43.062  25.579  35.222  1.00  0.00    -0.206 F 
ATOM     63  C   UNL A   1      46.555  26.161  35.991  1.00  0.00     0.006 A 
ENDBRANCH  42  56
BRANCH  43  64
ATOM     64  C   UNL A   1      37.009  31.362  29.190  1.00  0.00     0.057 A 
ATOM     65  C   UNL A   1      35.871  30.619  28.861  1.00  0.00     0.134 A 
ATOM     66  C   UNL A   1      37.067  32.688  28.741  1.00  0.00     0.134 A 
ATOM     67  F   UNL A   1      35.768  29.338  29.246  1.00  0.00    -0.206 F 
ATOM     68  C   UNL A   1      34.834  31.167  28.105  1.00  0.00     0.040 A 
ATOM     69  C   UNL A   1      36.027  33.255  28.003  1.00  0.00     0.040 A 
ATOM     70  F   UNL A   1      38.131  33.453  29.024  1.00  0.00    -0.206 F 
ATOM     71  C   UNL A   1      34.909  32.491  27.677  1.00  0.00     0.006 A 
ENDBRANCH  43  64
BRANCH  55  72
ATOM     72  C   UNL A   1      39.147  32.140  35.767  1.00  0.00     0.057 A 
ATOM     73  C   UNL A   1      39.549  33.471  35.930  1.00  0.00     0.134 A 
ATOM     74  C   UNL A   1      38.226  31.623  36.685  1.00  0.00     0.134 A 
ATOM     75  F   UNL A   1      40.440  34.021  35.091  1.00  0.00    -0.206 F 
ATOM     76  C   UNL A   1      39.068  34.254  36.981  1.00  0.00     0.040 A 
ATOM     77  C   UNL A   1      37.719  32.401  37.726  1.00  0.00     0.040 A 
ATOM     78  F   UNL A   1      37.795  30.357  36.579  1.00  0.00    -0.206 F 
ATOM     79  C   UNL A   1      38.146  33.720  37.880  1.00  0.00     0.006 A 
ENDBRANCH  55  72
ENDBRANCH  29  30
ENDBRANCH  22  24
ENDBRANCH  21  22
ENDBRANCH  20  21
ENDBRANCH  19  20
ENDBRANCH   1  19
TORSDOF 16
ENDMDL
MODEL 3
REMARK VINA RESULT:      -8.7      5.119     10.289
REMARK SMILES Cc1nc2cc(SCC(=O)OCCOCCOC(=O)c3ccc(-c4c5nc(c(-c6c(F)cccc6F)c6ccc([nH]6)c(-c6c(F)cccc6F)c6nc(c(-c7c(F)cccc7F)c7ccc4[nH]7)C=C6)C=C5)cc3)ccc2s1
REMARK SMILES IDX 14 1 13 2 12 3 11 4 9 5 10 6 8 7 7 8 6 9 1 10 2 11 3 12
REMARK SMILES IDX 77 13 4 14 76 15 5 16 75 17 74 18 15 19 16 20 17 21 18 22
REMARK SMILES IDX 19 23 20 24 21 25 73 26 22 27 72 28 23 29 24 30 25 31 66 32
REMARK SMILES IDX 26 33 71 34 65 35 67 36 27 37 70 38 64 39 63 40 28 42 54 43
REMARK SMILES IDX 37 44 53 45 38 46 41 47 52 48 68 49 39 50 40 51 51 53 69 54
REMARK SMILES IDX 42 55 29 56 30 57 35 58 31 59 32 60 34 61 36 62 33 63 55 64
REMARK SMILES IDX 56 65 61 66 57 67 58 68 60 69 62 70 59 71 43 72 44 73 49 74
REMARK SMILES IDX 45 75 46 76 48 77 50 78 47 79
REMARK H PARENT 67 41 41 52
REMARK Flexibility Score: inf
ROOT
ATOM      1  O   UNL A   1      31.721  30.689  26.889  1.00  0.00    -0.374 OA
ENDROOT
BRANCH   1   2
ATOM      2  C   UNL A   1      32.789  30.042  26.195  1.00  0.00     0.202 C 
BRANCH   2   3
ATOM      3  C   UNL A   1      32.471  28.679  25.568  1.00  0.00     0.261 C 
BRANCH   3   4
ATOM      4  O   UNL A   1      33.504  28.200  24.683  1.00  0.00    -0.463 OA
BRANCH   4   5
ATOM      5  C   UNL A   1      33.749  26.861  24.711  1.00  0.00     0.316 C 
ATOM      6  O   UNL A   1      34.146  26.256  25.705  1.00  0.00    -0.251 OA
BRANCH   5   7
ATOM      7  C   UNL A   1      33.563  26.141  23.392  1.00  0.00     0.197 C 
BRANCH   7   8
ATOM      8  S   UNL A   1      32.102  25.069  23.243  1.00  0.00    -0.114 SA
BRANCH   8   9
ATOM      9  C   UNL A   1      30.679  26.156  23.192  1.00  0.00     0.010 A 
ATOM     10  C   UNL A   1      28.687  31.660  21.489  1.00  0.00     0.079 C 
ATOM     11  C   UNL A   1      28.881  30.267  21.981  1.00  0.00     0.091 A 
ATOM     12  N   UNL A   1      29.961  29.553  21.759  1.00  0.00    -0.241 NA
ATOM     13  S   UNL A   1      27.667  29.504  22.925  1.00  0.00    -0.119 S 
ATOM     14  C   UNL A   1      29.862  28.332  22.404  1.00  0.00     0.083 A 
ATOM     15  C   UNL A   1      28.669  28.113  23.092  1.00  0.00     0.055 A 
ATOM     16  C   UNL A   1      30.858  27.335  22.445  1.00  0.00     0.045 A 
ATOM     17  C   UNL A   1      28.436  26.922  23.796  1.00  0.00     0.022 A 
ATOM     18  C   UNL A   1      29.457  25.954  23.835  1.00  0.00     0.016 A 
ENDBRANCH   8   9
ENDBRANCH   7   8
ENDBRANCH   5   7
ENDBRANCH   4   5
ENDBRANCH   3   4
ENDBRANCH   2   3
ENDBRANCH   1   2
BRANCH   1  19
ATOM     19  C   UNL A   1      31.146  31.837  26.269  1.00  0.00     0.202 C 
BRANCH  19  20
ATOM     20  C   UNL A   1      31.818  33.177  26.579  1.00  0.00     0.261 C 
BRANCH  20  21
ATOM     21  O   UNL A   1      32.066  33.344  27.983  1.00  0.00    -0.460 OA
BRANCH  21  22
ATOM     22  C   UNL A   1      33.049  34.225  28.261  1.00  0.00     0.338 C 
ATOM     23  O   UNL A   1      32.951  35.440  28.391  1.00  0.00    -0.246 OA
BRANCH  22  24
ATOM     24  C   UNL A   1      34.292  33.512  28.577  1.00  0.00     0.060 A 
ATOM     25  C   UNL A   1      34.185  32.147  28.864  1.00  0.00     0.016 A 
ATOM     26  C   UNL A   1      35.509  34.183  28.714  1.00  0.00     0.016 A 
ATOM     27  C   UNL A   1      35.285  31.460  29.363  1.00  0.00     0.010 A 
ATOM     28  C   UNL A   1      36.614  33.491  29.218  1.00  0.00     0.010 A 
ATOM     29  C   UNL A   1      36.490  32.140  29.588  1.00  0.00    -0.014 A 
BRANCH  29  30
ATOM     30  C   UNL A   1      37.552  31.453  30.359  1.00  0.00     0.031 A 
ATOM     31  C   UNL A   1      38.449  30.475  29.652  1.00  0.00     0.074 A 
ATOM     32  C   UNL A   1      37.766  31.770  31.648  1.00  0.00     0.049 A 
ATOM     33  N   UNL A   1      39.499  29.838  30.103  1.00  0.00    -0.248 NA
ATOM     34  C   UNL A   1      38.121  30.178  28.249  1.00  0.00     0.031 C 
ATOM     35  C   UNL A   1      36.972  32.722  32.424  1.00  0.00     0.029 A 
ATOM     36  N   UNL A   1      38.724  31.332  32.525  1.00  0.00    -0.354 N 
ATOM     37  C   UNL A   1      39.962  29.075  29.038  1.00  0.00     0.074 A 
ATOM     38  C   UNL A   1      39.057  29.296  27.931  1.00  0.00     0.031 C 
ATOM     39  C   UNL A   1      37.484  32.804  33.664  1.00  0.00     0.029 A 
ATOM     40  C   UNL A   1      38.627  31.900  33.771  1.00  0.00     0.049 A 
ATOM     41  H   UNL A   1      39.415  30.673  32.285  1.00  0.00     0.167 HD
ATOM     42  C   UNL A   1      41.052  28.273  28.983  1.00  0.00     0.037 A 
ATOM     43  C   UNL A   1      39.380  31.711  34.870  1.00  0.00     0.037 A 
ATOM     44  C   UNL A   1      41.946  28.053  30.089  1.00  0.00     0.049 A 
ATOM     45  C   UNL A   1      40.558  30.778  34.798  1.00  0.00     0.074 A 
ATOM     46  C   UNL A   1      43.088  27.272  30.137  1.00  0.00     0.029 A 
ATOM     47  N   UNL A   1      41.791  28.614  31.348  1.00  0.00    -0.354 N 
ATOM     48  N   UNL A   1      41.009  30.092  33.776  1.00  0.00    -0.248 NA
ATOM     49  C   UNL A   1      41.337  30.599  36.032  1.00  0.00     0.031 C 
ATOM     50  C   UNL A   1      43.599  27.329  31.438  1.00  0.00     0.029 A 
ATOM     51  C   UNL A   1      42.801  28.178  32.188  1.00  0.00     0.049 A 
ATOM     52  H   UNL A   1      41.068  29.231  31.606  1.00  0.00     0.167 HD
ATOM     53  C   UNL A   1      42.131  29.416  34.234  1.00  0.00     0.074 A 
ATOM     54  C   UNL A   1      42.304  29.790  35.623  1.00  0.00     0.031 C 
ATOM     55  C   UNL A   1      42.947  28.561  33.570  1.00  0.00     0.037 A 
BRANCH  42  56
ATOM     56  C   UNL A   1      41.321  27.564  27.690  1.00  0.00     0.057 A 
ATOM     57  C   UNL A   1      42.109  28.138  26.683  1.00  0.00     0.134 A 
ATOM     58  C   UNL A   1      40.800  26.286  27.452  1.00  0.00     0.134 A 
ATOM     59  F   UNL A   1      42.626  29.365  26.841  1.00  0.00    -0.206 F 
ATOM     60  C   UNL A   1      42.350  27.475  25.477  1.00  0.00     0.040 A 
ATOM     61  C   UNL A   1      41.052  25.605  26.260  1.00  0.00     0.040 A 
ATOM     62  F   UNL A   1      40.039  25.679  28.375  1.00  0.00    -0.206 F 
ATOM     63  C   UNL A   1      41.824  26.202  25.265  1.00  0.00     0.006 A 
ENDBRANCH  42  56
BRANCH  43  64
ATOM     64  C   UNL A   1      39.049  32.425  36.127  1.00  0.00     0.057 A 
ATOM     65  C   UNL A   1      39.559  33.699  36.399  1.00  0.00     0.134 A 
ATOM     66  C   UNL A   1      38.215  31.845  37.092  1.00  0.00     0.134 A 
ATOM     67  F   UNL A   1      40.380  34.298  35.522  1.00  0.00    -0.206 F 
ATOM     68  C   UNL A   1      39.264  34.366  37.589  1.00  0.00     0.040 A 
ATOM     69  C   UNL A   1      37.893  32.510  38.276  1.00  0.00     0.040 A 
ATOM     70  F   UNL A   1      37.693  30.626  36.890  1.00  0.00    -0.206 F 
ATOM     71  C   UNL A   1      38.424  33.773  38.529  1.00  0.00     0.006 A 
ENDBRANCH  43  64
BRANCH  55  72
ATOM     72  C   UNL A   1      44.102  27.987  34.336  1.00  0.00     0.057 A 
ATOM     73  C   UNL A   1      44.003  26.759  35.002  1.00  0.00     0.134 A 
ATOM     74  C   UNL A   1      45.331  28.655  34.384  1.00  0.00     0.134 A 
ATOM     75  F   UNL A   1      42.847  26.078  35.005  1.00  0.00    -0.206 F 
ATOM     76  C   UNL A   1      45.081  26.226  35.710  1.00  0.00     0.040 A 
ATOM     77  C   UNL A   1      46.424  28.120  35.067  1.00  0.00     0.040 A 
ATOM     78  F   UNL A   1      45.493  29.830  33.759  1.00  0.00    -0.206 F 
ATOM     79  C   UNL A   1      46.298  26.905  35.739  1.00  0.00     0.006 A 
ENDBRANCH  55  72
ENDBRANCH  29  30
ENDBRANCH  22  24
ENDBRANCH  21  22
ENDBRANCH  20  21
ENDBRANCH  19  20
ENDBRANCH   1  19
TORSDOF 16
ENDMDL
