MODEL 1
REMARK VINA RESULT:      -9.7      0.000      0.000
REMARK SMILES CCCC1(CCC)C[NH+]([C@H]2CCC[C@@H](C(=O)OCCOCCOC(=O)c3ccc(-c4c5nc(c(-c6c(F)cccc6F)c6ccc([nH]6)c(-c6c(F)cccc6F)c6nc(c(-c7c(F)cccc7F)c7ccc4[nH]7)C=C6)C=C5)cc3)C2)C1
REMARK SMILES IDX 19 1 18 2 17 3 15 4 16 5 14 6 10 7 11 8 80 9 12 10 13 11
REMARK SMILES IDX 9 12 4 13 8 14 81 15 3 17 2 18 1 19 5 20 6 21 7 22 20 23
REMARK SMILES IDX 21 24 22 25 23 26 24 27 25 28 26 29 27 30 79 31 28 32 78 33
REMARK SMILES IDX 29 34 30 35 31 36 72 37 32 38 77 39 71 40 73 41 33 42 76 43
REMARK SMILES IDX 70 44 69 45 34 47 60 48 43 49 59 50 44 51 47 52 58 53 74 54
REMARK SMILES IDX 45 55 46 56 57 58 75 59 48 60 35 61 36 62 41 63 37 64 38 65
REMARK SMILES IDX 40 66 42 67 39 68 61 69 62 70 67 71 63 72 64 73 66 74 68 75
REMARK SMILES IDX 65 76 49 77 50 78 55 79 51 80 52 81 54 82 56 83 53 84
REMARK H PARENT 9 16 73 46 47 57
REMARK Flexibility Score: inf
ROOT
ATOM      1  C   UNL A   1      36.854  23.689  25.232  1.00  0.00     0.202 C 
ENDROOT
BRANCH   1   2
ATOM      2  C   UNL A   1      35.440  24.278  25.344  1.00  0.00     0.261 C 
BRANCH   2   3
ATOM      3  O   UNL A   1      34.846  24.911  24.212  1.00  0.00    -0.463 OA
BRANCH   3   4
ATOM      4  C   UNL A   1      33.908  25.849  24.525  1.00  0.00     0.309 C 
ATOM      5  O   UNL A   1      33.740  26.331  25.637  1.00  0.00    -0.252 OA
BRANCH   4   6
ATOM      6  C   UNL A   1      33.101  26.234  23.309  1.00  0.00     0.105 C 
ATOM      7  C   UNL A   1      31.851  23.983  23.064  1.00  0.00     0.184 C 
ATOM      8  C   UNL A   1      30.560  24.707  23.505  1.00  0.00     0.065 C 
ATOM      9  C   UNL A   1      32.826  25.009  22.439  1.00  0.00     0.080 C 
ATOM     10  C   UNL A   1      30.751  25.996  24.306  1.00  0.00     0.007 C 
ATOM     11  C   UNL A   1      31.796  26.936  23.706  1.00  0.00     0.016 C 
BRANCH   7  12
ATOM     12  N   UNL A   1      32.580  23.077  23.986  1.00  0.00    -0.331 N 
ATOM     13  C   UNL A   1      32.822  20.983  24.373  1.00  0.00     0.068 C 
ATOM     14  C   UNL A   1      33.240  21.976  23.239  1.00  0.00     0.275 C 
ATOM     15  C   UNL A   1      31.787  22.079  24.731  1.00  0.00     0.275 C 
ATOM     16  H   UNL A   1      33.088  23.778  24.524  1.00  0.00     0.348 HD
BRANCH  13  17
ATOM     17  C   UNL A   1      32.271  19.608  23.940  1.00  0.00     0.018 C 
BRANCH  17  18
ATOM     18  C   UNL A   1      33.081  18.349  24.283  1.00  0.00    -0.002 C 
ATOM     19  C   UNL A   1      33.316  17.393  23.127  1.00  0.00     0.004 C 
ENDBRANCH  17  18
ENDBRANCH  13  17
BRANCH  13  20
ATOM     20  C   UNL A   1      34.006  20.817  25.382  1.00  0.00     0.018 C 
BRANCH  20  21
ATOM     21  C   UNL A   1      33.662  20.817  26.879  1.00  0.00    -0.002 C 
ATOM     22  C   UNL A   1      33.834  22.128  27.621  1.00  0.00     0.004 C 
ENDBRANCH  20  21
ENDBRANCH  13  20
ENDBRANCH   7  12
ENDBRANCH   4   6
ENDBRANCH   3   4
ENDBRANCH   2   3
ENDBRANCH   1   2
BRANCH   1  23
ATOM     23  O   UNL A   1      37.269  22.580  26.009  1.00  0.00    -0.374 OA
BRANCH  23  24
ATOM     24  C   UNL A   1      38.650  22.243  26.081  1.00  0.00     0.202 C 
BRANCH  24  25
ATOM     25  C   UNL A   1      39.078  20.814  25.752  1.00  0.00     0.261 C 
BRANCH  25  26
ATOM     26  O   UNL A   1      39.908  20.239  26.772  1.00  0.00    -0.460 OA
BRANCH  26  27
ATOM     27  C   UNL A   1      41.130  19.858  26.330  1.00  0.00     0.338 C 
ATOM     28  O   UNL A   1      41.420  18.824  25.753  1.00  0.00    -0.246 OA
BRANCH  27  29
ATOM     29  C   UNL A   1      42.096  20.958  26.482  1.00  0.00     0.060 A 
ATOM     30  C   UNL A   1      42.313  21.438  27.780  1.00  0.00     0.016 A 
ATOM     31  C   UNL A   1      42.674  21.587  25.378  1.00  0.00     0.016 A 
ATOM     32  C   UNL A   1      43.030  22.610  27.973  1.00  0.00     0.010 A 
ATOM     33  C   UNL A   1      43.387  22.772  25.572  1.00  0.00     0.010 A 
ATOM     34  C   UNL A   1      43.513  23.315  26.862  1.00  0.00    -0.014 A 
BRANCH  34  35
ATOM     35  C   UNL A   1      43.959  24.712  27.059  1.00  0.00     0.031 A 
ATOM     36  C   UNL A   1      42.951  25.730  27.519  1.00  0.00     0.074 A 
ATOM     37  C   UNL A   1      45.252  25.044  26.906  1.00  0.00     0.049 A 
ATOM     38  N   UNL A   1      43.119  26.997  27.793  1.00  0.00    -0.248 NA
ATOM     39  C   UNL A   1      41.567  25.256  27.696  1.00  0.00     0.031 C 
ATOM     40  C   UNL A   1      46.317  24.127  26.501  1.00  0.00     0.029 A 
ATOM     41  N   UNL A   1      45.886  26.246  27.082  1.00  0.00    -0.354 N 
ATOM     42  C   UNL A   1      41.868  27.471  28.169  1.00  0.00     0.074 A 
ATOM     43  C   UNL A   1      40.943  26.364  28.064  1.00  0.00     0.031 C 
ATOM     44  C   UNL A   1      47.477  24.806  26.451  1.00  0.00     0.029 A 
ATOM     45  C   UNL A   1      47.228  26.203  26.800  1.00  0.00     0.049 A 
ATOM     46  H   UNL A   1      45.423  27.061  27.381  1.00  0.00     0.167 HD
ATOM     47  C   UNL A   1      41.525  28.714  28.577  1.00  0.00     0.037 A 
ATOM     48  C   UNL A   1      48.145  27.188  26.813  1.00  0.00     0.037 A 
ATOM     49  C   UNL A   1      42.453  29.807  28.695  1.00  0.00     0.049 A 
ATOM     50  C   UNL A   1      47.727  28.572  27.232  1.00  0.00     0.074 A 
ATOM     51  C   UNL A   1      42.213  31.100  29.125  1.00  0.00     0.029 A 
ATOM     52  N   UNL A   1      43.800  29.733  28.378  1.00  0.00    -0.354 N 
ATOM     53  N   UNL A   1      46.548  29.000  27.618  1.00  0.00    -0.248 NA
ATOM     54  C   UNL A   1      48.768  29.608  27.226  1.00  0.00     0.031 C 
ATOM     55  C   UNL A   1      43.408  31.820  29.025  1.00  0.00     0.029 A 
ATOM     56  C   UNL A   1      44.401  30.963  28.579  1.00  0.00     0.049 A 
ATOM     57  H   UNL A   1      44.261  28.923  28.057  1.00  0.00     0.167 HD
ATOM     58  C   UNL A   1      46.713  30.345  27.924  1.00  0.00     0.074 A 
ATOM     59  C   UNL A   1      48.109  30.656  27.697  1.00  0.00     0.031 C 
ATOM     60  C   UNL A   1      45.794  31.245  28.350  1.00  0.00     0.037 A 
BRANCH  47  61
ATOM     61  C   UNL A   1      40.085  28.969  28.910  1.00  0.00     0.057 A 
ATOM     62  C   UNL A   1      39.135  29.250  27.920  1.00  0.00     0.134 A 
ATOM     63  C   UNL A   1      39.634  28.876  30.233  1.00  0.00     0.134 A 
ATOM     64  F   UNL A   1      39.505  29.368  26.636  1.00  0.00    -0.206 F 
ATOM     65  C   UNL A   1      37.788  29.439  28.236  1.00  0.00     0.040 A 
ATOM     66  C   UNL A   1      38.287  29.042  30.558  1.00  0.00     0.040 A 
ATOM     67  F   UNL A   1      40.494  28.610  31.227  1.00  0.00    -0.206 F 
ATOM     68  C   UNL A   1      37.359  29.326  29.558  1.00  0.00     0.006 A 
ENDBRANCH  47  61
BRANCH  48  69
ATOM     69  C   UNL A   1      49.546  26.912  26.402  1.00  0.00     0.057 A 
ATOM     70  C   UNL A   1      49.955  27.038  25.071  1.00  0.00     0.134 A 
ATOM     71  C   UNL A   1      50.498  26.478  27.333  1.00  0.00     0.134 A 
ATOM     72  F   UNL A   1      49.083  27.428  24.130  1.00  0.00    -0.206 F 
ATOM     73  C   UNL A   1      51.254  26.716  24.673  1.00  0.00     0.040 A 
ATOM     74  C   UNL A   1      51.807  26.178  26.953  1.00  0.00     0.040 A 
ATOM     75  F   UNL A   1      50.170  26.340  28.626  1.00  0.00    -0.206 F 
ATOM     76  C   UNL A   1      52.185  26.286  25.617  1.00  0.00     0.006 A 
ENDBRANCH  48  69
BRANCH  60  77
ATOM     77  C   UNL A   1      46.280  32.637  28.625  1.00  0.00     0.057 A 
ATOM     78  C   UNL A   1      46.781  33.010  29.879  1.00  0.00     0.134 A 
ATOM     79  C   UNL A   1      46.270  33.609  27.616  1.00  0.00     0.134 A 
ATOM     80  F   UNL A   1      46.807  32.128  30.890  1.00  0.00    -0.206 F 
ATOM     81  C   UNL A   1      47.225  34.308  30.128  1.00  0.00     0.040 A 
ATOM     82  C   UNL A   1      46.737  34.903  27.846  1.00  0.00     0.040 A 
ATOM     83  F   UNL A   1      45.814  33.314  26.389  1.00  0.00    -0.206 F 
ATOM     84  C   UNL A   1      47.209  35.258  29.109  1.00  0.00     0.006 A 
ENDBRANCH  60  77
ENDBRANCH  34  35
ENDBRANCH  27  29
ENDBRANCH  26  27
ENDBRANCH  25  26
ENDBRANCH  24  25
ENDBRANCH  23  24
ENDBRANCH   1  23
TORSDOF 19
ENDMDL
MODEL 2
REMARK VINA RESULT:      -9.6      2.857      7.194
REMARK SMILES CCCC1(CCC)C[NH+]([C@H]2CCC[C@@H](C(=O)OCCOCCOC(=O)c3ccc(-c4c5nc(c(-c6c(F)cccc6F)c6ccc([nH]6)c(-c6c(F)cccc6F)c6nc(c(-c7c(F)cccc7F)c7ccc4[nH]7)C=C6)C=C5)cc3)C2)C1
REMARK SMILES IDX 19 1 18 2 17 3 15 4 16 5 14 6 10 7 11 8 80 9 12 10 13 11
REMARK SMILES IDX 9 12 4 13 8 14 81 15 3 17 2 18 1 19 5 20 6 21 7 22 20 23
REMARK SMILES IDX 21 24 22 25 23 26 24 27 25 28 26 29 27 30 79 31 28 32 78 33
REMARK SMILES IDX 29 34 30 35 31 36 72 37 32 38 77 39 71 40 73 41 33 42 76 43
REMARK SMILES IDX 70 44 69 45 34 47 60 48 43 49 59 50 44 51 47 52 58 53 74 54
REMARK SMILES IDX 45 55 46 56 57 58 75 59 48 60 35 61 36 62 41 63 37 64 38 65
REMARK SMILES IDX 40 66 42 67 39 68 61 69 62 70 67 71 63 72 64 73 66 74 68 75
REMARK SMILES IDX 65 76 49 77 50 78 55 79 51 80 52 81 54 82 56 83 53 84
REMARK H PARENT 9 16 73 46 47 57
REMARK Flexibility Score: inf
ROOT
ATOM      1  C   UNL A   1      34.045  30.667  27.490  1.00  0.00     0.202 C 
ENDROOT
BRANCH   1   2
ATOM      2  C   UNL A   1      32.674  30.360  26.869  1.00  0.00     0.261 C 
BRANCH   2   3
ATOM      3  O   UNL A   1      32.015  29.134  27.184  1.00  0.00    -0.463 OA
BRANCH   3   4
ATOM      4  C   UNL A   1      31.552  28.455  26.097  1.00  0.00     0.309 C 
ATOM      5  O   UNL A   1      31.022  27.352  26.130  1.00  0.00    -0.252 OA
BRANCH   4   6
ATOM      6  C   UNL A   1      31.762  29.250  24.832  1.00  0.00     0.105 C 
ATOM      7  C   UNL A   1      32.652  27.288  23.400  1.00  0.00     0.184 C 
ATOM      8  C   UNL A   1      31.336  27.343  22.594  1.00  0.00     0.065 C 
ATOM      9  C   UNL A   1      32.928  28.676  24.027  1.00  0.00     0.080 C 
ATOM     10  C   UNL A   1      30.141  27.987  23.299  1.00  0.00     0.007 C 
ATOM     11  C   UNL A   1      30.482  29.307  23.990  1.00  0.00     0.016 C 
BRANCH   7  12
ATOM     12  N   UNL A   1      32.904  26.217  24.394  1.00  0.00    -0.331 N 
ATOM     13  C   UNL A   1      33.636  24.205  24.484  1.00  0.00     0.068 C 
ATOM     14  C   UNL A   1      34.249  25.615  24.201  1.00  0.00     0.275 C 
ATOM     15  C   UNL A   1      32.292  24.897  24.146  1.00  0.00     0.275 C 
ATOM     16  H   UNL A   1      32.627  26.719  25.238  1.00  0.00     0.348 HD
BRANCH  13  17
ATOM     17  C   UNL A   1      34.081  23.044  23.569  1.00  0.00     0.018 C 
BRANCH  17  18
ATOM     18  C   UNL A   1      35.319  22.226  23.965  1.00  0.00    -0.002 C 
ATOM     19  C   UNL A   1      36.649  22.795  23.503  1.00  0.00     0.004 C 
ENDBRANCH  17  18
ENDBRANCH  13  17
BRANCH  13  20
ATOM     20  C   UNL A   1      33.847  23.839  25.991  1.00  0.00     0.018 C 
BRANCH  20  21
ATOM     21  C   UNL A   1      33.040  22.656  26.549  1.00  0.00    -0.002 C 
ATOM     22  C   UNL A   1      33.797  21.648  27.391  1.00  0.00     0.004 C 
ENDBRANCH  20  21
ENDBRANCH  13  20
ENDBRANCH   7  12
ENDBRANCH   4   6
ENDBRANCH   3   4
ENDBRANCH   2   3
ENDBRANCH   1   2
BRANCH   1  23
ATOM     23  O   UNL A   1      34.623  31.959  27.430  1.00  0.00    -0.374 OA
BRANCH  23  24
ATOM     24  C   UNL A   1      34.288  32.932  28.413  1.00  0.00     0.202 C 
BRANCH  24  25
ATOM     25  C   UNL A   1      35.024  32.914  29.750  1.00  0.00     0.261 C 
BRANCH  25  26
ATOM     26  O   UNL A   1      36.316  32.296  29.660  1.00  0.00    -0.460 OA
BRANCH  26  27
ATOM     27  C   UNL A   1      36.478  31.244  30.496  1.00  0.00     0.338 C 
ATOM     28  O   UNL A   1      35.779  30.939  31.447  1.00  0.00    -0.246 OA
BRANCH  27  29
ATOM     29  C   UNL A   1      37.553  30.364  30.011  1.00  0.00     0.060 A 
ATOM     30  C   UNL A   1      38.331  29.716  30.980  1.00  0.00     0.016 A 
ATOM     31  C   UNL A   1      37.877  30.276  28.656  1.00  0.00     0.016 A 
ATOM     32  C   UNL A   1      39.493  29.057  30.607  1.00  0.00     0.010 A 
ATOM     33  C   UNL A   1      39.053  29.621  28.282  1.00  0.00     0.010 A 
ATOM     34  C   UNL A   1      39.891  29.064  29.263  1.00  0.00    -0.014 A 
BRANCH  34  35
ATOM     35  C   UNL A   1      41.280  28.670  28.941  1.00  0.00     0.031 A 
ATOM     36  C   UNL A   1      41.545  27.249  28.525  1.00  0.00     0.074 A 
ATOM     37  C   UNL A   1      42.266  29.583  28.943  1.00  0.00     0.049 A 
ATOM     38  N   UNL A   1      42.669  26.687  28.161  1.00  0.00    -0.248 NA
ATOM     39  C   UNL A   1      40.388  26.336  28.516  1.00  0.00     0.031 C 
ATOM     40  C   UNL A   1      42.111  30.994  29.293  1.00  0.00     0.029 A 
ATOM     41  N   UNL A   1      43.595  29.453  28.634  1.00  0.00    -0.354 N 
ATOM     42  C   UNL A   1      42.357  25.362  27.885  1.00  0.00     0.074 A 
ATOM     43  C   UNL A   1      40.945  25.191  28.148  1.00  0.00     0.031 C 
ATOM     44  C   UNL A   1      43.305  31.601  29.186  1.00  0.00     0.029 A 
ATOM     45  C   UNL A   1      44.307  30.617  28.781  1.00  0.00     0.049 A 
ATOM     46  H   UNL A   1      43.999  28.607  28.335  1.00  0.00     0.167 HD
ATOM     47  C   UNL A   1      43.173  24.379  27.441  1.00  0.00     0.037 A 
ATOM     48  C   UNL A   1      45.622  30.850  28.619  1.00  0.00     0.037 A 
ATOM     49  C   UNL A   1      44.573  24.558  27.166  1.00  0.00     0.049 A 
ATOM     50  C   UNL A   1      46.514  29.727  28.163  1.00  0.00     0.074 A 
ATOM     51  C   UNL A   1      45.484  23.633  26.687  1.00  0.00     0.029 A 
ATOM     52  N   UNL A   1      45.265  25.745  27.350  1.00  0.00    -0.354 N 
ATOM     53  N   UNL A   1      46.202  28.486  27.873  1.00  0.00    -0.248 NA
ATOM     54  C   UNL A   1      47.941  30.039  28.003  1.00  0.00     0.031 C 
ATOM     55  C   UNL A   1      46.737  24.250  26.623  1.00  0.00     0.029 A 
ATOM     56  C   UNL A   1      46.597  25.570  27.018  1.00  0.00     0.049 A 
ATOM     57  H   UNL A   1      44.867  26.587  27.671  1.00  0.00     0.167 HD
ATOM     58  C   UNL A   1      47.386  27.879  27.472  1.00  0.00     0.074 A 
ATOM     59  C   UNL A   1      48.418  28.893  27.539  1.00  0.00     0.031 C 
ATOM     60  C   UNL A   1      47.603  26.597  27.088  1.00  0.00     0.037 A 
BRANCH  47  61
ATOM     61  C   UNL A   1      42.580  23.016  27.240  1.00  0.00     0.057 A 
ATOM     62  C   UNL A   1      42.227  22.195  28.319  1.00  0.00     0.134 A 
ATOM     63  C   UNL A   1      42.309  22.542  25.950  1.00  0.00     0.134 A 
ATOM     64  F   UNL A   1      42.475  22.584  29.579  1.00  0.00    -0.206 F 
ATOM     65  C   UNL A   1      41.633  20.947  28.121  1.00  0.00     0.040 A 
ATOM     66  C   UNL A   1      41.696  21.305  25.741  1.00  0.00     0.040 A 
ATOM     67  F   UNL A   1      42.624  23.278  24.875  1.00  0.00    -0.206 F 
ATOM     68  C   UNL A   1      41.357  20.503  26.829  1.00  0.00     0.006 A 
ENDBRANCH  47  61
BRANCH  48  69
ATOM     69  C   UNL A   1      46.183  32.196  28.902  1.00  0.00     0.057 A 
ATOM     70  C   UNL A   1      46.284  33.171  27.905  1.00  0.00     0.134 A 
ATOM     71  C   UNL A   1      46.668  32.521  30.175  1.00  0.00     0.134 A 
ATOM     72  F   UNL A   1      45.858  32.910  26.660  1.00  0.00    -0.206 F 
ATOM     73  C   UNL A   1      46.871  34.413  28.154  1.00  0.00     0.040 A 
ATOM     74  C   UNL A   1      47.233  33.769  30.445  1.00  0.00     0.040 A 
ATOM     75  F   UNL A   1      46.598  31.632  31.176  1.00  0.00    -0.206 F 
ATOM     76  C   UNL A   1      47.346  34.715  29.430  1.00  0.00     0.006 A 
ENDBRANCH  48  69
BRANCH  60  77
ATOM     77  C   UNL A   1      49.002  26.236  26.684  1.00  0.00     0.057 A 
ATOM     78  C   UNL A   1      49.905  25.658  27.586  1.00  0.00     0.134 A 
ATOM     79  C   UNL A   1      49.443  26.448  25.371  1.00  0.00     0.134 A 
ATOM     80  F   UNL A   1      49.547  25.440  28.860  1.00  0.00    -0.206 F 
ATOM     81  C   UNL A   1      51.206  25.332  27.204  1.00  0.00     0.040 A 
ATOM     82  C   UNL A   1      50.733  26.101  24.971  1.00  0.00     0.040 A 
ATOM     83  F   UNL A   1      48.624  26.988  24.456  1.00  0.00    -0.206 F 
ATOM     84  C   UNL A   1      51.622  25.549  25.892  1.00  0.00     0.006 A 
ENDBRANCH  60  77
ENDBRANCH  34  35
ENDBRANCH  27  29
ENDBRANCH  26  27
ENDBRANCH  25  26
ENDBRANCH  24  25
ENDBRANCH  23  24
ENDBRANCH   1  23
TORSDOF 19
ENDMDL
MODEL 3
REMARK VINA RESULT:      -9.6      1.471      6.271
REMARK SMILES CCCC1(CCC)C[NH+]([C@H]2CCC[C@@H](C(=O)OCCOCCOC(=O)c3ccc(-c4c5nc(c(-c6c(F)cccc6F)c6ccc([nH]6)c(-c6c(F)cccc6F)c6nc(c(-c7c(F)cccc7F)c7ccc4[nH]7)C=C6)C=C5)cc3)C2)C1
REMARK SMILES IDX 19 1 18 2 17 3 15 4 16 5 14 6 10 7 11 8 80 9 12 10 13 11
REMARK SMILES IDX 9 12 4 13 8 14 81 15 3 17 2 18 1 19 5 20 6 21 7 22 20 23
REMARK SMILES IDX 21 24 22 25 23 26 24 27 25 28 26 29 27 30 79 31 28 32 78 33
REMARK SMILES IDX 29 34 30 35 31 36 72 37 32 38 77 39 71 40 73 41 33 42 76 43
REMARK SMILES IDX 70 44 69 45 34 47 60 48 43 49 59 50 44 51 47 52 58 53 74 54
REMARK SMILES IDX 45 55 46 56 57 58 75 59 48 60 35 61 36 62 41 63 37 64 38 65
REMARK SMILES IDX 40 66 42 67 39 68 61 69 62 70 67 71 63 72 64 73 66 74 68 75
REMARK SMILES IDX 65 76 49 77 50 78 55 79 51 80 52 81 54 82 56 83 53 84
REMARK H PARENT 9 16 73 46 47 57
REMARK Flexibility Score: inf
ROOT
ATOM      1  C   UNL A   1      37.046  22.928  24.518  1.00  0.00     0.202 C 
ENDROOT
BRANCH   1   2
ATOM      2  C   UNL A   1      35.879  23.894  24.777  1.00  0.00     0.261 C 
BRANCH   2   3
ATOM      3  O   UNL A   1      35.112  24.385  23.679  1.00  0.00    -0.463 OA
BRANCH   3   4
ATOM      4  C   UNL A   1      34.240  25.380  24.009  1.00  0.00     0.309 C 
ATOM      5  O   UNL A   1      34.209  25.959  25.086  1.00  0.00    -0.252 OA
BRANCH   4   6
ATOM      6  C   UNL A   1      33.314  25.692  22.858  1.00  0.00     0.105 C 
ATOM      7  C   UNL A   1      31.730  23.676  23.205  1.00  0.00     0.184 C 
ATOM      8  C   UNL A   1      30.643  24.672  23.666  1.00  0.00     0.065 C 
ATOM      9  C   UNL A   1      32.731  24.405  22.276  1.00  0.00     0.080 C 
ATOM     10  C   UNL A   1      31.143  26.024  24.179  1.00  0.00     0.007 C 
ATOM     11  C   UNL A   1      32.204  26.661  23.283  1.00  0.00     0.016 C 
BRANCH   7  12
ATOM     12  N   UNL A   1      32.457  22.824  24.177  1.00  0.00    -0.331 N 
ATOM     13  C   UNL A   1      32.877  20.756  24.549  1.00  0.00     0.068 C 
ATOM     14  C   UNL A   1      33.296  21.816  23.479  1.00  0.00     0.275 C 
ATOM     15  C   UNL A   1      31.705  21.731  24.823  1.00  0.00     0.275 C 
ATOM     16  H   UNL A   1      32.837  23.558  24.774  1.00  0.00     0.348 HD
BRANCH  13  17
ATOM     17  C   UNL A   1      32.514  19.344  24.040  1.00  0.00     0.018 C 
BRANCH  17  18
ATOM     18  C   UNL A   1      33.282  18.139  24.602  1.00  0.00    -0.002 C 
ATOM     19  C   UNL A   1      32.526  17.303  25.620  1.00  0.00     0.004 C 
ENDBRANCH  17  18
ENDBRANCH  13  17
BRANCH  13  20
ATOM     20  C   UNL A   1      33.970  20.682  25.665  1.00  0.00     0.018 C 
BRANCH  20  21
ATOM     21  C   UNL A   1      33.551  21.077  27.090  1.00  0.00    -0.002 C 
ATOM     22  C   UNL A   1      34.105  22.381  27.630  1.00  0.00     0.004 C 
ENDBRANCH  20  21
ENDBRANCH  13  20
ENDBRANCH   7  12
ENDBRANCH   4   6
ENDBRANCH   3   4
ENDBRANCH   2   3
ENDBRANCH   1   2
BRANCH   1  23
ATOM     23  O   UNL A   1      37.238  21.759  25.293  1.00  0.00    -0.374 OA
BRANCH  23  24
ATOM     24  C   UNL A   1      37.432  20.505  24.648  1.00  0.00     0.202 C 
BRANCH  24  25
ATOM     25  C   UNL A   1      38.648  19.662  25.026  1.00  0.00     0.261 C 
BRANCH  25  26
ATOM     26  O   UNL A   1      39.376  20.212  26.134  1.00  0.00    -0.460 OA
BRANCH  26  27
ATOM     27  C   UNL A   1      40.688  19.875  26.145  1.00  0.00     0.338 C 
ATOM     28  O   UNL A   1      41.191  18.842  25.740  1.00  0.00    -0.246 OA
BRANCH  27  29
ATOM     29  C   UNL A   1      41.507  21.020  26.574  1.00  0.00     0.060 A 
ATOM     30  C   UNL A   1      41.585  21.267  27.951  1.00  0.00     0.016 A 
ATOM     31  C   UNL A   1      42.075  21.904  25.654  1.00  0.00     0.016 A 
ATOM     32  C   UNL A   1      42.146  22.449  28.412  1.00  0.00     0.010 A 
ATOM     33  C   UNL A   1      42.631  23.098  26.118  1.00  0.00     0.010 A 
ATOM     34  C   UNL A   1      42.612  23.397  27.492  1.00  0.00    -0.014 A 
BRANCH  34  35
ATOM     35  C   UNL A   1      42.877  24.770  27.974  1.00  0.00     0.031 A 
ATOM     36  C   UNL A   1      44.307  25.203  28.159  1.00  0.00     0.074 A 
ATOM     37  C   UNL A   1      41.866  25.634  28.166  1.00  0.00     0.049 A 
ATOM     38  N   UNL A   1      44.780  26.363  28.532  1.00  0.00    -0.248 NA
ATOM     39  C   UNL A   1      45.344  24.192  27.883  1.00  0.00     0.031 C 
ATOM     40  C   UNL A   1      40.449  25.330  27.979  1.00  0.00     0.029 A 
ATOM     41  N   UNL A   1      41.884  26.948  28.554  1.00  0.00    -0.354 N 
ATOM     42  C   UNL A   1      46.163  26.222  28.540  1.00  0.00     0.074 A 
ATOM     43  C   UNL A   1      46.455  24.857  28.161  1.00  0.00     0.031 C 
ATOM     44  C   UNL A   1      39.728  26.429  28.263  1.00  0.00     0.029 A 
ATOM     45  C   UNL A   1      40.634  27.502  28.669  1.00  0.00     0.049 A 
ATOM     46  H   UNL A   1      42.714  27.446  28.734  1.00  0.00     0.167 HD
ATOM     47  C   UNL A   1      47.103  27.151  28.827  1.00  0.00     0.037 A 
ATOM     48  C   UNL A   1      40.269  28.733  29.070  1.00  0.00     0.037 A 
ATOM     49  C   UNL A   1      46.807  28.511  29.189  1.00  0.00     0.049 A 
ATOM     50  C   UNL A   1      41.336  29.735  29.423  1.00  0.00     0.074 A 
ATOM     51  C   UNL A   1      47.687  29.540  29.473  1.00  0.00     0.029 A 
ATOM     52  N   UNL A   1      45.527  29.030  29.318  1.00  0.00    -0.354 N 
ATOM     53  N   UNL A   1      42.640  29.600  29.394  1.00  0.00    -0.248 NA
ATOM     54  C   UNL A   1      40.879  31.063  29.854  1.00  0.00     0.031 C 
ATOM     55  C   UNL A   1      46.938  30.670  29.817  1.00  0.00     0.029 A 
ATOM     56  C   UNL A   1      45.594  30.358  29.702  1.00  0.00     0.049 A 
ATOM     57  H   UNL A   1      44.695  28.527  29.160  1.00  0.00     0.167 HD
ATOM     58  C   UNL A   1      43.159  30.831  29.778  1.00  0.00     0.074 A 
ATOM     59  C   UNL A   1      42.027  31.704  30.015  1.00  0.00     0.031 C 
ATOM     60  C   UNL A   1      44.453  31.206  29.927  1.00  0.00     0.037 A 
BRANCH  47  61
ATOM     61  C   UNL A   1      48.541  26.728  28.780  1.00  0.00     0.057 A 
ATOM     62  C   UNL A   1      49.337  26.932  27.646  1.00  0.00     0.134 A 
ATOM     63  C   UNL A   1      49.150  26.158  29.906  1.00  0.00     0.134 A 
ATOM     64  F   UNL A   1      48.810  27.458  26.531  1.00  0.00    -0.206 F 
ATOM     65  C   UNL A   1      50.688  26.576  27.631  1.00  0.00     0.040 A 
ATOM     66  C   UNL A   1      50.504  25.819  29.909  1.00  0.00     0.040 A 
ATOM     67  F   UNL A   1      48.443  25.936  31.023  1.00  0.00    -0.206 F 
ATOM     68  C   UNL A   1      51.277  26.027  28.768  1.00  0.00     0.006 A 
ENDBRANCH  47  61
BRANCH  48  69
ATOM     69  C   UNL A   1      38.831  29.089  29.177  1.00  0.00     0.057 A 
ATOM     70  C   UNL A   1      38.111  29.563  28.075  1.00  0.00     0.134 A 
ATOM     71  C   UNL A   1      38.154  28.997  30.399  1.00  0.00     0.134 A 
ATOM     72  F   UNL A   1      38.711  29.695  26.883  1.00  0.00    -0.206 F 
ATOM     73  C   UNL A   1      36.777  29.960  28.190  1.00  0.00     0.040 A 
ATOM     74  C   UNL A   1      36.813  29.365  30.522  1.00  0.00     0.040 A 
ATOM     75  F   UNL A   1      38.786  28.547  31.493  1.00  0.00    -0.206 F 
ATOM     76  C   UNL A   1      36.124  29.859  29.417  1.00  0.00     0.006 A 
ENDBRANCH  48  69
BRANCH  60  77
ATOM     77  C   UNL A   1      44.706  32.627  30.335  1.00  0.00     0.057 A 
ATOM     78  C   UNL A   1      44.846  32.995  31.679  1.00  0.00     0.134 A 
ATOM     79  C   UNL A   1      44.836  33.635  29.370  1.00  0.00     0.134 A 
ATOM     80  F   UNL A   1      44.721  32.079  32.651  1.00  0.00    -0.206 F 
ATOM     81  C   UNL A   1      45.074  34.320  32.051  1.00  0.00     0.040 A 
ATOM     82  C   UNL A   1      45.092  34.958  29.729  1.00  0.00     0.040 A 
ATOM     83  F   UNL A   1      44.726  33.347  28.064  1.00  0.00    -0.206 F 
ATOM     84  C   UNL A   1      45.203  35.305  31.074  1.00  0.00     0.006 A 
ENDBRANCH  60  77
ENDBRANCH  34  35
ENDBRANCH  27  29
ENDBRANCH  26  27
ENDBRANCH  25  26
ENDBRANCH  24  25
ENDBRANCH  23  24
ENDBRANCH   1  23
TORSDOF 19
ENDMDL
