MODEL 1
REMARK VINA RESULT:     -13.2      0.000      0.000
REMARK SMILES O=C(CCC(=O)N1N=C(c2ccc(F)cc2)C[C@@H]1c1ccc2nccnc2c1)OCCOCCOC(=O)c1ccc(-c2c3nc(c(-c4c(F)cccc4F)c4ccc([nH]4)c(-c4c(F)cccc4F)c4nc(c(-c5c(F)cccc5F)c5ccc2[nH]5)C=C4)C=C3)cc1
REMARK SMILES IDX 31 1 30 2 29 3 2 4 1 5 3 6 4 7 5 8 6 9 7 10 8 11 18 12 9 13
REMARK SMILES IDX 17 14 19 15 20 16 28 17 21 18 27 19 22 20 26 21 23 22 25 23
REMARK SMILES IDX 24 24 10 25 11 26 16 27 12 28 15 29 13 30 14 31 32 32 33 33
REMARK SMILES IDX 34 34 35 35 36 36 37 37 38 38 39 39 91 40 40 41 90 42 41 43
REMARK SMILES IDX 42 44 43 45 84 46 44 47 89 48 83 49 85 50 45 51 88 52 82 53
REMARK SMILES IDX 81 54 46 56 72 57 55 58 71 59 56 60 59 61 70 62 86 63 57 64
REMARK SMILES IDX 58 65 69 67 87 68 60 69 47 70 48 71 53 72 49 73 50 74 52 75
REMARK SMILES IDX 54 76 51 77 73 78 74 79 79 80 75 81 76 82 78 83 80 84 77 85
REMARK SMILES IDX 61 86 62 87 67 88 63 89 64 90 66 91 68 92 65 93
REMARK H PARENT 85 55 59 66
REMARK Flexibility Score: inf
ROOT
ATOM      1  C   UNL A   1      33.350  35.702  30.121  1.00  0.00     0.202 C 
ENDROOT
BRANCH   1   2
ATOM      2  C   UNL A   1      32.917  35.280  28.712  1.00  0.00     0.261 C 
BRANCH   2   3
ATOM      3  O   UNL A   1      33.034  33.853  28.539  1.00  0.00    -0.463 OA
BRANCH   3   4
ATOM      4  C   UNL A   1      34.046  33.156  28.000  1.00  0.00     0.306 C 
ATOM      5  O   UNL A   1      35.016  33.706  27.490  1.00  0.00    -0.252 OA
BRANCH   4   6
ATOM      6  C   UNL A   1      34.028  31.705  28.230  1.00  0.00     0.132 C 
BRANCH   6   7
ATOM      7  C   UNL A   1      33.285  31.085  27.072  1.00  0.00     0.114 C 
BRANCH   7   8
ATOM      8  C   UNL A   1      33.658  29.658  26.662  1.00  0.00     0.243 C 
ATOM      9  O   UNL A   1      34.510  29.117  27.391  1.00  0.00    -0.273 OA
BRANCH   8  10
ATOM     10  N   UNL A   1      33.025  28.932  25.646  1.00  0.00    -0.225 N 
ATOM     11  N   UNL A   1      31.768  29.454  25.423  1.00  0.00    -0.174 NA
ATOM     12  C   UNL A   1      33.424  28.051  24.467  1.00  0.00     0.147 C 
ATOM     13  C   UNL A   1      31.472  29.293  24.180  1.00  0.00     0.071 C 
ATOM     14  C   UNL A   1      32.435  28.492  23.362  1.00  0.00     0.091 C 
BRANCH  12  15
ATOM     15  C   UNL A   1      33.412  26.474  24.591  1.00  0.00    -0.021 A 
ATOM     16  C   UNL A   1      33.804  25.581  23.068  1.00  0.00     0.008 A 
ATOM     17  C   UNL A   1      33.275  25.505  26.126  1.00  0.00     0.036 A 
ATOM     18  C   UNL A   1      34.151  23.802  23.091  1.00  0.00     0.031 A 
ATOM     19  C   UNL A   1      33.627  23.692  26.188  1.00  0.00     0.089 A 
ATOM     20  C   UNL A   1      34.127  22.831  24.644  1.00  0.00     0.089 A 
ATOM     21  N   UNL A   1      33.527  22.933  27.285  1.00  0.00    -0.253 NA
ATOM     22  N   UNL A   1      34.433  21.529  24.699  1.00  0.00    -0.253 NA
ATOM     23  C   UNL A   1      33.864  21.622  27.111  1.00  0.00     0.132 A 
ATOM     24  C   UNL A   1      34.278  20.976  25.926  1.00  0.00     0.132 A 
ENDBRANCH  12  15
BRANCH  13  25
ATOM     25  C   UNL A   1      30.275  29.949  23.647  1.00  0.00    -0.002 A 
ATOM     26  C   UNL A   1      29.868  31.138  24.244  1.00  0.00     0.013 A 
ATOM     27  C   UNL A   1      29.785  29.576  22.387  1.00  0.00     0.013 A 
ATOM     28  C   UNL A   1      28.950  31.956  23.585  1.00  0.00     0.040 A 
ATOM     29  C   UNL A   1      28.853  30.393  21.741  1.00  0.00     0.040 A 
ATOM     30  C   UNL A   1      28.443  31.576  22.347  1.00  0.00     0.123 A 
ATOM     31  F   UNL A   1      27.579  32.380  21.716  1.00  0.00    -0.207 F 
ENDBRANCH  13  25
ENDBRANCH   8  10
ENDBRANCH   7   8
ENDBRANCH   6   7
ENDBRANCH   4   6
ENDBRANCH   3   4
ENDBRANCH   2   3
ENDBRANCH   1   2
BRANCH   1  32
ATOM     32  O   UNL A   1      33.318  34.753  31.178  1.00  0.00    -0.374 OA
BRANCH  32  33
ATOM     33  C   UNL A   1      34.510  34.372  31.828  1.00  0.00     0.202 C 
BRANCH  33  34
ATOM     34  C   UNL A   1      35.646  33.783  30.933  1.00  0.00     0.261 C 
BRANCH  34  35
ATOM     35  O   UNL A   1      36.454  32.332  31.368  1.00  0.00    -0.460 OA
BRANCH  35  36
ATOM     36  C   UNL A   1      36.699  30.471  31.435  1.00  0.00     0.338 C 
ATOM     37  O   UNL A   1      36.278  29.703  32.345  1.00  0.00    -0.246 OA
BRANCH  36  38
ATOM     38  C   UNL A   1      37.346  29.463  30.502  1.00  0.00     0.060 A 
ATOM     39  C   UNL A   1      38.101  28.426  31.081  1.00  0.00     0.016 A 
ATOM     40  C   UNL A   1      37.801  30.048  29.296  1.00  0.00     0.016 A 
ATOM     41  C   UNL A   1      39.325  28.064  30.541  1.00  0.00     0.010 A 
ATOM     42  C   UNL A   1      39.036  29.694  28.764  1.00  0.00     0.010 A 
ATOM     43  C   UNL A   1      39.813  28.733  29.415  1.00  0.00    -0.014 A 
BRANCH  43  44
ATOM     44  C   UNL A   1      41.119  28.350  28.872  1.00  0.00     0.031 A 
ATOM     45  C   UNL A   1      41.367  26.982  28.336  1.00  0.00     0.074 A 
ATOM     46  C   UNL A   1      42.065  29.298  28.902  1.00  0.00     0.049 A 
ATOM     47  N   UNL A   1      42.488  26.482  27.891  1.00  0.00    -0.248 NA
ATOM     48  C   UNL A   1      40.237  26.041  28.340  1.00  0.00     0.031 C 
ATOM     49  C   UNL A   1      41.863  30.623  29.482  1.00  0.00     0.029 A 
ATOM     50  N   UNL A   1      43.347  29.321  28.442  1.00  0.00    -0.354 N 
ATOM     51  C   UNL A   1      42.222  25.148  27.618  1.00  0.00     0.074 A 
ATOM     52  C   UNL A   1      40.825  24.923  27.928  1.00  0.00     0.031 C 
ATOM     53  C   UNL A   1      42.958  31.360  29.274  1.00  0.00     0.029 A 
ATOM     54  C   UNL A   1      43.948  30.545  28.593  1.00  0.00     0.049 A 
ATOM     55  H   UNL A   1      43.795  28.541  28.044  1.00  0.00     0.167 HD
ATOM     56  C   UNL A   1      43.096  24.212  27.180  1.00  0.00     0.037 A 
ATOM     57  C   UNL A   1      45.169  30.957  28.221  1.00  0.00     0.037 A 
ATOM     58  C   UNL A   1      44.482  24.504  26.898  1.00  0.00     0.049 A 
ATOM     59  C   UNL A   1      46.080  29.927  27.634  1.00  0.00     0.074 A 
ATOM     60  C   UNL A   1      45.480  23.649  26.469  1.00  0.00     0.029 A 
ATOM     61  N   UNL A   1      45.061  25.764  27.017  1.00  0.00    -0.354 N 
ATOM     62  N   UNL A   1      45.835  28.656  27.409  1.00  0.00    -0.248 NA
ATOM     63  C   UNL A   1      47.436  30.358  27.293  1.00  0.00     0.031 C 
ATOM     64  C   UNL A   1      46.667  24.384  26.361  1.00  0.00     0.029 A 
ATOM     65  C   UNL A   1      46.400  25.711  26.669  1.00  0.00     0.049 A 
ATOM     66  H   UNL A   1      44.587  26.577  27.306  1.00  0.00     0.167 HD
ATOM     67  C   UNL A   1      47.017  28.121  26.934  1.00  0.00     0.074 A 
ATOM     68  C   UNL A   1      47.961  29.223  26.849  1.00  0.00     0.031 C 
ATOM     69  C   UNL A   1      47.309  26.833  26.625  1.00  0.00     0.037 A 
BRANCH  56  70
ATOM     70  C   UNL A   1      42.598  22.801  27.037  1.00  0.00     0.057 A 
ATOM     71  C   UNL A   1      42.393  22.240  25.768  1.00  0.00     0.134 A 
ATOM     72  C   UNL A   1      42.302  21.996  28.145  1.00  0.00     0.134 A 
ATOM     73  F   UNL A   1      42.653  22.950  24.659  1.00  0.00    -0.206 F 
ATOM     74  C   UNL A   1      41.910  20.939  25.608  1.00  0.00     0.040 A 
ATOM     75  C   UNL A   1      41.845  20.684  27.998  1.00  0.00     0.040 A 
ATOM     76  F   UNL A   1      42.486  22.461  29.390  1.00  0.00    -0.206 F 
ATOM     77  C   UNL A   1      41.641  20.154  26.726  1.00  0.00     0.006 A 
ENDBRANCH  56  70
BRANCH  57  78
ATOM     78  C   UNL A   1      45.532  32.388  28.360  1.00  0.00     0.057 A 
ATOM     79  C   UNL A   1      46.131  32.897  29.520  1.00  0.00     0.134 A 
ATOM     80  C   UNL A   1      45.152  33.310  27.378  1.00  0.00     0.134 A 
ATOM     81  F   UNL A   1      46.493  32.071  30.513  1.00  0.00    -0.206 F 
ATOM     82  C   UNL A   1      46.293  34.269  29.720  1.00  0.00     0.040 A 
ATOM     83  C   UNL A   1      45.339  34.683  27.550  1.00  0.00     0.040 A 
ATOM     84  F   UNL A   1      44.575  32.887  26.244  1.00  0.00    -0.206 F 
ATOM     85  C   UNL A   1      45.895  35.166  28.732  1.00  0.00     0.006 A 
ENDBRANCH  57  78
BRANCH  69  86
ATOM     86  C   UNL A   1      48.715  26.566  26.188  1.00  0.00     0.057 A 
ATOM     87  C   UNL A   1      49.102  26.779  24.862  1.00  0.00     0.134 A 
ATOM     88  C   UNL A   1      49.674  26.068  27.080  1.00  0.00     0.134 A 
ATOM     89  F   UNL A   1      48.225  27.248  23.963  1.00  0.00    -0.206 F 
ATOM     90  C   UNL A   1      50.398  26.501  24.433  1.00  0.00     0.040 A 
ATOM     91  C   UNL A   1      50.982  25.813  26.668  1.00  0.00     0.040 A 
ATOM     92  F   UNL A   1      49.365  25.861  28.369  1.00  0.00    -0.206 F 
ATOM     93  C   UNL A   1      51.344  26.022  25.339  1.00  0.00     0.006 A 
ENDBRANCH  69  86
ENDBRANCH  43  44
ENDBRANCH  36  38
ENDBRANCH  35  36
ENDBRANCH  34  35
ENDBRANCH  33  34
ENDBRANCH  32  33
ENDBRANCH   1  32
TORSDOF 19
ENDMDL
MODEL 2
REMARK VINA RESULT:     -13.2      5.103      7.707
REMARK SMILES O=C(CCC(=O)N1N=C(c2ccc(F)cc2)C[C@@H]1c1ccc2nccnc2c1)OCCOCCOC(=O)c1ccc(-c2c3nc(c(-c4c(F)cccc4F)c4ccc([nH]4)c(-c4c(F)cccc4F)c4nc(c(-c5c(F)cccc5F)c5ccc2[nH]5)C=C4)C=C3)cc1
REMARK SMILES IDX 31 1 30 2 29 3 2 4 1 5 3 6 4 7 5 8 6 9 7 10 8 11 18 12 9 13
REMARK SMILES IDX 17 14 19 15 20 16 28 17 21 18 27 19 22 20 26 21 23 22 25 23
REMARK SMILES IDX 24 24 10 25 11 26 16 27 12 28 15 29 13 30 14 31 32 32 33 33
REMARK SMILES IDX 34 34 35 35 36 36 37 37 38 38 39 39 91 40 40 41 90 42 41 43
REMARK SMILES IDX 42 44 43 45 84 46 44 47 89 48 83 49 85 50 45 51 88 52 82 53
REMARK SMILES IDX 81 54 46 56 72 57 55 58 71 59 56 60 59 61 70 62 86 63 57 64
REMARK SMILES IDX 58 65 69 67 87 68 60 69 47 70 48 71 53 72 49 73 50 74 52 75
REMARK SMILES IDX 54 76 51 77 73 78 74 79 79 80 75 81 76 82 78 83 80 84 77 85
REMARK SMILES IDX 61 86 62 87 67 88 63 89 64 90 66 91 68 92 65 93
REMARK H PARENT 85 55 59 66
REMARK Flexibility Score: inf
ROOT
ATOM      1  C   UNL A   1      36.316  33.178  28.389  1.00  0.00     0.202 C 
ENDROOT
BRANCH   1   2
ATOM      2  C   UNL A   1      35.612  31.833  28.601  1.00  0.00     0.261 C 
BRANCH   2   3
ATOM      3  O   UNL A   1      35.067  31.333  27.363  1.00  0.00    -0.463 OA
BRANCH   3   4
ATOM      4  C   UNL A   1      33.919  30.668  27.163  1.00  0.00     0.306 C 
ATOM      5  O   UNL A   1      32.826  31.219  27.236  1.00  0.00    -0.252 OA
BRANCH   4   6
ATOM      6  C   UNL A   1      34.046  29.295  26.655  1.00  0.00     0.132 C 
BRANCH   6   7
ATOM      7  C   UNL A   1      33.268  28.405  27.595  1.00  0.00     0.114 C 
BRANCH   7   8
ATOM      8  C   UNL A   1      32.126  27.571  27.011  1.00  0.00     0.243 C 
ATOM      9  O   UNL A   1      31.136  27.457  27.757  1.00  0.00    -0.273 OA
BRANCH   8  10
ATOM     10  N   UNL A   1      32.093  27.074  25.702  1.00  0.00    -0.225 N 
ATOM     11  N   UNL A   1      30.952  27.520  25.069  1.00  0.00    -0.174 NA
ATOM     12  C   UNL A   1      33.083  26.562  24.661  1.00  0.00     0.147 C 
ATOM     13  C   UNL A   1      31.207  27.655  23.814  1.00  0.00     0.071 C 
ATOM     14  C   UNL A   1      32.547  27.180  23.348  1.00  0.00     0.091 C 
BRANCH  12  15
ATOM     15  C   UNL A   1      33.322  25.011  24.459  1.00  0.00    -0.021 A 
ATOM     16  C   UNL A   1      35.033  24.535  24.122  1.00  0.00     0.008 A 
ATOM     17  C   UNL A   1      32.117  23.680  24.756  1.00  0.00     0.036 A 
ATOM     18  C   UNL A   1      35.548  22.798  24.181  1.00  0.00     0.031 A 
ATOM     19  C   UNL A   1      32.606  21.899  24.830  1.00  0.00     0.089 A 
ATOM     20  C   UNL A   1      34.372  21.453  24.587  1.00  0.00     0.089 A 
ATOM     21  N   UNL A   1      31.760  20.882  25.030  1.00  0.00    -0.253 NA
ATOM     22  N   UNL A   1      34.736  20.169  24.693  1.00  0.00    -0.253 NA
ATOM     23  C   UNL A   1      32.342  19.649  25.077  1.00  0.00     0.132 A 
ATOM     24  C   UNL A   1      33.706  19.320  24.922  1.00  0.00     0.132 A 
ENDBRANCH  12  15
BRANCH  13  25
ATOM     25  C   UNL A   1      30.217  28.315  22.959  1.00  0.00    -0.002 A 
ATOM     26  C   UNL A   1      28.871  28.097  23.237  1.00  0.00     0.013 A 
ATOM     27  C   UNL A   1      30.613  29.379  22.135  1.00  0.00     0.013 A 
ATOM     28  C   UNL A   1      27.909  28.938  22.676  1.00  0.00     0.040 A 
ATOM     29  C   UNL A   1      29.643  30.206  21.563  1.00  0.00     0.040 A 
ATOM     30  C   UNL A   1      28.299  29.977  21.839  1.00  0.00     0.123 A 
ATOM     31  F   UNL A   1      27.368  30.789  21.323  1.00  0.00    -0.207 F 
ENDBRANCH  13  25
ENDBRANCH   8  10
ENDBRANCH   7   8
ENDBRANCH   6   7
ENDBRANCH   4   6
ENDBRANCH   3   4
ENDBRANCH   2   3
ENDBRANCH   1   2
BRANCH   1  32
ATOM     32  O   UNL A   1      35.589  34.386  28.566  1.00  0.00    -0.374 OA
BRANCH  32  33
ATOM     33  C   UNL A   1      34.491  34.684  27.733  1.00  0.00     0.202 C 
BRANCH  33  34
ATOM     34  C   UNL A   1      33.070  34.577  28.372  1.00  0.00     0.261 C 
BRANCH  34  35
ATOM     35  O   UNL A   1      32.862  34.577  30.076  1.00  0.00    -0.460 OA
BRANCH  35  36
ATOM     36  C   UNL A   1      33.062  35.249  31.818  1.00  0.00     0.338 C 
ATOM     37  O   UNL A   1      32.275  36.051  32.396  1.00  0.00    -0.246 OA
BRANCH  36  38
ATOM     38  C   UNL A   1      34.072  35.009  32.927  1.00  0.00     0.060 A 
ATOM     39  C   UNL A   1      35.323  35.645  32.821  1.00  0.00     0.016 A 
ATOM     40  C   UNL A   1      34.017  33.690  33.440  1.00  0.00     0.016 A 
ATOM     41  C   UNL A   1      36.488  34.952  33.106  1.00  0.00     0.010 A 
ATOM     42  C   UNL A   1      35.188  32.991  33.711  1.00  0.00     0.010 A 
ATOM     43  C   UNL A   1      36.421  33.613  33.501  1.00  0.00    -0.014 A 
BRANCH  43  44
ATOM     44  C   UNL A   1      37.667  32.890  33.778  1.00  0.00     0.031 A 
ATOM     45  C   UNL A   1      38.274  31.975  32.772  1.00  0.00     0.074 A 
ATOM     46  C   UNL A   1      38.206  33.098  34.987  1.00  0.00     0.049 A 
ATOM     47  N   UNL A   1      39.330  31.218  32.905  1.00  0.00    -0.248 NA
ATOM     48  C   UNL A   1      37.594  31.852  31.474  1.00  0.00     0.031 C 
ATOM     49  C   UNL A   1      37.593  33.940  36.011  1.00  0.00     0.029 A 
ATOM     50  N   UNL A   1      39.360  32.655  35.558  1.00  0.00    -0.354 N 
ATOM     51  C   UNL A   1      39.412  30.479  31.734  1.00  0.00     0.074 A 
ATOM     52  C   UNL A   1      38.307  30.895  30.892  1.00  0.00     0.031 C 
ATOM     53  C   UNL A   1      38.417  34.016  37.061  1.00  0.00     0.029 A 
ATOM     54  C   UNL A   1      39.584  33.193  36.800  1.00  0.00     0.049 A 
ATOM     55  H   UNL A   1      39.969  32.015  35.124  1.00  0.00     0.167 HD
ATOM     56  C   UNL A   1      40.319  29.521  31.432  1.00  0.00     0.037 A 
ATOM     57  C   UNL A   1      40.623  33.032  37.633  1.00  0.00     0.037 A 
ATOM     58  C   UNL A   1      41.392  29.148  32.324  1.00  0.00     0.049 A 
ATOM     59  C   UNL A   1      41.673  32.051  37.223  1.00  0.00     0.074 A 
ATOM     60  C   UNL A   1      42.368  28.184  32.153  1.00  0.00     0.029 A 
ATOM     61  N   UNL A   1      41.627  29.739  33.562  1.00  0.00    -0.354 N 
ATOM     62  N   UNL A   1      41.729  31.326  36.129  1.00  0.00    -0.248 NA
ATOM     63  C   UNL A   1      42.770  31.821  38.164  1.00  0.00     0.031 C 
ATOM     64  C   UNL A   1      43.170  28.169  33.300  1.00  0.00     0.029 A 
ATOM     65  C   UNL A   1      42.731  29.162  34.166  1.00  0.00     0.049 A 
ATOM     66  H   UNL A   1      41.087  30.463  33.952  1.00  0.00     0.167 HD
ATOM     67  C   UNL A   1      42.847  30.525  36.260  1.00  0.00     0.074 A 
ATOM     68  C   UNL A   1      43.472  30.898  37.519  1.00  0.00     0.031 C 
ATOM     69  C   UNL A   1      43.301  29.550  35.436  1.00  0.00     0.037 A 
BRANCH  56  70
ATOM     70  C   UNL A   1      40.157  28.789  30.130  1.00  0.00     0.057 A 
ATOM     71  C   UNL A   1      40.798  29.243  28.968  1.00  0.00     0.134 A 
ATOM     72  C   UNL A   1      39.358  27.644  30.010  1.00  0.00     0.134 A 
ATOM     73  F   UNL A   1      41.579  30.334  29.003  1.00  0.00    -0.206 F 
ATOM     74  C   UNL A   1      40.647  28.593  27.741  1.00  0.00     0.040 A 
ATOM     75  C   UNL A   1      39.221  26.968  28.794  1.00  0.00     0.040 A 
ATOM     76  F   UNL A   1      38.725  27.142  31.081  1.00  0.00    -0.206 F 
ATOM     77  C   UNL A   1      39.861  27.446  27.653  1.00  0.00     0.006 A 
ENDBRANCH  56  70
BRANCH  57  78
ATOM     78  C   UNL A   1      40.704  33.852  38.866  1.00  0.00     0.057 A 
ATOM     79  C   UNL A   1      40.016  33.508  40.038  1.00  0.00     0.134 A 
ATOM     80  C   UNL A   1      41.365  35.085  38.850  1.00  0.00     0.134 A 
ATOM     81  F   UNL A   1      39.337  32.352  40.109  1.00  0.00    -0.206 F 
ATOM     82  C   UNL A   1      39.942  34.377  41.127  1.00  0.00     0.040 A 
ATOM     83  C   UNL A   1      41.328  35.950  39.946  1.00  0.00     0.040 A 
ATOM     84  F   UNL A   1      42.043  35.473  37.760  1.00  0.00    -0.206 F 
ATOM     85  C   UNL A   1      40.599  35.604  41.081  1.00  0.00     0.006 A 
ENDBRANCH  57  78
BRANCH  69  86
ATOM     86  C   UNL A   1      44.522  28.816  35.897  1.00  0.00     0.057 A 
ATOM     87  C   UNL A   1      44.407  27.660  36.675  1.00  0.00     0.134 A 
ATOM     88  C   UNL A   1      45.809  29.277  35.593  1.00  0.00     0.134 A 
ATOM     89  F   UNL A   1      43.200  27.176  37.002  1.00  0.00    -0.206 F 
ATOM     90  C   UNL A   1      45.534  26.987  37.142  1.00  0.00     0.040 A 
ATOM     91  C   UNL A   1      46.944  28.597  36.031  1.00  0.00     0.040 A 
ATOM     92  F   UNL A   1      45.980  30.372  34.836  1.00  0.00    -0.206 F 
ATOM     93  C   UNL A   1      46.808  27.452  36.814  1.00  0.00     0.006 A 
ENDBRANCH  69  86
ENDBRANCH  43  44
ENDBRANCH  36  38
ENDBRANCH  35  36
ENDBRANCH  34  35
ENDBRANCH  33  34
ENDBRANCH  32  33
ENDBRANCH   1  32
TORSDOF 19
ENDMDL
MODEL 3
REMARK VINA RESULT:     -12.8      4.591      8.686
REMARK SMILES O=C(CCC(=O)N1N=C(c2ccc(F)cc2)C[C@@H]1c1ccc2nccnc2c1)OCCOCCOC(=O)c1ccc(-c2c3nc(c(-c4c(F)cccc4F)c4ccc([nH]4)c(-c4c(F)cccc4F)c4nc(c(-c5c(F)cccc5F)c5ccc2[nH]5)C=C4)C=C3)cc1
REMARK SMILES IDX 31 1 30 2 29 3 2 4 1 5 3 6 4 7 5 8 6 9 7 10 8 11 18 12 9 13
REMARK SMILES IDX 17 14 19 15 20 16 28 17 21 18 27 19 22 20 26 21 23 22 25 23
REMARK SMILES IDX 24 24 10 25 11 26 16 27 12 28 15 29 13 30 14 31 32 32 33 33
REMARK SMILES IDX 34 34 35 35 36 36 37 37 38 38 39 39 91 40 40 41 90 42 41 43
REMARK SMILES IDX 42 44 43 45 84 46 44 47 89 48 83 49 85 50 45 51 88 52 82 53
REMARK SMILES IDX 81 54 46 56 72 57 55 58 71 59 56 60 59 61 70 62 86 63 57 64
REMARK SMILES IDX 58 65 69 67 87 68 60 69 47 70 48 71 53 72 49 73 50 74 52 75
REMARK SMILES IDX 54 76 51 77 73 78 74 79 79 80 75 81 76 82 78 83 80 84 77 85
REMARK SMILES IDX 61 86 62 87 67 88 63 89 64 90 66 91 68 92 65 93
REMARK H PARENT 85 55 59 66
REMARK Flexibility Score: inf
ROOT
ATOM      1  C   UNL A   1      30.434  27.416  23.866  1.00  0.00     0.202 C 
ENDROOT
BRANCH   1   2
ATOM      2  C   UNL A   1      30.734  26.252  22.914  1.00  0.00     0.261 C 
BRANCH   2   3
ATOM      3  O   UNL A   1      30.760  24.996  23.622  1.00  0.00    -0.463 OA
BRANCH   3   4
ATOM      4  C   UNL A   1      31.748  24.475  24.365  1.00  0.00     0.306 C 
ATOM      5  O   UNL A   1      32.913  24.842  24.250  1.00  0.00    -0.252 OA
BRANCH   4   6
ATOM      6  C   UNL A   1      31.336  23.589  25.462  1.00  0.00     0.132 C 
BRANCH   6   7
ATOM      7  C   UNL A   1      32.248  23.879  26.629  1.00  0.00     0.114 C 
BRANCH   7   8
ATOM      8  C   UNL A   1      33.120  22.738  27.159  1.00  0.00     0.243 C 
ATOM      9  O   UNL A   1      32.889  22.416  28.338  1.00  0.00    -0.273 OA
BRANCH   8  10
ATOM     10  N   UNL A   1      34.018  21.998  26.379  1.00  0.00    -0.225 N 
ATOM     11  N   UNL A   1      33.653  20.669  26.395  1.00  0.00    -0.174 NA
ATOM     12  C   UNL A   1      34.986  22.244  25.227  1.00  0.00     0.147 C 
ATOM     13  C   UNL A   1      33.985  20.139  25.269  1.00  0.00     0.071 C 
ATOM     14  C   UNL A   1      34.776  20.999  24.334  1.00  0.00     0.091 C 
BRANCH  12  15
ATOM     15  C   UNL A   1      36.532  22.451  25.494  1.00  0.00    -0.021 A 
ATOM     16  C   UNL A   1      36.991  24.082  26.124  1.00  0.00     0.008 A 
ATOM     17  C   UNL A   1      37.823  21.168  25.451  1.00  0.00     0.036 A 
ATOM     18  C   UNL A   1      38.649  24.396  26.785  1.00  0.00     0.031 A 
ATOM     19  C   UNL A   1      39.522  21.450  26.121  1.00  0.00     0.089 A 
ATOM     20  C   UNL A   1      39.928  23.086  26.852  1.00  0.00     0.089 A 
ATOM     21  N   UNL A   1      40.509  20.548  26.101  1.00  0.00    -0.253 NA
ATOM     22  N   UNL A   1      41.142  23.274  27.386  1.00  0.00    -0.253 NA
ATOM     23  C   UNL A   1      41.676  20.957  26.678  1.00  0.00     0.132 A 
ATOM     24  C   UNL A   1      41.968  22.207  27.266  1.00  0.00     0.132 A 
ENDBRANCH  12  15
BRANCH  13  25
ATOM     25  C   UNL A   1      33.517  18.786  24.958  1.00  0.00    -0.002 A 
ATOM     26  C   UNL A   1      34.294  18.011  24.104  1.00  0.00     0.013 A 
ATOM     27  C   UNL A   1      32.527  18.195  25.758  1.00  0.00     0.013 A 
ATOM     28  C   UNL A   1      34.073  16.635  24.034  1.00  0.00     0.040 A 
ATOM     29  C   UNL A   1      32.300  16.819  25.670  1.00  0.00     0.040 A 
ATOM     30  C   UNL A   1      33.076  16.052  24.807  1.00  0.00     0.123 A 
ATOM     31  F   UNL A   1      32.888  14.728  24.747  1.00  0.00    -0.207 F 
ENDBRANCH  13  25
ENDBRANCH   8  10
ENDBRANCH   7   8
ENDBRANCH   6   7
ENDBRANCH   4   6
ENDBRANCH   3   4
ENDBRANCH   2   3
ENDBRANCH   1   2
BRANCH   1  32
ATOM     32  O   UNL A   1      31.069  28.671  23.662  1.00  0.00    -0.374 OA
BRANCH  32  33
ATOM     33  C   UNL A   1      31.023  29.662  24.663  1.00  0.00     0.202 C 
BRANCH  33  34
ATOM     34  C   UNL A   1      31.604  29.282  26.062  1.00  0.00     0.261 C 
BRANCH  34  35
ATOM     35  O   UNL A   1      32.483  30.423  26.997  1.00  0.00    -0.460 OA
BRANCH  35  36
ATOM     36  C   UNL A   1      34.031  31.257  27.655  1.00  0.00     0.338 C 
ATOM     37  O   UNL A   1      34.063  32.305  28.359  1.00  0.00    -0.246 OA
BRANCH  36  38
ATOM     38  C   UNL A   1      35.512  30.924  27.590  1.00  0.00     0.060 A 
ATOM     39  C   UNL A   1      35.901  29.611  27.916  1.00  0.00     0.016 A 
ATOM     40  C   UNL A   1      36.333  32.002  27.999  1.00  0.00     0.016 A 
ATOM     41  C   UNL A   1      37.008  29.388  28.720  1.00  0.00     0.010 A 
ATOM     42  C   UNL A   1      37.433  31.776  28.818  1.00  0.00     0.010 A 
ATOM     43  C   UNL A   1      37.740  30.472  29.210  1.00  0.00    -0.014 A 
BRANCH  43  44
ATOM     44  C   UNL A   1      38.895  30.215  30.077  1.00  0.00     0.031 A 
ATOM     45  C   UNL A   1      40.132  29.571  29.553  1.00  0.00     0.074 A 
ATOM     46  C   UNL A   1      38.757  30.583  31.358  1.00  0.00     0.049 A 
ATOM     47  N   UNL A   1      41.200  29.219  30.216  1.00  0.00    -0.248 NA
ATOM     48  C   UNL A   1      40.163  29.235  28.121  1.00  0.00     0.031 C 
ATOM     49  C   UNL A   1      37.531  31.156  31.907  1.00  0.00     0.029 A 
ATOM     50  N   UNL A   1      39.620  30.555  32.412  1.00  0.00    -0.354 N 
ATOM     51  C   UNL A   1      42.011  28.563  29.301  1.00  0.00     0.074 A 
ATOM     52  C   UNL A   1      41.317  28.585  28.029  1.00  0.00     0.031 C 
ATOM     53  C   UNL A   1      37.743  31.499  33.181  1.00  0.00     0.029 A 
ATOM     54  C   UNL A   1      39.099  31.126  33.545  1.00  0.00     0.049 A 
ATOM     55  H   UNL A   1      40.522  30.166  32.364  1.00  0.00     0.167 HD
ATOM     56  C   UNL A   1      43.206  27.975  29.541  1.00  0.00     0.037 A 
ATOM     57  C   UNL A   1      39.661  31.322  34.747  1.00  0.00     0.037 A 
ATOM     58  C   UNL A   1      43.837  27.983  30.839  1.00  0.00     0.049 A 
ATOM     59  C   UNL A   1      41.031  30.761  34.952  1.00  0.00     0.074 A 
ATOM     60  C   UNL A   1      45.035  27.411  31.226  1.00  0.00     0.029 A 
ATOM     61  N   UNL A   1      43.311  28.606  31.967  1.00  0.00    -0.354 N 
ATOM     62  N   UNL A   1      41.782  30.110  34.093  1.00  0.00    -0.248 NA
ATOM     63  C   UNL A   1      41.617  30.912  36.284  1.00  0.00     0.031 C 
ATOM     64  C   UNL A   1      45.216  27.660  32.592  1.00  0.00     0.029 A 
ATOM     65  C   UNL A   1      44.158  28.435  33.049  1.00  0.00     0.049 A 
ATOM     66  H   UNL A   1      42.460  29.099  31.992  1.00  0.00     0.167 HD
ATOM     67  C   UNL A   1      42.917  29.737  34.787  1.00  0.00     0.074 A 
ATOM     68  C   UNL A   1      42.778  30.289  36.125  1.00  0.00     0.031 C 
ATOM     69  C   UNL A   1      43.964  28.983  34.371  1.00  0.00     0.037 A 
BRANCH  56  70
ATOM     70  C   UNL A   1      43.866  27.243  28.406  1.00  0.00     0.057 A 
ATOM     71  C   UNL A   1      43.635  25.874  28.206  1.00  0.00     0.134 A 
ATOM     72  C   UNL A   1      44.743  27.877  27.516  1.00  0.00     0.134 A 
ATOM     73  F   UNL A   1      42.807  25.197  29.018  1.00  0.00    -0.206 F 
ATOM     74  C   UNL A   1      44.252  25.166  27.172  1.00  0.00     0.040 A 
ATOM     75  C   UNL A   1      45.345  27.187  26.460  1.00  0.00     0.040 A 
ATOM     76  F   UNL A   1      45.002  29.188  27.636  1.00  0.00    -0.206 F 
ATOM     77  C   UNL A   1      45.105  25.825  26.290  1.00  0.00     0.006 A 
ENDBRANCH  56  70
BRANCH  57  78
ATOM     78  C   UNL A   1      38.935  32.109  35.773  1.00  0.00     0.057 A 
ATOM     79  C   UNL A   1      39.123  33.490  35.925  1.00  0.00     0.134 A 
ATOM     80  C   UNL A   1      38.138  31.462  36.724  1.00  0.00     0.134 A 
ATOM     81  F   UNL A   1      39.899  34.166  35.065  1.00  0.00    -0.206 F 
ATOM     82  C   UNL A   1      38.587  34.187  37.008  1.00  0.00     0.040 A 
ATOM     83  C   UNL A   1      37.567  32.154  37.794  1.00  0.00     0.040 A 
ATOM     84  F   UNL A   1      37.918  30.143  36.634  1.00  0.00    -0.206 F 
ATOM     85  C   UNL A   1      37.806  33.518  37.948  1.00  0.00     0.006 A 
ENDBRANCH  57  78
BRANCH  69  86
ATOM     86  C   UNL A   1      45.021  28.706  35.395  1.00  0.00     0.057 A 
ATOM     87  C   UNL A   1      46.117  29.561  35.536  1.00  0.00     0.134 A 
ATOM     88  C   UNL A   1      44.961  27.573  36.217  1.00  0.00     0.134 A 
ATOM     89  F   UNL A   1      46.229  30.658  34.773  1.00  0.00    -0.206 F 
ATOM     90  C   UNL A   1      47.126  29.297  36.461  1.00  0.00     0.040 A 
ATOM     91  C   UNL A   1      45.951  27.313  37.164  1.00  0.00     0.040 A 
ATOM     92  F   UNL A   1      43.924  26.726  36.137  1.00  0.00    -0.206 F 
ATOM     93  C   UNL A   1      47.042  28.174  37.282  1.00  0.00     0.006 A 
ENDBRANCH  69  86
ENDBRANCH  43  44
ENDBRANCH  36  38
ENDBRANCH  35  36
ENDBRANCH  34  35
ENDBRANCH  33  34
ENDBRANCH  32  33
ENDBRANCH   1  32
TORSDOF 19
ENDMDL
