MODEL 1
REMARK VINA RESULT:      -9.8      0.000      0.000
REMARK SMILES COCCOc1ccc([C@H]([NH3+])C(=O)OCCOCCOC(=O)c2ccc(-c3c4nc(c(-c5c(F)cccc5F)c5ccc([nH]5)c(-c5c(F)cccc5F)c5nc(c(-c6c(F)cccc6F)c6ccc3[nH]6)C=C5)C=C4)cc2)cc1OC
REMARK SMILES IDX 15 1 14 2 12 3 13 4 10 5 9 6 6 7 7 8 78 9 8 10 77 11 5 12
REMARK SMILES IDX 4 13 3 14 2 15 1 16 79 17 80 18 11 19 16 23 17 24 18 25
REMARK SMILES IDX 19 26 20 27 21 28 22 29 23 30 24 31 76 32 25 33 75 34 26 35
REMARK SMILES IDX 27 36 28 37 69 38 29 39 74 40 68 41 70 42 30 43 73 44 67 45
REMARK SMILES IDX 66 46 31 48 57 49 40 50 56 51 41 52 44 53 55 54 71 55 42 56
REMARK SMILES IDX 43 57 54 59 72 60 45 61 32 62 33 63 38 64 34 65 35 66 37 67
REMARK SMILES IDX 39 68 36 69 58 70 59 71 64 72 60 73 61 74 63 75 65 76 62 77
REMARK SMILES IDX 46 78 47 79 52 80 48 81 49 82 51 83 53 84 50 85
REMARK H PARENT 11 20 11 21 11 22 70 47 44 58
REMARK Flexibility Score: inf
ROOT
ATOM      1  C   UNL A   1      44.781  19.797  24.694  1.00  0.00     0.261 C 
ENDROOT
BRANCH   1   2
ATOM      2  O   UNL A   1      43.433  20.188  24.995  1.00  0.00    -0.459 OA
BRANCH   2   3
ATOM      3  C   UNL A   1      42.718  19.304  25.752  1.00  0.00     0.369 C 
ATOM      4  O   UNL A   1      42.805  18.083  25.660  1.00  0.00    -0.245 OA
BRANCH   3   5
ATOM      5  C   UNL A   1      41.826  20.014  26.795  1.00  0.00     0.323 C 
BRANCH   5   6
ATOM      6  C   UNL A   1      40.441  20.292  26.247  1.00  0.00     0.025 A 
ATOM      7  C   UNL A   1      37.925  20.936  25.178  1.00  0.00     0.161 A 
ATOM      8  C   UNL A   1      38.376  19.616  25.155  1.00  0.00     0.051 A 
ATOM      9  C   UNL A   1      38.702  21.930  25.778  1.00  0.00     0.161 A 
ATOM     10  C   UNL A   1      39.616  19.289  25.715  1.00  0.00     0.014 A 
ATOM     11  C   UNL A   1      39.964  21.612  26.281  1.00  0.00     0.061 A 
BRANCH   7  12
ATOM     12  O   UNL A   1      36.774  21.295  24.528  1.00  0.00    -0.487 OA
BRANCH  12  13
ATOM     13  C   UNL A   1      35.614  20.562  24.946  1.00  0.00     0.258 C 
BRANCH  13  14
ATOM     14  C   UNL A   1      34.534  21.505  25.488  1.00  0.00     0.201 C 
BRANCH  14  15
ATOM     15  O   UNL A   1      34.820  22.888  25.262  1.00  0.00    -0.381 OA
ATOM     16  C   UNL A   1      34.363  23.740  26.306  1.00  0.00     0.195 C 
ENDBRANCH  14  15
ENDBRANCH  13  14
ENDBRANCH  12  13
ENDBRANCH   7  12
BRANCH   9  17
ATOM     17  O   UNL A   1      38.230  23.215  25.808  1.00  0.00    -0.493 OA
ATOM     18  C   UNL A   1      38.599  23.935  26.987  1.00  0.00     0.278 C 
ENDBRANCH   9  17
ENDBRANCH   5   6
BRANCH   5  19
ATOM     19  N   UNL A   1      42.452  21.207  27.410  1.00  0.00    -0.342 N 
ATOM     20  H   UNL A   1      42.959  20.931  28.251  1.00  0.00     0.345 HD
ATOM     21  H   UNL A   1      41.727  21.883  27.656  1.00  0.00     0.345 HD
ATOM     22  H   UNL A   1      43.099  21.632  26.746  1.00  0.00     0.345 HD
ENDBRANCH   5  19
ENDBRANCH   3   5
ENDBRANCH   2   3
ENDBRANCH   1   2
BRANCH   1  23
ATOM     23  C   UNL A   1      45.688  21.025  24.566  1.00  0.00     0.202 C 
BRANCH  23  24
ATOM     24  O   UNL A   1      46.237  21.549  25.775  1.00  0.00    -0.374 OA
BRANCH  24  25
ATOM     25  C   UNL A   1      45.572  22.650  26.393  1.00  0.00     0.202 C 
BRANCH  25  26
ATOM     26  C   UNL A   1      46.161  24.050  26.165  1.00  0.00     0.261 C 
BRANCH  26  27
ATOM     27  O   UNL A   1      45.516  24.776  25.103  1.00  0.00    -0.460 OA
BRANCH  27  28
ATOM     28  C   UNL A   1      44.208  24.477  24.928  1.00  0.00     0.338 C 
ATOM     29  O   UNL A   1      43.731  23.580  24.245  1.00  0.00    -0.246 OA
BRANCH  28  30
ATOM     30  C   UNL A   1      43.372  25.297  25.820  1.00  0.00     0.060 A 
ATOM     31  C   UNL A   1      43.707  26.650  25.954  1.00  0.00     0.016 A 
ATOM     32  C   UNL A   1      42.364  24.730  26.602  1.00  0.00     0.016 A 
ATOM     33  C   UNL A   1      43.068  27.432  26.913  1.00  0.00     0.010 A 
ATOM     34  C   UNL A   1      41.731  25.516  27.572  1.00  0.00     0.010 A 
ATOM     35  C   UNL A   1      42.108  26.858  27.758  1.00  0.00    -0.014 A 
BRANCH  35  36
ATOM     36  C   UNL A   1      41.633  27.630  28.931  1.00  0.00     0.031 A 
ATOM     37  C   UNL A   1      42.386  27.524  30.229  1.00  0.00     0.074 A 
ATOM     38  C   UNL A   1      40.582  28.462  28.828  1.00  0.00     0.049 A 
ATOM     39  N   UNL A   1      42.169  28.132  31.367  1.00  0.00    -0.248 NA
ATOM     40  C   UNL A   1      43.539  26.610  30.244  1.00  0.00     0.031 C 
ATOM     41  C   UNL A   1      39.794  28.681  27.617  1.00  0.00     0.029 A 
ATOM     42  N   UNL A   1      40.002  29.282  29.762  1.00  0.00    -0.354 N 
ATOM     43  C   UNL A   1      43.157  27.679  32.232  1.00  0.00     0.074 A 
ATOM     44  C   UNL A   1      43.954  26.719  31.498  1.00  0.00     0.031 C 
ATOM     45  C   UNL A   1      38.830  29.580  27.882  1.00  0.00     0.029 A 
ATOM     46  C   UNL A   1      38.921  29.981  29.286  1.00  0.00     0.049 A 
ATOM     47  H   UNL A   1      40.330  29.361  30.688  1.00  0.00     0.167 HD
ATOM     48  C   UNL A   1      43.390  28.039  33.516  1.00  0.00     0.037 A 
ATOM     49  C   UNL A   1      38.097  30.840  29.913  1.00  0.00     0.037 A 
ATOM     50  C   UNL A   1      42.600  28.992  34.248  1.00  0.00     0.049 A 
ATOM     51  C   UNL A   1      38.335  31.176  31.360  1.00  0.00     0.074 A 
ATOM     52  C   UNL A   1      42.766  29.434  35.550  1.00  0.00     0.029 A 
ATOM     53  N   UNL A   1      41.487  29.647  33.742  1.00  0.00    -0.354 N 
ATOM     54  N   UNL A   1      39.289  30.762  32.160  1.00  0.00    -0.248 NA
ATOM     55  C   UNL A   1      37.385  32.102  31.991  1.00  0.00     0.031 C 
ATOM     56  C   UNL A   1      41.727  30.325  35.845  1.00  0.00     0.029 A 
ATOM     57  C   UNL A   1      40.942  30.471  34.713  1.00  0.00     0.049 A 
ATOM     58  H   UNL A   1      41.136  29.541  32.829  1.00  0.00     0.167 HD
ATOM     59  C   UNL A   1      39.069  31.395  33.377  1.00  0.00     0.074 A 
ATOM     60  C   UNL A   1      37.898  32.230  33.208  1.00  0.00     0.031 C 
ATOM     61  C   UNL A   1      39.776  31.297  34.529  1.00  0.00     0.037 A 
BRANCH  48  62
ATOM     62  C   UNL A   1      44.538  27.375  34.216  1.00  0.00     0.057 A 
ATOM     63  C   UNL A   1      45.823  27.933  34.222  1.00  0.00     0.134 A 
ATOM     64  C   UNL A   1      44.354  26.171  34.906  1.00  0.00     0.134 A 
ATOM     65  F   UNL A   1      46.069  29.078  33.565  1.00  0.00    -0.206 F 
ATOM     66  C   UNL A   1      46.889  27.305  34.868  1.00  0.00     0.040 A 
ATOM     67  C   UNL A   1      45.407  25.545  35.575  1.00  0.00     0.040 A 
ATOM     68  F   UNL A   1      43.147  25.585  34.942  1.00  0.00    -0.206 F 
ATOM     69  C   UNL A   1      46.680  26.109  35.552  1.00  0.00     0.006 A 
ENDBRANCH  48  62
BRANCH  49  70
ATOM     70  C   UNL A   1      36.962  31.448  29.174  1.00  0.00     0.057 A 
ATOM     71  C   UNL A   1      37.023  32.767  28.713  1.00  0.00     0.134 A 
ATOM     72  C   UNL A   1      35.787  30.728  28.927  1.00  0.00     0.134 A 
ATOM     73  F   UNL A   1      38.112  33.514  28.942  1.00  0.00    -0.206 F 
ATOM     74  C   UNL A   1      35.950  33.354  28.038  1.00  0.00     0.040 A 
ATOM     75  C   UNL A   1      34.717  31.295  28.235  1.00  0.00     0.040 A 
ATOM     76  F   UNL A   1      35.670  29.460  29.345  1.00  0.00    -0.206 F 
ATOM     77  C   UNL A   1      34.794  32.615  27.794  1.00  0.00     0.006 A 
ENDBRANCH  49  70
BRANCH  61  78
ATOM     78  C   UNL A   1      39.319  32.134  35.688  1.00  0.00     0.057 A 
ATOM     79  C   UNL A   1      38.394  31.656  36.624  1.00  0.00     0.134 A 
ATOM     80  C   UNL A   1      39.839  33.418  35.890  1.00  0.00     0.134 A 
ATOM     81  F   UNL A   1      37.849  30.438  36.480  1.00  0.00    -0.206 F 
ATOM     82  C   UNL A   1      37.984  32.435  37.707  1.00  0.00     0.040 A 
ATOM     83  C   UNL A   1      39.455  34.198  36.982  1.00  0.00     0.040 A 
ATOM     84  F   UNL A   1      40.736  33.932  35.034  1.00  0.00    -0.206 F 
ATOM     85  C   UNL A   1      38.520  33.708  37.891  1.00  0.00     0.006 A 
ENDBRANCH  61  78
ENDBRANCH  35  36
ENDBRANCH  28  30
ENDBRANCH  27  28
ENDBRANCH  26  27
ENDBRANCH  25  26
ENDBRANCH  24  25
ENDBRANCH  23  24
ENDBRANCH   1  23
TORSDOF 21
ENDMDL
MODEL 2
REMARK VINA RESULT:      -9.7      0.823      6.383
REMARK SMILES COCCOc1ccc([C@H]([NH3+])C(=O)OCCOCCOC(=O)c2ccc(-c3c4nc(c(-c5c(F)cccc5F)c5ccc([nH]5)c(-c5c(F)cccc5F)c5nc(c(-c6c(F)cccc6F)c6ccc3[nH]6)C=C5)C=C4)cc2)cc1OC
REMARK SMILES IDX 15 1 14 2 12 3 13 4 10 5 9 6 6 7 7 8 78 9 8 10 77 11 5 12
REMARK SMILES IDX 4 13 3 14 2 15 1 16 79 17 80 18 11 19 16 23 17 24 18 25
REMARK SMILES IDX 19 26 20 27 21 28 22 29 23 30 24 31 76 32 25 33 75 34 26 35
REMARK SMILES IDX 27 36 28 37 69 38 29 39 74 40 68 41 70 42 30 43 73 44 67 45
REMARK SMILES IDX 66 46 31 48 57 49 40 50 56 51 41 52 44 53 55 54 71 55 42 56
REMARK SMILES IDX 43 57 54 59 72 60 45 61 32 62 33 63 38 64 34 65 35 66 37 67
REMARK SMILES IDX 39 68 36 69 58 70 59 71 64 72 60 73 61 74 63 75 65 76 62 77
REMARK SMILES IDX 46 78 47 79 52 80 48 81 49 82 51 83 53 84 50 85
REMARK H PARENT 11 20 11 21 11 22 70 47 44 58
REMARK Flexibility Score: inf
ROOT
ATOM      1  C   UNL A   1      44.281  19.318  24.425  1.00  0.00     0.261 C 
ENDROOT
BRANCH   1   2
ATOM      2  O   UNL A   1      43.119  19.934  25.002  1.00  0.00    -0.459 OA
BRANCH   2   3
ATOM      3  C   UNL A   1      42.381  19.139  25.832  1.00  0.00     0.369 C 
ATOM      4  O   UNL A   1      42.416  17.911  25.829  1.00  0.00    -0.245 OA
BRANCH   3   5
ATOM      5  C   UNL A   1      41.539  19.959  26.834  1.00  0.00     0.323 C 
BRANCH   5   6
ATOM      6  C   UNL A   1      40.191  20.332  26.253  1.00  0.00     0.025 A 
ATOM      7  C   UNL A   1      37.745  21.158  25.147  1.00  0.00     0.161 A 
ATOM      8  C   UNL A   1      38.190  19.849  24.959  1.00  0.00     0.051 A 
ATOM      9  C   UNL A   1      38.491  22.044  25.928  1.00  0.00     0.161 A 
ATOM     10  C   UNL A   1      39.393  19.428  25.536  1.00  0.00     0.014 A 
ATOM     11  C   UNL A   1      39.719  21.640  26.451  1.00  0.00     0.061 A 
BRANCH   7  12
ATOM     12  O   UNL A   1      36.635  21.623  24.490  1.00  0.00    -0.487 OA
BRANCH  12  13
ATOM     13  C   UNL A   1      35.400  21.085  24.980  1.00  0.00     0.258 C 
BRANCH  13  14
ATOM     14  C   UNL A   1      34.205  21.669  24.217  1.00  0.00     0.201 C 
BRANCH  14  15
ATOM     15  O   UNL A   1      32.948  21.427  24.858  1.00  0.00    -0.381 OA
ATOM     16  C   UNL A   1      33.006  20.417  25.858  1.00  0.00     0.195 C 
ENDBRANCH  14  15
ENDBRANCH  13  14
ENDBRANCH  12  13
ENDBRANCH   7  12
BRANCH   9  17
ATOM     17  O   UNL A   1      38.023  23.318  26.117  1.00  0.00    -0.493 OA
ATOM     18  C   UNL A   1      39.044  24.259  26.458  1.00  0.00     0.278 C 
ENDBRANCH   9  17
ENDBRANCH   5   6
BRANCH   5  19
ATOM     19  N   UNL A   1      42.256  21.118  27.415  1.00  0.00    -0.342 N 
ATOM     20  H   UNL A   1      42.846  20.802  28.185  1.00  0.00     0.345 HD
ATOM     21  H   UNL A   1      41.578  21.798  27.762  1.00  0.00     0.345 HD
ATOM     22  H   UNL A   1      42.836  21.553  26.699  1.00  0.00     0.345 HD
ENDBRANCH   5  19
ENDBRANCH   3   5
ENDBRANCH   2   3
ENDBRANCH   1   2
BRANCH   1  23
ATOM     23  C   UNL A   1      45.475  19.411  25.378  1.00  0.00     0.202 C 
BRANCH  23  24
ATOM     24  O   UNL A   1      46.435  20.433  25.111  1.00  0.00    -0.374 OA
BRANCH  24  25
ATOM     25  C   UNL A   1      45.961  21.764  24.909  1.00  0.00     0.202 C 
BRANCH  25  26
ATOM     26  C   UNL A   1      45.715  22.624  26.157  1.00  0.00     0.261 C 
BRANCH  26  27
ATOM     27  O   UNL A   1      44.376  23.144  26.239  1.00  0.00    -0.460 OA
BRANCH  27  28
ATOM     28  C   UNL A   1      44.203  24.353  25.655  1.00  0.00     0.338 C 
ATOM     29  O   UNL A   1      44.500  24.681  24.513  1.00  0.00    -0.246 OA
BRANCH  28  30
ATOM     30  C   UNL A   1      43.437  25.245  26.541  1.00  0.00     0.060 A 
ATOM     31  C   UNL A   1      43.855  26.578  26.633  1.00  0.00     0.016 A 
ATOM     32  C   UNL A   1      42.414  24.759  27.357  1.00  0.00     0.016 A 
ATOM     33  C   UNL A   1      43.286  27.421  27.583  1.00  0.00     0.010 A 
ATOM     34  C   UNL A   1      41.849  25.607  28.318  1.00  0.00     0.010 A 
ATOM     35  C   UNL A   1      42.310  26.928  28.461  1.00  0.00    -0.014 A 
BRANCH  35  36
ATOM     36  C   UNL A   1      41.907  27.756  29.623  1.00  0.00     0.031 A 
ATOM     37  C   UNL A   1      40.694  28.637  29.506  1.00  0.00     0.074 A 
ATOM     38  C   UNL A   1      42.574  27.679  30.788  1.00  0.00     0.049 A 
ATOM     39  N   UNL A   1      40.143  29.415  30.402  1.00  0.00    -0.248 NA
ATOM     40  C   UNL A   1      40.008  28.639  28.203  1.00  0.00     0.031 C 
ATOM     41  C   UNL A   1      43.741  26.836  31.039  1.00  0.00     0.029 A 
ATOM     42  N   UNL A   1      42.357  28.321  31.980  1.00  0.00    -0.354 N 
ATOM     43  C   UNL A   1      39.047  29.997  29.776  1.00  0.00     0.074 A 
ATOM     44  C   UNL A   1      39.031  29.508  28.413  1.00  0.00     0.031 C 
ATOM     45  C   UNL A   1      44.138  27.012  32.311  1.00  0.00     0.029 A 
ATOM     46  C   UNL A   1      43.268  27.996  32.954  1.00  0.00     0.049 A 
ATOM     47  H   UNL A   1      41.618  28.956  32.125  1.00  0.00     0.167 HD
ATOM     48  C   UNL A   1      38.130  30.849  30.290  1.00  0.00     0.037 A 
ATOM     49  C   UNL A   1      43.389  28.446  34.216  1.00  0.00     0.037 A 
ATOM     50  C   UNL A   1      38.144  31.337  31.643  1.00  0.00     0.049 A 
ATOM     51  C   UNL A   1      42.396  29.444  34.748  1.00  0.00     0.074 A 
ATOM     52  C   UNL A   1      37.249  32.192  32.263  1.00  0.00     0.029 A 
ATOM     53  N   UNL A   1      39.109  31.016  32.586  1.00  0.00    -0.354 N 
ATOM     54  N   UNL A   1      41.348  29.965  34.154  1.00  0.00    -0.248 NA
ATOM     55  C   UNL A   1      42.598  29.912  36.126  1.00  0.00     0.031 C 
ATOM     56  C   UNL A   1      37.696  32.422  33.569  1.00  0.00     0.029 A 
ATOM     57  C   UNL A   1      38.845  31.675  33.775  1.00  0.00     0.049 A 
ATOM     58  H   UNL A   1      39.869  30.410  32.433  1.00  0.00     0.167 HD
ATOM     59  C   UNL A   1      40.755  30.801  35.093  1.00  0.00     0.074 A 
ATOM     60  C   UNL A   1      41.552  30.709  36.298  1.00  0.00     0.031 C 
ATOM     61  C   UNL A   1      39.647  31.571  34.968  1.00  0.00     0.037 A 
BRANCH  48  62
ATOM     62  C   UNL A   1      37.045  31.325  29.371  1.00  0.00     0.057 A 
ATOM     63  C   UNL A   1      35.955  30.514  29.031  1.00  0.00     0.134 A 
ATOM     64  C   UNL A   1      37.083  32.616  28.830  1.00  0.00     0.134 A 
ATOM     65  F   UNL A   1      35.868  29.261  29.503  1.00  0.00    -0.206 F 
ATOM     66  C   UNL A   1      34.954  30.961  28.167  1.00  0.00     0.040 A 
ATOM     67  C   UNL A   1      36.076  33.083  27.983  1.00  0.00     0.040 A 
ATOM     68  F   UNL A   1      38.098  33.445  29.118  1.00  0.00    -0.206 F 
ATOM     69  C   UNL A   1      35.011  32.251  27.645  1.00  0.00     0.006 A 
ENDBRANCH  48  62
BRANCH  49  70
ATOM     70  C   UNL A   1      44.498  27.956  35.073  1.00  0.00     0.057 A 
ATOM     71  C   UNL A   1      44.334  26.840  35.901  1.00  0.00     0.134 A 
ATOM     72  C   UNL A   1      45.740  28.601  35.093  1.00  0.00     0.134 A 
ATOM     73  F   UNL A   1      43.159  26.196  35.943  1.00  0.00    -0.206 F 
ATOM     74  C   UNL A   1      45.365  26.388  36.728  1.00  0.00     0.040 A 
ATOM     75  C   UNL A   1      46.785  28.147  35.897  1.00  0.00     0.040 A 
ATOM     76  F   UNL A   1      45.957  29.676  34.321  1.00  0.00    -0.206 F 
ATOM     77  C   UNL A   1      46.597  27.040  36.723  1.00  0.00     0.006 A 
ENDBRANCH  49  70
BRANCH  61  78
ATOM     78  C   UNL A   1      39.216  32.354  36.173  1.00  0.00     0.057 A 
ATOM     79  C   UNL A   1      39.673  33.657  36.410  1.00  0.00     0.134 A 
ATOM     80  C   UNL A   1      38.306  31.812  37.088  1.00  0.00     0.134 A 
ATOM     81  F   UNL A   1      40.556  34.229  35.578  1.00  0.00    -0.206 F 
ATOM     82  C   UNL A   1      39.256  34.384  37.527  1.00  0.00     0.040 A 
ATOM     83  C   UNL A   1      37.863  32.537  38.196  1.00  0.00     0.040 A 
ATOM     84  F   UNL A   1      37.823  30.572  36.915  1.00  0.00    -0.206 F 
ATOM     85  C   UNL A   1      38.344  33.825  38.420  1.00  0.00     0.006 A 
ENDBRANCH  61  78
ENDBRANCH  35  36
ENDBRANCH  28  30
ENDBRANCH  27  28
ENDBRANCH  26  27
ENDBRANCH  25  26
ENDBRANCH  24  25
ENDBRANCH  23  24
ENDBRANCH   1  23
TORSDOF 21
ENDMDL
MODEL 3
REMARK VINA RESULT:      -9.6      0.758      2.048
REMARK SMILES COCCOc1ccc([C@H]([NH3+])C(=O)OCCOCCOC(=O)c2ccc(-c3c4nc(c(-c5c(F)cccc5F)c5ccc([nH]5)c(-c5c(F)cccc5F)c5nc(c(-c6c(F)cccc6F)c6ccc3[nH]6)C=C5)C=C4)cc2)cc1OC
REMARK SMILES IDX 15 1 14 2 12 3 13 4 10 5 9 6 6 7 7 8 78 9 8 10 77 11 5 12
REMARK SMILES IDX 4 13 3 14 2 15 1 16 79 17 80 18 11 19 16 23 17 24 18 25
REMARK SMILES IDX 19 26 20 27 21 28 22 29 23 30 24 31 76 32 25 33 75 34 26 35
REMARK SMILES IDX 27 36 28 37 69 38 29 39 74 40 68 41 70 42 30 43 73 44 67 45
REMARK SMILES IDX 66 46 31 48 57 49 40 50 56 51 41 52 44 53 55 54 71 55 42 56
REMARK SMILES IDX 43 57 54 59 72 60 45 61 32 62 33 63 38 64 34 65 35 66 37 67
REMARK SMILES IDX 39 68 36 69 58 70 59 71 64 72 60 73 61 74 63 75 65 76 62 77
REMARK SMILES IDX 46 78 47 79 52 80 48 81 49 82 51 83 53 84 50 85
REMARK H PARENT 11 20 11 21 11 22 70 47 44 58
REMARK Flexibility Score: inf
ROOT
ATOM      1  C   UNL A   1      44.188  19.172  24.489  1.00  0.00     0.261 C 
ENDROOT
BRANCH   1   2
ATOM      2  O   UNL A   1      43.184  19.885  25.228  1.00  0.00    -0.459 OA
BRANCH   2   3
ATOM      3  C   UNL A   1      42.414  19.124  26.061  1.00  0.00     0.369 C 
ATOM      4  O   UNL A   1      42.316  17.902  25.992  1.00  0.00    -0.245 OA
BRANCH   3   5
ATOM      5  C   UNL A   1      41.723  19.969  27.155  1.00  0.00     0.323 C 
BRANCH   5   6
ATOM      6  C   UNL A   1      40.544  20.741  26.600  1.00  0.00     0.025 A 
ATOM      7  C   UNL A   1      38.275  22.053  25.591  1.00  0.00     0.161 A 
ATOM      8  C   UNL A   1      39.193  22.751  26.376  1.00  0.00     0.051 A 
ATOM      9  C   UNL A   1      38.509  20.715  25.265  1.00  0.00     0.161 A 
ATOM     10  C   UNL A   1      40.340  22.106  26.853  1.00  0.00     0.014 A 
ATOM     11  C   UNL A   1      39.621  20.058  25.792  1.00  0.00     0.061 A 
BRANCH   7  12
ATOM     12  O   UNL A   1      37.089  22.630  25.219  1.00  0.00    -0.487 OA
BRANCH  12  13
ATOM     13  C   UNL A   1      36.649  23.675  26.097  1.00  0.00     0.258 C 
BRANCH  13  14
ATOM     14  C   UNL A   1      35.244  24.157  25.717  1.00  0.00     0.201 C 
BRANCH  14  15
ATOM     15  O   UNL A   1      34.215  23.214  26.033  1.00  0.00    -0.381 OA
ATOM     16  C   UNL A   1      32.911  23.783  26.048  1.00  0.00     0.195 C 
ENDBRANCH  14  15
ENDBRANCH  13  14
ENDBRANCH  12  13
ENDBRANCH   7  12
BRANCH   9  17
ATOM     17  O   UNL A   1      37.604  20.056  24.475  1.00  0.00    -0.493 OA
ATOM     18  C   UNL A   1      37.212  18.781  24.991  1.00  0.00     0.278 C 
ENDBRANCH   9  17
ENDBRANCH   5   6
BRANCH   5  19
ATOM     19  N   UNL A   1      42.652  20.819  27.935  1.00  0.00    -0.342 N 
ATOM     20  H   UNL A   1      43.114  20.254  28.647  1.00  0.00     0.345 HD
ATOM     21  H   UNL A   1      42.129  21.571  28.384  1.00  0.00     0.345 HD
ATOM     22  H   UNL A   1      43.352  21.219  27.311  1.00  0.00     0.345 HD
ENDBRANCH   5  19
ENDBRANCH   3   5
ENDBRANCH   2   3
ENDBRANCH   1   2
BRANCH   1  23
ATOM     23  C   UNL A   1      45.442  18.960  25.342  1.00  0.00     0.202 C 
BRANCH  23  24
ATOM     24  O   UNL A   1      46.370  20.043  25.404  1.00  0.00    -0.374 OA
BRANCH  24  25
ATOM     25  C   UNL A   1      45.927  21.333  24.983  1.00  0.00     0.202 C 
BRANCH  25  26
ATOM     26  C   UNL A   1      45.688  22.389  26.072  1.00  0.00     0.261 C 
BRANCH  26  27
ATOM     27  O   UNL A   1      44.386  23.000  26.001  1.00  0.00    -0.460 OA
BRANCH  27  28
ATOM     28  C   UNL A   1      44.381  24.259  25.506  1.00  0.00     0.338 C 
ATOM     29  O   UNL A   1      44.866  24.650  24.452  1.00  0.00    -0.246 OA
BRANCH  28  30
ATOM     30  C   UNL A   1      43.548  25.136  26.345  1.00  0.00     0.060 A 
ATOM     31  C   UNL A   1      43.958  26.466  26.494  1.00  0.00     0.016 A 
ATOM     32  C   UNL A   1      42.464  24.637  27.070  1.00  0.00     0.016 A 
ATOM     33  C   UNL A   1      43.316  27.293  27.411  1.00  0.00     0.010 A 
ATOM     34  C   UNL A   1      41.826  25.468  27.999  1.00  0.00     0.010 A 
ATOM     35  C   UNL A   1      42.275  26.785  28.202  1.00  0.00    -0.014 A 
BRANCH  35  36
ATOM     36  C   UNL A   1      41.782  27.593  29.343  1.00  0.00     0.031 A 
ATOM     37  C   UNL A   1      42.507  27.516  30.659  1.00  0.00     0.074 A 
ATOM     38  C   UNL A   1      40.741  28.431  29.195  1.00  0.00     0.049 A 
ATOM     39  N   UNL A   1      42.272  28.157  31.775  1.00  0.00    -0.248 NA
ATOM     40  C   UNL A   1      43.651  26.593  30.724  1.00  0.00     0.031 C 
ATOM     41  C   UNL A   1      39.981  28.623  27.962  1.00  0.00     0.029 A 
ATOM     42  N   UNL A   1      40.150  29.281  30.094  1.00  0.00    -0.354 N 
ATOM     43  C   UNL A   1      43.238  27.720  32.673  1.00  0.00     0.074 A 
ATOM     44  C   UNL A   1      44.041  26.733  31.983  1.00  0.00     0.031 C 
ATOM     45  C   UNL A   1      39.020  29.538  28.183  1.00  0.00     0.029 A 
ATOM     46  C   UNL A   1      39.085  29.976  29.576  1.00  0.00     0.049 A 
ATOM     47  H   UNL A   1      40.459  29.383  31.024  1.00  0.00     0.167 HD
ATOM     48  C   UNL A   1      43.447  28.113  33.951  1.00  0.00     0.037 A 
ATOM     49  C   UNL A   1      38.256  30.859  30.163  1.00  0.00     0.037 A 
ATOM     50  C   UNL A   1      42.651  29.092  34.641  1.00  0.00     0.049 A 
ATOM     51  C   UNL A   1      38.467  31.233  31.605  1.00  0.00     0.074 A 
ATOM     52  C   UNL A   1      42.794  29.569  35.932  1.00  0.00     0.029 A 
ATOM     53  N   UNL A   1      41.554  29.743  34.094  1.00  0.00    -0.354 N 
ATOM     54  N   UNL A   1      39.401  30.833  32.435  1.00  0.00    -0.248 NA
ATOM     55  C   UNL A   1      37.513  32.184  32.190  1.00  0.00     0.031 C 
ATOM     56  C   UNL A   1      41.758  30.477  36.181  1.00  0.00     0.029 A 
ATOM     57  C   UNL A   1      40.997  30.598  35.030  1.00  0.00     0.049 A 
ATOM     58  H   UNL A   1      41.222  29.615  33.176  1.00  0.00     0.167 HD
ATOM     59  C   UNL A   1      39.161  31.501  33.629  1.00  0.00     0.074 A 
ATOM     60  C   UNL A   1      38.001  32.341  33.413  1.00  0.00     0.031 C 
ATOM     61  C   UNL A   1      39.843  31.429  34.798  1.00  0.00     0.037 A 
BRANCH  48  62
ATOM     62  C   UNL A   1      44.574  27.459  34.694  1.00  0.00     0.057 A 
ATOM     63  C   UNL A   1      44.385  26.291  35.444  1.00  0.00     0.134 A 
ATOM     64  C   UNL A   1      45.867  27.995  34.647  1.00  0.00     0.134 A 
ATOM     65  F   UNL A   1      43.167  25.736  35.542  1.00  0.00    -0.206 F 
ATOM     66  C   UNL A   1      45.437  25.693  36.140  1.00  0.00     0.040 A 
ATOM     67  C   UNL A   1      46.931  27.393  35.321  1.00  0.00     0.040 A 
ATOM     68  F   UNL A   1      46.116  29.110  33.944  1.00  0.00    -0.206 F 
ATOM     69  C   UNL A   1      46.716  26.242  36.075  1.00  0.00     0.006 A 
ENDBRANCH  48  62
BRANCH  49  70
ATOM     70  C   UNL A   1      37.143  31.457  29.384  1.00  0.00     0.057 A 
ATOM     71  C   UNL A   1      35.968  30.741  29.132  1.00  0.00     0.134 A 
ATOM     72  C   UNL A   1      37.236  32.752  28.862  1.00  0.00     0.134 A 
ATOM     73  F   UNL A   1      35.831  29.486  29.586  1.00  0.00    -0.206 F 
ATOM     74  C   UNL A   1      34.927  31.288  28.380  1.00  0.00     0.040 A 
ATOM     75  C   UNL A   1      36.195  33.319  28.126  1.00  0.00     0.040 A 
ATOM     76  F   UNL A   1      38.338  33.488  29.069  1.00  0.00    -0.206 F 
ATOM     77  C   UNL A   1      35.038  32.583  27.878  1.00  0.00     0.006 A 
ENDBRANCH  49  70
BRANCH  61  78
ATOM     78  C   UNL A   1      39.370  32.301  35.924  1.00  0.00     0.057 A 
ATOM     79  C   UNL A   1      39.904  33.576  36.146  1.00  0.00     0.134 A 
ATOM     80  C   UNL A   1      38.342  31.873  36.774  1.00  0.00     0.134 A 
ATOM     81  F   UNL A   1      40.899  34.040  35.375  1.00  0.00    -0.206 F 
ATOM     82  C   UNL A   1      39.447  34.387  37.187  1.00  0.00     0.040 A 
ATOM     83  C   UNL A   1      37.861  32.683  37.804  1.00  0.00     0.040 A 
ATOM     84  F   UNL A   1      37.781  30.665  36.610  1.00  0.00    -0.206 F 
ATOM     85  C   UNL A   1      38.419  33.942  38.016  1.00  0.00     0.006 A 
ENDBRANCH  61  78
ENDBRANCH  35  36
ENDBRANCH  28  30
ENDBRANCH  27  28
ENDBRANCH  26  27
ENDBRANCH  25  26
ENDBRANCH  24  25
ENDBRANCH  23  24
ENDBRANCH   1  23
TORSDOF 21
ENDMDL
