MODEL 1
REMARK VINA RESULT:     -10.7      0.000      0.000
REMARK SMILES [NH3+][C@@]1(C(=O)OCCOCCOC(=O)c2ccc(-c3c4nc(c(-c5c(F)cccc5F)c5ccc([nH]5)c(-c5c(F)cccc5F)c5nc(c(-c6c(F)cccc6F)c6ccc3[nH]6)C=C5)C=C4)cc2)CC[N@H+](Cc2ccc(OCC(=O)N3CCCCC3)cc2)C1
REMARK SMILES IDX 6 1 5 2 3 3 4 4 2 5 68 6 88 7 69 8 70 9 1 11 71 15 72 16
REMARK SMILES IDX 73 17 87 18 74 19 86 20 75 21 76 22 77 23 78 24 79 25 80 26
REMARK SMILES IDX 81 27 85 28 82 29 84 30 83 31 7 32 8 33 9 34 10 35 11 36
REMARK SMILES IDX 12 37 13 38 14 39 15 40 67 41 16 42 66 43 17 44 18 45 19 46
REMARK SMILES IDX 60 47 20 48 65 49 59 50 61 51 21 52 64 53 58 54 57 55 22 57
REMARK SMILES IDX 48 58 31 59 47 60 32 61 35 62 46 63 62 64 33 65 34 66 45 68
REMARK SMILES IDX 63 69 36 70 23 71 24 72 29 73 25 74 26 75 28 76 30 77 27 78
REMARK SMILES IDX 49 79 50 80 55 81 51 82 52 83 54 84 56 85 53 86 37 87 38 88
REMARK SMILES IDX 43 89 39 90 40 91 42 92 44 93 41 94
REMARK H PARENT 70 10 1 12 1 13 1 14 61 56 35 67
REMARK Flexibility Score: inf
ROOT
ATOM      1  C   UNL A   1      33.686  28.449  26.098  1.00  0.00     0.261 C 
ENDROOT
BRANCH   1   2
ATOM      2  O   UNL A   1      33.911  28.546  24.697  1.00  0.00    -0.458 OA
BRANCH   2   3
ATOM      3  C   UNL A   1      33.542  27.487  23.945  1.00  0.00     0.374 C 
ATOM      4  O   UNL A   1      33.690  26.311  24.259  1.00  0.00    -0.244 OA
BRANCH   3   5
ATOM      5  C   UNL A   1      32.708  27.965  22.738  1.00  0.00     0.246 C 
ATOM      6  C   UNL A   1      31.920  29.216  23.110  1.00  0.00     0.148 C 
ATOM      7  C   UNL A   1      31.575  26.976  22.366  1.00  0.00     0.344 C 
ATOM      8  C   UNL A   1      30.695  28.653  23.817  1.00  0.00     0.270 C 
ATOM      9  N   UNL A   1      30.399  27.400  23.135  1.00  0.00    -0.325 N 
ATOM     10  H   UNL A   1      29.661  27.584  22.454  1.00  0.00     0.348 HD
BRANCH   5  11
ATOM     11  N   UNL A   1      33.667  28.245  21.637  1.00  0.00    -0.338 N 
ATOM     12  H   UNL A   1      34.604  27.961  21.922  1.00  0.00     0.345 HD
ATOM     13  H   UNL A   1      33.663  29.244  21.429  1.00  0.00     0.345 HD
ATOM     14  H   UNL A   1      33.391  27.724  20.805  1.00  0.00     0.345 HD
ENDBRANCH   5  11
BRANCH   9  15
ATOM     15  C   UNL A   1      29.638  26.387  23.871  1.00  0.00     0.299 C 
BRANCH  15  16
ATOM     16  C   UNL A   1      30.405  25.413  24.751  1.00  0.00     0.006 A 
ATOM     17  C   UNL A   1      30.916  25.842  25.976  1.00  0.00     0.013 A 
ATOM     18  C   UNL A   1      30.651  24.077  24.392  1.00  0.00     0.013 A 
ATOM     19  C   UNL A   1      31.495  24.927  26.859  1.00  0.00     0.047 A 
ATOM     20  C   UNL A   1      31.193  23.150  25.307  1.00  0.00     0.047 A 
ATOM     21  C   UNL A   1      31.539  23.563  26.583  1.00  0.00     0.120 A 
BRANCH  21  22
ATOM     22  O   UNL A   1      31.841  22.799  27.672  1.00  0.00    -0.484 OA
BRANCH  22  23
ATOM     23  C   UNL A   1      33.138  22.263  27.843  1.00  0.00     0.329 C 
BRANCH  23  24
ATOM     24  C   UNL A   1      33.913  21.534  26.717  1.00  0.00     0.260 C 
ATOM     25  O   UNL A   1      33.659  20.340  26.508  1.00  0.00    -0.271 OA
ATOM     26  N   UNL A   1      34.805  22.232  25.905  1.00  0.00    -0.340 N 
ATOM     27  C   UNL A   1      35.185  21.631  24.629  1.00  0.00     0.119 C 
ATOM     28  C   UNL A   1      35.360  23.568  26.134  1.00  0.00     0.119 C 
ATOM     29  C   UNL A   1      36.691  21.466  24.541  1.00  0.00     0.022 C 
ATOM     30  C   UNL A   1      36.870  23.664  25.827  1.00  0.00     0.022 C 
ATOM     31  C   UNL A   1      37.378  22.821  24.655  1.00  0.00     0.004 C 
ENDBRANCH  23  24
ENDBRANCH  22  23
ENDBRANCH  21  22
ENDBRANCH  15  16
ENDBRANCH   9  15
ENDBRANCH   3   5
ENDBRANCH   2   3
ENDBRANCH   1   2
BRANCH   1  32
ATOM     32  C   UNL A   1      33.689  29.872  26.656  1.00  0.00     0.202 C 
BRANCH  32  33
ATOM     33  O   UNL A   1      32.410  30.237  27.186  1.00  0.00    -0.374 OA
BRANCH  33  34
ATOM     34  C   UNL A   1      31.716  31.205  26.402  1.00  0.00     0.202 C 
BRANCH  34  35
ATOM     35  C   UNL A   1      31.552  32.554  27.111  1.00  0.00     0.261 C 
BRANCH  35  36
ATOM     36  O   UNL A   1      32.678  33.424  26.899  1.00  0.00    -0.460 OA
BRANCH  36  37
ATOM     37  C   UNL A   1      33.080  34.126  27.997  1.00  0.00     0.338 C 
ATOM     38  O   UNL A   1      32.520  35.071  28.506  1.00  0.00    -0.246 OA
BRANCH  37  39
ATOM     39  C   UNL A   1      34.284  33.485  28.585  1.00  0.00     0.060 A 
ATOM     40  C   UNL A   1      34.106  32.329  29.361  1.00  0.00     0.016 A 
ATOM     41  C   UNL A   1      35.570  33.991  28.376  1.00  0.00     0.016 A 
ATOM     42  C   UNL A   1      35.212  31.675  29.917  1.00  0.00     0.010 A 
ATOM     43  C   UNL A   1      36.676  33.338  28.934  1.00  0.00     0.010 A 
ATOM     44  C   UNL A   1      36.504  32.183  29.716  1.00  0.00    -0.014 A 
BRANCH  44  45
ATOM     45  C   UNL A   1      37.659  31.627  30.464  1.00  0.00     0.031 A 
ATOM     46  C   UNL A   1      38.470  30.547  29.807  1.00  0.00     0.074 A 
ATOM     47  C   UNL A   1      37.973  32.034  31.708  1.00  0.00     0.049 A 
ATOM     48  N   UNL A   1      39.495  29.879  30.267  1.00  0.00    -0.248 NA
ATOM     49  C   UNL A   1      38.060  30.164  28.446  1.00  0.00     0.031 C 
ATOM     50  C   UNL A   1      37.282  33.074  32.462  1.00  0.00     0.029 A 
ATOM     51  N   UNL A   1      38.953  31.596  32.569  1.00  0.00    -0.354 N 
ATOM     52  C   UNL A   1      39.860  29.007  29.251  1.00  0.00     0.074 A 
ATOM     53  C   UNL A   1      38.921  29.199  28.167  1.00  0.00     0.031 C 
ATOM     54  C   UNL A   1      37.841  33.182  33.680  1.00  0.00     0.029 A 
ATOM     55  C   UNL A   1      38.922  32.207  33.800  1.00  0.00     0.049 A 
ATOM     56  H   UNL A   1      39.616  30.910  32.325  1.00  0.00     0.167 HD
ATOM     57  C   UNL A   1      40.892  28.133  29.215  1.00  0.00     0.037 A 
ATOM     58  C   UNL A   1      39.671  31.993  34.900  1.00  0.00     0.037 A 
ATOM     59  C   UNL A   1      41.812  27.916  30.297  1.00  0.00     0.049 A 
ATOM     60  C   UNL A   1      40.763  30.954  34.864  1.00  0.00     0.074 A 
ATOM     61  C   UNL A   1      42.902  27.066  30.344  1.00  0.00     0.029 A 
ATOM     62  N   UNL A   1      41.737  28.542  31.531  1.00  0.00    -0.354 N 
ATOM     63  N   UNL A   1      41.145  30.187  33.872  1.00  0.00    -0.248 NA
ATOM     64  C   UNL A   1      41.534  30.757  36.102  1.00  0.00     0.031 C 
ATOM     65  C   UNL A   1      43.459  27.140  31.625  1.00  0.00     0.029 A 
ATOM     66  C   UNL A   1      42.744  28.073  32.359  1.00  0.00     0.049 A 
ATOM     67  H   UNL A   1      41.068  29.219  31.783  1.00  0.00     0.167 HD
ATOM     68  C   UNL A   1      42.216  29.443  34.354  1.00  0.00     0.074 A 
ATOM     69  C   UNL A   1      42.431  29.857  35.724  1.00  0.00     0.031 C 
ATOM     70  C   UNL A   1      42.955  28.501  33.718  1.00  0.00     0.037 A 
BRANCH  57  71
ATOM     71  C   UNL A   1      41.059  27.333  27.959  1.00  0.00     0.057 A 
ATOM     72  C   UNL A   1      41.906  27.758  26.926  1.00  0.00     0.134 A 
ATOM     73  C   UNL A   1      40.373  26.126  27.783  1.00  0.00     0.134 A 
ATOM     74  F   UNL A   1      42.573  28.917  27.028  1.00  0.00    -0.206 F 
ATOM     75  C   UNL A   1      42.044  27.022  25.750  1.00  0.00     0.040 A 
ATOM     76  C   UNL A   1      40.523  25.368  26.621  1.00  0.00     0.040 A 
ATOM     77  F   UNL A   1      39.547  25.667  28.735  1.00  0.00    -0.206 F 
ATOM     78  C   UNL A   1      41.356  25.820  25.598  1.00  0.00     0.006 A 
ENDBRANCH  57  71
BRANCH  58  79
ATOM     79  C   UNL A   1      39.424  32.767  36.144  1.00  0.00     0.057 A 
ATOM     80  C   UNL A   1      40.149  33.930  36.429  1.00  0.00     0.134 A 
ATOM     81  C   UNL A   1      38.503  32.332  37.104  1.00  0.00     0.134 A 
ATOM     82  F   UNL A   1      41.067  34.382  35.561  1.00  0.00    -0.206 F 
ATOM     83  C   UNL A   1      39.986  34.619  37.632  1.00  0.00     0.040 A 
ATOM     84  C   UNL A   1      38.313  33.024  38.302  1.00  0.00     0.040 A 
ATOM     85  F   UNL A   1      37.781  31.221  36.897  1.00  0.00    -0.206 F 
ATOM     86  C   UNL A   1      39.063  34.166  38.573  1.00  0.00     0.006 A 
ENDBRANCH  58  79
BRANCH  70  87
ATOM     87  C   UNL A   1      44.089  27.878  34.479  1.00  0.00     0.057 A 
ATOM     88  C   UNL A   1      45.339  28.500  34.587  1.00  0.00     0.134 A 
ATOM     89  C   UNL A   1      43.910  26.663  35.155  1.00  0.00     0.134 A 
ATOM     90  F   UNL A   1      45.579  29.658  33.953  1.00  0.00    -0.206 F 
ATOM     91  C   UNL A   1      46.376  27.929  35.328  1.00  0.00     0.040 A 
ATOM     92  C   UNL A   1      44.930  26.096  35.920  1.00  0.00     0.040 A 
ATOM     93  F   UNL A   1      42.734  26.020  35.100  1.00  0.00    -0.206 F 
ATOM     94  C   UNL A   1      46.170  26.728  36.004  1.00  0.00     0.006 A 
ENDBRANCH  70  87
ENDBRANCH  44  45
ENDBRANCH  37  39
ENDBRANCH  36  37
ENDBRANCH  35  36
ENDBRANCH  34  35
ENDBRANCH  33  34
ENDBRANCH  32  33
ENDBRANCH   1  32
TORSDOF 20
ENDMDL
MODEL 2
REMARK VINA RESULT:     -10.6      4.508      9.381
REMARK SMILES [NH3+][C@@]1(C(=O)OCCOCCOC(=O)c2ccc(-c3c4nc(c(-c5c(F)cccc5F)c5ccc([nH]5)c(-c5c(F)cccc5F)c5nc(c(-c6c(F)cccc6F)c6ccc3[nH]6)C=C5)C=C4)cc2)CC[N@H+](Cc2ccc(OCC(=O)N3CCCCC3)cc2)C1
REMARK SMILES IDX 6 1 5 2 3 3 4 4 2 5 68 6 88 7 69 8 70 9 1 11 71 15 72 16
REMARK SMILES IDX 73 17 87 18 74 19 86 20 75 21 76 22 77 23 78 24 79 25 80 26
REMARK SMILES IDX 81 27 85 28 82 29 84 30 83 31 7 32 8 33 9 34 10 35 11 36
REMARK SMILES IDX 12 37 13 38 14 39 15 40 67 41 16 42 66 43 17 44 18 45 19 46
REMARK SMILES IDX 60 47 20 48 65 49 59 50 61 51 21 52 64 53 58 54 57 55 22 57
REMARK SMILES IDX 48 58 31 59 47 60 32 61 35 62 46 63 62 64 33 65 34 66 45 68
REMARK SMILES IDX 63 69 36 70 23 71 24 72 29 73 25 74 26 75 28 76 30 77 27 78
REMARK SMILES IDX 49 79 50 80 55 81 51 82 52 83 54 84 56 85 53 86 37 87 38 88
REMARK SMILES IDX 43 89 39 90 40 91 42 92 44 93 41 94
REMARK H PARENT 70 10 1 12 1 13 1 14 61 56 35 67
REMARK Flexibility Score: inf
ROOT
ATOM      1  C   UNL A   1      36.009  21.082  25.708  1.00  0.00     0.261 C 
ENDROOT
BRANCH   1   2
ATOM      2  O   UNL A   1      35.201  20.629  24.628  1.00  0.00    -0.458 OA
BRANCH   2   3
ATOM      3  C   UNL A   1      34.677  19.390  24.737  1.00  0.00     0.374 C 
ATOM      4  O   UNL A   1      35.319  18.346  24.731  1.00  0.00    -0.244 OA
BRANCH   3   5
ATOM      5  C   UNL A   1      33.178  19.484  25.093  1.00  0.00     0.246 C 
ATOM      6  C   UNL A   1      32.364  18.587  24.166  1.00  0.00     0.148 C 
ATOM      7  C   UNL A   1      32.579  20.880  24.790  1.00  0.00     0.344 C 
ATOM      8  C   UNL A   1      32.189  19.447  22.922  1.00  0.00     0.270 C 
ATOM      9  N   UNL A   1      32.076  20.815  23.412  1.00  0.00    -0.325 N 
ATOM     10  H   UNL A   1      31.084  21.049  23.456  1.00  0.00     0.348 HD
BRANCH   5  11
ATOM     11  N   UNL A   1      33.044  19.050  26.509  1.00  0.00    -0.338 N 
ATOM     12  H   UNL A   1      33.179  18.041  26.569  1.00  0.00     0.345 HD
ATOM     13  H   UNL A   1      32.114  19.290  26.851  1.00  0.00     0.345 HD
ATOM     14  H   UNL A   1      33.747  19.522  27.077  1.00  0.00     0.345 HD
ENDBRANCH   5  11
BRANCH   9  15
ATOM     15  C   UNL A   1      32.418  21.900  22.488  1.00  0.00     0.299 C 
BRANCH  15  16
ATOM     16  C   UNL A   1      32.166  23.330  22.938  1.00  0.00     0.006 A 
ATOM     17  C   UNL A   1      30.899  23.702  23.388  1.00  0.00     0.013 A 
ATOM     18  C   UNL A   1      33.151  24.332  22.914  1.00  0.00     0.013 A 
ATOM     19  C   UNL A   1      30.689  24.968  23.939  1.00  0.00     0.047 A 
ATOM     20  C   UNL A   1      32.945  25.592  23.515  1.00  0.00     0.047 A 
ATOM     21  C   UNL A   1      31.728  25.880  24.110  1.00  0.00     0.120 A 
BRANCH  21  22
ATOM     22  O   UNL A   1      31.410  26.915  24.939  1.00  0.00    -0.484 OA
BRANCH  22  23
ATOM     23  C   UNL A   1      31.939  28.208  24.719  1.00  0.00     0.329 C 
BRANCH  23  24
ATOM     24  C   UNL A   1      31.069  29.489  24.678  1.00  0.00     0.260 C 
ATOM     25  O   UNL A   1      31.364  30.423  25.434  1.00  0.00    -0.271 OA
ATOM     26  N   UNL A   1      30.039  29.615  23.747  1.00  0.00    -0.340 N 
ATOM     27  C   UNL A   1      29.531  30.955  23.463  1.00  0.00     0.119 C 
ATOM     28  C   UNL A   1      29.440  28.556  22.932  1.00  0.00     0.119 C 
ATOM     29  C   UNL A   1      28.040  31.032  23.729  1.00  0.00     0.022 C 
ATOM     30  C   UNL A   1      27.900  28.635  22.861  1.00  0.00     0.022 C 
ATOM     31  C   UNL A   1      27.294  30.042  22.844  1.00  0.00     0.004 C 
ENDBRANCH  23  24
ENDBRANCH  22  23
ENDBRANCH  21  22
ENDBRANCH  15  16
ENDBRANCH   9  15
ENDBRANCH   3   5
ENDBRANCH   2   3
ENDBRANCH   1   2
BRANCH   1  32
ATOM     32  C   UNL A   1      36.977  22.121  25.144  1.00  0.00     0.202 C 
BRANCH  32  33
ATOM     33  O   UNL A   1      38.333  21.835  25.505  1.00  0.00    -0.374 OA
BRANCH  33  34
ATOM     34  C   UNL A   1      38.726  20.489  25.250  1.00  0.00     0.202 C 
BRANCH  34  35
ATOM     35  C   UNL A   1      39.817  19.985  26.201  1.00  0.00     0.261 C 
BRANCH  35  36
ATOM     36  O   UNL A   1      40.618  18.945  25.614  1.00  0.00    -0.460 OA
BRANCH  36  37
ATOM     37  C   UNL A   1      41.929  18.945  25.990  1.00  0.00     0.338 C 
ATOM     38  O   UNL A   1      42.691  18.004  25.987  1.00  0.00    -0.246 OA
BRANCH  37  39
ATOM     39  C   UNL A   1      42.357  20.331  26.310  1.00  0.00     0.060 A 
ATOM     40  C   UNL A   1      42.245  20.768  27.639  1.00  0.00     0.016 A 
ATOM     41  C   UNL A   1      42.872  21.192  25.336  1.00  0.00     0.016 A 
ATOM     42  C   UNL A   1      42.657  22.058  27.996  1.00  0.00     0.010 A 
ATOM     43  C   UNL A   1      43.282  22.482  25.692  1.00  0.00     0.010 A 
ATOM     44  C   UNL A   1      43.167  22.928  27.021  1.00  0.00    -0.014 A 
BRANCH  44  45
ATOM     45  C   UNL A   1      43.413  24.357  27.337  1.00  0.00     0.031 A 
ATOM     46  C   UNL A   1      44.834  24.842  27.349  1.00  0.00     0.074 A 
ATOM     47  C   UNL A   1      42.415  25.207  27.643  1.00  0.00     0.049 A 
ATOM     48  N   UNL A   1      45.307  26.027  27.632  1.00  0.00    -0.248 NA
ATOM     49  C   UNL A   1      45.863  23.848  27.000  1.00  0.00     0.031 C 
ATOM     50  C   UNL A   1      40.995  24.878  27.662  1.00  0.00     0.029 A 
ATOM     51  N   UNL A   1      42.455  26.530  28.019  1.00  0.00    -0.354 N 
ATOM     52  C   UNL A   1      46.684  25.926  27.484  1.00  0.00     0.074 A 
ATOM     53  C   UNL A   1      46.975  24.553  27.131  1.00  0.00     0.031 C 
ATOM     54  C   UNL A   1      40.296  25.959  28.053  1.00  0.00     0.029 A 
ATOM     55  C   UNL A   1      41.222  27.055  28.326  1.00  0.00     0.049 A 
ATOM     56  H   UNL A   1      43.288  27.052  28.063  1.00  0.00     0.167 HD
ATOM     57  C   UNL A   1      47.623  26.890  27.619  1.00  0.00     0.037 A 
ATOM     58  C   UNL A   1      40.884  28.275  28.788  1.00  0.00     0.037 A 
ATOM     59  C   UNL A   1      47.346  28.248  27.998  1.00  0.00     0.049 A 
ATOM     60  C   UNL A   1      41.958  29.310  29.009  1.00  0.00     0.074 A 
ATOM     61  C   UNL A   1      48.232  29.301  28.138  1.00  0.00     0.029 A 
ATOM     62  N   UNL A   1      46.088  28.736  28.315  1.00  0.00    -0.354 N 
ATOM     63  N   UNL A   1      43.248  29.223  28.797  1.00  0.00    -0.248 NA
ATOM     64  C   UNL A   1      41.525  30.616  29.530  1.00  0.00     0.031 C 
ATOM     65  C   UNL A   1      47.517  30.416  28.590  1.00  0.00     0.029 A 
ATOM     66  C   UNL A   1      46.178  30.068  28.683  1.00  0.00     0.049 A 
ATOM     67  H   UNL A   1      45.254  28.213  28.285  1.00  0.00     0.167 HD
ATOM     68  C   UNL A   1      43.774  30.467  29.125  1.00  0.00     0.074 A 
ATOM     69  C   UNL A   1      42.663  31.296  29.541  1.00  0.00     0.031 C 
ATOM     70  C   UNL A   1      45.063  30.886  29.085  1.00  0.00     0.037 A 
BRANCH  57  71
ATOM     71  C   UNL A   1      49.045  26.490  27.369  1.00  0.00     0.057 A 
ATOM     72  C   UNL A   1      49.608  26.546  26.087  1.00  0.00     0.134 A 
ATOM     73  C   UNL A   1      49.860  26.051  28.418  1.00  0.00     0.134 A 
ATOM     74  F   UNL A   1      48.871  26.938  25.037  1.00  0.00    -0.206 F 
ATOM     75  C   UNL A   1      50.926  26.154  25.854  1.00  0.00     0.040 A 
ATOM     76  C   UNL A   1      51.188  25.681  28.202  1.00  0.00     0.040 A 
ATOM     77  F   UNL A   1      49.379  25.974  29.669  1.00  0.00    -0.206 F 
ATOM     78  C   UNL A   1      51.721  25.726  26.914  1.00  0.00     0.006 A 
ENDBRANCH  57  71
BRANCH  58  79
ATOM     79  C   UNL A   1      39.464  28.604  29.083  1.00  0.00     0.057 A 
ATOM     80  C   UNL A   1      38.641  29.193  28.116  1.00  0.00     0.134 A 
ATOM     81  C   UNL A   1      38.916  28.394  30.354  1.00  0.00     0.134 A 
ATOM     82  F   UNL A   1      39.118  29.445  26.888  1.00  0.00    -0.206 F 
ATOM     83  C   UNL A   1      37.333  29.582  28.407  1.00  0.00     0.040 A 
ATOM     84  C   UNL A   1      37.601  28.758  30.652  1.00  0.00     0.040 A 
ATOM     85  F   UNL A   1      39.653  27.841  31.328  1.00  0.00    -0.206 F 
ATOM     86  C   UNL A   1      36.809  29.363  29.679  1.00  0.00     0.006 A 
ENDBRANCH  58  79
BRANCH  70  87
ATOM     87  C   UNL A   1      45.343  32.311  29.464  1.00  0.00     0.057 A 
ATOM     88  C   UNL A   1      45.275  33.353  28.531  1.00  0.00     0.134 A 
ATOM     89  C   UNL A   1      45.631  32.650  30.793  1.00  0.00     0.134 A 
ATOM     90  F   UNL A   1      45.016  33.094  27.241  1.00  0.00    -0.206 F 
ATOM     91  C   UNL A   1      45.501  34.680  28.903  1.00  0.00     0.040 A 
ATOM     92  C   UNL A   1      45.833  33.975  31.182  1.00  0.00     0.040 A 
ATOM     93  F   UNL A   1      45.701  31.701  31.739  1.00  0.00    -0.206 F 
ATOM     94  C   UNL A   1      45.773  34.995  30.233  1.00  0.00     0.006 A 
ENDBRANCH  70  87
ENDBRANCH  44  45
ENDBRANCH  37  39
ENDBRANCH  36  37
ENDBRANCH  35  36
ENDBRANCH  34  35
ENDBRANCH  33  34
ENDBRANCH  32  33
ENDBRANCH   1  32
TORSDOF 20
ENDMDL
MODEL 3
REMARK VINA RESULT:     -10.6      4.225      8.488
REMARK SMILES [NH3+][C@@]1(C(=O)OCCOCCOC(=O)c2ccc(-c3c4nc(c(-c5c(F)cccc5F)c5ccc([nH]5)c(-c5c(F)cccc5F)c5nc(c(-c6c(F)cccc6F)c6ccc3[nH]6)C=C5)C=C4)cc2)CC[N@H+](Cc2ccc(OCC(=O)N3CCCCC3)cc2)C1
REMARK SMILES IDX 6 1 5 2 3 3 4 4 2 5 68 6 88 7 69 8 70 9 1 11 71 15 72 16
REMARK SMILES IDX 73 17 87 18 74 19 86 20 75 21 76 22 77 23 78 24 79 25 80 26
REMARK SMILES IDX 81 27 85 28 82 29 84 30 83 31 7 32 8 33 9 34 10 35 11 36
REMARK SMILES IDX 12 37 13 38 14 39 15 40 67 41 16 42 66 43 17 44 18 45 19 46
REMARK SMILES IDX 60 47 20 48 65 49 59 50 61 51 21 52 64 53 58 54 57 55 22 57
REMARK SMILES IDX 48 58 31 59 47 60 32 61 35 62 46 63 62 64 33 65 34 66 45 68
REMARK SMILES IDX 63 69 36 70 23 71 24 72 29 73 25 74 26 75 28 76 30 77 27 78
REMARK SMILES IDX 49 79 50 80 55 81 51 82 52 83 54 84 56 85 53 86 37 87 38 88
REMARK SMILES IDX 43 89 39 90 40 91 42 92 44 93 41 94
REMARK H PARENT 70 10 1 12 1 13 1 14 61 56 35 67
REMARK Flexibility Score: inf
ROOT
ATOM      1  C   UNL A   1      33.444  35.152  31.958  1.00  0.00     0.261 C 
ENDROOT
BRANCH   1   2
ATOM      2  O   UNL A   1      34.023  35.018  30.666  1.00  0.00    -0.458 OA
BRANCH   2   3
ATOM      3  C   UNL A   1      34.458  33.789  30.317  1.00  0.00     0.374 C 
ATOM      4  O   UNL A   1      34.257  32.760  30.952  1.00  0.00    -0.244 OA
BRANCH   3   5
ATOM      5  C   UNL A   1      35.053  33.827  28.893  1.00  0.00     0.246 C 
ATOM      6  C   UNL A   1      34.010  34.338  27.905  1.00  0.00     0.148 C 
ATOM      7  C   UNL A   1      35.354  32.414  28.333  1.00  0.00     0.344 C 
ATOM      8  C   UNL A   1      33.189  33.093  27.599  1.00  0.00     0.270 C 
ATOM      9  N   UNL A   1      34.137  31.988  27.634  1.00  0.00    -0.325 N 
ATOM     10  H   UNL A   1      34.414  31.785  26.672  1.00  0.00     0.348 HD
BRANCH   5  11
ATOM     11  N   UNL A   1      36.231  34.734  28.943  1.00  0.00    -0.338 N 
ATOM     12  H   UNL A   1      37.072  34.188  29.133  1.00  0.00     0.345 HD
ATOM     13  H   UNL A   1      36.098  35.422  29.684  1.00  0.00     0.345 HD
ATOM     14  H   UNL A   1      36.330  35.212  28.048  1.00  0.00     0.345 HD
ENDBRANCH   5  11
BRANCH   9  15
ATOM     15  C   UNL A   1      33.610  30.646  27.896  1.00  0.00     0.299 C 
BRANCH  15  16
ATOM     16  C   UNL A   1      33.245  29.773  26.705  1.00  0.00     0.006 A 
ATOM     17  C   UNL A   1      33.907  28.562  26.506  1.00  0.00     0.013 A 
ATOM     18  C   UNL A   1      32.267  30.126  25.760  1.00  0.00     0.013 A 
ATOM     19  C   UNL A   1      33.487  27.683  25.504  1.00  0.00     0.047 A 
ATOM     20  C   UNL A   1      31.816  29.216  24.782  1.00  0.00     0.047 A 
ATOM     21  C   UNL A   1      32.374  27.950  24.710  1.00  0.00     0.120 A 
BRANCH  21  22
ATOM     22  O   UNL A   1      31.928  26.861  24.020  1.00  0.00    -0.484 OA
BRANCH  22  23
ATOM     23  C   UNL A   1      30.922  26.025  24.558  1.00  0.00     0.329 C 
BRANCH  23  24
ATOM     24  C   UNL A   1      31.227  24.768  25.412  1.00  0.00     0.260 C 
ATOM     25  O   UNL A   1      31.384  24.911  26.631  1.00  0.00    -0.271 OA
ATOM     26  N   UNL A   1      31.232  23.501  24.830  1.00  0.00    -0.340 N 
ATOM     27  C   UNL A   1      31.107  22.342  25.710  1.00  0.00     0.119 C 
ATOM     28  C   UNL A   1      31.262  23.176  23.402  1.00  0.00     0.119 C 
ATOM     29  C   UNL A   1      32.286  21.403  25.531  1.00  0.00     0.022 C 
ATOM     30  C   UNL A   1      32.232  22.027  23.056  1.00  0.00     0.022 C 
ATOM     31  C   UNL A   1      32.351  20.906  24.092  1.00  0.00     0.004 C 
ENDBRANCH  23  24
ENDBRANCH  22  23
ENDBRANCH  21  22
ENDBRANCH  15  16
ENDBRANCH   9  15
ENDBRANCH   3   5
ENDBRANCH   2   3
ENDBRANCH   1   2
BRANCH   1  32
ATOM     32  C   UNL A   1      33.858  36.520  32.500  1.00  0.00     0.202 C 
BRANCH  32  33
ATOM     33  O   UNL A   1      34.676  36.401  33.670  1.00  0.00    -0.374 OA
BRANCH  33  34
ATOM     34  C   UNL A   1      34.946  35.055  34.052  1.00  0.00     0.202 C 
BRANCH  34  35
ATOM     35  C   UNL A   1      36.440  34.715  34.057  1.00  0.00     0.261 C 
BRANCH  35  36
ATOM     36  O   UNL A   1      36.823  33.914  32.925  1.00  0.00    -0.460 OA
BRANCH  36  37
ATOM     37  C   UNL A   1      36.722  32.567  33.111  1.00  0.00     0.338 C 
ATOM     38  O   UNL A   1      35.879  31.979  33.752  1.00  0.00    -0.246 OA
BRANCH  37  39
ATOM     39  C   UNL A   1      37.752  31.872  32.298  1.00  0.00     0.060 A 
ATOM     40  C   UNL A   1      38.742  31.139  32.970  1.00  0.00     0.016 A 
ATOM     41  C   UNL A   1      37.751  31.920  30.900  1.00  0.00     0.016 A 
ATOM     42  C   UNL A   1      39.721  30.447  32.247  1.00  0.00     0.010 A 
ATOM     43  C   UNL A   1      38.731  31.230  30.178  1.00  0.00     0.010 A 
ATOM     44  C   UNL A   1      39.729  30.498  30.846  1.00  0.00    -0.014 A 
BRANCH  44  45
ATOM     45  C   UNL A   1      40.871  29.946  30.075  1.00  0.00     0.031 A 
ATOM     46  C   UNL A   1      42.013  30.867  29.751  1.00  0.00     0.074 A 
ATOM     47  C   UNL A   1      40.895  28.674  29.636  1.00  0.00     0.049 A 
ATOM     48  N   UNL A   1      43.099  30.636  29.061  1.00  0.00    -0.248 NA
ATOM     49  C   UNL A   1      41.907  32.241  30.271  1.00  0.00     0.031 C 
ATOM     50  C   UNL A   1      39.865  27.671  29.883  1.00  0.00     0.029 A 
ATOM     51  N   UNL A   1      41.824  28.014  28.866  1.00  0.00    -0.354 N 
ATOM     52  C   UNL A   1      43.811  31.827  29.075  1.00  0.00     0.074 A 
ATOM     53  C   UNL A   1      43.015  32.792  29.802  1.00  0.00     0.031 C 
ATOM     54  C   UNL A   1      40.203  26.529  29.258  1.00  0.00     0.029 A 
ATOM     55  C   UNL A   1      41.467  26.723  28.554  1.00  0.00     0.049 A 
ATOM     56  H   UNL A   1      42.666  28.427  28.567  1.00  0.00     0.167 HD
ATOM     57  C   UNL A   1      45.025  32.094  28.541  1.00  0.00     0.037 A 
ATOM     58  C   UNL A   1      42.086  25.811  27.778  1.00  0.00     0.037 A 
ATOM     59  C   UNL A   1      45.810  31.151  27.793  1.00  0.00     0.049 A 
ATOM     60  C   UNL A   1      43.399  26.158  27.124  1.00  0.00     0.074 A 
ATOM     61  C   UNL A   1      47.062  31.325  27.232  1.00  0.00     0.029 A 
ATOM     62  N   UNL A   1      45.407  29.861  27.486  1.00  0.00    -0.354 N 
ATOM     63  N   UNL A   1      44.097  27.264  27.204  1.00  0.00    -0.248 NA
ATOM     64  C   UNL A   1      44.014  25.124  26.277  1.00  0.00     0.031 C 
ATOM     65  C   UNL A   1      47.397  30.155  26.542  1.00  0.00     0.029 A 
ATOM     66  C   UNL A   1      46.374  29.237  26.715  1.00  0.00     0.049 A 
ATOM     67  H   UNL A   1      44.560  29.449  27.772  1.00  0.00     0.167 HD
ATOM     68  C   UNL A   1      45.243  27.049  26.448  1.00  0.00     0.074 A 
ATOM     69  C   UNL A   1      45.153  25.703  25.925  1.00  0.00     0.031 C 
ATOM     70  C   UNL A   1      46.278  27.892  26.209  1.00  0.00     0.037 A 
BRANCH  57  71
ATOM     71  C   UNL A   1      45.563  33.478  28.739  1.00  0.00     0.057 A 
ATOM     72  C   UNL A   1      45.290  34.509  27.829  1.00  0.00     0.134 A 
ATOM     73  C   UNL A   1      46.358  33.785  29.849  1.00  0.00     0.134 A 
ATOM     74  F   UNL A   1      44.552  34.271  26.735  1.00  0.00    -0.206 F 
ATOM     75  C   UNL A   1      45.809  35.791  28.005  1.00  0.00     0.040 A 
ATOM     76  C   UNL A   1      46.862  35.070  30.049  1.00  0.00     0.040 A 
ATOM     77  F   UNL A   1      46.656  32.841  30.755  1.00  0.00    -0.206 F 
ATOM     78  C   UNL A   1      46.593  36.075  29.121  1.00  0.00     0.006 A 
ENDBRANCH  57  71
BRANCH  58  79
ATOM     79  C   UNL A   1      41.479  24.471  27.559  1.00  0.00     0.057 A 
ATOM     80  C   UNL A   1      40.415  24.295  26.667  1.00  0.00     0.134 A 
ATOM     81  C   UNL A   1      41.908  23.349  28.278  1.00  0.00     0.134 A 
ATOM     82  F   UNL A   1      39.940  25.339  25.970  1.00  0.00    -0.206 F 
ATOM     83  C   UNL A   1      39.783  23.060  26.515  1.00  0.00     0.040 A 
ATOM     84  C   UNL A   1      41.300  22.102  28.119  1.00  0.00     0.040 A 
ATOM     85  F   UNL A   1      42.919  23.451  29.153  1.00  0.00    -0.206 F 
ATOM     86  C   UNL A   1      40.227  21.958  27.242  1.00  0.00     0.006 A 
ENDBRANCH  58  79
BRANCH  70  87
ATOM     87  C   UNL A   1      47.416  27.376  25.376  1.00  0.00     0.057 A 
ATOM     88  C   UNL A   1      47.485  27.603  23.996  1.00  0.00     0.134 A 
ATOM     89  C   UNL A   1      48.481  26.688  25.974  1.00  0.00     0.134 A 
ATOM     90  F   UNL A   1      46.492  28.243  23.361  1.00  0.00    -0.206 F 
ATOM     91  C   UNL A   1      48.567  27.150  23.237  1.00  0.00     0.040 A 
ATOM     92  C   UNL A   1      49.579  26.254  25.230  1.00  0.00     0.040 A 
ATOM     93  F   UNL A   1      48.481  26.446  27.293  1.00  0.00    -0.206 F 
ATOM     94  C   UNL A   1      49.621  26.481  23.855  1.00  0.00     0.006 A 
ENDBRANCH  70  87
ENDBRANCH  44  45
ENDBRANCH  37  39
ENDBRANCH  36  37
ENDBRANCH  35  36
ENDBRANCH  34  35
ENDBRANCH  33  34
ENDBRANCH  32  33
ENDBRANCH   1  32
TORSDOF 20
ENDMDL
