MODEL 1
REMARK VINA RESULT:     -10.7      0.000      0.000
REMARK SMILES CC[C@@H]1CCCN1C(=O)N[C@H]1C=C[C@@H](C(=O)OCCOCCOC(=O)c2ccc(-c3c4nc(c(-c5c(F)cccc5F)c5ccc([nH]5)c(-c5c(F)cccc5F)c5nc(c(-c6c(F)cccc6F)c6ccc3[nH]6)C=C5)C=C4)cc2)C1
REMARK SMILES IDX 19 1 18 2 17 3 15 4 16 5 14 6 11 7 12 8 80 9 13 10 10 11
REMARK SMILES IDX 8 12 9 13 7 15 3 16 4 17 5 18 6 19 2 20 1 21 20 22 21 23
REMARK SMILES IDX 22 24 23 25 24 26 25 27 26 28 27 29 79 30 28 31 78 32 29 33
REMARK SMILES IDX 30 34 31 35 72 36 32 37 77 38 71 39 73 40 33 41 76 42 70 43
REMARK SMILES IDX 69 44 34 46 60 47 43 48 59 49 44 50 47 51 58 52 74 53 45 54
REMARK SMILES IDX 46 55 57 57 75 58 48 59 35 60 36 61 41 62 37 63 38 64 40 65
REMARK SMILES IDX 42 66 39 67 61 68 62 69 67 70 63 71 64 72 66 73 68 74 65 75
REMARK SMILES IDX 49 76 50 77 55 78 51 79 52 80 54 81 56 82 53 83
REMARK H PARENT 10 14 73 45 47 56
REMARK Flexibility Score: inf
ROOT
ATOM      1  C   UNL A   1      40.624  21.668  27.339  1.00  0.00     0.202 C 
ENDROOT
BRANCH   1   2
ATOM      2  C   UNL A   1      39.815  21.279  26.102  1.00  0.00     0.261 C 
BRANCH   2   3
ATOM      3  O   UNL A   1      38.685  22.149  25.953  1.00  0.00    -0.463 OA
BRANCH   3   4
ATOM      4  C   UNL A   1      37.781  21.740  25.024  1.00  0.00     0.312 C 
ATOM      5  O   UNL A   1      37.640  20.582  24.646  1.00  0.00    -0.252 OA
BRANCH   4   6
ATOM      6  C   UNL A   1      36.802  22.848  24.706  1.00  0.00     0.124 C 
ATOM      7  C   UNL A   1      34.810  23.804  23.904  1.00  0.00     0.107 C 
ATOM      8  C   UNL A   1      34.759  23.692  25.399  1.00  0.00    -0.006 C 
ATOM      9  C   UNL A   1      35.766  22.654  23.580  1.00  0.00     0.048 C 
ATOM     10  C   UNL A   1      35.900  23.170  25.863  1.00  0.00    -0.014 C 
BRANCH   7  11
ATOM     11  N   UNL A   1      33.495  23.852  23.407  1.00  0.00    -0.332 N 
ATOM     12  C   UNL A   1      32.679  24.925  23.323  1.00  0.00     0.318 C 
ATOM     13  O   UNL A   1      31.494  24.636  23.114  1.00  0.00    -0.249 OA
ATOM     14  H   UNL A   1      33.123  23.001  23.080  1.00  0.00     0.165 HD
BRANCH  12  15
ATOM     15  N   UNL A   1      33.084  26.235  23.490  1.00  0.00    -0.322 N 
ATOM     16  C   UNL A   1      33.782  27.061  24.549  1.00  0.00     0.086 C 
ATOM     17  C   UNL A   1      33.927  28.443  23.872  1.00  0.00     0.027 C 
ATOM     18  C   UNL A   1      34.075  28.133  22.409  1.00  0.00     0.024 C 
ATOM     19  C   UNL A   1      33.108  26.983  22.225  1.00  0.00     0.122 C 
BRANCH  16  20
ATOM     20  C   UNL A   1      33.160  27.340  25.940  1.00  0.00     0.022 C 
ATOM     21  C   UNL A   1      33.887  28.405  26.763  1.00  0.00     0.006 C 
ENDBRANCH  16  20
ENDBRANCH  12  15
ENDBRANCH   7  11
ENDBRANCH   4   6
ENDBRANCH   3   4
ENDBRANCH   2   3
ENDBRANCH   1   2
BRANCH   1  22
ATOM     22  O   UNL A   1      42.007  21.317  27.316  1.00  0.00    -0.374 OA
BRANCH  22  23
ATOM     23  C   UNL A   1      42.583  20.921  26.070  1.00  0.00     0.202 C 
BRANCH  23  24
ATOM     24  C   UNL A   1      43.603  21.881  25.443  1.00  0.00     0.261 C 
BRANCH  24  25
ATOM     25  O   UNL A   1      42.988  23.102  24.985  1.00  0.00    -0.460 OA
BRANCH  25  26
ATOM     26  C   UNL A   1      43.727  24.218  25.171  1.00  0.00     0.338 C 
ATOM     27  O   UNL A   1      44.764  24.531  24.589  1.00  0.00    -0.246 OA
BRANCH  26  28
ATOM     28  C   UNL A   1      43.029  25.151  26.066  1.00  0.00     0.060 A 
ATOM     29  C   UNL A   1      43.629  26.393  26.310  1.00  0.00     0.016 A 
ATOM     30  C   UNL A   1      41.864  24.780  26.741  1.00  0.00     0.016 A 
ATOM     31  C   UNL A   1      43.086  27.256  27.258  1.00  0.00     0.010 A 
ATOM     32  C   UNL A   1      41.326  25.644  27.703  1.00  0.00     0.010 A 
ATOM     33  C   UNL A   1      41.953  26.870  27.988  1.00  0.00    -0.014 A 
BRANCH  33  34
ATOM     34  C   UNL A   1      41.518  27.704  29.134  1.00  0.00     0.031 A 
ATOM     35  C   UNL A   1      42.272  27.624  30.432  1.00  0.00     0.074 A 
ATOM     36  C   UNL A   1      40.494  28.566  29.001  1.00  0.00     0.049 A 
ATOM     37  N   UNL A   1      42.080  28.284  31.546  1.00  0.00    -0.248 NA
ATOM     38  C   UNL A   1      43.396  26.675  30.480  1.00  0.00     0.031 C 
ATOM     39  C   UNL A   1      39.707  28.761  27.785  1.00  0.00     0.029 A 
ATOM     40  N   UNL A   1      39.947  29.443  29.903  1.00  0.00    -0.354 N 
ATOM     41  C   UNL A   1      43.057  27.835  32.424  1.00  0.00     0.074 A 
ATOM     42  C   UNL A   1      43.820  26.822  31.727  1.00  0.00     0.031 C 
ATOM     43  C   UNL A   1      38.772  29.698  28.018  1.00  0.00     0.029 A 
ATOM     44  C   UNL A   1      38.882  30.152  29.403  1.00  0.00     0.049 A 
ATOM     45  H   UNL A   1      40.286  29.555  30.821  1.00  0.00     0.167 HD
ATOM     46  C   UNL A   1      43.303  28.237  33.695  1.00  0.00     0.037 A 
ATOM     47  C   UNL A   1      38.081  31.054  30.001  1.00  0.00     0.037 A 
ATOM     48  C   UNL A   1      42.543  29.242  34.391  1.00  0.00     0.049 A 
ATOM     49  C   UNL A   1      38.335  31.436  31.434  1.00  0.00     0.074 A 
ATOM     50  C   UNL A   1      42.730  29.731  35.672  1.00  0.00     0.029 A 
ATOM     51  N   UNL A   1      41.446  29.906  33.865  1.00  0.00    -0.354 N 
ATOM     52  N   UNL A   1      39.280  31.028  32.245  1.00  0.00    -0.248 NA
ATOM     53  C   UNL A   1      37.411  32.410  32.034  1.00  0.00     0.031 C 
ATOM     54  C   UNL A   1      41.717  30.660  35.938  1.00  0.00     0.029 A 
ATOM     55  C   UNL A   1      40.929  30.782  34.806  1.00  0.00     0.049 A 
ATOM     56  H   UNL A   1      41.088  29.775  32.958  1.00  0.00     0.167 HD
ATOM     57  C   UNL A   1      39.081  31.710  33.438  1.00  0.00     0.074 A 
ATOM     58  C   UNL A   1      37.932  32.570  33.241  1.00  0.00     0.031 C 
ATOM     59  C   UNL A   1      39.784  31.632  34.595  1.00  0.00     0.037 A 
BRANCH  46  60
ATOM     60  C   UNL A   1      44.433  27.570  34.422  1.00  0.00     0.057 A 
ATOM     61  C   UNL A   1      45.728  28.103  34.421  1.00  0.00     0.134 A 
ATOM     62  C   UNL A   1      44.215  26.400  35.159  1.00  0.00     0.134 A 
ATOM     63  F   UNL A   1      46.006  29.214  33.722  1.00  0.00    -0.206 F 
ATOM     64  C   UNL A   1      46.773  27.483  35.111  1.00  0.00     0.040 A 
ATOM     65  C   UNL A   1      45.245  25.784  35.872  1.00  0.00     0.040 A 
ATOM     66  F   UNL A   1      42.997  25.840  35.204  1.00  0.00    -0.206 F 
ATOM     67  C   UNL A   1      46.529  26.323  35.844  1.00  0.00     0.006 A 
ENDBRANCH  46  60
BRANCH  47  68
ATOM     68  C   UNL A   1      36.953  31.657  29.248  1.00  0.00     0.057 A 
ATOM     69  C   UNL A   1      37.026  32.963  28.752  1.00  0.00     0.134 A 
ATOM     70  C   UNL A   1      35.767  30.948  29.028  1.00  0.00     0.134 A 
ATOM     71  F   UNL A   1      38.127  33.701  28.954  1.00  0.00    -0.206 F 
ATOM     72  C   UNL A   1      35.954  33.549  28.077  1.00  0.00     0.040 A 
ATOM     73  C   UNL A   1      34.695  31.512  28.334  1.00  0.00     0.040 A 
ATOM     74  F   UNL A   1      35.634  29.692  29.480  1.00  0.00    -0.206 F 
ATOM     75  C   UNL A   1      34.785  32.819  27.863  1.00  0.00     0.006 A 
ENDBRANCH  47  68
BRANCH  59  76
ATOM     76  C   UNL A   1      39.347  32.517  35.725  1.00  0.00     0.057 A 
ATOM     77  C   UNL A   1      39.866  33.807  35.896  1.00  0.00     0.134 A 
ATOM     78  C   UNL A   1      38.376  32.085  36.637  1.00  0.00     0.134 A 
ATOM     79  F   UNL A   1      40.808  34.276  35.064  1.00  0.00    -0.206 F 
ATOM     80  C   UNL A   1      39.453  34.626  36.949  1.00  0.00     0.040 A 
ATOM     81  C   UNL A   1      37.936  32.904  37.679  1.00  0.00     0.040 A 
ATOM     82  F   UNL A   1      37.832  30.863  36.527  1.00  0.00    -0.206 F 
ATOM     83  C   UNL A   1      38.480  34.176  37.840  1.00  0.00     0.006 A 
ENDBRANCH  59  76
ENDBRANCH  33  34
ENDBRANCH  26  28
ENDBRANCH  25  26
ENDBRANCH  24  25
ENDBRANCH  23  24
ENDBRANCH  22  23
ENDBRANCH   1  22
TORSDOF 17
ENDMDL
MODEL 2
REMARK VINA RESULT:     -10.5      4.743     10.843
REMARK SMILES CC[C@@H]1CCCN1C(=O)N[C@H]1C=C[C@@H](C(=O)OCCOCCOC(=O)c2ccc(-c3c4nc(c(-c5c(F)cccc5F)c5ccc([nH]5)c(-c5c(F)cccc5F)c5nc(c(-c6c(F)cccc6F)c6ccc3[nH]6)C=C5)C=C4)cc2)C1
REMARK SMILES IDX 19 1 18 2 17 3 15 4 16 5 14 6 11 7 12 8 80 9 13 10 10 11
REMARK SMILES IDX 8 12 9 13 7 15 3 16 4 17 5 18 6 19 2 20 1 21 20 22 21 23
REMARK SMILES IDX 22 24 23 25 24 26 25 27 26 28 27 29 79 30 28 31 78 32 29 33
REMARK SMILES IDX 30 34 31 35 72 36 32 37 77 38 71 39 73 40 33 41 76 42 70 43
REMARK SMILES IDX 69 44 34 46 60 47 43 48 59 49 44 50 47 51 58 52 74 53 45 54
REMARK SMILES IDX 46 55 57 57 75 58 48 59 35 60 36 61 41 62 37 63 38 64 40 65
REMARK SMILES IDX 42 66 39 67 61 68 62 69 67 70 63 71 64 72 66 73 68 74 65 75
REMARK SMILES IDX 49 76 50 77 55 78 51 79 52 80 54 81 56 82 53 83
REMARK H PARENT 10 14 73 45 47 56
REMARK Flexibility Score: inf
ROOT
ATOM      1  C   UNL A   1      32.870  36.260  30.322  1.00  0.00     0.202 C 
ENDROOT
BRANCH   1   2
ATOM      2  C   UNL A   1      33.222  36.376  31.805  1.00  0.00     0.261 C 
BRANCH   2   3
ATOM      3  O   UNL A   1      34.421  35.642  32.090  1.00  0.00    -0.463 OA
BRANCH   3   4
ATOM      4  C   UNL A   1      34.218  34.465  32.738  1.00  0.00     0.312 C 
ATOM      5  O   UNL A   1      33.120  33.950  32.926  1.00  0.00    -0.252 OA
BRANCH   4   6
ATOM      6  C   UNL A   1      35.529  33.747  32.968  1.00  0.00     0.124 C 
ATOM      7  C   UNL A   1      37.039  32.303  34.044  1.00  0.00     0.107 C 
ATOM      8  C   UNL A   1      36.469  31.635  32.827  1.00  0.00    -0.006 C 
ATOM      9  C   UNL A   1      35.897  33.262  34.385  1.00  0.00     0.048 C 
ATOM     10  C   UNL A   1      35.627  32.462  32.198  1.00  0.00    -0.014 C 
BRANCH   7  11
ATOM     11  N   UNL A   1      37.483  31.312  34.939  1.00  0.00    -0.332 N 
ATOM     12  C   UNL A   1      38.368  31.445  35.950  1.00  0.00     0.318 C 
ATOM     13  O   UNL A   1      38.786  30.368  36.393  1.00  0.00    -0.249 OA
ATOM     14  H   UNL A   1      37.103  30.413  34.814  1.00  0.00     0.165 HD
BRANCH  12  15
ATOM     15  N   UNL A   1      38.819  32.654  36.446  1.00  0.00    -0.322 N 
ATOM     16  C   UNL A   1      39.106  34.040  35.913  1.00  0.00     0.086 C 
ATOM     17  C   UNL A   1      39.493  34.828  37.187  1.00  0.00     0.027 C 
ATOM     18  C   UNL A   1      38.690  34.188  38.284  1.00  0.00     0.024 C 
ATOM     19  C   UNL A   1      38.749  32.723  37.912  1.00  0.00     0.122 C 
BRANCH  16  20
ATOM     20  C   UNL A   1      40.229  34.329  34.886  1.00  0.00     0.022 C 
ATOM     21  C   UNL A   1      39.738  34.617  33.466  1.00  0.00     0.006 C 
ENDBRANCH  16  20
ENDBRANCH  12  15
ENDBRANCH   7  11
ENDBRANCH   4   6
ENDBRANCH   3   4
ENDBRANCH   2   3
ENDBRANCH   1   2
BRANCH   1  22
ATOM     22  O   UNL A   1      33.765  35.481  29.528  1.00  0.00    -0.374 OA
BRANCH  22  23
ATOM     23  C   UNL A   1      33.208  34.532  28.617  1.00  0.00     0.202 C 
BRANCH  23  24
ATOM     24  C   UNL A   1      34.174  33.504  28.013  1.00  0.00     0.261 C 
BRANCH  24  25
ATOM     25  O   UNL A   1      34.409  32.394  28.903  1.00  0.00    -0.460 OA
BRANCH  25  26
ATOM     26  C   UNL A   1      34.894  31.280  28.310  1.00  0.00     0.338 C 
ATOM     27  O   UNL A   1      34.509  30.766  27.262  1.00  0.00    -0.246 OA
BRANCH  26  28
ATOM     28  C   UNL A   1      36.111  30.824  28.996  1.00  0.00     0.060 A 
ATOM     29  C   UNL A   1      37.284  31.564  28.805  1.00  0.00     0.016 A 
ATOM     30  C   UNL A   1      36.132  29.633  29.726  1.00  0.00     0.016 A 
ATOM     31  C   UNL A   1      38.493  31.098  29.314  1.00  0.00     0.010 A 
ATOM     32  C   UNL A   1      37.352  29.160  30.225  1.00  0.00     0.010 A 
ATOM     33  C   UNL A   1      38.541  29.874  29.994  1.00  0.00    -0.014 A 
BRANCH  33  34
ATOM     34  C   UNL A   1      39.861  29.295  30.340  1.00  0.00     0.031 A 
ATOM     35  C   UNL A   1      40.595  29.803  31.550  1.00  0.00     0.074 A 
ATOM     36  C   UNL A   1      40.376  28.286  29.614  1.00  0.00     0.049 A 
ATOM     37  N   UNL A   1      41.743  29.418  32.047  1.00  0.00    -0.248 NA
ATOM     38  C   UNL A   1      39.946  30.889  32.302  1.00  0.00     0.031 C 
ATOM     39  C   UNL A   1      39.745  27.684  28.441  1.00  0.00     0.029 A 
ATOM     40  N   UNL A   1      41.548  27.589  29.765  1.00  0.00    -0.354 N 
ATOM     41  C   UNL A   1      41.953  30.209  33.168  1.00  0.00     0.074 A 
ATOM     42  C   UNL A   1      40.832  31.119  33.261  1.00  0.00     0.031 C 
ATOM     43  C   UNL A   1      40.541  26.707  27.974  1.00  0.00     0.029 A 
ATOM     44  C   UNL A   1      41.744  26.631  28.801  1.00  0.00     0.049 A 
ATOM     45  H   UNL A   1      42.186  27.759  30.494  1.00  0.00     0.167 HD
ATOM     46  C   UNL A   1      42.983  30.174  34.048  1.00  0.00     0.037 A 
ATOM     47  C   UNL A   1      42.783  25.797  28.604  1.00  0.00     0.037 A 
ATOM     48  C   UNL A   1      44.102  29.272  33.956  1.00  0.00     0.049 A 
ATOM     49  C   UNL A   1      43.945  25.822  29.558  1.00  0.00     0.074 A 
ATOM     50  C   UNL A   1      45.183  29.148  34.811  1.00  0.00     0.029 A 
ATOM     51  N   UNL A   1      44.284  28.345  32.942  1.00  0.00    -0.354 N 
ATOM     52  N   UNL A   1      44.119  26.552  30.633  1.00  0.00    -0.248 NA
ATOM     53  C   UNL A   1      45.056  24.903  29.273  1.00  0.00     0.031 C 
ATOM     54  C   UNL A   1      46.044  28.176  34.289  1.00  0.00     0.029 A 
ATOM     55  C   UNL A   1      45.475  27.663  33.135  1.00  0.00     0.049 A 
ATOM     56  H   UNL A   1      43.662  28.193  32.195  1.00  0.00     0.167 HD
ATOM     57  C   UNL A   1      45.342  26.165  31.164  1.00  0.00     0.074 A 
ATOM     58  C   UNL A   1      45.862  25.124  30.301  1.00  0.00     0.031 C 
ATOM     59  C   UNL A   1      45.980  26.629  32.267  1.00  0.00     0.037 A 
BRANCH  46  60
ATOM     60  C   UNL A   1      42.957  31.159  35.180  1.00  0.00     0.057 A 
ATOM     61  C   UNL A   1      43.498  32.444  35.053  1.00  0.00     0.134 A 
ATOM     62  C   UNL A   1      42.353  30.828  36.399  1.00  0.00     0.134 A 
ATOM     63  F   UNL A   1      44.103  32.819  33.915  1.00  0.00    -0.206 F 
ATOM     64  C   UNL A   1      43.458  33.360  36.107  1.00  0.00     0.040 A 
ATOM     65  C   UNL A   1      42.286  31.742  37.452  1.00  0.00     0.040 A 
ATOM     66  F   UNL A   1      41.813  29.614  36.585  1.00  0.00    -0.206 F 
ATOM     67  C   UNL A   1      42.844  33.010  37.309  1.00  0.00     0.006 A 
ENDBRANCH  46  60
BRANCH  47  68
ATOM     68  C   UNL A   1      42.777  24.868  27.446  1.00  0.00     0.057 A 
ATOM     69  C   UNL A   1      42.243  23.579  27.552  1.00  0.00     0.134 A 
ATOM     70  C   UNL A   1      43.328  25.240  26.215  1.00  0.00     0.134 A 
ATOM     71  F   UNL A   1      41.724  23.156  28.713  1.00  0.00    -0.206 F 
ATOM     72  C   UNL A   1      42.270  22.687  26.478  1.00  0.00     0.040 A 
ATOM     73  C   UNL A   1      43.340  24.368  25.125  1.00  0.00     0.040 A 
ATOM     74  F   UNL A   1      43.857  26.462  26.051  1.00  0.00    -0.206 F 
ATOM     75  C   UNL A   1      42.816  23.085  25.258  1.00  0.00     0.006 A 
ENDBRANCH  47  68
BRANCH  59  76
ATOM     76  C   UNL A   1      47.295  25.996  32.617  1.00  0.00     0.057 A 
ATOM     77  C   UNL A   1      47.391  24.962  33.557  1.00  0.00     0.134 A 
ATOM     78  C   UNL A   1      48.476  26.408  31.986  1.00  0.00     0.134 A 
ATOM     79  F   UNL A   1      46.298  24.531  34.206  1.00  0.00    -0.206 F 
ATOM     80  C   UNL A   1      48.617  24.377  33.876  1.00  0.00     0.040 A 
ATOM     81  C   UNL A   1      49.705  25.813  32.278  1.00  0.00     0.040 A 
ATOM     82  F   UNL A   1      48.455  27.388  31.070  1.00  0.00    -0.206 F 
ATOM     83  C   UNL A   1      49.778  24.799  33.230  1.00  0.00     0.006 A 
ENDBRANCH  59  76
ENDBRANCH  33  34
ENDBRANCH  26  28
ENDBRANCH  25  26
ENDBRANCH  24  25
ENDBRANCH  23  24
ENDBRANCH  22  23
ENDBRANCH   1  22
TORSDOF 17
ENDMDL
MODEL 3
REMARK VINA RESULT:     -10.5      4.746      9.879
REMARK SMILES CC[C@@H]1CCCN1C(=O)N[C@H]1C=C[C@@H](C(=O)OCCOCCOC(=O)c2ccc(-c3c4nc(c(-c5c(F)cccc5F)c5ccc([nH]5)c(-c5c(F)cccc5F)c5nc(c(-c6c(F)cccc6F)c6ccc3[nH]6)C=C5)C=C4)cc2)C1
REMARK SMILES IDX 19 1 18 2 17 3 15 4 16 5 14 6 11 7 12 8 80 9 13 10 10 11
REMARK SMILES IDX 8 12 9 13 7 15 3 16 4 17 5 18 6 19 2 20 1 21 20 22 21 23
REMARK SMILES IDX 22 24 23 25 24 26 25 27 26 28 27 29 79 30 28 31 78 32 29 33
REMARK SMILES IDX 30 34 31 35 72 36 32 37 77 38 71 39 73 40 33 41 76 42 70 43
REMARK SMILES IDX 69 44 34 46 60 47 43 48 59 49 44 50 47 51 58 52 74 53 45 54
REMARK SMILES IDX 46 55 57 57 75 58 48 59 35 60 36 61 41 62 37 63 38 64 40 65
REMARK SMILES IDX 42 66 39 67 61 68 62 69 67 70 63 71 64 72 66 73 68 74 65 75
REMARK SMILES IDX 49 76 50 77 55 78 51 79 52 80 54 81 56 82 53 83
REMARK H PARENT 10 14 73 45 47 56
REMARK Flexibility Score: inf
ROOT
ATOM      1  C   UNL A   1      33.792  33.454  28.347  1.00  0.00     0.202 C 
ENDROOT
BRANCH   1   2
ATOM      2  C   UNL A   1      34.037  31.946  28.301  1.00  0.00     0.261 C 
BRANCH   2   3
ATOM      3  O   UNL A   1      33.728  31.431  26.998  1.00  0.00    -0.463 OA
BRANCH   3   4
ATOM      4  C   UNL A   1      32.495  30.872  26.894  1.00  0.00     0.312 C 
ATOM      5  O   UNL A   1      31.444  31.502  26.831  1.00  0.00    -0.252 OA
BRANCH   4   6
ATOM      6  C   UNL A   1      32.600  29.391  26.605  1.00  0.00     0.124 C 
ATOM      7  C   UNL A   1      31.969  27.128  26.673  1.00  0.00     0.107 C 
ATOM      8  C   UNL A   1      31.584  27.729  25.353  1.00  0.00    -0.006 C 
ATOM      9  C   UNL A   1      31.934  28.377  27.557  1.00  0.00     0.048 C 
ATOM     10  C   UNL A   1      31.963  29.011  25.300  1.00  0.00    -0.014 C 
BRANCH   7  11
ATOM     11  N   UNL A   1      31.152  26.010  26.918  1.00  0.00    -0.332 N 
ATOM     12  C   UNL A   1      31.288  24.760  26.426  1.00  0.00     0.318 C 
ATOM     13  O   UNL A   1      30.285  24.051  26.575  1.00  0.00    -0.249 OA
ATOM     14  H   UNL A   1      30.387  26.155  27.521  1.00  0.00     0.165 HD
BRANCH  12  15
ATOM     15  N   UNL A   1      32.414  24.290  25.776  1.00  0.00    -0.322 N 
ATOM     16  C   UNL A   1      33.107  24.507  24.449  1.00  0.00     0.086 C 
ATOM     17  C   UNL A   1      34.380  23.639  24.576  1.00  0.00     0.027 C 
ATOM     18  C   UNL A   1      34.716  23.675  26.040  1.00  0.00     0.024 C 
ATOM     19  C   UNL A   1      33.349  23.613  26.685  1.00  0.00     0.122 C 
BRANCH  16  20
ATOM     20  C   UNL A   1      32.467  24.115  23.093  1.00  0.00     0.022 C 
ATOM     21  C   UNL A   1      30.987  24.477  22.956  1.00  0.00     0.006 C 
ENDBRANCH  16  20
ENDBRANCH  12  15
ENDBRANCH   7  11
ENDBRANCH   4   6
ENDBRANCH   3   4
ENDBRANCH   2   3
ENDBRANCH   1   2
BRANCH   1  22
ATOM     22  O   UNL A   1      33.443  33.990  29.623  1.00  0.00    -0.374 OA
BRANCH  22  23
ATOM     23  C   UNL A   1      34.498  34.393  30.498  1.00  0.00     0.202 C 
BRANCH  23  24
ATOM     24  C   UNL A   1      34.443  33.864  31.937  1.00  0.00     0.261 C 
BRANCH  24  25
ATOM     25  O   UNL A   1      34.780  32.465  32.014  1.00  0.00    -0.460 OA
BRANCH  25  26
ATOM     26  C   UNL A   1      35.846  32.177  32.793  1.00  0.00     0.338 C 
ATOM     27  O   UNL A   1      35.961  32.371  34.001  1.00  0.00    -0.246 OA
BRANCH  26  28
ATOM     28  C   UNL A   1      36.840  31.404  32.035  1.00  0.00     0.060 A 
ATOM     29  C   UNL A   1      37.940  30.892  32.736  1.00  0.00     0.016 A 
ATOM     30  C   UNL A   1      36.758  31.273  30.647  1.00  0.00     0.016 A 
ATOM     31  C   UNL A   1      38.981  30.276  32.045  1.00  0.00     0.010 A 
ATOM     32  C   UNL A   1      37.811  30.665  29.954  1.00  0.00     0.010 A 
ATOM     33  C   UNL A   1      38.941  30.193  30.647  1.00  0.00    -0.014 A 
BRANCH  33  34
ATOM     34  C   UNL A   1      40.147  29.730  29.920  1.00  0.00     0.031 A 
ATOM     35  C   UNL A   1      41.301  30.676  29.728  1.00  0.00     0.074 A 
ATOM     36  C   UNL A   1      40.236  28.461  29.483  1.00  0.00     0.049 A 
ATOM     37  N   UNL A   1      42.457  30.468  29.151  1.00  0.00    -0.248 NA
ATOM     38  C   UNL A   1      41.129  32.036  30.263  1.00  0.00     0.031 C 
ATOM     39  C   UNL A   1      39.201  27.441  29.638  1.00  0.00     0.029 A 
ATOM     40  N   UNL A   1      41.251  27.817  28.823  1.00  0.00    -0.354 N 
ATOM     41  C   UNL A   1      43.151  31.666  29.254  1.00  0.00     0.074 A 
ATOM     42  C   UNL A   1      42.275  32.607  29.920  1.00  0.00     0.031 C 
ATOM     43  C   UNL A   1      39.633  26.296  29.083  1.00  0.00     0.029 A 
ATOM     44  C   UNL A   1      40.963  26.510  28.516  1.00  0.00     0.049 A 
ATOM     45  H   UNL A   1      42.104  28.250  28.592  1.00  0.00     0.167 HD
ATOM     46  C   UNL A   1      44.408  31.955  28.841  1.00  0.00     0.037 A 
ATOM     47  C   UNL A   1      41.688  25.595  27.844  1.00  0.00     0.037 A 
ATOM     48  C   UNL A   1      45.280  31.021  28.176  1.00  0.00     0.049 A 
ATOM     49  C   UNL A   1      43.057  25.960  27.338  1.00  0.00     0.074 A 
ATOM     50  C   UNL A   1      46.578  31.216  27.738  1.00  0.00     0.029 A 
ATOM     51  N   UNL A   1      44.936  29.720  27.846  1.00  0.00    -0.354 N 
ATOM     52  N   UNL A   1      43.716  27.085  27.469  1.00  0.00    -0.248 NA
ATOM     53  C   UNL A   1      43.786  24.923  26.594  1.00  0.00     0.031 C 
ATOM     54  C   UNL A   1      47.006  30.044  27.102  1.00  0.00     0.029 A 
ATOM     55  C   UNL A   1      45.989  29.106  27.186  1.00  0.00     0.049 A 
ATOM     56  H   UNL A   1      44.073  29.294  28.050  1.00  0.00     0.167 HD
ATOM     57  C   UNL A   1      44.941  26.886  26.847  1.00  0.00     0.074 A 
ATOM     58  C   UNL A   1      44.941  25.525  26.351  1.00  0.00     0.031 C 
ATOM     59  C   UNL A   1      45.974  27.751  26.698  1.00  0.00     0.037 A 
BRANCH  46  60
ATOM     60  C   UNL A   1      44.910  33.349  29.080  1.00  0.00     0.057 A 
ATOM     61  C   UNL A   1      44.794  34.351  28.108  1.00  0.00     0.134 A 
ATOM     62  C   UNL A   1      45.484  33.699  30.307  1.00  0.00     0.134 A 
ATOM     63  F   UNL A   1      44.265  34.076  26.906  1.00  0.00    -0.206 F 
ATOM     64  C   UNL A   1      45.251  35.650  28.343  1.00  0.00     0.040 A 
ATOM     65  C   UNL A   1      45.925  34.999  30.562  1.00  0.00     0.040 A 
ATOM     66  F   UNL A   1      45.622  32.787  31.281  1.00  0.00    -0.206 F 
ATOM     67  C   UNL A   1      45.813  35.977  29.576  1.00  0.00     0.006 A 
ENDBRANCH  46  60
BRANCH  47  68
ATOM     68  C   UNL A   1      41.130  24.241  27.601  1.00  0.00     0.057 A 
ATOM     69  C   UNL A   1      41.610  23.123  28.293  1.00  0.00     0.134 A 
ATOM     70  C   UNL A   1      40.121  24.031  26.655  1.00  0.00     0.134 A 
ATOM     71  F   UNL A   1      42.594  23.257  29.193  1.00  0.00    -0.206 F 
ATOM     72  C   UNL A   1      41.116  21.842  28.041  1.00  0.00     0.040 A 
ATOM     73  C   UNL A   1      39.601  22.760  26.410  1.00  0.00     0.040 A 
ATOM     74  F   UNL A   1      39.620  25.063  25.959  1.00  0.00    -0.206 F 
ATOM     75  C   UNL A   1      40.104  21.659  27.099  1.00  0.00     0.006 A 
ENDBRANCH  47  68
BRANCH  59  76
ATOM     76  C   UNL A   1      47.199  27.243  25.994  1.00  0.00     0.057 A 
ATOM     77  C   UNL A   1      47.377  27.404  24.613  1.00  0.00     0.134 A 
ATOM     78  C   UNL A   1      48.223  26.609  26.708  1.00  0.00     0.134 A 
ATOM     79  F   UNL A   1      46.427  27.991  23.870  1.00  0.00    -0.206 F 
ATOM     80  C   UNL A   1      48.519  26.930  23.965  1.00  0.00     0.040 A 
ATOM     81  C   UNL A   1      49.382  26.154  26.076  1.00  0.00     0.040 A 
ATOM     82  F   UNL A   1      48.120  26.430  28.034  1.00  0.00    -0.206 F 
ATOM     83  C   UNL A   1      49.528  26.309  24.699  1.00  0.00     0.006 A 
ENDBRANCH  59  76
ENDBRANCH  33  34
ENDBRANCH  26  28
ENDBRANCH  25  26
ENDBRANCH  24  25
ENDBRANCH  23  24
ENDBRANCH  22  23
ENDBRANCH   1  22
TORSDOF 17
ENDMDL
