MODEL 1
REMARK VINA RESULT:     -10.8      0.000      0.000
REMARK SMILES Cc1cc(C)c2c(OCCCC(=O)OCCOCCOC(=O)c3ccc(-c4c5nc(c(-c6c(F)cccc6F)c6ccc([nH]6)c(-c6c(F)cccc6F)c6nc(c(-c7c(F)cccc7F)c7ccc4[nH]7)C=C6)C=C5)cc3)nsc2n1
REMARK SMILES IDX 16 1 15 2 14 3 12 4 13 5 11 6 10 7 9 8 8 9 7 10 1 11 2 12
REMARK SMILES IDX 3 13 80 14 4 15 79 16 5 17 6 18 78 19 77 20 17 21 18 22
REMARK SMILES IDX 19 23 20 24 21 25 22 26 23 27 24 28 76 29 25 30 75 31 26 32
REMARK SMILES IDX 27 33 28 34 69 35 29 36 74 37 68 38 70 39 30 40 73 41 67 42
REMARK SMILES IDX 66 43 31 45 57 46 40 47 56 48 41 49 44 50 55 51 71 52 42 53
REMARK SMILES IDX 43 54 54 56 72 57 45 58 32 59 33 60 38 61 34 62 35 63 37 64
REMARK SMILES IDX 39 65 36 66 58 67 59 68 64 69 60 70 61 71 63 72 65 73 62 74
REMARK SMILES IDX 46 75 47 76 52 77 48 78 49 79 51 80 53 81 50 82
REMARK H PARENT 70 44 44 55
REMARK Flexibility Score: inf
ROOT
ATOM      1  C   UNL A   1      34.155  33.408  29.377  1.00  0.00     0.202 C 
ENDROOT
BRANCH   1   2
ATOM      2  C   UNL A   1      34.316  32.856  27.970  1.00  0.00     0.261 C 
BRANCH   2   3
ATOM      3  O   UNL A   1      34.062  31.411  27.902  1.00  0.00    -0.463 OA
BRANCH   3   4
ATOM      4  C   UNL A   1      33.088  30.904  27.105  1.00  0.00     0.305 C 
ATOM      5  O   UNL A   1      32.028  31.488  26.904  1.00  0.00    -0.252 OA
BRANCH   4   6
ATOM      6  C   UNL A   1      33.340  29.473  26.568  1.00  0.00     0.126 C 
BRANCH   6   7
ATOM      7  C   UNL A   1      32.993  28.165  27.307  1.00  0.00     0.053 C 
BRANCH   7   8
ATOM      8  C   UNL A   1      31.581  27.527  27.447  1.00  0.00     0.232 C 
BRANCH   8   9
ATOM      9  O   UNL A   1      31.054  26.562  26.549  1.00  0.00    -0.477 OA
BRANCH   9  10
ATOM     10  C   UNL A   1      31.630  25.351  26.390  1.00  0.00     0.235 A 
ATOM     11  C   UNL A   1      36.816  23.642  25.988  1.00  0.00     0.067 C 
ATOM     12  C   UNL A   1      35.361  23.871  25.664  1.00  0.00     0.039 A 
ATOM     13  C   UNL A   1      35.008  24.878  24.774  1.00  0.00     0.027 A 
ATOM     14  N   UNL A   1      34.456  23.196  26.384  1.00  0.00    -0.240 NA
ATOM     15  C   UNL A   1      33.722  25.462  24.771  1.00  0.00    -0.034 A 
ATOM     16  C   UNL A   1      33.226  23.742  26.351  1.00  0.00     0.147 A 
ATOM     17  C   UNL A   1      33.396  26.641  23.895  1.00  0.00     0.045 C 
ATOM     18  C   UNL A   1      32.831  24.928  25.727  1.00  0.00     0.078 A 
ATOM     19  S   UNL A   1      31.888  23.056  27.144  1.00  0.00    -0.012 S 
ATOM     20  N   UNL A   1      30.932  24.404  27.016  1.00  0.00    -0.153 NA
ENDBRANCH   9  10
ENDBRANCH   8   9
ENDBRANCH   7   8
ENDBRANCH   6   7
ENDBRANCH   4   6
ENDBRANCH   3   4
ENDBRANCH   2   3
ENDBRANCH   1   2
BRANCH   1  21
ATOM     21  O   UNL A   1      34.415  34.796  29.504  1.00  0.00    -0.374 OA
BRANCH  21  22
ATOM     22  C   UNL A   1      33.300  35.655  29.335  1.00  0.00     0.202 C 
BRANCH  22  23
ATOM     23  C   UNL A   1      32.657  36.189  30.608  1.00  0.00     0.261 C 
BRANCH  23  24
ATOM     24  O   UNL A   1      32.615  35.282  31.712  1.00  0.00    -0.460 OA
BRANCH  24  25
ATOM     25  C   UNL A   1      33.268  35.745  32.801  1.00  0.00     0.338 C 
ATOM     26  O   UNL A   1      33.171  36.875  33.290  1.00  0.00    -0.246 OA
BRANCH  25  27
ATOM     27  C   UNL A   1      34.333  34.821  33.196  1.00  0.00     0.060 A 
ATOM     28  C   UNL A   1      35.613  35.367  33.259  1.00  0.00     0.016 A 
ATOM     29  C   UNL A   1      34.132  33.433  33.129  1.00  0.00     0.016 A 
ATOM     30  C   UNL A   1      36.677  34.549  32.953  1.00  0.00     0.010 A 
ATOM     31  C   UNL A   1      35.210  32.609  32.872  1.00  0.00     0.010 A 
ATOM     32  C   UNL A   1      36.454  33.189  32.662  1.00  0.00    -0.014 A 
BRANCH  32  33
ATOM     33  C   UNL A   1      37.613  32.365  32.350  1.00  0.00     0.031 A 
ATOM     34  C   UNL A   1      38.423  32.171  33.573  1.00  0.00     0.074 A 
ATOM     35  C   UNL A   1      37.945  31.857  31.142  1.00  0.00     0.049 A 
ATOM     36  N   UNL A   1      39.485  32.839  33.867  1.00  0.00    -0.248 NA
ATOM     37  C   UNL A   1      37.861  31.411  34.699  1.00  0.00     0.031 C 
ATOM     38  C   UNL A   1      37.183  31.843  29.893  1.00  0.00     0.029 A 
ATOM     39  N   UNL A   1      39.097  31.199  30.791  1.00  0.00    -0.354 N 
ATOM     40  C   UNL A   1      39.876  32.394  35.119  1.00  0.00     0.074 A 
ATOM     41  C   UNL A   1      38.747  31.687  35.661  1.00  0.00     0.031 C 
ATOM     42  C   UNL A   1      37.779  31.009  29.002  1.00  0.00     0.029 A 
ATOM     43  C   UNL A   1      39.044  30.550  29.549  1.00  0.00     0.049 A 
ATOM     44  H   UNL A   1      39.896  31.183  31.366  1.00  0.00     0.167 HD
ATOM     45  C   UNL A   1      41.198  32.401  35.433  1.00  0.00     0.037 A 
ATOM     46  C   UNL A   1      39.991  29.719  29.024  1.00  0.00     0.037 A 
ATOM     47  C   UNL A   1      41.918  33.300  34.556  1.00  0.00     0.049 A 
ATOM     48  C   UNL A   1      41.278  30.066  29.680  1.00  0.00     0.074 A 
ATOM     49  C   UNL A   1      41.860  34.652  34.281  1.00  0.00     0.029 A 
ATOM     50  N   UNL A   1      42.582  32.724  33.501  1.00  0.00    -0.354 N 
ATOM     51  N   UNL A   1      41.892  31.199  29.479  1.00  0.00    -0.248 NA
ATOM     52  C   UNL A   1      41.571  29.394  30.937  1.00  0.00     0.031 C 
ATOM     53  C   UNL A   1      42.078  34.753  32.875  1.00  0.00     0.029 A 
ATOM     54  C   UNL A   1      42.355  33.479  32.384  1.00  0.00     0.049 A 
ATOM     55  H   UNL A   1      43.130  31.907  33.542  1.00  0.00     0.167 HD
ATOM     56  C   UNL A   1      42.260  31.612  30.748  1.00  0.00     0.074 A 
ATOM     57  C   UNL A   1      42.059  30.442  31.607  1.00  0.00     0.031 C 
ATOM     58  C   UNL A   1      42.387  32.936  31.047  1.00  0.00     0.037 A 
BRANCH  45  59
ATOM     59  C   UNL A   1      41.887  31.244  36.118  1.00  0.00     0.057 A 
ATOM     60  C   UNL A   1      42.852  31.537  37.099  1.00  0.00     0.134 A 
ATOM     61  C   UNL A   1      41.913  29.922  35.630  1.00  0.00     0.134 A 
ATOM     62  F   UNL A   1      42.932  32.761  37.642  1.00  0.00    -0.206 F 
ATOM     63  C   UNL A   1      43.841  30.622  37.473  1.00  0.00     0.040 A 
ATOM     64  C   UNL A   1      42.868  28.986  36.032  1.00  0.00     0.040 A 
ATOM     65  F   UNL A   1      41.094  29.481  34.670  1.00  0.00    -0.206 F 
ATOM     66  C   UNL A   1      43.860  29.347  36.928  1.00  0.00     0.006 A 
ENDBRANCH  45  59
BRANCH  46  67
ATOM     67  C   UNL A   1      39.823  28.400  28.344  1.00  0.00     0.057 A 
ATOM     68  C   UNL A   1      40.432  28.132  27.101  1.00  0.00     0.134 A 
ATOM     69  C   UNL A   1      39.344  27.275  29.034  1.00  0.00     0.134 A 
ATOM     70  F   UNL A   1      40.958  29.127  26.370  1.00  0.00    -0.206 F 
ATOM     71  C   UNL A   1      40.594  26.828  26.602  1.00  0.00     0.040 A 
ATOM     72  C   UNL A   1      39.501  25.969  28.548  1.00  0.00     0.040 A 
ATOM     73  F   UNL A   1      38.790  27.397  30.248  1.00  0.00    -0.206 F 
ATOM     74  C   UNL A   1      40.143  25.739  27.338  1.00  0.00     0.006 A 
ENDBRANCH  46  67
BRANCH  58  75
ATOM     75  C   UNL A   1      42.372  33.941  29.932  1.00  0.00     0.057 A 
ATOM     76  C   UNL A   1      41.228  34.627  29.496  1.00  0.00     0.134 A 
ATOM     77  C   UNL A   1      43.606  34.390  29.452  1.00  0.00     0.134 A 
ATOM     78  F   UNL A   1      40.010  34.312  29.960  1.00  0.00    -0.206 F 
ATOM     79  C   UNL A   1      41.319  35.719  28.625  1.00  0.00     0.040 A 
ATOM     80  C   UNL A   1      43.713  35.496  28.610  1.00  0.00     0.040 A 
ATOM     81  F   UNL A   1      44.742  33.803  29.864  1.00  0.00    -0.206 F 
ATOM     82  C   UNL A   1      42.566  36.166  28.194  1.00  0.00     0.006 A 
ENDBRANCH  58  75
ENDBRANCH  32  33
ENDBRANCH  25  27
ENDBRANCH  24  25
ENDBRANCH  23  24
ENDBRANCH  22  23
ENDBRANCH  21  22
ENDBRANCH   1  21
TORSDOF 18
ENDMDL
MODEL 2
REMARK VINA RESULT:     -10.6      5.738     10.963
REMARK SMILES Cc1cc(C)c2c(OCCCC(=O)OCCOCCOC(=O)c3ccc(-c4c5nc(c(-c6c(F)cccc6F)c6ccc([nH]6)c(-c6c(F)cccc6F)c6nc(c(-c7c(F)cccc7F)c7ccc4[nH]7)C=C6)C=C5)cc3)nsc2n1
REMARK SMILES IDX 16 1 15 2 14 3 12 4 13 5 11 6 10 7 9 8 8 9 7 10 1 11 2 12
REMARK SMILES IDX 3 13 80 14 4 15 79 16 5 17 6 18 78 19 77 20 17 21 18 22
REMARK SMILES IDX 19 23 20 24 21 25 22 26 23 27 24 28 76 29 25 30 75 31 26 32
REMARK SMILES IDX 27 33 28 34 69 35 29 36 74 37 68 38 70 39 30 40 73 41 67 42
REMARK SMILES IDX 66 43 31 45 57 46 40 47 56 48 41 49 44 50 55 51 71 52 42 53
REMARK SMILES IDX 43 54 54 56 72 57 45 58 32 59 33 60 38 61 34 62 35 63 37 64
REMARK SMILES IDX 39 65 36 66 58 67 59 68 64 69 60 70 61 71 63 72 65 73 62 74
REMARK SMILES IDX 46 75 47 76 52 77 48 78 49 79 51 80 53 81 50 82
REMARK H PARENT 70 44 44 55
REMARK Flexibility Score: inf
ROOT
ATOM      1  C   UNL A   1      40.433  20.428  26.315  1.00  0.00     0.202 C 
ENDROOT
BRANCH   1   2
ATOM      2  C   UNL A   1      38.976  20.501  25.886  1.00  0.00     0.261 C 
BRANCH   2   3
ATOM      3  O   UNL A   1      38.611  21.826  25.366  1.00  0.00    -0.463 OA
BRANCH   3   4
ATOM      4  C   UNL A   1      37.370  22.073  24.876  1.00  0.00     0.305 C 
ATOM      5  O   UNL A   1      37.132  22.124  23.674  1.00  0.00    -0.252 OA
BRANCH   4   6
ATOM      6  C   UNL A   1      36.292  22.422  25.932  1.00  0.00     0.126 C 
BRANCH   6   7
ATOM      7  C   UNL A   1      35.540  23.764  26.035  1.00  0.00     0.053 C 
BRANCH   7   8
ATOM      8  C   UNL A   1      34.288  24.188  25.215  1.00  0.00     0.232 C 
BRANCH   8   9
ATOM      9  O   UNL A   1      34.219  25.364  24.422  1.00  0.00    -0.477 OA
BRANCH   9  10
ATOM     10  C   UNL A   1      33.264  25.531  23.482  1.00  0.00     0.235 A 
ATOM     11  C   UNL A   1      29.389  29.307  22.642  1.00  0.00     0.067 C 
ATOM     12  C   UNL A   1      30.056  27.972  22.859  1.00  0.00     0.039 A 
ATOM     13  C   UNL A   1      30.050  27.402  24.127  1.00  0.00     0.027 A 
ATOM     14  N   UNL A   1      30.774  27.469  21.847  1.00  0.00    -0.240 NA
ATOM     15  C   UNL A   1      31.007  26.442  24.524  1.00  0.00    -0.034 A 
ATOM     16  C   UNL A   1      31.662  26.533  22.230  1.00  0.00     0.147 A 
ATOM     17  C   UNL A   1      31.071  25.934  25.938  1.00  0.00     0.045 C 
ATOM     18  C   UNL A   1      31.947  26.102  23.528  1.00  0.00     0.078 A 
ATOM     19  S   UNL A   1      32.666  25.709  21.134  1.00  0.00    -0.012 S 
ATOM     20  N   UNL A   1      33.684  25.101  22.292  1.00  0.00    -0.153 NA
ENDBRANCH   9  10
ENDBRANCH   8   9
ENDBRANCH   7   8
ENDBRANCH   6   7
ENDBRANCH   4   6
ENDBRANCH   3   4
ENDBRANCH   2   3
ENDBRANCH   1   2
BRANCH   1  21
ATOM     21  O   UNL A   1      41.191  19.419  25.669  1.00  0.00    -0.374 OA
BRANCH  21  22
ATOM     22  C   UNL A   1      42.306  18.921  26.390  1.00  0.00     0.202 C 
BRANCH  22  23
ATOM     23  C   UNL A   1      43.562  18.627  25.580  1.00  0.00     0.261 C 
BRANCH  23  24
ATOM     24  O   UNL A   1      43.744  19.419  24.405  1.00  0.00    -0.460 OA
BRANCH  24  25
ATOM     25  C   UNL A   1      45.029  19.793  24.214  1.00  0.00     0.338 C 
ATOM     26  O   UNL A   1      45.999  19.042  24.076  1.00  0.00    -0.246 OA
BRANCH  25  27
ATOM     27  C   UNL A   1      45.190  21.228  24.458  1.00  0.00     0.060 A 
ATOM     28  C   UNL A   1      45.903  21.568  25.606  1.00  0.00     0.016 A 
ATOM     29  C   UNL A   1      44.364  22.157  23.806  1.00  0.00     0.016 A 
ATOM     30  C   UNL A   1      45.554  22.729  26.259  1.00  0.00     0.010 A 
ATOM     31  C   UNL A   1      44.057  23.345  24.442  1.00  0.00     0.010 A 
ATOM     32  C   UNL A   1      44.556  23.563  25.718  1.00  0.00    -0.014 A 
BRANCH  32  33
ATOM     33  C   UNL A   1      44.229  24.783  26.444  1.00  0.00     0.031 A 
ATOM     34  C   UNL A   1      45.316  25.770  26.265  1.00  0.00     0.074 A 
ATOM     35  C   UNL A   1      43.126  25.008  27.194  1.00  0.00     0.049 A 
ATOM     36  N   UNL A   1      46.253  25.997  27.120  1.00  0.00    -0.248 NA
ATOM     37  C   UNL A   1      45.574  26.326  24.929  1.00  0.00     0.031 C 
ATOM     38  C   UNL A   1      41.918  24.197  27.346  1.00  0.00     0.029 A 
ATOM     39  N   UNL A   1      42.858  26.088  27.997  1.00  0.00    -0.354 N 
ATOM     40  C   UNL A   1      47.089  26.928  26.525  1.00  0.00     0.074 A 
ATOM     41  C   UNL A   1      46.747  26.934  25.127  1.00  0.00     0.031 C 
ATOM     42  C   UNL A   1      40.961  24.916  27.987  1.00  0.00     0.029 A 
ATOM     43  C   UNL A   1      41.528  26.177  28.432  1.00  0.00     0.049 A 
ATOM     44  H   UNL A   1      43.545  26.748  28.247  1.00  0.00     0.167 HD
ATOM     45  C   UNL A   1      47.755  27.809  27.315  1.00  0.00     0.037 A 
ATOM     46  C   UNL A   1      40.965  27.212  29.122  1.00  0.00     0.037 A 
ATOM     47  C   UNL A   1      47.816  27.317  28.675  1.00  0.00     0.049 A 
ATOM     48  C   UNL A   1      42.073  27.918  29.816  1.00  0.00     0.074 A 
ATOM     49  C   UNL A   1      48.342  26.195  29.287  1.00  0.00     0.029 A 
ATOM     50  N   UNL A   1      46.899  27.837  29.555  1.00  0.00    -0.354 N 
ATOM     51  N   UNL A   1      42.748  27.385  30.797  1.00  0.00    -0.248 NA
ATOM     52  C   UNL A   1      42.755  28.960  29.064  1.00  0.00     0.031 C 
ATOM     53  C   UNL A   1      47.391  25.841  30.289  1.00  0.00     0.029 A 
ATOM     54  C   UNL A   1      46.392  26.813  30.306  1.00  0.00     0.049 A 
ATOM     55  H   UNL A   1      46.650  28.785  29.633  1.00  0.00     0.167 HD
ATOM     56  C   UNL A   1      44.068  27.668  30.490  1.00  0.00     0.074 A 
ATOM     57  C   UNL A   1      44.008  28.670  29.421  1.00  0.00     0.031 C 
ATOM     58  C   UNL A   1      45.076  26.847  30.897  1.00  0.00     0.037 A 
BRANCH  45  59
ATOM     59  C   UNL A   1      47.855  29.283  27.003  1.00  0.00     0.057 A 
ATOM     60  C   UNL A   1      49.074  29.934  27.265  1.00  0.00     0.134 A 
ATOM     61  C   UNL A   1      46.751  30.138  26.805  1.00  0.00     0.134 A 
ATOM     62  F   UNL A   1      50.198  29.231  27.474  1.00  0.00    -0.206 F 
ATOM     63  C   UNL A   1      49.162  31.318  27.440  1.00  0.00     0.040 A 
ATOM     64  C   UNL A   1      46.839  31.526  26.931  1.00  0.00     0.040 A 
ATOM     65  F   UNL A   1      45.511  29.692  26.583  1.00  0.00    -0.206 F 
ATOM     66  C   UNL A   1      48.039  32.118  27.288  1.00  0.00     0.006 A 
ENDBRANCH  45  59
BRANCH  46  67
ATOM     67  C   UNL A   1      39.655  27.894  28.905  1.00  0.00     0.057 A 
ATOM     68  C   UNL A   1      38.707  28.010  29.942  1.00  0.00     0.134 A 
ATOM     69  C   UNL A   1      39.436  28.725  27.794  1.00  0.00     0.134 A 
ATOM     70  F   UNL A   1      38.836  27.291  31.068  1.00  0.00    -0.206 F 
ATOM     71  C   UNL A   1      37.640  28.924  29.896  1.00  0.00     0.040 A 
ATOM     72  C   UNL A   1      38.377  29.642  27.736  1.00  0.00     0.040 A 
ATOM     73  F   UNL A   1      40.296  28.740  26.767  1.00  0.00    -0.206 F 
ATOM     74  C   UNL A   1      37.485  29.758  28.795  1.00  0.00     0.006 A 
ENDBRANCH  46  67
BRANCH  58  75
ATOM     75  C   UNL A   1      44.779  25.765  31.894  1.00  0.00     0.057 A 
ATOM     76  C   UNL A   1      44.405  24.455  31.557  1.00  0.00     0.134 A 
ATOM     77  C   UNL A   1      45.114  26.008  33.230  1.00  0.00     0.134 A 
ATOM     78  F   UNL A   1      44.137  24.113  30.289  1.00  0.00    -0.206 F 
ATOM     79  C   UNL A   1      44.377  23.434  32.515  1.00  0.00     0.040 A 
ATOM     80  C   UNL A   1      45.121  24.994  34.186  1.00  0.00     0.040 A 
ATOM     81  F   UNL A   1      45.520  27.231  33.609  1.00  0.00    -0.206 F 
ATOM     82  C   UNL A   1      44.753  23.700  33.830  1.00  0.00     0.006 A 
ENDBRANCH  58  75
ENDBRANCH  32  33
ENDBRANCH  25  27
ENDBRANCH  24  25
ENDBRANCH  23  24
ENDBRANCH  22  23
ENDBRANCH  21  22
ENDBRANCH   1  21
TORSDOF 18
ENDMDL
MODEL 3
REMARK VINA RESULT:     -10.4      5.925     11.010
REMARK SMILES Cc1cc(C)c2c(OCCCC(=O)OCCOCCOC(=O)c3ccc(-c4c5nc(c(-c6c(F)cccc6F)c6ccc([nH]6)c(-c6c(F)cccc6F)c6nc(c(-c7c(F)cccc7F)c7ccc4[nH]7)C=C6)C=C5)cc3)nsc2n1
REMARK SMILES IDX 16 1 15 2 14 3 12 4 13 5 11 6 10 7 9 8 8 9 7 10 1 11 2 12
REMARK SMILES IDX 3 13 80 14 4 15 79 16 5 17 6 18 78 19 77 20 17 21 18 22
REMARK SMILES IDX 19 23 20 24 21 25 22 26 23 27 24 28 76 29 25 30 75 31 26 32
REMARK SMILES IDX 27 33 28 34 69 35 29 36 74 37 68 38 70 39 30 40 73 41 67 42
REMARK SMILES IDX 66 43 31 45 57 46 40 47 56 48 41 49 44 50 55 51 71 52 42 53
REMARK SMILES IDX 43 54 54 56 72 57 45 58 32 59 33 60 38 61 34 62 35 63 37 64
REMARK SMILES IDX 39 65 36 66 58 67 59 68 64 69 60 70 61 71 63 72 65 73 62 74
REMARK SMILES IDX 46 75 47 76 52 77 48 78 49 79 51 80 53 81 50 82
REMARK H PARENT 70 44 44 55
REMARK Flexibility Score: inf
ROOT
ATOM      1  C   UNL A   1      40.085  19.846  25.919  1.00  0.00     0.202 C 
ENDROOT
BRANCH   1   2
ATOM      2  C   UNL A   1      39.649  21.212  26.422  1.00  0.00     0.261 C 
BRANCH   2   3
ATOM      3  O   UNL A   1      38.925  21.981  25.400  1.00  0.00    -0.463 OA
BRANCH   3   4
ATOM      4  C   UNL A   1      37.591  22.205  25.501  1.00  0.00     0.305 C 
ATOM      5  O   UNL A   1      36.776  21.296  25.629  1.00  0.00    -0.252 OA
BRANCH   4   6
ATOM      6  C   UNL A   1      37.143  23.675  25.307  1.00  0.00     0.126 C 
BRANCH   6   7
ATOM      7  C   UNL A   1      35.731  24.133  24.888  1.00  0.00     0.053 C 
BRANCH   7   8
ATOM      8  C   UNL A   1      34.887  23.569  23.708  1.00  0.00     0.232 C 
BRANCH   8   9
ATOM      9  O   UNL A   1      33.534  23.158  23.826  1.00  0.00    -0.477 OA
BRANCH   9  10
ATOM     10  C   UNL A   1      33.185  22.050  24.514  1.00  0.00     0.235 A 
ATOM     11  C   UNL A   1      33.689  16.682  23.564  1.00  0.00     0.067 C 
ATOM     12  C   UNL A   1      33.073  18.024  23.869  1.00  0.00     0.039 A 
ATOM     13  C   UNL A   1      32.457  18.742  22.850  1.00  0.00     0.027 A 
ATOM     14  N   UNL A   1      33.296  18.544  25.082  1.00  0.00    -0.240 NA
ATOM     15  C   UNL A   1      32.285  20.142  22.915  1.00  0.00    -0.034 A 
ATOM     16  C   UNL A   1      33.100  19.874  25.143  1.00  0.00     0.147 A 
ATOM     17  C   UNL A   1      31.739  20.922  21.750  1.00  0.00     0.045 C 
ATOM     18  C   UNL A   1      32.770  20.740  24.097  1.00  0.00     0.078 A 
ATOM     19  S   UNL A   1      33.274  20.769  26.576  1.00  0.00    -0.012 S 
ATOM     20  N   UNL A   1      33.298  22.247  25.827  1.00  0.00    -0.153 NA
ENDBRANCH   9  10
ENDBRANCH   8   9
ENDBRANCH   7   8
ENDBRANCH   6   7
ENDBRANCH   4   6
ENDBRANCH   3   4
ENDBRANCH   2   3
ENDBRANCH   1   2
BRANCH   1  21
ATOM     21  O   UNL A   1      41.239  19.321  26.555  1.00  0.00    -0.374 OA
BRANCH  21  22
ATOM     22  C   UNL A   1      42.485  19.756  26.039  1.00  0.00     0.202 C 
BRANCH  22  23
ATOM     23  C   UNL A   1      43.399  18.676  25.472  1.00  0.00     0.261 C 
BRANCH  23  24
ATOM     24  O   UNL A   1      44.784  19.015  25.387  1.00  0.00    -0.460 OA
BRANCH  24  25
ATOM     25  C   UNL A   1      45.104  19.645  24.234  1.00  0.00     0.338 C 
ATOM     26  O   UNL A   1      45.443  19.109  23.175  1.00  0.00    -0.246 OA
BRANCH  25  27
ATOM     27  C   UNL A   1      45.265  21.083  24.460  1.00  0.00     0.060 A 
ATOM     28  C   UNL A   1      45.979  21.438  25.603  1.00  0.00     0.016 A 
ATOM     29  C   UNL A   1      44.439  22.004  23.797  1.00  0.00     0.016 A 
ATOM     30  C   UNL A   1      45.630  22.606  26.242  1.00  0.00     0.010 A 
ATOM     31  C   UNL A   1      44.131  23.199  24.418  1.00  0.00     0.010 A 
ATOM     32  C   UNL A   1      44.632  23.434  25.692  1.00  0.00    -0.014 A 
BRANCH  32  33
ATOM     33  C   UNL A   1      44.304  24.662  26.403  1.00  0.00     0.031 A 
ATOM     34  C   UNL A   1      45.395  25.644  26.217  1.00  0.00     0.074 A 
ATOM     35  C   UNL A   1      43.199  24.898  27.145  1.00  0.00     0.049 A 
ATOM     36  N   UNL A   1      46.329  25.878  27.074  1.00  0.00    -0.248 NA
ATOM     37  C   UNL A   1      45.661  26.185  24.876  1.00  0.00     0.031 C 
ATOM     38  C   UNL A   1      41.988  24.092  27.301  1.00  0.00     0.029 A 
ATOM     39  N   UNL A   1      42.931  25.988  27.935  1.00  0.00    -0.354 N 
ATOM     40  C   UNL A   1      47.170  26.800  26.472  1.00  0.00     0.074 A 
ATOM     41  C   UNL A   1      46.835  26.791  25.073  1.00  0.00     0.031 C 
ATOM     42  C   UNL A   1      41.030  24.821  27.930  1.00  0.00     0.029 A 
ATOM     43  C   UNL A   1      41.599  26.085  28.363  1.00  0.00     0.049 A 
ATOM     44  H   UNL A   1      43.618  26.648  28.181  1.00  0.00     0.167 HD
ATOM     45  C   UNL A   1      47.836  27.688  27.256  1.00  0.00     0.037 A 
ATOM     46  C   UNL A   1      41.036  27.129  29.039  1.00  0.00     0.037 A 
ATOM     47  C   UNL A   1      47.889  27.210  28.621  1.00  0.00     0.049 A 
ATOM     48  C   UNL A   1      42.143  27.840  29.730  1.00  0.00     0.074 A 
ATOM     49  C   UNL A   1      48.409  26.094  29.248  1.00  0.00     0.029 A 
ATOM     50  N   UNL A   1      46.970  27.743  29.492  1.00  0.00    -0.354 N 
ATOM     51  N   UNL A   1      42.811  27.316  30.720  1.00  0.00    -0.248 NA
ATOM     52  C   UNL A   1      42.831  28.872  28.969  1.00  0.00     0.031 C 
ATOM     53  C   UNL A   1      47.453  25.754  30.250  1.00  0.00     0.029 A 
ATOM     54  C   UNL A   1      46.457  26.729  30.252  1.00  0.00     0.049 A 
ATOM     55  H   UNL A   1      46.723  28.693  29.558  1.00  0.00     0.167 HD
ATOM     56  C   UNL A   1      44.134  27.592  30.416  1.00  0.00     0.074 A 
ATOM     57  C   UNL A   1      44.082  28.582  29.336  1.00  0.00     0.031 C 
ATOM     58  C   UNL A   1      45.138  26.773  30.837  1.00  0.00     0.037 A 
BRANCH  45  59
ATOM     59  C   UNL A   1      47.940  29.158  26.928  1.00  0.00     0.057 A 
ATOM     60  C   UNL A   1      49.172  29.800  27.154  1.00  0.00     0.134 A 
ATOM     61  C   UNL A   1      46.840  30.022  26.750  1.00  0.00     0.134 A 
ATOM     62  F   UNL A   1      50.295  29.089  27.340  1.00  0.00    -0.206 F 
ATOM     63  C   UNL A   1      49.277  31.185  27.314  1.00  0.00     0.040 A 
ATOM     64  C   UNL A   1      46.943  31.409  26.861  1.00  0.00     0.040 A 
ATOM     65  F   UNL A   1      45.591  29.585  26.563  1.00  0.00    -0.206 F 
ATOM     66  C   UNL A   1      48.157  31.993  27.182  1.00  0.00     0.006 A 
ENDBRANCH  45  59
BRANCH  46  67
ATOM     67  C   UNL A   1      39.728  27.813  28.809  1.00  0.00     0.057 A 
ATOM     68  C   UNL A   1      38.781  27.951  29.843  1.00  0.00     0.134 A 
ATOM     69  C   UNL A   1      39.514  28.623  27.683  1.00  0.00     0.134 A 
ATOM     70  F   UNL A   1      38.906  27.252  30.982  1.00  0.00    -0.206 F 
ATOM     71  C   UNL A   1      37.718  28.868  29.779  1.00  0.00     0.040 A 
ATOM     72  C   UNL A   1      38.458  29.543  27.607  1.00  0.00     0.040 A 
ATOM     73  F   UNL A   1      40.374  28.617  26.656  1.00  0.00    -0.206 F 
ATOM     74  C   UNL A   1      37.566  29.683  28.663  1.00  0.00     0.006 A 
ENDBRANCH  46  67
BRANCH  58  75
ATOM     75  C   UNL A   1      44.833  25.702  31.844  1.00  0.00     0.057 A 
ATOM     76  C   UNL A   1      44.410  24.404  31.521  1.00  0.00     0.134 A 
ATOM     77  C   UNL A   1      45.211  25.938  33.170  1.00  0.00     0.134 A 
ATOM     78  F   UNL A   1      44.098  24.068  30.261  1.00  0.00    -0.206 F 
ATOM     79  C   UNL A   1      44.376  23.387  32.482  1.00  0.00     0.040 A 
ATOM     80  C   UNL A   1      45.211  24.926  34.129  1.00  0.00     0.040 A 
ATOM     81  F   UNL A   1      45.665  27.148  33.535  1.00  0.00    -0.206 F 
ATOM     82  C   UNL A   1      44.794  23.644  33.786  1.00  0.00     0.006 A 
ENDBRANCH  58  75
ENDBRANCH  32  33
ENDBRANCH  25  27
ENDBRANCH  24  25
ENDBRANCH  23  24
ENDBRANCH  22  23
ENDBRANCH  21  22
ENDBRANCH   1  21
TORSDOF 18
ENDMDL
