MODEL 1
REMARK VINA RESULT:     -11.6      0.000      0.000
REMARK SMILES O=C(Cc1ccccc1)Nc1cccc(C(=O)Nc2ccccc2C(=O)OCCOCCOC(=O)c2ccc(-c3c4nc(c(-c5c(F)cccc5F)c5ccc([nH]5)c(-c5c(F)cccc5F)c5nc(c(-c6c(F)cccc6F)c6ccc3[nH]6)C=C5)C=C4)cc2)c1
REMARK SMILES IDX 28 1 27 2 25 3 26 4 24 5 19 6 20 7 21 8 23 9 22 10 18 11
REMARK SMILES IDX 16 12 17 13 15 15 11 16 12 17 90 18 13 19 14 20 10 21 1 22
REMARK SMILES IDX 2 23 3 25 4 26 5 27 9 28 6 29 8 30 7 31 29 32 30 33 31 34
REMARK SMILES IDX 32 35 33 36 34 37 35 38 36 39 37 40 89 41 38 42 88 43 39 44
REMARK SMILES IDX 40 45 41 46 82 47 42 48 87 49 81 50 83 51 43 52 86 53 80 54
REMARK SMILES IDX 79 55 44 57 70 58 53 59 69 60 54 61 57 62 68 63 84 64 55 65
REMARK SMILES IDX 56 66 67 68 85 69 58 70 45 71 46 72 51 73 47 74 48 75 50 76
REMARK SMILES IDX 52 77 49 78 71 79 72 80 77 81 73 82 74 83 76 84 78 85 75 86
REMARK SMILES IDX 59 87 60 88 65 89 61 90 62 91 64 92 66 93 63 94
REMARK H PARENT 18 14 10 24 83 56 57 67
REMARK Flexibility Score: inf
ROOT
ATOM      1  C   UNL A   1      32.195  28.082  26.744  1.00  0.00     0.261 C 
ENDROOT
BRANCH   1   2
ATOM      2  O   UNL A   1      32.104  27.983  25.313  1.00  0.00    -0.460 OA
BRANCH   2   3
ATOM      3  C   UNL A   1      30.923  27.483  24.872  1.00  0.00     0.340 C 
ATOM      4  O   UNL A   1      30.294  26.573  25.399  1.00  0.00    -0.246 OA
BRANCH   3   5
ATOM      5  C   UNL A   1      30.343  28.277  23.762  1.00  0.00     0.083 A 
ATOM      6  C   UNL A   1      31.030  29.001  22.769  1.00  0.00     0.056 A 
ATOM      7  C   UNL A   1      30.259  29.750  21.855  1.00  0.00     0.027 A 
ATOM      8  C   UNL A   1      28.861  29.712  21.858  1.00  0.00     0.002 A 
ATOM      9  C   UNL A   1      28.928  28.263  23.762  1.00  0.00     0.018 A 
ATOM     10  C   UNL A   1      28.192  28.959  22.810  1.00  0.00     0.001 A 
BRANCH   6  11
ATOM     11  N   UNL A   1      32.421  29.066  22.511  1.00  0.00    -0.321 N 
ATOM     12  C   UNL A   1      33.422  28.130  22.360  1.00  0.00     0.255 C 
ATOM     13  O   UNL A   1      34.591  28.514  22.313  1.00  0.00    -0.269 OA
ATOM     14  H   UNL A   1      32.747  29.990  22.418  1.00  0.00     0.170 HD
BRANCH  12  15
ATOM     15  C   UNL A   1      33.145  26.689  22.176  1.00  0.00     0.042 A 
ATOM     16  C   UNL A   1      33.421  24.425  22.939  1.00  0.00     0.041 A 
ATOM     17  C   UNL A   1      33.121  23.967  21.649  1.00  0.00     0.026 A 
ATOM     18  C   UNL A   1      33.303  25.782  23.224  1.00  0.00     0.040 A 
ATOM     19  C   UNL A   1      32.764  24.866  20.643  1.00  0.00     0.003 A 
ATOM     20  C   UNL A   1      32.802  26.234  20.898  1.00  0.00     0.014 A 
BRANCH  16  21
ATOM     21  N   UNL A   1      34.039  23.523  23.828  1.00  0.00    -0.326 N 
ATOM     22  O   UNL A   1      32.358  21.960  24.229  1.00  0.00    -0.274 OA
ATOM     23  C   UNL A   1      33.440  22.474  24.506  1.00  0.00     0.228 C 
ATOM     24  H   UNL A   1      35.002  23.654  23.984  1.00  0.00     0.169 HD
BRANCH  23  25
ATOM     25  C   UNL A   1      34.204  22.030  25.746  1.00  0.00     0.135 C 
BRANCH  25  26
ATOM     26  C   UNL A   1      35.688  22.311  25.744  1.00  0.00    -0.039 A 
ATOM     27  C   UNL A   1      36.572  21.316  25.306  1.00  0.00     0.004 A 
ATOM     28  C   UNL A   1      36.207  23.556  26.127  1.00  0.00     0.004 A 
ATOM     29  C   UNL A   1      37.949  21.543  25.303  1.00  0.00     0.000 A 
ATOM     30  C   UNL A   1      37.583  23.774  26.144  1.00  0.00     0.000 A 
ATOM     31  C   UNL A   1      38.454  22.767  25.735  1.00  0.00     0.000 A 
ENDBRANCH  25  26
ENDBRANCH  23  25
ENDBRANCH  16  21
ENDBRANCH  12  15
ENDBRANCH   6  11
ENDBRANCH   3   5
ENDBRANCH   2   3
ENDBRANCH   1   2
BRANCH   1  32
ATOM     32  C   UNL A   1      32.111  29.509  27.292  1.00  0.00     0.202 C 
BRANCH  32  33
ATOM     33  O   UNL A   1      32.249  30.600  26.390  1.00  0.00    -0.374 OA
BRANCH  33  34
ATOM     34  C   UNL A   1      31.379  31.718  26.528  1.00  0.00     0.202 C 
BRANCH  34  35
ATOM     35  C   UNL A   1      31.993  33.112  26.711  1.00  0.00     0.261 C 
BRANCH  35  36
ATOM     36  O   UNL A   1      32.181  33.495  28.083  1.00  0.00    -0.460 OA
BRANCH  36  37
ATOM     37  C   UNL A   1      33.286  34.248  28.304  1.00  0.00     0.338 C 
ATOM     38  O   UNL A   1      33.336  35.458  28.480  1.00  0.00    -0.246 OA
BRANCH  37  39
ATOM     39  C   UNL A   1      34.479  33.401  28.456  1.00  0.00     0.060 A 
ATOM     40  C   UNL A   1      34.306  32.130  29.021  1.00  0.00     0.016 A 
ATOM     41  C   UNL A   1      35.758  33.904  28.209  1.00  0.00     0.016 A 
ATOM     42  C   UNL A   1      35.416  31.382  29.402  1.00  0.00     0.010 A 
ATOM     43  C   UNL A   1      36.872  33.156  28.603  1.00  0.00     0.010 A 
ATOM     44  C   UNL A   1      36.702  31.915  29.244  1.00  0.00    -0.014 A 
BRANCH  44  45
ATOM     45  C   UNL A   1      37.843  31.247  29.914  1.00  0.00     0.031 A 
ATOM     46  C   UNL A   1      38.115  31.546  31.363  1.00  0.00     0.074 A 
ATOM     47  C   UNL A   1      38.589  30.343  29.259  1.00  0.00     0.049 A 
ATOM     48  N   UNL A   1      39.032  31.055  32.156  1.00  0.00    -0.248 NA
ATOM     49  C   UNL A   1      37.229  32.532  32.004  1.00  0.00     0.031 C 
ATOM     50  C   UNL A   1      38.399  29.938  27.868  1.00  0.00     0.029 A 
ATOM     51  N   UNL A   1      39.657  29.596  29.688  1.00  0.00    -0.354 N 
ATOM     52  C   UNL A   1      38.839  31.672  33.386  1.00  0.00     0.074 A 
ATOM     53  C   UNL A   1      37.734  32.594  33.228  1.00  0.00     0.031 C 
ATOM     54  C   UNL A   1      39.316  29.007  27.559  1.00  0.00     0.029 A 
ATOM     55  C   UNL A   1      40.171  28.770  28.720  1.00  0.00     0.049 A 
ATOM     56  H   UNL A   1      40.018  29.647  30.603  1.00  0.00     0.167 HD
ATOM     57  C   UNL A   1      39.513  31.482  34.545  1.00  0.00     0.037 A 
ATOM     58  C   UNL A   1      41.219  27.926  28.770  1.00  0.00     0.037 A 
ATOM     59  C   UNL A   1      40.611  30.565  34.703  1.00  0.00     0.049 A 
ATOM     60  C   UNL A   1      41.999  27.787  30.048  1.00  0.00     0.074 A 
ATOM     61  C   UNL A   1      41.342  30.280  35.844  1.00  0.00     0.029 A 
ATOM     62  N   UNL A   1      41.142  29.790  33.684  1.00  0.00    -0.354 N 
ATOM     63  N   UNL A   1      41.790  28.352  31.212  1.00  0.00    -0.248 NA
ATOM     64  C   UNL A   1      43.165  26.891  30.015  1.00  0.00     0.031 C 
ATOM     65  C   UNL A   1      42.345  29.365  35.502  1.00  0.00     0.029 A 
ATOM     66  C   UNL A   1      42.210  29.049  34.160  1.00  0.00     0.049 A 
ATOM     67  H   UNL A   1      40.808  29.770  32.757  1.00  0.00     0.167 HD
ATOM     68  C   UNL A   1      42.779  27.862  32.057  1.00  0.00     0.074 A 
ATOM     69  C   UNL A   1      43.582  26.946  31.273  1.00  0.00     0.031 C 
ATOM     70  C   UNL A   1      43.000  28.142  33.365  1.00  0.00     0.037 A 
BRANCH  57  71
ATOM     71  C   UNL A   1      39.094  32.309  35.724  1.00  0.00     0.057 A 
ATOM     72  C   UNL A   1      39.536  33.627  35.899  1.00  0.00     0.134 A 
ATOM     73  C   UNL A   1      38.235  31.781  36.695  1.00  0.00     0.134 A 
ATOM     74  F   UNL A   1      40.373  34.187  35.011  1.00  0.00    -0.206 F 
ATOM     75  C   UNL A   1      39.161  34.381  37.013  1.00  0.00     0.040 A 
ATOM     76  C   UNL A   1      37.835  32.533  37.802  1.00  0.00     0.040 A 
ATOM     77  F   UNL A   1      37.774  30.526  36.587  1.00  0.00    -0.206 F 
ATOM     78  C   UNL A   1      38.304  33.834  37.966  1.00  0.00     0.006 A 
ENDBRANCH  57  71
BRANCH  58  79
ATOM     79  C   UNL A   1      41.587  27.135  27.571  1.00  0.00     0.057 A 
ATOM     80  C   UNL A   1      41.079  25.846  27.374  1.00  0.00     0.134 A 
ATOM     81  C   UNL A   1      42.459  27.643  26.601  1.00  0.00     0.134 A 
ATOM     82  F   UNL A   1      40.259  25.298  28.282  1.00  0.00    -0.206 F 
ATOM     83  C   UNL A   1      41.430  25.086  26.257  1.00  0.00     0.040 A 
ATOM     84  C   UNL A   1      42.802  26.902  25.469  1.00  0.00     0.040 A 
ATOM     85  F   UNL A   1      42.982  28.870  26.737  1.00  0.00    -0.206 F 
ATOM     86  C   UNL A   1      42.290  25.617  25.298  1.00  0.00     0.006 A 
ENDBRANCH  58  79
BRANCH  70  87
ATOM     87  C   UNL A   1      44.137  27.427  34.033  1.00  0.00     0.057 A 
ATOM     88  C   UNL A   1      43.969  26.173  34.634  1.00  0.00     0.134 A 
ATOM     89  C   UNL A   1      45.420  27.990  34.054  1.00  0.00     0.134 A 
ATOM     90  F   UNL A   1      42.763  25.588  34.660  1.00  0.00    -0.206 F 
ATOM     91  C   UNL A   1      45.033  25.515  35.254  1.00  0.00     0.040 A 
ATOM     92  C   UNL A   1      46.496  27.330  34.650  1.00  0.00     0.040 A 
ATOM     93  F   UNL A   1      45.649  29.184  33.488  1.00  0.00    -0.206 F 
ATOM     94  C   UNL A   1      46.302  26.092  35.258  1.00  0.00     0.006 A 
ENDBRANCH  70  87
ENDBRANCH  44  45
ENDBRANCH  37  39
ENDBRANCH  36  37
ENDBRANCH  35  36
ENDBRANCH  34  35
ENDBRANCH  33  34
ENDBRANCH  32  33
ENDBRANCH   1  32
TORSDOF 19
ENDMDL
MODEL 2
REMARK VINA RESULT:     -11.6      4.605     10.379
REMARK SMILES O=C(Cc1ccccc1)Nc1cccc(C(=O)Nc2ccccc2C(=O)OCCOCCOC(=O)c2ccc(-c3c4nc(c(-c5c(F)cccc5F)c5ccc([nH]5)c(-c5c(F)cccc5F)c5nc(c(-c6c(F)cccc6F)c6ccc3[nH]6)C=C5)C=C4)cc2)c1
REMARK SMILES IDX 28 1 27 2 25 3 26 4 24 5 19 6 20 7 21 8 23 9 22 10 18 11
REMARK SMILES IDX 16 12 17 13 15 15 11 16 12 17 90 18 13 19 14 20 10 21 1 22
REMARK SMILES IDX 2 23 3 25 4 26 5 27 9 28 6 29 8 30 7 31 29 32 30 33 31 34
REMARK SMILES IDX 32 35 33 36 34 37 35 38 36 39 37 40 89 41 38 42 88 43 39 44
REMARK SMILES IDX 40 45 41 46 82 47 42 48 87 49 81 50 83 51 43 52 86 53 80 54
REMARK SMILES IDX 79 55 44 57 70 58 53 59 69 60 54 61 57 62 68 63 84 64 55 65
REMARK SMILES IDX 56 66 67 68 85 69 58 70 45 71 46 72 51 73 47 74 48 75 50 76
REMARK SMILES IDX 52 77 49 78 71 79 72 80 77 81 73 82 74 83 76 84 78 85 75 86
REMARK SMILES IDX 59 87 60 88 65 89 61 90 62 91 64 92 66 93 63 94
REMARK H PARENT 18 14 10 24 83 56 57 67
REMARK Flexibility Score: inf
ROOT
ATOM      1  C   UNL A   1      36.086  21.186  25.277  1.00  0.00     0.261 C 
ENDROOT
BRANCH   1   2
ATOM      2  O   UNL A   1      35.203  22.096  25.955  1.00  0.00    -0.460 OA
BRANCH   2   3
ATOM      3  C   UNL A   1      33.939  21.626  26.102  1.00  0.00     0.340 C 
ATOM      4  O   UNL A   1      33.279  21.668  27.133  1.00  0.00    -0.246 OA
BRANCH   3   5
ATOM      5  C   UNL A   1      33.332  21.203  24.817  1.00  0.00     0.083 A 
ATOM      6  C   UNL A   1      33.249  21.938  23.619  1.00  0.00     0.056 A 
ATOM      7  C   UNL A   1      32.551  21.354  22.541  1.00  0.00     0.027 A 
ATOM      8  C   UNL A   1      32.035  20.056  22.607  1.00  0.00     0.002 A 
ATOM      9  C   UNL A   1      32.789  19.898  24.873  1.00  0.00     0.018 A 
ATOM     10  C   UNL A   1      32.162  19.321  23.774  1.00  0.00     0.001 A 
BRANCH   6  11
ATOM     11  N   UNL A   1      33.811  23.199  23.303  1.00  0.00    -0.321 N 
ATOM     12  C   UNL A   1      33.399  24.507  23.450  1.00  0.00     0.255 C 
ATOM     13  O   UNL A   1      34.051  25.399  22.906  1.00  0.00    -0.269 OA
ATOM     14  H   UNL A   1      34.699  23.125  22.884  1.00  0.00     0.170 HD
BRANCH  12  15
ATOM     15  C   UNL A   1      32.247  24.890  24.294  1.00  0.00     0.042 A 
ATOM     16  C   UNL A   1      30.079  25.915  24.480  1.00  0.00     0.041 A 
ATOM     17  C   UNL A   1      30.295  26.094  25.852  1.00  0.00     0.026 A 
ATOM     18  C   UNL A   1      31.007  25.194  23.734  1.00  0.00     0.040 A 
ATOM     19  C   UNL A   1      31.455  25.608  26.457  1.00  0.00     0.003 A 
ATOM     20  C   UNL A   1      32.449  25.029  25.673  1.00  0.00     0.014 A 
BRANCH  16  21
ATOM     21  N   UNL A   1      29.045  26.657  23.875  1.00  0.00    -0.326 N 
ATOM     22  O   UNL A   1      30.211  28.232  22.613  1.00  0.00    -0.274 OA
ATOM     23  C   UNL A   1      29.174  27.818  23.129  1.00  0.00     0.228 C 
ATOM     24  H   UNL A   1      28.131  26.312  23.996  1.00  0.00     0.169 HD
BRANCH  23  25
ATOM     25  C   UNL A   1      27.900  28.647  23.060  1.00  0.00     0.135 C 
BRANCH  25  26
ATOM     26  C   UNL A   1      28.067  30.080  22.613  1.00  0.00    -0.039 A 
ATOM     27  C   UNL A   1      28.027  30.377  21.243  1.00  0.00     0.004 A 
ATOM     28  C   UNL A   1      28.216  31.130  23.528  1.00  0.00     0.004 A 
ATOM     29  C   UNL A   1      28.189  31.689  20.799  1.00  0.00     0.000 A 
ATOM     30  C   UNL A   1      28.398  32.438  23.082  1.00  0.00     0.000 A 
ATOM     31  C   UNL A   1      28.388  32.716  21.718  1.00  0.00     0.000 A 
ENDBRANCH  25  26
ENDBRANCH  23  25
ENDBRANCH  16  21
ENDBRANCH  12  15
ENDBRANCH   6  11
ENDBRANCH   3   5
ENDBRANCH   2   3
ENDBRANCH   1   2
BRANCH   1  32
ATOM     32  C   UNL A   1      37.392  21.813  24.782  1.00  0.00     0.202 C 
BRANCH  32  33
ATOM     33  O   UNL A   1      38.234  22.474  25.719  1.00  0.00    -0.374 OA
BRANCH  33  34
ATOM     34  C   UNL A   1      39.428  21.826  26.144  1.00  0.00     0.202 C 
BRANCH  34  35
ATOM     35  C   UNL A   1      39.651  20.359  25.751  1.00  0.00     0.261 C 
BRANCH  35  36
ATOM     36  O   UNL A   1      40.542  19.648  26.625  1.00  0.00    -0.460 OA
BRANCH  36  37
ATOM     37  C   UNL A   1      41.798  19.502  26.139  1.00  0.00     0.338 C 
ATOM     38  O   UNL A   1      42.227  18.581  25.456  1.00  0.00    -0.246 OA
BRANCH  37  39
ATOM     39  C   UNL A   1      42.613  20.696  26.414  1.00  0.00     0.060 A 
ATOM     40  C   UNL A   1      42.660  21.160  27.736  1.00  0.00     0.016 A 
ATOM     41  C   UNL A   1      43.177  21.440  25.376  1.00  0.00     0.016 A 
ATOM     42  C   UNL A   1      43.216  22.404  28.016  1.00  0.00     0.010 A 
ATOM     43  C   UNL A   1      43.725  22.695  25.658  1.00  0.00     0.010 A 
ATOM     44  C   UNL A   1      43.702  23.201  26.971  1.00  0.00    -0.014 A 
BRANCH  44  45
ATOM     45  C   UNL A   1      44.016  24.624  27.240  1.00  0.00     0.031 A 
ATOM     46  C   UNL A   1      45.432  25.103  27.069  1.00  0.00     0.074 A 
ATOM     47  C   UNL A   1      43.046  25.489  27.576  1.00  0.00     0.049 A 
ATOM     48  N   UNL A   1      45.926  26.306  27.215  1.00  0.00    -0.248 NA
ATOM     49  C   UNL A   1      46.422  24.088  26.674  1.00  0.00     0.031 C 
ATOM     50  C   UNL A   1      41.632  25.154  27.733  1.00  0.00     0.029 A 
ATOM     51  N   UNL A   1      43.107  26.834  27.837  1.00  0.00    -0.354 N 
ATOM     52  C   UNL A   1      47.282  26.193  26.937  1.00  0.00     0.074 A 
ATOM     53  C   UNL A   1      47.540  24.800  26.639  1.00  0.00     0.031 C 
ATOM     54  C   UNL A   1      40.956  26.269  28.057  1.00  0.00     0.029 A 
ATOM     55  C   UNL A   1      41.892  27.387  28.153  1.00  0.00     0.049 A 
ATOM     56  H   UNL A   1      43.944  27.352  27.801  1.00  0.00     0.167 HD
ATOM     57  C   UNL A   1      48.228  27.163  26.921  1.00  0.00     0.037 A 
ATOM     58  C   UNL A   1      41.577  28.652  28.489  1.00  0.00     0.037 A 
ATOM     59  C   UNL A   1      47.974  28.548  27.216  1.00  0.00     0.049 A 
ATOM     60  C   UNL A   1      42.659  29.697  28.536  1.00  0.00     0.074 A 
ATOM     61  C   UNL A   1      48.859  29.613  27.200  1.00  0.00     0.029 A 
ATOM     62  N   UNL A   1      46.740  29.059  27.590  1.00  0.00    -0.354 N 
ATOM     63  N   UNL A   1      43.931  29.587  28.243  1.00  0.00    -0.248 NA
ATOM     64  C   UNL A   1      42.255  31.045  28.965  1.00  0.00     0.031 C 
ATOM     65  C   UNL A   1      48.169  30.760  27.609  1.00  0.00     0.029 A 
ATOM     66  C   UNL A   1      46.846  30.418  27.838  1.00  0.00     0.049 A 
ATOM     67  H   UNL A   1      45.911  28.533  27.669  1.00  0.00     0.167 HD
ATOM     68  C   UNL A   1      44.476  30.853  28.426  1.00  0.00     0.074 A 
ATOM     69  C   UNL A   1      43.392  31.717  28.846  1.00  0.00     0.031 C 
ATOM     70  C   UNL A   1      45.756  31.264  28.256  1.00  0.00     0.037 A 
BRANCH  57  71
ATOM     71  C   UNL A   1      49.632  26.744  26.600  1.00  0.00     0.057 A 
ATOM     72  C   UNL A   1      50.124  26.744  25.288  1.00  0.00     0.134 A 
ATOM     73  C   UNL A   1      50.504  26.338  27.618  1.00  0.00     0.134 A 
ATOM     74  F   UNL A   1      49.335  27.108  24.266  1.00  0.00    -0.206 F 
ATOM     75  C   UNL A   1      51.425  26.327  24.997  1.00  0.00     0.040 A 
ATOM     76  C   UNL A   1      51.814  25.941  27.342  1.00  0.00     0.040 A 
ATOM     77  F   UNL A   1      50.097  26.317  28.896  1.00  0.00    -0.206 F 
ATOM     78  C   UNL A   1      52.274  25.928  26.027  1.00  0.00     0.006 A 
ENDBRANCH  57  71
BRANCH  58  79
ATOM     79  C   UNL A   1      40.171  29.007  28.797  1.00  0.00     0.057 A 
ATOM     80  C   UNL A   1      39.704  29.020  30.116  1.00  0.00     0.134 A 
ATOM     81  C   UNL A   1      39.261  29.330  27.785  1.00  0.00     0.134 A 
ATOM     82  F   UNL A   1      40.524  28.695  31.126  1.00  0.00    -0.206 F 
ATOM     83  C   UNL A   1      38.379  29.338  30.418  1.00  0.00     0.040 A 
ATOM     84  C   UNL A   1      37.938  29.670  28.073  1.00  0.00     0.040 A 
ATOM     85  F   UNL A   1      39.648  29.328  26.501  1.00  0.00    -0.206 F 
ATOM     86  C   UNL A   1      37.494  29.669  29.394  1.00  0.00     0.006 A 
ENDBRANCH  58  79
BRANCH  70  87
ATOM     87  C   UNL A   1      46.045  32.715  28.499  1.00  0.00     0.057 A 
ATOM     88  C   UNL A   1      45.808  33.689  27.520  1.00  0.00     0.134 A 
ATOM     89  C   UNL A   1      46.543  33.147  29.735  1.00  0.00     0.134 A 
ATOM     90  F   UNL A   1      45.345  33.338  26.311  1.00  0.00    -0.206 F 
ATOM     91  C   UNL A   1      46.079  35.038  27.754  1.00  0.00     0.040 A 
ATOM     92  C   UNL A   1      46.797  34.496  29.989  1.00  0.00     0.040 A 
ATOM     93  F   UNL A   1      46.784  32.266  30.717  1.00  0.00    -0.206 F 
ATOM     94  C   UNL A   1      46.571  35.444  28.994  1.00  0.00     0.006 A 
ENDBRANCH  70  87
ENDBRANCH  44  45
ENDBRANCH  37  39
ENDBRANCH  36  37
ENDBRANCH  35  36
ENDBRANCH  34  35
ENDBRANCH  33  34
ENDBRANCH  32  33
ENDBRANCH   1  32
TORSDOF 19
ENDMDL
MODEL 3
REMARK VINA RESULT:     -11.5      2.655      8.270
REMARK SMILES O=C(Cc1ccccc1)Nc1cccc(C(=O)Nc2ccccc2C(=O)OCCOCCOC(=O)c2ccc(-c3c4nc(c(-c5c(F)cccc5F)c5ccc([nH]5)c(-c5c(F)cccc5F)c5nc(c(-c6c(F)cccc6F)c6ccc3[nH]6)C=C5)C=C4)cc2)c1
REMARK SMILES IDX 28 1 27 2 25 3 26 4 24 5 19 6 20 7 21 8 23 9 22 10 18 11
REMARK SMILES IDX 16 12 17 13 15 15 11 16 12 17 90 18 13 19 14 20 10 21 1 22
REMARK SMILES IDX 2 23 3 25 4 26 5 27 9 28 6 29 8 30 7 31 29 32 30 33 31 34
REMARK SMILES IDX 32 35 33 36 34 37 35 38 36 39 37 40 89 41 38 42 88 43 39 44
REMARK SMILES IDX 40 45 41 46 82 47 42 48 87 49 81 50 83 51 43 52 86 53 80 54
REMARK SMILES IDX 79 55 44 57 70 58 53 59 69 60 54 61 57 62 68 63 84 64 55 65
REMARK SMILES IDX 56 66 67 68 85 69 58 70 45 71 46 72 51 73 47 74 48 75 50 76
REMARK SMILES IDX 52 77 49 78 71 79 72 80 77 81 73 82 74 83 76 84 78 85 75 86
REMARK SMILES IDX 59 87 60 88 65 89 61 90 62 91 64 92 66 93 63 94
REMARK H PARENT 18 14 10 24 83 56 57 67
REMARK Flexibility Score: inf
ROOT
ATOM      1  C   UNL A   1      36.583  22.283  24.698  1.00  0.00     0.261 C 
ENDROOT
BRANCH   1   2
ATOM      2  O   UNL A   1      36.355  20.891  24.980  1.00  0.00    -0.460 OA
BRANCH   2   3
ATOM      3  C   UNL A   1      35.197  20.648  25.642  1.00  0.00     0.340 C 
ATOM      4  O   UNL A   1      34.749  21.319  26.564  1.00  0.00    -0.246 OA
BRANCH   3   5
ATOM      5  C   UNL A   1      34.395  19.569  25.016  1.00  0.00     0.083 A 
ATOM      6  C   UNL A   1      32.994  19.438  24.992  1.00  0.00     0.056 A 
ATOM      7  C   UNL A   1      32.456  18.276  24.399  1.00  0.00     0.027 A 
ATOM      8  C   UNL A   1      33.262  17.323  23.768  1.00  0.00     0.002 A 
ATOM      9  C   UNL A   1      35.198  18.586  24.389  1.00  0.00     0.018 A 
ATOM     10  C   UNL A   1      34.638  17.482  23.756  1.00  0.00     0.001 A 
BRANCH   6  11
ATOM     11  N   UNL A   1      32.004  20.342  25.450  1.00  0.00    -0.321 N 
ATOM     12  C   UNL A   1      31.812  21.703  25.344  1.00  0.00     0.255 C 
ATOM     13  O   UNL A   1      30.924  22.231  26.013  1.00  0.00    -0.269 OA
ATOM     14  H   UNL A   1      31.290  19.896  25.959  1.00  0.00     0.170 HD
BRANCH  12  15
ATOM     15  C   UNL A   1      32.582  22.545  24.402  1.00  0.00     0.042 A 
ATOM     16  C   UNL A   1      33.530  24.687  23.857  1.00  0.00     0.041 A 
ATOM     17  C   UNL A   1      33.551  24.320  22.506  1.00  0.00     0.026 A 
ATOM     18  C   UNL A   1      33.165  23.743  24.813  1.00  0.00     0.040 A 
ATOM     19  C   UNL A   1      33.154  23.041  22.112  1.00  0.00     0.003 A 
ATOM     20  C   UNL A   1      32.641  22.159  23.058  1.00  0.00     0.014 A 
BRANCH  16  21
ATOM     21  N   UNL A   1      33.668  26.054  24.168  1.00  0.00    -0.326 N 
ATOM     22  O   UNL A   1      31.512  26.878  23.841  1.00  0.00    -0.274 OA
ATOM     23  C   UNL A   1      32.719  27.051  24.000  1.00  0.00     0.228 C 
ATOM     24  H   UNL A   1      34.533  26.332  24.546  1.00  0.00     0.169 HD
BRANCH  23  25
ATOM     25  C   UNL A   1      33.308  28.452  23.927  1.00  0.00     0.135 C 
BRANCH  25  26
ATOM     26  C   UNL A   1      33.349  29.221  25.227  1.00  0.00    -0.039 A 
ATOM     27  C   UNL A   1      34.462  29.084  26.068  1.00  0.00     0.004 A 
ATOM     28  C   UNL A   1      32.324  30.103  25.598  1.00  0.00     0.004 A 
ATOM     29  C   UNL A   1      34.522  29.773  27.279  1.00  0.00     0.000 A 
ATOM     30  C   UNL A   1      32.377  30.775  26.818  1.00  0.00     0.000 A 
ATOM     31  C   UNL A   1      33.474  30.607  27.660  1.00  0.00     0.000 A 
ENDBRANCH  25  26
ENDBRANCH  23  25
ENDBRANCH  16  21
ENDBRANCH  12  15
ENDBRANCH   6  11
ENDBRANCH   3   5
ENDBRANCH   2   3
ENDBRANCH   1   2
BRANCH   1  32
ATOM     32  C   UNL A   1      37.748  22.908  25.470  1.00  0.00     0.202 C 
BRANCH  32  33
ATOM     33  O   UNL A   1      38.407  22.133  26.464  1.00  0.00    -0.374 OA
BRANCH  33  34
ATOM     34  C   UNL A   1      39.627  21.482  26.128  1.00  0.00     0.202 C 
BRANCH  34  35
ATOM     35  C   UNL A   1      40.929  22.293  26.160  1.00  0.00     0.261 C 
BRANCH  35  36
ATOM     36  O   UNL A   1      40.924  23.372  27.109  1.00  0.00    -0.460 OA
BRANCH  36  37
ATOM     37  C   UNL A   1      41.432  24.534  26.631  1.00  0.00     0.338 C 
ATOM     38  O   UNL A   1      42.113  24.689  25.626  1.00  0.00    -0.246 OA
BRANCH  37  39
ATOM     39  C   UNL A   1      40.944  25.683  27.410  1.00  0.00     0.060 A 
ATOM     40  C   UNL A   1      41.680  26.874  27.341  1.00  0.00     0.016 A 
ATOM     41  C   UNL A   1      39.891  25.546  28.316  1.00  0.00     0.016 A 
ATOM     42  C   UNL A   1      41.405  27.912  28.226  1.00  0.00     0.010 A 
ATOM     43  C   UNL A   1      39.624  26.586  29.212  1.00  0.00     0.010 A 
ATOM     44  C   UNL A   1      40.412  27.752  29.201  1.00  0.00    -0.014 A 
BRANCH  44  45
ATOM     45  C   UNL A   1      40.331  28.732  30.310  1.00  0.00     0.031 A 
ATOM     46  C   UNL A   1      39.291  29.817  30.248  1.00  0.00     0.074 A 
ATOM     47  C   UNL A   1      41.131  28.622  31.382  1.00  0.00     0.049 A 
ATOM     48  N   UNL A   1      39.017  30.757  31.117  1.00  0.00    -0.248 NA
ATOM     49  C   UNL A   1      38.443  29.843  29.046  1.00  0.00     0.031 C 
ATOM     50  C   UNL A   1      42.148  27.591  31.576  1.00  0.00     0.029 A 
ATOM     51  N   UNL A   1      41.204  29.389  32.517  1.00  0.00    -0.354 N 
ATOM     52  C   UNL A   1      37.972  31.487  30.567  1.00  0.00     0.074 A 
ATOM     53  C   UNL A   1      37.678  30.900  29.276  1.00  0.00     0.031 C 
ATOM     54  C   UNL A   1      42.740  27.785  32.767  1.00  0.00     0.029 A 
ATOM     55  C   UNL A   1      42.161  28.966  33.405  1.00  0.00     0.049 A 
ATOM     56  H   UNL A   1      40.624  30.169  32.679  1.00  0.00     0.167 HD
ATOM     57  C   UNL A   1      37.310  32.546  31.090  1.00  0.00     0.037 A 
ATOM     58  C   UNL A   1      42.529  29.481  34.592  1.00  0.00     0.037 A 
ATOM     59  C   UNL A   1      37.600  33.131  32.372  1.00  0.00     0.049 A 
ATOM     60  C   UNL A   1      41.828  30.703  35.120  1.00  0.00     0.074 A 
ATOM     61  C   UNL A   1      36.969  34.189  33.004  1.00  0.00     0.029 A 
ATOM     62  N   UNL A   1      38.618  32.711  33.216  1.00  0.00    -0.354 N 
ATOM     63  N   UNL A   1      40.822  31.368  34.606  1.00  0.00    -0.248 NA
ATOM     64  C   UNL A   1      42.319  31.246  36.395  1.00  0.00     0.031 C 
ATOM     65  C   UNL A   1      37.634  34.437  34.211  1.00  0.00     0.029 A 
ATOM     66  C   UNL A   1      38.652  33.506  34.349  1.00  0.00     0.049 A 
ATOM     67  H   UNL A   1      39.227  31.958  33.035  1.00  0.00     0.167 HD
ATOM     68  C   UNL A   1      40.542  32.390  35.505  1.00  0.00     0.074 A 
ATOM     69  C   UNL A   1      41.479  32.251  36.601  1.00  0.00     0.031 C 
ATOM     70  C   UNL A   1      39.592  33.355  35.432  1.00  0.00     0.037 A 
BRANCH  57  71
ATOM     71  C   UNL A   1      36.223  33.155  30.255  1.00  0.00     0.057 A 
ATOM     72  C   UNL A   1      36.506  33.964  29.146  1.00  0.00     0.134 A 
ATOM     73  C   UNL A   1      34.876  32.928  30.562  1.00  0.00     0.134 A 
ATOM     74  F   UNL A   1      37.776  34.233  28.808  1.00  0.00    -0.206 F 
ATOM     75  C   UNL A   1      35.488  34.548  28.390  1.00  0.00     0.040 A 
ATOM     76  C   UNL A   1      33.849  33.487  29.799  1.00  0.00     0.040 A 
ATOM     77  F   UNL A   1      34.536  32.162  31.609  1.00  0.00    -0.206 F 
ATOM     78  C   UNL A   1      34.154  34.306  28.714  1.00  0.00     0.006 A 
ENDBRANCH  57  71
BRANCH  58  79
ATOM     79  C   UNL A   1      43.612  28.836  35.373  1.00  0.00     0.057 A 
ATOM     80  C   UNL A   1      43.337  27.786  36.256  1.00  0.00     0.134 A 
ATOM     81  C   UNL A   1      44.942  29.257  35.262  1.00  0.00     0.134 A 
ATOM     82  F   UNL A   1      42.077  27.356  36.422  1.00  0.00    -0.206 F 
ATOM     83  C   UNL A   1      44.345  27.181  37.007  1.00  0.00     0.040 A 
ATOM     84  C   UNL A   1      45.964  28.648  35.992  1.00  0.00     0.040 A 
ATOM     85  F   UNL A   1      45.267  30.263  34.437  1.00  0.00    -0.206 F 
ATOM     86  C   UNL A   1      45.664  27.609  36.872  1.00  0.00     0.006 A 
ENDBRANCH  58  79
BRANCH  70  87
ATOM     87  C   UNL A   1      39.503  34.314  36.581  1.00  0.00     0.057 A 
ATOM     88  C   UNL A   1      38.814  33.993  37.758  1.00  0.00     0.134 A 
ATOM     89  C   UNL A   1      40.134  35.562  36.519  1.00  0.00     0.134 A 
ATOM     90  F   UNL A   1      38.177  32.819  37.874  1.00  0.00    -0.206 F 
ATOM     91  C   UNL A   1      38.736  34.891  38.824  1.00  0.00     0.040 A 
ATOM     92  C   UNL A   1      40.083  36.460  37.587  1.00  0.00     0.040 A 
ATOM     93  F   UNL A   1      40.817  35.926  35.424  1.00  0.00    -0.206 F 
ATOM     94  C   UNL A   1      39.377  36.127  38.741  1.00  0.00     0.006 A 
ENDBRANCH  70  87
ENDBRANCH  44  45
ENDBRANCH  37  39
ENDBRANCH  36  37
ENDBRANCH  35  36
ENDBRANCH  34  35
ENDBRANCH  33  34
ENDBRANCH  32  33
ENDBRANCH   1  32
TORSDOF 19
ENDMDL
