MODEL 1
REMARK VINA RESULT:     -10.8      0.000      0.000
REMARK SMILES Cc1cscc1C(=O)N[C@H](C(=O)OCCOCCOC(=O)c1ccc(-c2c3nc(c(-c4c(F)cccc4F)c4ccc([nH]4)c(-c4c(F)cccc4F)c4nc(c(-c5c(F)cccc5F)c5ccc2[nH]5)C=C4)C=C3)cc1)c1ccccc1
REMARK SMILES IDX 16 1 15 2 14 3 13 4 11 5 12 6 10 7 9 8 7 9 8 10 6 12 1 13
REMARK SMILES IDX 2 14 3 15 4 16 5 17 76 18 77 19 81 20 78 21 80 22 79 23
REMARK SMILES IDX 17 24 18 25 19 26 20 27 21 28 22 29 23 30 75 31 24 32 74 33
REMARK SMILES IDX 25 34 26 35 27 36 68 37 28 38 73 39 67 40 69 41 29 42 72 43
REMARK SMILES IDX 66 44 65 45 30 47 56 48 39 49 55 50 40 51 43 52 54 53 70 54
REMARK SMILES IDX 41 55 42 56 53 58 71 59 44 60 31 61 32 62 37 63 33 64 34 65
REMARK SMILES IDX 36 66 38 67 35 68 57 69 58 70 63 71 59 72 60 73 62 74 64 75
REMARK SMILES IDX 61 76 45 77 46 78 51 79 47 80 48 81 50 82 52 83 49 84
REMARK H PARENT 9 11 69 46 43 57
REMARK Flexibility Score: inf
ROOT
ATOM      1  O   UNL A   1      31.314  28.033  24.818  1.00  0.00    -0.374 OA
ENDROOT
BRANCH   1   2
ATOM      2  C   UNL A   1      30.601  27.981  23.588  1.00  0.00     0.202 C 
BRANCH   2   3
ATOM      3  C   UNL A   1      31.216  27.245  22.395  1.00  0.00     0.261 C 
BRANCH   3   4
ATOM      4  O   UNL A   1      31.612  25.882  22.658  1.00  0.00    -0.461 OA
BRANCH   4   5
ATOM      5  C   UNL A   1      32.963  25.747  22.676  1.00  0.00     0.333 C 
ATOM      6  O   UNL A   1      33.653  25.891  21.665  1.00  0.00    -0.249 OA
BRANCH   5   7
ATOM      7  C   UNL A   1      33.597  25.389  24.026  1.00  0.00     0.223 C 
BRANCH   7   8
ATOM      8  N   UNL A   1      32.547  25.093  25.004  1.00  0.00    -0.335 N 
ATOM      9  C   UNL A   1      32.143  24.002  25.720  1.00  0.00     0.253 C 
ATOM     10  O   UNL A   1      31.237  24.240  26.525  1.00  0.00    -0.269 OA
ATOM     11  H   UNL A   1      31.991  25.883  25.194  1.00  0.00     0.165 HD
BRANCH   9  12
ATOM     12  C   UNL A   1      32.594  22.609  25.527  1.00  0.00     0.053 A 
ATOM     13  C   UNL A   1      34.028  21.826  27.627  1.00  0.00     0.046 C 
ATOM     14  C   UNL A   1      33.383  21.658  26.302  1.00  0.00    -0.028 A 
ATOM     15  C   UNL A   1      33.437  20.414  25.690  1.00  0.00     0.069 A 
ATOM     16  S   UNL A   1      32.529  20.322  24.263  1.00  0.00    -0.151 S 
ATOM     17  C   UNL A   1      32.059  21.946  24.424  1.00  0.00     0.079 A 
ENDBRANCH   9  12
ENDBRANCH   7   8
BRANCH   7  18
ATOM     18  C   UNL A   1      34.819  24.486  24.218  1.00  0.00    -0.014 A 
ATOM     19  C   UNL A   1      35.587  24.535  25.393  1.00  0.00     0.006 A 
ATOM     20  C   UNL A   1      35.125  23.451  23.310  1.00  0.00     0.006 A 
ATOM     21  C   UNL A   1      36.631  23.621  25.616  1.00  0.00     0.000 A 
ATOM     22  C   UNL A   1      36.202  22.583  23.497  1.00  0.00     0.000 A 
ATOM     23  C   UNL A   1      36.955  22.664  24.657  1.00  0.00     0.000 A 
ENDBRANCH   7  18
ENDBRANCH   5   7
ENDBRANCH   4   5
ENDBRANCH   3   4
ENDBRANCH   2   3
ENDBRANCH   1   2
BRANCH   1  24
ATOM     24  C   UNL A   1      32.253  29.081  25.002  1.00  0.00     0.202 C 
BRANCH  24  25
ATOM     25  C   UNL A   1      31.869  30.306  25.845  1.00  0.00     0.261 C 
BRANCH  25  26
ATOM     26  O   UNL A   1      32.488  30.362  27.135  1.00  0.00    -0.460 OA
BRANCH  26  27
ATOM     27  C   UNL A   1      33.223  31.484  27.344  1.00  0.00     0.338 C 
ATOM     28  O   UNL A   1      32.833  32.636  27.365  1.00  0.00    -0.246 OA
BRANCH  27  29
ATOM     29  C   UNL A   1      34.592  31.105  27.734  1.00  0.00     0.060 A 
ATOM     30  C   UNL A   1      34.857  29.740  27.908  1.00  0.00     0.016 A 
ATOM     31  C   UNL A   1      35.572  32.065  27.990  1.00  0.00     0.016 A 
ATOM     32  C   UNL A   1      36.100  29.327  28.369  1.00  0.00     0.010 A 
ATOM     33  C   UNL A   1      36.812  31.651  28.481  1.00  0.00     0.010 A 
ATOM     34  C   UNL A   1      37.064  30.285  28.705  1.00  0.00    -0.014 A 
BRANCH  34  35
ATOM     35  C   UNL A   1      38.244  29.853  29.483  1.00  0.00     0.031 A 
ATOM     36  C   UNL A   1      38.412  30.391  30.875  1.00  0.00     0.074 A 
ATOM     37  C   UNL A   1      39.106  28.952  28.982  1.00  0.00     0.049 A 
ATOM     38  N   UNL A   1      39.365  30.170  31.742  1.00  0.00    -0.248 NA
ATOM     39  C   UNL A   1      37.358  31.300  31.356  1.00  0.00     0.031 C 
ATOM     40  C   UNL A   1      38.998  28.322  27.667  1.00  0.00     0.029 A 
ATOM     41  N   UNL A   1      40.243  28.414  29.525  1.00  0.00    -0.354 N 
ATOM     42  C   UNL A   1      39.029  30.915  32.865  1.00  0.00     0.074 A 
ATOM     43  C   UNL A   1      37.802  31.616  32.562  1.00  0.00     0.031 C 
ATOM     44  C   UNL A   1      40.038  27.487  27.500  1.00  0.00     0.029 A 
ATOM     45  C   UNL A   1      40.898  27.554  28.679  1.00  0.00     0.049 A 
ATOM     46  H   UNL A   1      40.558  28.623  30.433  1.00  0.00     0.167 HD
ATOM     47  C   UNL A   1      39.686  31.001  34.046  1.00  0.00     0.037 A 
ATOM     48  C   UNL A   1      42.073  26.915  28.838  1.00  0.00     0.037 A 
ATOM     49  C   UNL A   1      40.908  30.298  34.331  1.00  0.00     0.049 A 
ATOM     50  C   UNL A   1      42.828  27.091  30.130  1.00  0.00     0.074 A 
ATOM     51  C   UNL A   1      41.656  30.305  35.495  1.00  0.00     0.029 A 
ATOM     52  N   UNL A   1      41.569  29.470  33.434  1.00  0.00    -0.354 N 
ATOM     53  N   UNL A   1      42.500  27.787  31.193  1.00  0.00    -0.248 NA
ATOM     54  C   UNL A   1      44.116  26.394  30.245  1.00  0.00     0.031 C 
ATOM     55  C   UNL A   1      42.799  29.528  35.282  1.00  0.00     0.029 A 
ATOM     56  C   UNL A   1      42.731  28.985  34.008  1.00  0.00     0.049 A 
ATOM     57  H   UNL A   1      41.256  29.258  32.525  1.00  0.00     0.167 HD
ATOM     58  C   UNL A   1      43.522  27.586  32.113  1.00  0.00     0.074 A 
ATOM     59  C   UNL A   1      44.475  26.693  31.485  1.00  0.00     0.031 C 
ATOM     60  C   UNL A   1      43.661  28.091  33.365  1.00  0.00     0.037 A 
BRANCH  47  61
ATOM     61  C   UNL A   1      39.118  31.913  35.092  1.00  0.00     0.057 A 
ATOM     62  C   UNL A   1      39.318  33.300  35.063  1.00  0.00     0.134 A 
ATOM     63  C   UNL A   1      38.340  31.396  36.137  1.00  0.00     0.134 A 
ATOM     64  F   UNL A   1      40.068  33.859  34.102  1.00  0.00    -0.206 F 
ATOM     65  C   UNL A   1      38.785  34.135  36.047  1.00  0.00     0.040 A 
ATOM     66  C   UNL A   1      37.778  32.225  37.109  1.00  0.00     0.040 A 
ATOM     67  F   UNL A   1      38.109  30.078  36.226  1.00  0.00    -0.206 F 
ATOM     68  C   UNL A   1      38.005  33.598  37.070  1.00  0.00     0.006 A 
ENDBRANCH  47  61
BRANCH  48  69
ATOM     69  C   UNL A   1      42.619  26.074  27.743  1.00  0.00     0.057 A 
ATOM     70  C   UNL A   1      43.409  26.620  26.725  1.00  0.00     0.134 A 
ATOM     71  C   UNL A   1      42.344  24.701  27.677  1.00  0.00     0.134 A 
ATOM     72  F   UNL A   1      43.689  27.931  26.718  1.00  0.00    -0.206 F 
ATOM     73  C   UNL A   1      43.890  25.838  25.672  1.00  0.00     0.040 A 
ATOM     74  C   UNL A   1      42.842  23.903  26.646  1.00  0.00     0.040 A 
ATOM     75  F   UNL A   1      41.594  24.114  28.621  1.00  0.00    -0.206 F 
ATOM     76  C   UNL A   1      43.612  24.473  25.635  1.00  0.00     0.006 A 
ENDBRANCH  48  69
BRANCH  60  77
ATOM     77  C   UNL A   1      44.866  27.659  34.150  1.00  0.00     0.057 A 
ATOM     78  C   UNL A   1      46.058  28.393  34.147  1.00  0.00     0.134 A 
ATOM     79  C   UNL A   1      44.813  26.515  34.957  1.00  0.00     0.134 A 
ATOM     80  F   UNL A   1      46.178  29.493  33.388  1.00  0.00    -0.206 F 
ATOM     81  C   UNL A   1      47.163  27.991  34.898  1.00  0.00     0.040 A 
ATOM     82  C   UNL A   1      45.901  26.120  35.736  1.00  0.00     0.040 A 
ATOM     83  F   UNL A   1      43.697  25.773  35.016  1.00  0.00    -0.206 F 
ATOM     84  C   UNL A   1      47.084  26.855  35.702  1.00  0.00     0.006 A 
ENDBRANCH  60  77
ENDBRANCH  34  35
ENDBRANCH  27  29
ENDBRANCH  26  27
ENDBRANCH  25  26
ENDBRANCH  24  25
ENDBRANCH   1  24
TORSDOF 17
ENDMDL
MODEL 2
REMARK VINA RESULT:     -10.7      3.816      8.677
REMARK SMILES Cc1cscc1C(=O)N[C@H](C(=O)OCCOCCOC(=O)c1ccc(-c2c3nc(c(-c4c(F)cccc4F)c4ccc([nH]4)c(-c4c(F)cccc4F)c4nc(c(-c5c(F)cccc5F)c5ccc2[nH]5)C=C4)C=C3)cc1)c1ccccc1
REMARK SMILES IDX 16 1 15 2 14 3 13 4 11 5 12 6 10 7 9 8 7 9 8 10 6 12 1 13
REMARK SMILES IDX 2 14 3 15 4 16 5 17 76 18 77 19 81 20 78 21 80 22 79 23
REMARK SMILES IDX 17 24 18 25 19 26 20 27 21 28 22 29 23 30 75 31 24 32 74 33
REMARK SMILES IDX 25 34 26 35 27 36 68 37 28 38 73 39 67 40 69 41 29 42 72 43
REMARK SMILES IDX 66 44 65 45 30 47 56 48 39 49 55 50 40 51 43 52 54 53 70 54
REMARK SMILES IDX 41 55 42 56 53 58 71 59 44 60 31 61 32 62 37 63 33 64 34 65
REMARK SMILES IDX 36 66 38 67 35 68 57 69 58 70 63 71 59 72 60 73 62 74 64 75
REMARK SMILES IDX 61 76 45 77 46 78 51 79 47 80 48 81 50 82 52 83 49 84
REMARK H PARENT 9 11 69 46 43 57
REMARK Flexibility Score: inf
ROOT
ATOM      1  O   UNL A   1      34.411  20.266  24.655  1.00  0.00    -0.374 OA
ENDROOT
BRANCH   1   2
ATOM      2  C   UNL A   1      33.118  20.629  25.121  1.00  0.00     0.202 C 
BRANCH   2   3
ATOM      3  C   UNL A   1      32.964  21.846  26.037  1.00  0.00     0.261 C 
BRANCH   3   4
ATOM      4  O   UNL A   1      32.429  23.025  25.398  1.00  0.00    -0.461 OA
BRANCH   4   5
ATOM      5  C   UNL A   1      32.383  24.081  26.251  1.00  0.00     0.333 C 
ATOM      6  O   UNL A   1      31.657  24.092  27.248  1.00  0.00    -0.249 OA
BRANCH   5   7
ATOM      7  C   UNL A   1      33.277  25.279  25.907  1.00  0.00     0.223 C 
BRANCH   7   8
ATOM      8  N   UNL A   1      33.658  25.222  24.493  1.00  0.00    -0.335 N 
ATOM      9  C   UNL A   1      33.262  25.833  23.337  1.00  0.00     0.253 C 
ATOM     10  O   UNL A   1      33.950  25.538  22.354  1.00  0.00    -0.269 OA
ATOM     11  H   UNL A   1      34.388  24.579  24.337  1.00  0.00     0.165 HD
BRANCH   9  12
ATOM     12  C   UNL A   1      32.062  26.675  23.156  1.00  0.00     0.053 A 
ATOM     13  C   UNL A   1      29.891  25.319  23.883  1.00  0.00     0.046 C 
ATOM     14  C   UNL A   1      30.630  26.501  23.376  1.00  0.00    -0.028 A 
ATOM     15  C   UNL A   1      29.925  27.668  23.125  1.00  0.00     0.069 A 
ATOM     16  S   UNL A   1      30.912  28.978  22.703  1.00  0.00    -0.151 S 
ATOM     17  C   UNL A   1      32.301  28.009  22.829  1.00  0.00     0.079 A 
ENDBRANCH   9  12
ENDBRANCH   7   8
BRANCH   7  18
ATOM     18  C   UNL A   1      33.043  26.720  26.372  1.00  0.00    -0.014 A 
ATOM     19  C   UNL A   1      34.030  27.707  26.215  1.00  0.00     0.006 A 
ATOM     20  C   UNL A   1      31.778  27.159  26.813  1.00  0.00     0.006 A 
ATOM     21  C   UNL A   1      33.767  29.051  26.530  1.00  0.00     0.000 A 
ATOM     22  C   UNL A   1      31.532  28.481  27.189  1.00  0.00     0.000 A 
ATOM     23  C   UNL A   1      32.528  29.432  27.042  1.00  0.00     0.000 A 
ENDBRANCH   7  18
ENDBRANCH   5   7
ENDBRANCH   4   5
ENDBRANCH   3   4
ENDBRANCH   2   3
ENDBRANCH   1   2
BRANCH   1  24
ATOM     24  C   UNL A   1      35.514  21.068  25.050  1.00  0.00     0.202 C 
BRANCH  24  25
ATOM     25  C   UNL A   1      36.933  20.484  25.009  1.00  0.00     0.261 C 
BRANCH  25  26
ATOM     26  O   UNL A   1      37.982  21.460  25.014  1.00  0.00    -0.460 OA
BRANCH  26  27
ATOM     27  C   UNL A   1      39.011  21.154  25.845  1.00  0.00     0.338 C 
ATOM     28  O   UNL A   1      39.604  20.097  25.938  1.00  0.00    -0.246 OA
BRANCH  27  29
ATOM     29  C   UNL A   1      39.461  22.377  26.534  1.00  0.00     0.060 A 
ATOM     30  C   UNL A   1      38.850  23.584  26.169  1.00  0.00     0.016 A 
ATOM     31  C   UNL A   1      40.501  22.351  27.464  1.00  0.00     0.016 A 
ATOM     32  C   UNL A   1      39.298  24.781  26.711  1.00  0.00     0.010 A 
ATOM     33  C   UNL A   1      40.970  23.559  27.988  1.00  0.00     0.010 A 
ATOM     34  C   UNL A   1      40.393  24.776  27.583  1.00  0.00    -0.014 A 
BRANCH  34  35
ATOM     35  C   UNL A   1      41.050  26.063  27.896  1.00  0.00     0.031 A 
ATOM     36  C   UNL A   1      42.454  26.279  27.410  1.00  0.00     0.074 A 
ATOM     37  C   UNL A   1      40.383  27.036  28.539  1.00  0.00     0.049 A 
ATOM     38  N   UNL A   1      43.238  27.313  27.568  1.00  0.00    -0.248 NA
ATOM     39  C   UNL A   1      43.054  25.179  26.636  1.00  0.00     0.031 C 
ATOM     40  C   UNL A   1      38.997  26.951  28.996  1.00  0.00     0.029 A 
ATOM     41  N   UNL A   1      40.789  28.289  28.917  1.00  0.00    -0.354 N 
ATOM     42  C   UNL A   1      44.423  26.986  26.921  1.00  0.00     0.074 A 
ATOM     43  C   UNL A   1      44.267  25.650  26.391  1.00  0.00     0.031 C 
ATOM     44  C   UNL A   1      38.670  28.103  29.606  1.00  0.00     0.029 A 
ATOM     45  C   UNL A   1      39.833  28.987  29.611  1.00  0.00     0.049 A 
ATOM     46  H   UNL A   1      41.679  28.653  28.709  1.00  0.00     0.167 HD
ATOM     47  C   UNL A   1      45.539  27.739  26.778  1.00  0.00     0.037 A 
ATOM     48  C   UNL A   1      39.905  30.195  30.203  1.00  0.00     0.037 A 
ATOM     49  C   UNL A   1      45.680  29.066  27.313  1.00  0.00     0.049 A 
ATOM     50  C   UNL A   1      41.187  30.981  30.100  1.00  0.00     0.074 A 
ATOM     51  C   UNL A   1      46.762  29.923  27.221  1.00  0.00     0.029 A 
ATOM     52  N   UNL A   1      44.706  29.725  28.051  1.00  0.00    -0.354 N 
ATOM     53  N   UNL A   1      42.300  30.672  29.476  1.00  0.00    -0.248 NA
ATOM     54  C   UNL A   1      41.224  32.280  30.783  1.00  0.00     0.031 C 
ATOM     55  C   UNL A   1      46.466  31.076  27.955  1.00  0.00     0.029 A 
ATOM     56  C   UNL A   1      45.175  30.966  28.448  1.00  0.00     0.049 A 
ATOM     57  H   UNL A   1      43.815  29.364  28.260  1.00  0.00     0.167 HD
ATOM     58  C   UNL A   1      43.155  31.751  29.664  1.00  0.00     0.074 A 
ATOM     59  C   UNL A   1      42.427  32.726  30.450  1.00  0.00     0.031 C 
ATOM     60  C   UNL A   1      44.428  31.922  29.225  1.00  0.00     0.037 A 
BRANCH  47  61
ATOM     61  C   UNL A   1      46.701  27.126  26.052  1.00  0.00     0.057 A 
ATOM     62  C   UNL A   1      46.933  27.351  24.688  1.00  0.00     0.134 A 
ATOM     63  C   UNL A   1      47.614  26.312  26.736  1.00  0.00     0.134 A 
ATOM     64  F   UNL A   1      46.088  28.105  23.969  1.00  0.00    -0.206 F 
ATOM     65  C   UNL A   1      48.017  26.770  24.027  1.00  0.00     0.040 A 
ATOM     66  C   UNL A   1      48.717  25.749  26.092  1.00  0.00     0.040 A 
ATOM     67  F   UNL A   1      47.452  26.054  28.042  1.00  0.00    -0.206 F 
ATOM     68  C   UNL A   1      48.917  25.972  24.732  1.00  0.00     0.006 A 
ENDBRANCH  47  61
BRANCH  48  69
ATOM     69  C   UNL A   1      38.744  30.725  30.962  1.00  0.00     0.057 A 
ATOM     70  C   UNL A   1      38.546  30.407  32.311  1.00  0.00     0.134 A 
ATOM     71  C   UNL A   1      37.789  31.547  30.348  1.00  0.00     0.134 A 
ATOM     72  F   UNL A   1      39.410  29.607  32.951  1.00  0.00    -0.206 F 
ATOM     73  C   UNL A   1      37.433  30.871  33.016  1.00  0.00     0.040 A 
ATOM     74  C   UNL A   1      36.688  32.041  31.049  1.00  0.00     0.040 A 
ATOM     75  F   UNL A   1      37.920  31.890  29.058  1.00  0.00    -0.206 F 
ATOM     76  C   UNL A   1      36.503  31.696  32.386  1.00  0.00     0.006 A 
ENDBRANCH  48  69
BRANCH  60  77
ATOM     77  C   UNL A   1      45.097  33.227  29.552  1.00  0.00     0.057 A 
ATOM     78  C   UNL A   1      45.889  33.390  30.695  1.00  0.00     0.134 A 
ATOM     79  C   UNL A   1      44.982  34.320  28.683  1.00  0.00     0.134 A 
ATOM     80  F   UNL A   1      46.032  32.385  31.573  1.00  0.00    -0.206 F 
ATOM     81  C   UNL A   1      46.522  34.601  30.976  1.00  0.00     0.040 A 
ATOM     82  C   UNL A   1      45.635  35.526  28.937  1.00  0.00     0.040 A 
ATOM     83  F   UNL A   1      44.248  34.226  27.563  1.00  0.00    -0.206 F 
ATOM     84  C   UNL A   1      46.402  35.672  30.090  1.00  0.00     0.006 A 
ENDBRANCH  60  77
ENDBRANCH  34  35
ENDBRANCH  27  29
ENDBRANCH  26  27
ENDBRANCH  25  26
ENDBRANCH  24  25
ENDBRANCH   1  24
TORSDOF 17
ENDMDL
MODEL 3
REMARK VINA RESULT:     -10.6      0.579      6.215
REMARK SMILES Cc1cscc1C(=O)N[C@H](C(=O)OCCOCCOC(=O)c1ccc(-c2c3nc(c(-c4c(F)cccc4F)c4ccc([nH]4)c(-c4c(F)cccc4F)c4nc(c(-c5c(F)cccc5F)c5ccc2[nH]5)C=C4)C=C3)cc1)c1ccccc1
REMARK SMILES IDX 16 1 15 2 14 3 13 4 11 5 12 6 10 7 9 8 7 9 8 10 6 12 1 13
REMARK SMILES IDX 2 14 3 15 4 16 5 17 76 18 77 19 81 20 78 21 80 22 79 23
REMARK SMILES IDX 17 24 18 25 19 26 20 27 21 28 22 29 23 30 75 31 24 32 74 33
REMARK SMILES IDX 25 34 26 35 27 36 68 37 28 38 73 39 67 40 69 41 29 42 72 43
REMARK SMILES IDX 66 44 65 45 30 47 56 48 39 49 55 50 40 51 43 52 54 53 70 54
REMARK SMILES IDX 41 55 42 56 53 58 71 59 44 60 31 61 32 62 37 63 33 64 34 65
REMARK SMILES IDX 36 66 38 67 35 68 57 69 58 70 63 71 59 72 60 73 62 74 64 75
REMARK SMILES IDX 61 76 45 77 46 78 51 79 47 80 48 81 50 82 52 83 49 84
REMARK H PARENT 9 11 69 46 43 57
REMARK Flexibility Score: inf
ROOT
ATOM      1  O   UNL A   1      31.436  29.220  23.483  1.00  0.00    -0.374 OA
ENDROOT
BRANCH   1   2
ATOM      2  C   UNL A   1      32.503  28.870  22.611  1.00  0.00     0.202 C 
BRANCH   2   3
ATOM      3  C   UNL A   1      33.486  27.773  23.031  1.00  0.00     0.261 C 
BRANCH   3   4
ATOM      4  O   UNL A   1      33.641  26.699  22.078  1.00  0.00    -0.461 OA
BRANCH   4   5
ATOM      5  C   UNL A   1      33.274  25.502  22.607  1.00  0.00     0.333 C 
ATOM      6  O   UNL A   1      32.562  24.703  21.996  1.00  0.00    -0.249 OA
BRANCH   5   7
ATOM      7  C   UNL A   1      33.782  25.195  24.022  1.00  0.00     0.223 C 
BRANCH   7   8
ATOM      8  N   UNL A   1      32.651  24.858  24.891  1.00  0.00    -0.335 N 
ATOM      9  C   UNL A   1      32.171  23.730  25.495  1.00  0.00     0.253 C 
ATOM     10  O   UNL A   1      31.208  23.935  26.242  1.00  0.00    -0.269 OA
ATOM     11  H   UNL A   1      32.096  25.646  25.092  1.00  0.00     0.165 HD
BRANCH   9  12
ATOM     12  C   UNL A   1      32.610  22.344  25.240  1.00  0.00     0.053 A 
ATOM     13  C   UNL A   1      34.028  21.453  27.308  1.00  0.00     0.046 C 
ATOM     14  C   UNL A   1      33.387  21.351  25.975  1.00  0.00    -0.028 A 
ATOM     15  C   UNL A   1      33.432  20.136  25.307  1.00  0.00     0.069 A 
ATOM     16  S   UNL A   1      32.530  20.117  23.874  1.00  0.00    -0.151 S 
ATOM     17  C   UNL A   1      32.074  21.736  24.106  1.00  0.00     0.079 A 
ENDBRANCH   9  12
ENDBRANCH   7   8
BRANCH   7  18
ATOM     18  C   UNL A   1      35.020  24.357  24.354  1.00  0.00    -0.014 A 
ATOM     19  C   UNL A   1      35.651  24.452  25.607  1.00  0.00     0.006 A 
ATOM     20  C   UNL A   1      35.477  23.337  23.495  1.00  0.00     0.006 A 
ATOM     21  C   UNL A   1      36.710  23.594  25.951  1.00  0.00     0.000 A 
ATOM     22  C   UNL A   1      36.571  22.527  23.807  1.00  0.00     0.000 A 
ATOM     23  C   UNL A   1      37.186  22.653  25.042  1.00  0.00     0.000 A 
ENDBRANCH   7  18
ENDBRANCH   5   7
ENDBRANCH   4   5
ENDBRANCH   3   4
ENDBRANCH   2   3
ENDBRANCH   1   2
BRANCH   1  24
ATOM     24  C   UNL A   1      31.645  29.093  24.882  1.00  0.00     0.202 C 
BRANCH  24  25
ATOM     25  C   UNL A   1      31.760  30.353  25.751  1.00  0.00     0.261 C 
BRANCH  25  26
ATOM     26  O   UNL A   1      32.629  30.223  26.882  1.00  0.00    -0.460 OA
BRANCH  26  27
ATOM     27  C   UNL A   1      33.267  31.373  27.219  1.00  0.00     0.338 C 
ATOM     28  O   UNL A   1      32.805  32.497  27.255  1.00  0.00    -0.246 OA
BRANCH  27  29
ATOM     29  C   UNL A   1      34.611  31.053  27.731  1.00  0.00     0.060 A 
ATOM     30  C   UNL A   1      34.893  29.708  28.005  1.00  0.00     0.016 A 
ATOM     31  C   UNL A   1      35.548  32.052  27.999  1.00  0.00     0.016 A 
ATOM     32  C   UNL A   1      36.107  29.356  28.581  1.00  0.00     0.010 A 
ATOM     33  C   UNL A   1      36.757  31.700  28.603  1.00  0.00     0.010 A 
ATOM     34  C   UNL A   1      37.021  30.357  28.928  1.00  0.00    -0.014 A 
BRANCH  34  35
ATOM     35  C   UNL A   1      38.150  30.003  29.814  1.00  0.00     0.031 A 
ATOM     36  C   UNL A   1      39.199  29.066  29.289  1.00  0.00     0.074 A 
ATOM     37  C   UNL A   1      38.267  30.559  31.032  1.00  0.00     0.049 A 
ATOM     38  N   UNL A   1      40.269  28.603  29.877  1.00  0.00    -0.248 NA
ATOM     39  C   UNL A   1      39.016  28.591  27.906  1.00  0.00     0.031 C 
ATOM     40  C   UNL A   1      37.338  31.528  31.611  1.00  0.00     0.029 A 
ATOM     41  N   UNL A   1      39.222  30.384  31.999  1.00  0.00    -0.354 N 
ATOM     42  C   UNL A   1      40.882  27.778  28.943  1.00  0.00     0.074 A 
ATOM     43  C   UNL A   1      40.054  27.781  27.759  1.00  0.00     0.031 C 
ATOM     44  C   UNL A   1      37.765  31.855  32.843  1.00  0.00     0.029 A 
ATOM     45  C   UNL A   1      38.973  31.092  33.148  1.00  0.00     0.049 A 
ATOM     46  H   UNL A   1      40.010  29.808  31.880  1.00  0.00     0.167 HD
ATOM     47  C   UNL A   1      42.039  27.084  29.064  1.00  0.00     0.037 A 
ATOM     48  C   UNL A   1      39.638  31.098  34.319  1.00  0.00     0.037 A 
ATOM     49  C   UNL A   1      42.852  27.089  30.250  1.00  0.00     0.049 A 
ATOM     50  C   UNL A   1      40.877  30.254  34.458  1.00  0.00     0.074 A 
ATOM     51  C   UNL A   1      44.047  26.429  30.480  1.00  0.00     0.029 A 
ATOM     52  N   UNL A   1      42.545  27.782  31.413  1.00  0.00    -0.354 N 
ATOM     53  N   UNL A   1      41.460  29.486  33.567  1.00  0.00    -0.248 NA
ATOM     54  C   UNL A   1      41.552  30.275  35.762  1.00  0.00     0.031 C 
ATOM     55  C   UNL A   1      44.431  26.676  31.802  1.00  0.00     0.029 A 
ATOM     56  C   UNL A   1      43.511  27.541  32.374  1.00  0.00     0.049 A 
ATOM     57  H   UNL A   1      41.757  28.360  31.535  1.00  0.00     0.167 HD
ATOM     58  C   UNL A   1      42.584  28.960  34.191  1.00  0.00     0.074 A 
ATOM     59  C   UNL A   1      42.607  29.507  35.533  1.00  0.00     0.031 C 
ATOM     60  C   UNL A   1      43.516  28.103  33.702  1.00  0.00     0.037 A 
BRANCH  47  61
ATOM     61  C   UNL A   1      42.464  26.236  27.901  1.00  0.00     0.057 A 
ATOM     62  C   UNL A   1      43.304  26.721  26.889  1.00  0.00     0.134 A 
ATOM     63  C   UNL A   1      42.039  24.904  27.803  1.00  0.00     0.134 A 
ATOM     64  F   UNL A   1      43.732  27.992  26.912  1.00  0.00    -0.206 F 
ATOM     65  C   UNL A   1      43.687  25.920  25.812  1.00  0.00     0.040 A 
ATOM     66  C   UNL A   1      42.438  24.086  26.745  1.00  0.00     0.040 A 
ATOM     67  F   UNL A   1      41.233  24.376  28.735  1.00  0.00    -0.206 F 
ATOM     68  C   UNL A   1      43.259  24.595  25.743  1.00  0.00     0.006 A 
ENDBRANCH  47  61
BRANCH  48  69
ATOM     69  C   UNL A   1      39.135  31.909  35.458  1.00  0.00     0.057 A 
ATOM     70  C   UNL A   1      38.284  31.363  36.426  1.00  0.00     0.134 A 
ATOM     71  C   UNL A   1      39.479  33.261  35.594  1.00  0.00     0.134 A 
ATOM     72  F   UNL A   1      37.899  30.081  36.340  1.00  0.00    -0.206 F 
ATOM     73  C   UNL A   1      37.778  32.133  37.474  1.00  0.00     0.040 A 
ATOM     74  C   UNL A   1      39.003  34.035  36.653  1.00  0.00     0.040 A 
ATOM     75  F   UNL A   1      40.291  33.846  34.702  1.00  0.00    -0.206 F 
ATOM     76  C   UNL A   1      38.143  33.473  37.594  1.00  0.00     0.006 A 
ENDBRANCH  48  69
BRANCH  60  77
ATOM     77  C   UNL A   1      44.657  27.738  34.607  1.00  0.00     0.057 A 
ATOM     78  C   UNL A   1      45.838  28.489  34.654  1.00  0.00     0.134 A 
ATOM     79  C   UNL A   1      44.550  26.646  35.478  1.00  0.00     0.134 A 
ATOM     80  F   UNL A   1      46.008  29.541  33.839  1.00  0.00    -0.206 F 
ATOM     81  C   UNL A   1      46.882  28.151  35.516  1.00  0.00     0.040 A 
ATOM     82  C   UNL A   1      45.574  26.316  36.366  1.00  0.00     0.040 A 
ATOM     83  F   UNL A   1      43.439  25.892  35.493  1.00  0.00    -0.206 F 
ATOM     84  C   UNL A   1      46.748  27.066  36.381  1.00  0.00     0.006 A 
ENDBRANCH  60  77
ENDBRANCH  34  35
ENDBRANCH  27  29
ENDBRANCH  26  27
ENDBRANCH  25  26
ENDBRANCH  24  25
ENDBRANCH   1  24
TORSDOF 17
ENDMDL
