MODEL 1
REMARK VINA RESULT:      -9.6      0.000      0.000
REMARK SMILES C#CCN(CC(=O)OCCOCCOC(=O)c1ccc(-c2c3nc(c(-c4c(F)cccc4F)c4ccc([nH]4)c(-c4c(F)cccc4F)c4nc(c(-c5c(F)cccc5F)c5ccc2[nH]5)C=C4)C=C3)cc1)C(=O)NCC[C@@H]1CCCO1
REMARK SMILES IDX 9 1 8 2 6 3 7 4 5 5 4 6 3 7 2 8 1 9 71 10 72 11 73 12 74 14
REMARK SMILES IDX 75 15 76 16 77 17 80 18 78 19 79 20 10 21 11 22 12 23 13 24
REMARK SMILES IDX 14 25 15 26 16 27 17 28 18 29 70 30 19 31 69 32 20 33 21 34
REMARK SMILES IDX 22 35 63 36 23 37 68 38 62 39 64 40 24 41 67 42 61 43 60 44
REMARK SMILES IDX 25 46 51 47 34 48 50 49 35 50 38 51 49 52 65 53 36 54 37 55
REMARK SMILES IDX 48 57 66 58 39 59 26 60 27 61 32 62 28 63 29 64 31 65 33 66
REMARK SMILES IDX 30 67 52 68 53 69 58 70 54 71 55 72 57 73 59 74 56 75 40 76
REMARK SMILES IDX 41 77 46 78 42 79 43 80 45 81 47 82 44 83
REMARK H PARENT 73 13 64 45 38 56
REMARK Flexibility Score: inf
ROOT
ATOM      1  C   UNL A   1      39.595  22.140  26.578  1.00  0.00     0.261 C 
ENDROOT
BRANCH   1   2
ATOM      2  O   UNL A   1      38.531  22.321  25.618  1.00  0.00    -0.462 OA
BRANCH   2   3
ATOM      3  C   UNL A   1      37.807  21.204  25.313  1.00  0.00     0.325 C 
ATOM      4  O   UNL A   1      38.274  20.071  25.279  1.00  0.00    -0.250 OA
BRANCH   3   5
ATOM      5  C   UNL A   1      36.369  21.503  24.864  1.00  0.00     0.245 C 
BRANCH   5   6
ATOM      6  N   UNL A   1      35.471  22.221  25.773  1.00  0.00    -0.303 N 
BRANCH   6   7
ATOM      7  C   UNL A   1      35.645  23.708  25.847  1.00  0.00     0.211 C 
BRANCH   7   8
ATOM      8  C   UNL A   1      34.809  24.299  24.724  1.00  0.00    -0.085 C 
ATOM      9  C   UNL A   1      34.092  24.805  23.759  1.00  0.00     0.006 C 
ENDBRANCH   7   8
ENDBRANCH   6   7
BRANCH   6  10
ATOM     10  C   UNL A   1      34.401  21.693  26.456  1.00  0.00     0.318 C 
ATOM     11  O   UNL A   1      34.475  21.464  27.671  1.00  0.00    -0.249 OA
ATOM     12  N   UNL A   1      33.226  21.314  25.911  1.00  0.00    -0.338 N 
ATOM     13  H   UNL A   1      32.657  20.918  26.609  1.00  0.00     0.165 HD
BRANCH  12  14
ATOM     14  C   UNL A   1      32.509  21.291  24.638  1.00  0.00     0.120 C 
BRANCH  14  15
ATOM     15  C   UNL A   1      32.708  20.036  23.766  1.00  0.00     0.053 C 
BRANCH  15  16
ATOM     16  C   UNL A   1      33.311  18.779  24.417  1.00  0.00     0.120 C 
ATOM     17  C   UNL A   1      33.476  17.616  23.440  1.00  0.00     0.034 C 
ATOM     18  O   UNL A   1      32.511  18.297  25.502  1.00  0.00    -0.378 OA
ATOM     19  C   UNL A   1      33.389  16.409  24.342  1.00  0.00     0.031 C 
ATOM     20  C   UNL A   1      32.425  16.868  25.413  1.00  0.00     0.160 C 
ENDBRANCH  15  16
ENDBRANCH  14  15
ENDBRANCH  12  14
ENDBRANCH   6  10
ENDBRANCH   5   6
ENDBRANCH   3   5
ENDBRANCH   2   3
ENDBRANCH   1   2
BRANCH   1  21
ATOM     21  C   UNL A   1      40.693  21.178  26.083  1.00  0.00     0.202 C 
BRANCH  21  22
ATOM     22  O   UNL A   1      41.968  21.271  26.719  1.00  0.00    -0.374 OA
BRANCH  22  23
ATOM     23  C   UNL A   1      43.048  20.848  25.883  1.00  0.00     0.202 C 
BRANCH  23  24
ATOM     24  C   UNL A   1      43.788  22.012  25.223  1.00  0.00     0.261 C 
BRANCH  24  25
ATOM     25  O   UNL A   1      44.127  22.970  26.218  1.00  0.00    -0.460 OA
BRANCH  25  26
ATOM     26  C   UNL A   1      44.261  24.204  25.692  1.00  0.00     0.338 C 
ATOM     27  O   UNL A   1      44.762  24.497  24.623  1.00  0.00    -0.246 OA
BRANCH  26  28
ATOM     28  C   UNL A   1      43.476  25.117  26.542  1.00  0.00     0.060 A 
ATOM     29  C   UNL A   1      43.906  26.443  26.616  1.00  0.00     0.016 A 
ATOM     30  C   UNL A   1      42.312  24.695  27.204  1.00  0.00     0.016 A 
ATOM     31  C   UNL A   1      43.235  27.329  27.443  1.00  0.00     0.010 A 
ATOM     32  C   UNL A   1      41.623  25.588  28.010  1.00  0.00     0.010 A 
ATOM     33  C   UNL A   1      42.129  26.882  28.178  1.00  0.00    -0.014 A 
BRANCH  33  34
ATOM     34  C   UNL A   1      41.638  27.702  29.294  1.00  0.00     0.031 A 
ATOM     35  C   UNL A   1      42.372  27.614  30.600  1.00  0.00     0.074 A 
ATOM     36  C   UNL A   1      40.589  28.516  29.114  1.00  0.00     0.049 A 
ATOM     37  N   UNL A   1      42.139  28.238  31.723  1.00  0.00    -0.248 NA
ATOM     38  C   UNL A   1      43.519  26.689  30.651  1.00  0.00     0.031 C 
ATOM     39  C   UNL A   1      39.837  28.659  27.867  1.00  0.00     0.029 A 
ATOM     40  N   UNL A   1      39.976  29.373  29.983  1.00  0.00    -0.354 N 
ATOM     41  C   UNL A   1      43.106  27.780  32.609  1.00  0.00     0.074 A 
ATOM     42  C   UNL A   1      43.896  26.791  31.915  1.00  0.00     0.031 C 
ATOM     43  C   UNL A   1      38.859  29.562  28.053  1.00  0.00     0.029 A 
ATOM     44  C   UNL A   1      38.906  30.031  29.435  1.00  0.00     0.049 A 
ATOM     45  H   UNL A   1      40.275  29.506  30.911  1.00  0.00     0.167 HD
ATOM     46  C   UNL A   1      43.320  28.170  33.885  1.00  0.00     0.037 A 
ATOM     47  C   UNL A   1      38.058  30.906  30.005  1.00  0.00     0.037 A 
ATOM     48  C   UNL A   1      42.513  29.157  34.550  1.00  0.00     0.049 A 
ATOM     49  C   UNL A   1      38.288  31.287  31.442  1.00  0.00     0.074 A 
ATOM     50  C   UNL A   1      42.637  29.653  35.833  1.00  0.00     0.029 A 
ATOM     51  N   UNL A   1      41.421  29.792  33.973  1.00  0.00    -0.354 N 
ATOM     52  N   UNL A   1      39.229  30.884  32.265  1.00  0.00    -0.248 NA
ATOM     53  C   UNL A   1      37.349  32.250  32.027  1.00  0.00     0.031 C 
ATOM     54  C   UNL A   1      41.586  30.549  36.051  1.00  0.00     0.029 A 
ATOM     55  C   UNL A   1      40.845  30.658  34.883  1.00  0.00     0.049 A 
ATOM     56  H   UNL A   1      41.106  29.648  33.051  1.00  0.00     0.167 HD
ATOM     57  C   UNL A   1      39.011  31.561  33.457  1.00  0.00     0.074 A 
ATOM     58  C   UNL A   1      37.858  32.414  33.240  1.00  0.00     0.031 C 
ATOM     59  C   UNL A   1      39.697  31.492  34.626  1.00  0.00     0.037 A 
BRANCH  46  60
ATOM     60  C   UNL A   1      44.442  27.511  34.632  1.00  0.00     0.057 A 
ATOM     61  C   UNL A   1      45.740  28.041  34.646  1.00  0.00     0.134 A 
ATOM     62  C   UNL A   1      44.222  26.328  35.350  1.00  0.00     0.134 A 
ATOM     63  F   UNL A   1      46.025  29.160  33.961  1.00  0.00    -0.206 F 
ATOM     64  C   UNL A   1      46.782  27.406  35.325  1.00  0.00     0.040 A 
ATOM     65  C   UNL A   1      45.250  25.700  36.055  1.00  0.00     0.040 A 
ATOM     66  F   UNL A   1      43.007  25.763  35.376  1.00  0.00    -0.206 F 
ATOM     67  C   UNL A   1      46.536  26.236  36.039  1.00  0.00     0.006 A 
ENDBRANCH  46  60
BRANCH  47  68
ATOM     68  C   UNL A   1      36.938  31.474  29.218  1.00  0.00     0.057 A 
ATOM     69  C   UNL A   1      35.781  30.731  28.958  1.00  0.00     0.134 A 
ATOM     70  C   UNL A   1      36.993  32.779  28.711  1.00  0.00     0.134 A 
ATOM     71  F   UNL A   1      35.673  29.472  29.407  1.00  0.00    -0.206 F 
ATOM     72  C   UNL A   1      34.728  31.256  28.208  1.00  0.00     0.040 A 
ATOM     73  C   UNL A   1      35.936  33.326  27.981  1.00  0.00     0.040 A 
ATOM     74  F   UNL A   1      38.068  33.548  28.935  1.00  0.00    -0.206 F 
ATOM     75  C   UNL A   1      34.802  32.559  27.721  1.00  0.00     0.006 A 
ENDBRANCH  47  68
BRANCH  59  76
ATOM     76  C   UNL A   1      39.234  32.384  35.738  1.00  0.00     0.057 A 
ATOM     77  C   UNL A   1      38.357  31.932  36.732  1.00  0.00     0.134 A 
ATOM     78  C   UNL A   1      39.709  33.698  35.839  1.00  0.00     0.134 A 
ATOM     79  F   UNL A   1      37.858  30.687  36.685  1.00  0.00    -0.206 F 
ATOM     80  C   UNL A   1      37.948  32.766  37.774  1.00  0.00     0.040 A 
ATOM     81  C   UNL A   1      39.332  34.529  36.893  1.00  0.00     0.040 A 
ATOM     82  F   UNL A   1      40.562  34.187  34.925  1.00  0.00    -0.206 F 
ATOM     83  C   UNL A   1      38.442  34.066  37.859  1.00  0.00     0.006 A 
ENDBRANCH  59  76
ENDBRANCH  33  34
ENDBRANCH  26  28
ENDBRANCH  25  26
ENDBRANCH  24  25
ENDBRANCH  23  24
ENDBRANCH  22  23
ENDBRANCH  21  22
ENDBRANCH   1  21
TORSDOF 21
ENDMDL
MODEL 2
REMARK VINA RESULT:      -9.5      3.180      8.036
REMARK SMILES C#CCN(CC(=O)OCCOCCOC(=O)c1ccc(-c2c3nc(c(-c4c(F)cccc4F)c4ccc([nH]4)c(-c4c(F)cccc4F)c4nc(c(-c5c(F)cccc5F)c5ccc2[nH]5)C=C4)C=C3)cc1)C(=O)NCC[C@@H]1CCCO1
REMARK SMILES IDX 9 1 8 2 6 3 7 4 5 5 4 6 3 7 2 8 1 9 71 10 72 11 73 12 74 14
REMARK SMILES IDX 75 15 76 16 77 17 80 18 78 19 79 20 10 21 11 22 12 23 13 24
REMARK SMILES IDX 14 25 15 26 16 27 17 28 18 29 70 30 19 31 69 32 20 33 21 34
REMARK SMILES IDX 22 35 63 36 23 37 68 38 62 39 64 40 24 41 67 42 61 43 60 44
REMARK SMILES IDX 25 46 51 47 34 48 50 49 35 50 38 51 49 52 65 53 36 54 37 55
REMARK SMILES IDX 48 57 66 58 39 59 26 60 27 61 32 62 28 63 29 64 31 65 33 66
REMARK SMILES IDX 30 67 52 68 53 69 58 70 54 71 55 72 57 73 59 74 56 75 40 76
REMARK SMILES IDX 41 77 46 78 42 79 43 80 45 81 47 82 44 83
REMARK H PARENT 73 13 64 45 38 56
REMARK Flexibility Score: inf
ROOT
ATOM      1  C   UNL A   1      33.895  28.669  26.659  1.00  0.00     0.261 C 
ENDROOT
BRANCH   1   2
ATOM      2  O   UNL A   1      33.286  27.408  26.306  1.00  0.00    -0.462 OA
BRANCH   2   3
ATOM      3  C   UNL A   1      33.759  26.815  25.170  1.00  0.00     0.325 C 
ATOM      4  O   UNL A   1      33.978  27.415  24.122  1.00  0.00    -0.250 OA
BRANCH   3   5
ATOM      5  C   UNL A   1      33.856  25.285  25.265  1.00  0.00     0.245 C 
BRANCH   5   6
ATOM      6  N   UNL A   1      33.042  24.461  24.367  1.00  0.00    -0.303 N 
BRANCH   6   7
ATOM      7  C   UNL A   1      31.559  24.662  24.436  1.00  0.00     0.211 C 
BRANCH   7   8
ATOM      8  C   UNL A   1      31.056  23.792  25.577  1.00  0.00    -0.085 C 
ATOM      9  C   UNL A   1      30.625  23.046  26.556  1.00  0.00     0.006 C 
ENDBRANCH   7   8
ENDBRANCH   6   7
BRANCH   6  10
ATOM     10  C   UNL A   1      33.504  23.627  23.376  1.00  0.00     0.318 C 
ATOM     11  O   UNL A   1      33.864  24.081  22.282  1.00  0.00    -0.249 OA
ATOM     12  N   UNL A   1      33.556  22.280  23.440  1.00  0.00    -0.338 N 
ATOM     13  H   UNL A   1      33.872  21.927  22.577  1.00  0.00     0.165 HD
BRANCH  12  14
ATOM     14  C   UNL A   1      33.303  21.166  24.351  1.00  0.00     0.120 C 
BRANCH  14  15
ATOM     15  C   UNL A   1      34.528  20.325  24.755  1.00  0.00     0.053 C 
BRANCH  15  16
ATOM     16  C   UNL A   1      35.804  21.057  25.206  1.00  0.00     0.120 C 
ATOM     17  C   UNL A   1      35.534  22.172  26.216  1.00  0.00     0.034 C 
ATOM     18  O   UNL A   1      36.499  21.656  24.107  1.00  0.00    -0.378 OA
ATOM     19  C   UNL A   1      36.680  23.123  25.976  1.00  0.00     0.031 C 
ATOM     20  C   UNL A   1      36.932  22.968  24.492  1.00  0.00     0.160 C 
ENDBRANCH  15  16
ENDBRANCH  14  15
ENDBRANCH  12  14
ENDBRANCH   6  10
ENDBRANCH   5   6
ENDBRANCH   3   5
ENDBRANCH   2   3
ENDBRANCH   1   2
BRANCH   1  21
ATOM     21  C   UNL A   1      33.057  29.885  26.216  1.00  0.00     0.202 C 
BRANCH  21  22
ATOM     22  O   UNL A   1      32.732  30.846  27.222  1.00  0.00    -0.374 OA
BRANCH  22  23
ATOM     23  C   UNL A   1      31.580  31.631  26.901  1.00  0.00     0.202 C 
BRANCH  23  24
ATOM     24  C   UNL A   1      31.857  33.135  26.915  1.00  0.00     0.261 C 
BRANCH  24  25
ATOM     25  O   UNL A   1      33.218  33.352  27.265  1.00  0.00    -0.460 OA
BRANCH  25  26
ATOM     26  C   UNL A   1      33.331  34.184  28.320  1.00  0.00     0.338 C 
ATOM     27  O   UNL A   1      32.555  35.060  28.651  1.00  0.00    -0.246 OA
BRANCH  26  28
ATOM     28  C   UNL A   1      34.449  33.683  29.139  1.00  0.00     0.060 A 
ATOM     29  C   UNL A   1      35.717  34.203  28.870  1.00  0.00     0.016 A 
ATOM     30  C   UNL A   1      34.249  32.770  30.187  1.00  0.00     0.016 A 
ATOM     31  C   UNL A   1      36.810  33.728  29.575  1.00  0.00     0.010 A 
ATOM     32  C   UNL A   1      35.338  32.314  30.912  1.00  0.00     0.010 A 
ATOM     33  C   UNL A   1      36.622  32.745  30.555  1.00  0.00    -0.014 A 
BRANCH  33  34
ATOM     34  C   UNL A   1      37.788  32.002  31.051  1.00  0.00     0.031 A 
ATOM     35  C   UNL A   1      38.276  32.313  32.436  1.00  0.00     0.074 A 
ATOM     36  C   UNL A   1      38.357  31.061  30.285  1.00  0.00     0.049 A 
ATOM     37  N   UNL A   1      39.274  31.794  33.097  1.00  0.00    -0.248 NA
ATOM     38  C   UNL A   1      37.545  33.361  33.173  1.00  0.00     0.031 C 
ATOM     39  C   UNL A   1      37.925  30.699  28.935  1.00  0.00     0.029 A 
ATOM     40  N   UNL A   1      39.420  30.241  30.536  1.00  0.00    -0.354 N 
ATOM     41  C   UNL A   1      39.291  32.451  34.321  1.00  0.00     0.074 A 
ATOM     42  C   UNL A   1      38.240  33.441  34.296  1.00  0.00     0.031 C 
ATOM     43  C   UNL A   1      38.721  29.718  28.475  1.00  0.00     0.029 A 
ATOM     44  C   UNL A   1      39.726  29.412  29.489  1.00  0.00     0.049 A 
ATOM     45  H   UNL A   1      39.916  30.245  31.386  1.00  0.00     0.167 HD
ATOM     46  C   UNL A   1      40.105  32.230  35.376  1.00  0.00     0.037 A 
ATOM     47  C   UNL A   1      40.722  28.515  29.373  1.00  0.00     0.037 A 
ATOM     48  C   UNL A   1      41.146  31.237  35.370  1.00  0.00     0.049 A 
ATOM     49  C   UNL A   1      41.646  28.322  30.544  1.00  0.00     0.074 A 
ATOM     50  C   UNL A   1      42.026  30.902  36.380  1.00  0.00     0.029 A 
ATOM     51  N   UNL A   1      41.445  30.425  34.284  1.00  0.00    -0.354 N 
ATOM     52  N   UNL A   1      41.633  28.915  31.716  1.00  0.00    -0.248 NA
ATOM     53  C   UNL A   1      42.715  27.329  30.384  1.00  0.00     0.031 C 
ATOM     54  C   UNL A   1      42.894  29.922  35.886  1.00  0.00     0.029 A 
ATOM     55  C   UNL A   1      42.514  29.604  34.590  1.00  0.00     0.049 A 
ATOM     56  H   UNL A   1      40.964  30.431  33.425  1.00  0.00     0.167 HD
ATOM     57  C   UNL A   1      42.674  28.352  32.442  1.00  0.00     0.074 A 
ATOM     58  C   UNL A   1      43.284  27.356  31.581  1.00  0.00     0.031 C 
ATOM     59  C   UNL A   1      43.091  28.624  33.703  1.00  0.00     0.037 A 
BRANCH  46  60
ATOM     60  C   UNL A   1      39.913  33.088  36.592  1.00  0.00     0.057 A 
ATOM     61  C   UNL A   1      40.675  34.244  36.814  1.00  0.00     0.134 A 
ATOM     62  C   UNL A   1      38.951  32.757  37.554  1.00  0.00     0.134 A 
ATOM     63  F   UNL A   1      41.630  34.608  35.944  1.00  0.00    -0.206 F 
ATOM     64  C   UNL A   1      40.505  35.023  37.961  1.00  0.00     0.040 A 
ATOM     65  C   UNL A   1      38.753  33.543  38.690  1.00  0.00     0.040 A 
ATOM     66  F   UNL A   1      38.190  31.663  37.407  1.00  0.00    -0.206 F 
ATOM     67  C   UNL A   1      39.535  34.677  38.899  1.00  0.00     0.006 A 
ENDBRANCH  46  60
BRANCH  47  68
ATOM     68  C   UNL A   1      40.882  27.742  28.118  1.00  0.00     0.057 A 
ATOM     69  C   UNL A   1      40.345  26.457  27.982  1.00  0.00     0.134 A 
ATOM     70  C   UNL A   1      41.570  28.272  27.018  1.00  0.00     0.134 A 
ATOM     71  F   UNL A   1      39.685  25.890  29.002  1.00  0.00    -0.206 F 
ATOM     72  C   UNL A   1      40.503  25.720  26.807  1.00  0.00     0.040 A 
ATOM     73  C   UNL A   1      41.712  27.557  25.828  1.00  0.00     0.040 A 
ATOM     74  F   UNL A   1      42.097  29.504  27.079  1.00  0.00    -0.206 F 
ATOM     75  C   UNL A   1      41.183  26.272  25.724  1.00  0.00     0.006 A 
ENDBRANCH  47  68
BRANCH  59  76
ATOM     76  C   UNL A   1      44.237  27.813  34.229  1.00  0.00     0.057 A 
ATOM     77  C   UNL A   1      45.560  28.264  34.150  1.00  0.00     0.134 A 
ATOM     78  C   UNL A   1      44.005  26.586  34.865  1.00  0.00     0.134 A 
ATOM     79  F   UNL A   1      45.848  29.426  33.543  1.00  0.00    -0.206 F 
ATOM     80  C   UNL A   1      46.617  27.509  34.660  1.00  0.00     0.040 A 
ATOM     81  C   UNL A   1      45.050  25.839  35.407  1.00  0.00     0.040 A 
ATOM     82  F   UNL A   1      42.758  26.105  34.984  1.00  0.00    -0.206 F 
ATOM     83  C   UNL A   1      46.360  26.296  35.297  1.00  0.00     0.006 A 
ENDBRANCH  59  76
ENDBRANCH  33  34
ENDBRANCH  26  28
ENDBRANCH  25  26
ENDBRANCH  24  25
ENDBRANCH  23  24
ENDBRANCH  22  23
ENDBRANCH  21  22
ENDBRANCH   1  21
TORSDOF 21
ENDMDL
MODEL 3
REMARK VINA RESULT:      -9.4      3.928      8.736
REMARK SMILES C#CCN(CC(=O)OCCOCCOC(=O)c1ccc(-c2c3nc(c(-c4c(F)cccc4F)c4ccc([nH]4)c(-c4c(F)cccc4F)c4nc(c(-c5c(F)cccc5F)c5ccc2[nH]5)C=C4)C=C3)cc1)C(=O)NCC[C@@H]1CCCO1
REMARK SMILES IDX 9 1 8 2 6 3 7 4 5 5 4 6 3 7 2 8 1 9 71 10 72 11 73 12 74 14
REMARK SMILES IDX 75 15 76 16 77 17 80 18 78 19 79 20 10 21 11 22 12 23 13 24
REMARK SMILES IDX 14 25 15 26 16 27 17 28 18 29 70 30 19 31 69 32 20 33 21 34
REMARK SMILES IDX 22 35 63 36 23 37 68 38 62 39 64 40 24 41 67 42 61 43 60 44
REMARK SMILES IDX 25 46 51 47 34 48 50 49 35 50 38 51 49 52 65 53 36 54 37 55
REMARK SMILES IDX 48 57 66 58 39 59 26 60 27 61 32 62 28 63 29 64 31 65 33 66
REMARK SMILES IDX 30 67 52 68 53 69 58 70 54 71 55 72 57 73 59 74 56 75 40 76
REMARK SMILES IDX 41 77 46 78 42 79 43 80 45 81 47 82 44 83
REMARK H PARENT 73 13 64 45 38 56
REMARK Flexibility Score: inf
ROOT
ATOM      1  C   UNL A   1      31.423  27.826  26.006  1.00  0.00     0.261 C 
ENDROOT
BRANCH   1   2
ATOM      2  O   UNL A   1      31.982  26.675  26.677  1.00  0.00    -0.462 OA
BRANCH   2   3
ATOM      3  C   UNL A   1      31.333  25.492  26.473  1.00  0.00     0.325 C 
ATOM      4  O   UNL A   1      31.421  24.522  27.220  1.00  0.00    -0.250 OA
BRANCH   3   5
ATOM      5  C   UNL A   1      30.587  25.419  25.132  1.00  0.00     0.245 C 
BRANCH   5   6
ATOM      6  N   UNL A   1      31.315  25.000  23.932  1.00  0.00    -0.303 N 
BRANCH   6   7
ATOM      7  C   UNL A   1      30.871  23.718  23.294  1.00  0.00     0.211 C 
BRANCH   7   8
ATOM      8  C   UNL A   1      31.908  22.669  23.663  1.00  0.00    -0.085 C 
ATOM      9  C   UNL A   1      32.797  21.769  23.979  1.00  0.00     0.006 C 
ENDBRANCH   7   8
ENDBRANCH   6   7
BRANCH   6  10
ATOM     10  C   UNL A   1      32.267  25.725  23.255  1.00  0.00     0.318 C 
ATOM     11  O   UNL A   1      33.467  25.428  23.335  1.00  0.00    -0.249 OA
ATOM     12  N   UNL A   1      32.038  26.830  22.515  1.00  0.00    -0.338 N 
ATOM     13  H   UNL A   1      32.896  27.185  22.187  1.00  0.00     0.165 HD
BRANCH  12  14
ATOM     14  C   UNL A   1      30.951  27.680  22.032  1.00  0.00     0.120 C 
BRANCH  14  15
ATOM     15  C   UNL A   1      30.932  29.127  22.561  1.00  0.00     0.053 C 
BRANCH  15  16
ATOM     16  C   UNL A   1      29.655  29.963  22.363  1.00  0.00     0.120 C 
ATOM     17  C   UNL A   1      29.281  30.792  23.591  1.00  0.00     0.034 C 
ATOM     18  O   UNL A   1      28.519  29.148  22.054  1.00  0.00    -0.378 OA
ATOM     19  C   UNL A   1      27.785  30.929  23.457  1.00  0.00     0.031 C 
ATOM     20  C   UNL A   1      27.392  29.623  22.803  1.00  0.00     0.160 C 
ENDBRANCH  15  16
ENDBRANCH  14  15
ENDBRANCH  12  14
ENDBRANCH   6  10
ENDBRANCH   5   6
ENDBRANCH   3   5
ENDBRANCH   2   3
ENDBRANCH   1   2
BRANCH   1  21
ATOM     21  C   UNL A   1      32.371  29.041  26.007  1.00  0.00     0.202 C 
BRANCH  21  22
ATOM     22  O   UNL A   1      31.798  30.306  26.340  1.00  0.00    -0.374 OA
BRANCH  22  23
ATOM     23  C   UNL A   1      32.659  31.122  27.141  1.00  0.00     0.202 C 
BRANCH  23  24
ATOM     24  C   UNL A   1      32.201  32.579  27.219  1.00  0.00     0.261 C 
BRANCH  24  25
ATOM     25  O   UNL A   1      33.345  33.424  27.223  1.00  0.00    -0.460 OA
BRANCH  25  26
ATOM     26  C   UNL A   1      33.391  34.189  28.332  1.00  0.00     0.338 C 
ATOM     27  O   UNL A   1      32.567  35.004  28.698  1.00  0.00    -0.246 OA
BRANCH  26  28
ATOM     28  C   UNL A   1      34.512  33.688  29.147  1.00  0.00     0.060 A 
ATOM     29  C   UNL A   1      35.786  34.172  28.843  1.00  0.00     0.016 A 
ATOM     30  C   UNL A   1      34.310  32.810  30.225  1.00  0.00     0.016 A 
ATOM     31  C   UNL A   1      36.880  33.693  29.544  1.00  0.00     0.010 A 
ATOM     32  C   UNL A   1      35.401  32.351  30.946  1.00  0.00     0.010 A 
ATOM     33  C   UNL A   1      36.687  32.743  30.556  1.00  0.00    -0.014 A 
BRANCH  33  34
ATOM     34  C   UNL A   1      37.846  31.989  31.055  1.00  0.00     0.031 A 
ATOM     35  C   UNL A   1      38.331  32.294  32.441  1.00  0.00     0.074 A 
ATOM     36  C   UNL A   1      38.408  31.044  30.289  1.00  0.00     0.049 A 
ATOM     37  N   UNL A   1      39.323  31.766  33.105  1.00  0.00    -0.248 NA
ATOM     38  C   UNL A   1      37.608  33.348  33.177  1.00  0.00     0.031 C 
ATOM     39  C   UNL A   1      37.978  30.687  28.937  1.00  0.00     0.029 A 
ATOM     40  N   UNL A   1      39.463  30.214  30.543  1.00  0.00    -0.354 N 
ATOM     41  C   UNL A   1      39.341  32.421  34.330  1.00  0.00     0.074 A 
ATOM     42  C   UNL A   1      38.300  33.420  34.303  1.00  0.00     0.031 C 
ATOM     43  C   UNL A   1      38.766  29.700  28.479  1.00  0.00     0.029 A 
ATOM     44  C   UNL A   1      39.765  29.384  29.495  1.00  0.00     0.049 A 
ATOM     45  H   UNL A   1      39.956  30.213  31.394  1.00  0.00     0.167 HD
ATOM     46  C   UNL A   1      40.151  32.191  35.387  1.00  0.00     0.037 A 
ATOM     47  C   UNL A   1      40.754  28.478  29.381  1.00  0.00     0.037 A 
ATOM     48  C   UNL A   1      41.182  31.190  35.384  1.00  0.00     0.049 A 
ATOM     49  C   UNL A   1      41.672  28.275  30.556  1.00  0.00     0.074 A 
ATOM     50  C   UNL A   1      42.056  30.846  36.396  1.00  0.00     0.029 A 
ATOM     51  N   UNL A   1      41.477  30.376  34.297  1.00  0.00    -0.354 N 
ATOM     52  N   UNL A   1      41.661  28.867  31.728  1.00  0.00    -0.248 NA
ATOM     53  C   UNL A   1      42.733  27.274  30.397  1.00  0.00     0.031 C 
ATOM     54  C   UNL A   1      42.917  29.859  35.903  1.00  0.00     0.029 A 
ATOM     55  C   UNL A   1      42.539  29.546  34.605  1.00  0.00     0.049 A 
ATOM     56  H   UNL A   1      41.000  30.388  33.437  1.00  0.00     0.167 HD
ATOM     57  C   UNL A   1      42.694  28.294  32.457  1.00  0.00     0.074 A 
ATOM     58  C   UNL A   1      43.299  27.294  31.596  1.00  0.00     0.031 C 
ATOM     59  C   UNL A   1      43.110  28.561  33.720  1.00  0.00     0.037 A 
BRANCH  46  60
ATOM     60  C   UNL A   1      39.962  33.050  36.603  1.00  0.00     0.057 A 
ATOM     61  C   UNL A   1      40.734  34.199  36.830  1.00  0.00     0.134 A 
ATOM     62  C   UNL A   1      38.994  32.726  37.562  1.00  0.00     0.134 A 
ATOM     63  F   UNL A   1      41.694  34.556  35.963  1.00  0.00    -0.206 F 
ATOM     64  C   UNL A   1      40.566  34.978  37.977  1.00  0.00     0.040 A 
ATOM     65  C   UNL A   1      38.799  33.513  38.699  1.00  0.00     0.040 A 
ATOM     66  F   UNL A   1      38.223  31.639  37.411  1.00  0.00    -0.206 F 
ATOM     67  C   UNL A   1      39.591  34.640  38.911  1.00  0.00     0.006 A 
ENDBRANCH  46  60
BRANCH  47  68
ATOM     68  C   UNL A   1      40.911  27.706  28.126  1.00  0.00     0.057 A 
ATOM     69  C   UNL A   1      40.297  26.460  27.958  1.00  0.00     0.134 A 
ATOM     70  C   UNL A   1      41.674  28.197  27.059  1.00  0.00     0.134 A 
ATOM     71  F   UNL A   1      39.563  25.930  28.947  1.00  0.00    -0.206 F 
ATOM     72  C   UNL A   1      40.451  25.722  26.782  1.00  0.00     0.040 A 
ATOM     73  C   UNL A   1      41.814  27.482  25.868  1.00  0.00     0.040 A 
ATOM     74  F   UNL A   1      42.278  29.391  27.151  1.00  0.00    -0.206 F 
ATOM     75  C   UNL A   1      41.207  26.235  25.732  1.00  0.00     0.006 A 
ENDBRANCH  47  68
BRANCH  59  76
ATOM     76  C   UNL A   1      44.247  27.740  34.249  1.00  0.00     0.057 A 
ATOM     77  C   UNL A   1      45.573  28.181  34.178  1.00  0.00     0.134 A 
ATOM     78  C   UNL A   1      44.002  26.512  34.877  1.00  0.00     0.134 A 
ATOM     79  F   UNL A   1      45.873  29.344  33.578  1.00  0.00    -0.206 F 
ATOM     80  C   UNL A   1      46.622  27.416  34.691  1.00  0.00     0.040 A 
ATOM     81  C   UNL A   1      45.038  25.754  35.422  1.00  0.00     0.040 A 
ATOM     82  F   UNL A   1      42.751  26.040  34.988  1.00  0.00    -0.206 F 
ATOM     83  C   UNL A   1      46.353  26.203  35.321  1.00  0.00     0.006 A 
ENDBRANCH  59  76
ENDBRANCH  33  34
ENDBRANCH  26  28
ENDBRANCH  25  26
ENDBRANCH  24  25
ENDBRANCH  23  24
ENDBRANCH  22  23
ENDBRANCH  21  22
ENDBRANCH   1  21
TORSDOF 21
ENDMDL
