MODEL 1
REMARK VINA RESULT:     -11.1      0.000      0.000
REMARK SMILES O=C(OCCOCCOC(=O)c1cccc([C@@H]2CCC[N@@H+](Cc3cccc(OCCO)c3)C2)c1)c1ccc(-c2c3nc(c(-c4c(F)cccc4F)c4ccc([nH]4)c(-c4c(F)cccc4F)c4nc(c(-c5c(F)cccc5F)c5ccc2[nH]5)C=C4)C=C3)cc1
REMARK SMILES IDX 8 1 7 2 6 3 5 4 4 5 3 6 2 7 1 8 35 9 36 10 88 11 37 12 87 13
REMARK SMILES IDX 38 14 39 15 40 16 81 17 41 18 86 19 80 20 82 21 42 22 85 23
REMARK SMILES IDX 79 24 78 25 43 27 69 28 52 29 68 30 53 31 56 32 67 33 83 34
REMARK SMILES IDX 54 35 55 36 66 38 84 39 57 40 44 41 45 42 50 43 46 44 47 45
REMARK SMILES IDX 49 46 51 47 48 48 70 49 71 50 76 51 72 52 73 53 75 54 77 55
REMARK SMILES IDX 74 56 58 57 59 58 64 59 60 60 61 61 63 62 65 63 62 64 9 65
REMARK SMILES IDX 10 66 11 67 12 68 13 69 34 70 14 71 16 72 15 73 17 74 18 75
REMARK SMILES IDX 33 76 19 77 21 78 20 79 22 81 23 82 24 83 32 84 25 85 27 86
REMARK SMILES IDX 26 87 28 88 29 89 30 90 31 91
REMARK H PARENT 82 26 56 37 21 80 31 92
REMARK Flexibility Score: inf
ROOT
ATOM      1  C   UNL A   1      42.399  20.035  26.340  1.00  0.00     0.261 C 
ENDROOT
BRANCH   1   2
ATOM      2  C   UNL A   1      43.349  19.265  25.410  1.00  0.00     0.202 C 
BRANCH   2   3
ATOM      3  O   UNL A   1      44.664  19.765  25.636  1.00  0.00    -0.374 OA
BRANCH   3   4
ATOM      4  C   UNL A   1      45.197  20.712  24.722  1.00  0.00     0.202 C 
BRANCH   4   5
ATOM      5  C   UNL A   1      45.707  21.974  25.412  1.00  0.00     0.261 C 
BRANCH   5   6
ATOM      6  O   UNL A   1      44.653  22.562  26.191  1.00  0.00    -0.460 OA
BRANCH   6   7
ATOM      7  C   UNL A   1      43.790  23.530  25.804  1.00  0.00     0.338 C 
ATOM      8  O   UNL A   1      43.476  23.607  24.618  1.00  0.00    -0.246 OA
BRANCH   7   9
ATOM      9  C   UNL A   1      43.183  24.515  26.746  1.00  0.00     0.060 A 
ATOM     10  C   UNL A   1      42.559  24.179  27.948  1.00  0.00     0.016 A 
ATOM     11  C   UNL A   1      43.378  25.875  26.463  1.00  0.00     0.016 A 
ATOM     12  C   UNL A   1      42.148  25.136  28.852  1.00  0.00     0.010 A 
ATOM     13  C   UNL A   1      42.991  26.854  27.382  1.00  0.00     0.010 A 
ATOM     14  C   UNL A   1      42.398  26.474  28.590  1.00  0.00    -0.014 A 
BRANCH  14  15
ATOM     15  C   UNL A   1      41.975  27.437  29.610  1.00  0.00     0.031 A 
ATOM     16  C   UNL A   1      42.778  27.536  30.861  1.00  0.00     0.074 A 
ATOM     17  C   UNL A   1      40.971  28.285  29.324  1.00  0.00     0.049 A 
ATOM     18  N   UNL A   1      42.545  28.239  31.931  1.00  0.00    -0.248 NA
ATOM     19  C   UNL A   1      44.021  26.745  30.910  1.00  0.00     0.031 C 
ATOM     20  C   UNL A   1      40.251  28.341  28.046  1.00  0.00     0.029 A 
ATOM     21  N   UNL A   1      40.395  29.273  30.072  1.00  0.00    -0.354 N 
ATOM     22  C   UNL A   1      43.584  27.943  32.800  1.00  0.00     0.074 A 
ATOM     23  C   UNL A   1      44.463  27.013  32.129  1.00  0.00     0.031 C 
ATOM     24  C   UNL A   1      39.327  29.313  28.104  1.00  0.00     0.029 A 
ATOM     25  C   UNL A   1      39.333  29.881  29.443  1.00  0.00     0.049 A 
ATOM     26  H   UNL A   1      40.708  29.525  30.969  1.00  0.00     0.167 HD
ATOM     27  C   UNL A   1      43.754  28.402  34.058  1.00  0.00     0.037 A 
ATOM     28  C   UNL A   1      38.432  30.750  29.937  1.00  0.00     0.037 A 
ATOM     29  C   UNL A   1      42.854  29.338  34.672  1.00  0.00     0.049 A 
ATOM     30  C   UNL A   1      38.587  31.155  31.378  1.00  0.00     0.074 A 
ATOM     31  C   UNL A   1      42.894  29.865  35.948  1.00  0.00     0.029 A 
ATOM     32  N   UNL A   1      41.743  29.883  34.042  1.00  0.00    -0.354 N 
ATOM     33  N   UNL A   1      39.542  30.842  32.226  1.00  0.00    -0.248 NA
ATOM     34  C   UNL A   1      37.534  32.005  31.945  1.00  0.00     0.031 C 
ATOM     35  C   UNL A   1      41.769  30.678  36.110  1.00  0.00     0.029 A 
ATOM     36  C   UNL A   1      41.061  30.706  34.917  1.00  0.00     0.049 A 
ATOM     37  H   UNL A   1      41.479  29.707  33.109  1.00  0.00     0.167 HD
ATOM     38  C   UNL A   1      39.211  31.462  33.420  1.00  0.00     0.074 A 
ATOM     39  C   UNL A   1      37.984  32.197  33.178  1.00  0.00     0.031 C 
ATOM     40  C   UNL A   1      39.846  31.423  34.616  1.00  0.00     0.037 A 
BRANCH  27  41
ATOM     41  C   UNL A   1      44.878  27.827  34.861  1.00  0.00     0.057 A 
ATOM     42  C   UNL A   1      46.127  28.449  34.966  1.00  0.00     0.134 A 
ATOM     43  C   UNL A   1      44.695  26.620  35.548  1.00  0.00     0.134 A 
ATOM     44  F   UNL A   1      46.378  29.589  34.305  1.00  0.00    -0.206 F 
ATOM     45  C   UNL A   1      47.159  27.885  35.721  1.00  0.00     0.040 A 
ATOM     46  C   UNL A   1      45.710  26.058  36.322  1.00  0.00     0.040 A 
ATOM     47  F   UNL A   1      43.527  25.966  35.474  1.00  0.00    -0.206 F 
ATOM     48  C   UNL A   1      46.948  26.691  36.409  1.00  0.00     0.006 A 
ENDBRANCH  27  41
BRANCH  28  49
ATOM     49  C   UNL A   1      37.266  31.193  29.126  1.00  0.00     0.057 A 
ATOM     50  C   UNL A   1      37.167  32.500  28.634  1.00  0.00     0.134 A 
ATOM     51  C   UNL A   1      36.185  30.335  28.876  1.00  0.00     0.134 A 
ATOM     52  F   UNL A   1      38.155  33.379  28.852  1.00  0.00    -0.206 F 
ATOM     53  C   UNL A   1      36.028  32.945  27.958  1.00  0.00     0.040 A 
ATOM     54  C   UNL A   1      35.055  30.756  28.173  1.00  0.00     0.040 A 
ATOM     55  F   UNL A   1      36.206  29.068  29.318  1.00  0.00    -0.206 F 
ATOM     56  C   UNL A   1      34.967  32.072  27.725  1.00  0.00     0.006 A 
ENDBRANCH  28  49
BRANCH  40  57
ATOM     57  C   UNL A   1      39.230  32.208  35.732  1.00  0.00     0.057 A 
ATOM     58  C   UNL A   1      38.334  31.621  36.634  1.00  0.00     0.134 A 
ATOM     59  C   UNL A   1      39.593  33.544  35.944  1.00  0.00     0.134 A 
ATOM     60  F   UNL A   1      37.939  30.350  36.470  1.00  0.00    -0.206 F 
ATOM     61  C   UNL A   1      37.808  32.342  37.703  1.00  0.00     0.040 A 
ATOM     62  C   UNL A   1      39.098  34.264  37.029  1.00  0.00     0.040 A 
ATOM     63  F   UNL A   1      40.455  34.155  35.119  1.00  0.00    -0.206 F 
ATOM     64  C   UNL A   1      38.200  33.665  37.910  1.00  0.00     0.006 A 
ENDBRANCH  40  57
ENDBRANCH  14  15
ENDBRANCH   7   9
ENDBRANCH   6   7
ENDBRANCH   5   6
ENDBRANCH   4   5
ENDBRANCH   3   4
ENDBRANCH   2   3
ENDBRANCH   1   2
BRANCH   1  65
ATOM     65  O   UNL A   1      41.473  20.796  25.554  1.00  0.00    -0.460 OA
BRANCH  65  66
ATOM     66  C   UNL A   1      40.151  20.496  25.733  1.00  0.00     0.338 C 
ATOM     67  O   UNL A   1      39.666  19.386  25.800  1.00  0.00    -0.246 OA
BRANCH  66  68
ATOM     68  C   UNL A   1      39.401  21.774  25.899  1.00  0.00     0.060 A 
ATOM     69  C   UNL A   1      39.909  22.858  26.610  1.00  0.00     0.016 A 
ATOM     70  C   UNL A   1      38.130  21.871  25.357  1.00  0.00     0.020 A 
ATOM     71  C   UNL A   1      39.088  23.968  26.849  1.00  0.00     0.001 A 
ATOM     72  C   UNL A   1      37.234  22.835  25.787  1.00  0.00    -0.038 A 
ATOM     73  C   UNL A   1      37.734  23.931  26.492  1.00  0.00     0.004 A 
BRANCH  72  74
ATOM     74  C   UNL A   1      35.756  22.532  25.645  1.00  0.00     0.074 C 
ATOM     75  C   UNL A   1      35.415  22.096  24.195  1.00  0.00     0.020 C 
ATOM     76  C   UNL A   1      34.841  23.685  26.082  1.00  0.00     0.270 C 
ATOM     77  C   UNL A   1      35.190  23.256  23.217  1.00  0.00     0.062 C 
ATOM     78  N   UNL A   1      34.723  24.816  25.143  1.00  0.00    -0.331 N 
ATOM     79  C   UNL A   1      34.320  24.375  23.798  1.00  0.00     0.262 C 
ATOM     80  H   UNL A   1      35.657  25.215  25.053  1.00  0.00     0.348 HD
BRANCH  78  81
ATOM     81  C   UNL A   1      33.860  25.908  25.666  1.00  0.00     0.299 C 
BRANCH  81  82
ATOM     82  C   UNL A   1      32.376  25.759  25.367  1.00  0.00     0.010 A 
ATOM     83  C   UNL A   1      31.597  24.803  26.027  1.00  0.00     0.010 A 
ATOM     84  C   UNL A   1      31.740  26.687  24.528  1.00  0.00     0.056 A 
ATOM     85  C   UNL A   1      30.208  24.843  25.917  1.00  0.00     0.004 A 
ATOM     86  C   UNL A   1      30.358  26.832  24.538  1.00  0.00     0.119 A 
ATOM     87  C   UNL A   1      29.591  25.877  25.206  1.00  0.00     0.046 A 
BRANCH  86  88
ATOM     88  O   UNL A   1      29.667  27.884  23.998  1.00  0.00    -0.491 OA
BRANCH  88  89
ATOM     89  C   UNL A   1      29.926  28.257  22.635  1.00  0.00     0.257 C 
BRANCH  89  90
ATOM     90  C   UNL A   1      29.919  29.775  22.415  1.00  0.00     0.197 C 
BRANCH  90  91
ATOM     91  O   UNL A   1      30.538  30.170  21.199  1.00  0.00    -0.393 OA
ATOM     92  H   UNL A   1      31.286  29.583  21.010  1.00  0.00     0.210 HD
ENDBRANCH  90  91
ENDBRANCH  89  90
ENDBRANCH  88  89
ENDBRANCH  86  88
ENDBRANCH  81  82
ENDBRANCH  78  81
ENDBRANCH  72  74
ENDBRANCH  66  68
ENDBRANCH  65  66
ENDBRANCH   1  65
TORSDOF 21
ENDMDL
MODEL 2
REMARK VINA RESULT:     -11.0      4.486      6.826
REMARK SMILES O=C(OCCOCCOC(=O)c1cccc([C@@H]2CCC[N@@H+](Cc3cccc(OCCO)c3)C2)c1)c1ccc(-c2c3nc(c(-c4c(F)cccc4F)c4ccc([nH]4)c(-c4c(F)cccc4F)c4nc(c(-c5c(F)cccc5F)c5ccc2[nH]5)C=C4)C=C3)cc1
REMARK SMILES IDX 8 1 7 2 6 3 5 4 4 5 3 6 2 7 1 8 35 9 36 10 88 11 37 12 87 13
REMARK SMILES IDX 38 14 39 15 40 16 81 17 41 18 86 19 80 20 82 21 42 22 85 23
REMARK SMILES IDX 79 24 78 25 43 27 69 28 52 29 68 30 53 31 56 32 67 33 83 34
REMARK SMILES IDX 54 35 55 36 66 38 84 39 57 40 44 41 45 42 50 43 46 44 47 45
REMARK SMILES IDX 49 46 51 47 48 48 70 49 71 50 76 51 72 52 73 53 75 54 77 55
REMARK SMILES IDX 74 56 58 57 59 58 64 59 60 60 61 61 63 62 65 63 62 64 9 65
REMARK SMILES IDX 10 66 11 67 12 68 13 69 34 70 14 71 16 72 15 73 17 74 18 75
REMARK SMILES IDX 33 76 19 77 21 78 20 79 22 81 23 82 24 83 32 84 25 85 27 86
REMARK SMILES IDX 26 87 28 88 29 89 30 90 31 91
REMARK H PARENT 82 26 56 37 21 80 31 92
REMARK Flexibility Score: inf
ROOT
ATOM      1  C   UNL A   1      40.452  22.214  27.231  1.00  0.00     0.261 C 
ENDROOT
BRANCH   1   2
ATOM      2  C   UNL A   1      41.761  21.700  26.611  1.00  0.00     0.202 C 
BRANCH   2   3
ATOM      3  O   UNL A   1      41.421  20.661  25.698  1.00  0.00    -0.374 OA
BRANCH   3   4
ATOM      4  C   UNL A   1      41.591  19.312  26.110  1.00  0.00     0.202 C 
BRANCH   4   5
ATOM      5  C   UNL A   1      43.041  18.846  26.019  1.00  0.00     0.261 C 
BRANCH   5   6
ATOM      6  O   UNL A   1      43.489  18.913  24.656  1.00  0.00    -0.460 OA
BRANCH   6   7
ATOM      7  C   UNL A   1      44.562  19.584  24.178  1.00  0.00     0.338 C 
ATOM      8  O   UNL A   1      45.321  19.013  23.398  1.00  0.00    -0.246 OA
BRANCH   7   9
ATOM      9  C   UNL A   1      44.875  20.998  24.538  1.00  0.00     0.060 A 
ATOM     10  C   UNL A   1      44.492  22.109  23.786  1.00  0.00     0.016 A 
ATOM     11  C   UNL A   1      45.475  21.223  25.786  1.00  0.00     0.016 A 
ATOM     12  C   UNL A   1      44.676  23.399  24.239  1.00  0.00     0.010 A 
ATOM     13  C   UNL A   1      45.643  22.523  26.269  1.00  0.00     0.010 A 
ATOM     14  C   UNL A   1      45.216  23.609  25.497  1.00  0.00    -0.014 A 
BRANCH  14  15
ATOM     15  C   UNL A   1      45.345  25.001  25.937  1.00  0.00     0.031 A 
ATOM     16  C   UNL A   1      46.670  25.666  25.790  1.00  0.00     0.074 A 
ATOM     17  C   UNL A   1      44.240  25.663  26.324  1.00  0.00     0.049 A 
ATOM     18  N   UNL A   1      47.043  26.847  26.192  1.00  0.00    -0.248 NA
ATOM     19  C   UNL A   1      47.714  24.905  25.082  1.00  0.00     0.031 C 
ATOM     20  C   UNL A   1      42.882  25.106  26.333  1.00  0.00     0.029 A 
ATOM     21  N   UNL A   1      44.073  26.947  26.761  1.00  0.00    -0.354 N 
ATOM     22  C   UNL A   1      48.377  26.954  25.829  1.00  0.00     0.074 A 
ATOM     23  C   UNL A   1      48.747  25.731  25.156  1.00  0.00     0.031 C 
ATOM     24  C   UNL A   1      42.023  26.046  26.759  1.00  0.00     0.029 A 
ATOM     25  C   UNL A   1      42.780  27.232  27.133  1.00  0.00     0.049 A 
ATOM     26  H   UNL A   1      44.805  27.603  26.805  1.00  0.00     0.167 HD
ATOM     27  C   UNL A   1      49.209  27.988  26.073  1.00  0.00     0.037 A 
ATOM     28  C   UNL A   1      42.293  28.312  27.769  1.00  0.00     0.037 A 
ATOM     29  C   UNL A   1      48.784  29.190  26.736  1.00  0.00     0.049 A 
ATOM     30  C   UNL A   1      43.272  29.399  28.125  1.00  0.00     0.074 A 
ATOM     31  C   UNL A   1      49.530  30.303  27.069  1.00  0.00     0.029 A 
ATOM     32  N   UNL A   1      47.486  29.424  27.171  1.00  0.00    -0.354 N 
ATOM     33  N   UNL A   1      44.549  29.489  27.829  1.00  0.00    -0.248 NA
ATOM     34  C   UNL A   1      42.760  30.517  28.925  1.00  0.00     0.031 C 
ATOM     35  C   UNL A   1      48.697  31.183  27.765  1.00  0.00     0.029 A 
ATOM     36  C   UNL A   1      47.417  30.647  27.812  1.00  0.00     0.049 A 
ATOM     37  H   UNL A   1      46.727  28.810  27.044  1.00  0.00     0.167 HD
ATOM     38  C   UNL A   1      44.990  30.674  28.396  1.00  0.00     0.074 A 
ATOM     39  C   UNL A   1      43.835  31.285  29.026  1.00  0.00     0.031 C 
ATOM     40  C   UNL A   1      46.234  31.211  28.413  1.00  0.00     0.037 A 
BRANCH  27  41
ATOM     41  C   UNL A   1      50.652  27.817  25.714  1.00  0.00     0.057 A 
ATOM     42  C   UNL A   1      51.137  28.018  24.416  1.00  0.00     0.134 A 
ATOM     43  C   UNL A   1      51.574  27.447  26.701  1.00  0.00     0.134 A 
ATOM     44  F   UNL A   1      50.300  28.341  23.419  1.00  0.00    -0.206 F 
ATOM     45  C   UNL A   1      52.489  27.847  24.112  1.00  0.00     0.040 A 
ATOM     46  C   UNL A   1      52.930  27.295  26.414  1.00  0.00     0.040 A 
ATOM     47  F   UNL A   1      51.171  27.224  27.960  1.00  0.00    -0.206 F 
ATOM     48  C   UNL A   1      53.391  27.494  25.114  1.00  0.00     0.006 A 
ENDBRANCH  27  41
BRANCH  28  49
ATOM     49  C   UNL A   1      40.873  28.371  28.208  1.00  0.00     0.057 A 
ATOM     50  C   UNL A   1      39.876  28.927  27.397  1.00  0.00     0.134 A 
ATOM     51  C   UNL A   1      40.484  27.929  29.481  1.00  0.00     0.134 A 
ATOM     52  F   UNL A   1      40.178  29.387  26.175  1.00  0.00    -0.206 F 
ATOM     53  C   UNL A   1      38.561  29.074  27.847  1.00  0.00     0.040 A 
ATOM     54  C   UNL A   1      39.168  28.038  29.931  1.00  0.00     0.040 A 
ATOM     55  F   UNL A   1      41.384  27.386  30.316  1.00  0.00    -0.206 F 
ATOM     56  C   UNL A   1      38.203  28.628  29.118  1.00  0.00     0.006 A 
ENDBRANCH  28  49
BRANCH  40  57
ATOM     57  C   UNL A   1      46.393  32.521  29.119  1.00  0.00     0.057 A 
ATOM     58  C   UNL A   1      46.771  32.587  30.466  1.00  0.00     0.134 A 
ATOM     59  C   UNL A   1      46.233  33.725  28.423  1.00  0.00     0.134 A 
ATOM     60  F   UNL A   1      46.923  31.465  31.186  1.00  0.00    -0.206 F 
ATOM     61  C   UNL A   1      46.971  33.810  31.102  1.00  0.00     0.040 A 
ATOM     62  C   UNL A   1      46.463  34.953  29.040  1.00  0.00     0.040 A 
ATOM     63  F   UNL A   1      45.883  33.724  27.129  1.00  0.00    -0.206 F 
ATOM     64  C   UNL A   1      46.829  34.998  30.384  1.00  0.00     0.006 A 
ENDBRANCH  40  57
ENDBRANCH  14  15
ENDBRANCH   7   9
ENDBRANCH   6   7
ENDBRANCH   5   6
ENDBRANCH   4   5
ENDBRANCH   3   4
ENDBRANCH   2   3
ENDBRANCH   1   2
BRANCH   1  65
ATOM     65  O   UNL A   1      39.391  22.092  26.275  1.00  0.00    -0.460 OA
BRANCH  65  66
ATOM     66  C   UNL A   1      38.587  23.189  26.132  1.00  0.00     0.338 C 
ATOM     67  O   UNL A   1      38.824  24.313  26.523  1.00  0.00    -0.246 OA
BRANCH  66  68
ATOM     68  C   UNL A   1      37.384  22.787  25.350  1.00  0.00     0.060 A 
ATOM     69  C   UNL A   1      37.155  23.218  24.045  1.00  0.00     0.016 A 
ATOM     70  C   UNL A   1      36.435  21.984  25.961  1.00  0.00     0.020 A 
ATOM     71  C   UNL A   1      35.933  22.919  23.427  1.00  0.00     0.001 A 
ATOM     72  C   UNL A   1      35.143  21.892  25.469  1.00  0.00    -0.038 A 
ATOM     73  C   UNL A   1      34.905  22.311  24.159  1.00  0.00     0.004 A 
BRANCH  72  74
ATOM     74  C   UNL A   1      34.044  21.539  26.450  1.00  0.00     0.074 C 
ATOM     75  C   UNL A   1      33.095  20.464  25.858  1.00  0.00     0.020 C 
ATOM     76  C   UNL A   1      33.236  22.750  26.939  1.00  0.00     0.270 C 
ATOM     77  C   UNL A   1      31.994  21.018  24.946  1.00  0.00     0.062 C 
ATOM     78  N   UNL A   1      32.247  23.298  25.993  1.00  0.00    -0.331 N 
ATOM     79  C   UNL A   1      31.312  22.268  25.513  1.00  0.00     0.262 C 
ATOM     80  H   UNL A   1      32.772  23.619  25.180  1.00  0.00     0.348 HD
BRANCH  78  81
ATOM     81  C   UNL A   1      31.546  24.496  26.526  1.00  0.00     0.299 C 
BRANCH  81  82
ATOM     82  C   UNL A   1      32.056  25.830  26.002  1.00  0.00     0.010 A 
ATOM     83  C   UNL A   1      33.401  26.009  25.663  1.00  0.00     0.010 A 
ATOM     84  C   UNL A   1      31.143  26.857  25.711  1.00  0.00     0.056 A 
ATOM     85  C   UNL A   1      33.796  27.151  24.968  1.00  0.00     0.004 A 
ATOM     86  C   UNL A   1      31.496  27.916  24.884  1.00  0.00     0.119 A 
ATOM     87  C   UNL A   1      32.840  28.080  24.546  1.00  0.00     0.046 A 
BRANCH  86  88
ATOM     88  O   UNL A   1      30.621  28.794  24.302  1.00  0.00    -0.491 OA
BRANCH  88  89
ATOM     89  C   UNL A   1      29.748  28.318  23.265  1.00  0.00     0.257 C 
BRANCH  89  90
ATOM     90  C   UNL A   1      29.579  29.318  22.114  1.00  0.00     0.197 C 
BRANCH  90  91
ATOM     91  O   UNL A   1      30.547  30.358  22.126  1.00  0.00    -0.393 OA
ATOM     92  H   UNL A   1      30.742  30.628  21.215  1.00  0.00     0.210 HD
ENDBRANCH  90  91
ENDBRANCH  89  90
ENDBRANCH  88  89
ENDBRANCH  86  88
ENDBRANCH  81  82
ENDBRANCH  78  81
ENDBRANCH  72  74
ENDBRANCH  66  68
ENDBRANCH  65  66
ENDBRANCH   1  65
TORSDOF 21
ENDMDL
MODEL 3
REMARK VINA RESULT:     -11.0      4.716      8.373
REMARK SMILES O=C(OCCOCCOC(=O)c1cccc([C@@H]2CCC[N@@H+](Cc3cccc(OCCO)c3)C2)c1)c1ccc(-c2c3nc(c(-c4c(F)cccc4F)c4ccc([nH]4)c(-c4c(F)cccc4F)c4nc(c(-c5c(F)cccc5F)c5ccc2[nH]5)C=C4)C=C3)cc1
REMARK SMILES IDX 8 1 7 2 6 3 5 4 4 5 3 6 2 7 1 8 35 9 36 10 88 11 37 12 87 13
REMARK SMILES IDX 38 14 39 15 40 16 81 17 41 18 86 19 80 20 82 21 42 22 85 23
REMARK SMILES IDX 79 24 78 25 43 27 69 28 52 29 68 30 53 31 56 32 67 33 83 34
REMARK SMILES IDX 54 35 55 36 66 38 84 39 57 40 44 41 45 42 50 43 46 44 47 45
REMARK SMILES IDX 49 46 51 47 48 48 70 49 71 50 76 51 72 52 73 53 75 54 77 55
REMARK SMILES IDX 74 56 58 57 59 58 64 59 60 60 61 61 63 62 65 63 62 64 9 65
REMARK SMILES IDX 10 66 11 67 12 68 13 69 34 70 14 71 16 72 15 73 17 74 18 75
REMARK SMILES IDX 33 76 19 77 21 78 20 79 22 81 23 82 24 83 32 84 25 85 27 86
REMARK SMILES IDX 26 87 28 88 29 89 30 90 31 91
REMARK H PARENT 82 26 56 37 21 80 31 92
REMARK Flexibility Score: inf
ROOT
ATOM      1  C   UNL A   1      40.446  22.491  27.212  1.00  0.00     0.261 C 
ENDROOT
BRANCH   1   2
ATOM      2  C   UNL A   1      41.722  21.857  26.637  1.00  0.00     0.202 C 
BRANCH   2   3
ATOM      3  O   UNL A   1      41.319  20.832  25.734  1.00  0.00    -0.374 OA
BRANCH   3   4
ATOM      4  C   UNL A   1      41.484  19.477  26.127  1.00  0.00     0.202 C 
BRANCH   4   5
ATOM      5  C   UNL A   1      42.910  18.973  25.923  1.00  0.00     0.261 C 
BRANCH   5   6
ATOM      6  O   UNL A   1      43.354  19.296  24.596  1.00  0.00    -0.460 OA
BRANCH   6   7
ATOM      7  C   UNL A   1      44.530  19.864  24.241  1.00  0.00     0.338 C 
ATOM      8  O   UNL A   1      45.300  19.234  23.519  1.00  0.00    -0.246 OA
BRANCH   7   9
ATOM      9  C   UNL A   1      44.946  21.231  24.671  1.00  0.00     0.060 A 
ATOM     10  C   UNL A   1      44.749  22.391  23.921  1.00  0.00     0.016 A 
ATOM     11  C   UNL A   1      45.442  21.368  25.976  1.00  0.00     0.016 A 
ATOM     12  C   UNL A   1      45.016  23.645  24.428  1.00  0.00     0.010 A 
ATOM     13  C   UNL A   1      45.692  22.634  26.512  1.00  0.00     0.010 A 
ATOM     14  C   UNL A   1      45.451  23.773  25.737  1.00  0.00    -0.014 A 
BRANCH  14  15
ATOM     15  C   UNL A   1      45.675  25.135  26.228  1.00  0.00     0.031 A 
ATOM     16  C   UNL A   1      44.527  25.861  26.841  1.00  0.00     0.074 A 
ATOM     17  C   UNL A   1      46.928  25.624  26.234  1.00  0.00     0.049 A 
ATOM     18  N   UNL A   1      44.463  27.093  27.255  1.00  0.00    -0.248 NA
ATOM     19  C   UNL A   1      43.285  25.090  27.027  1.00  0.00     0.031 C 
ATOM     20  C   UNL A   1      48.122  24.892  25.793  1.00  0.00     0.029 A 
ATOM     21  N   UNL A   1      47.414  26.834  26.642  1.00  0.00    -0.354 N 
ATOM     22  C   UNL A   1      43.163  27.262  27.707  1.00  0.00     0.074 A 
ATOM     23  C   UNL A   1      42.475  26.003  27.539  1.00  0.00     0.031 C 
ATOM     24  C   UNL A   1      49.201  25.674  25.953  1.00  0.00     0.029 A 
ATOM     25  C   UNL A   1      48.763  26.981  26.421  1.00  0.00     0.049 A 
ATOM     26  H   UNL A   1      46.855  27.531  27.054  1.00  0.00     0.167 HD
ATOM     27  C   UNL A   1      42.608  28.392  28.192  1.00  0.00     0.037 A 
ATOM     28  C   UNL A   1      49.531  28.081  26.524  1.00  0.00     0.037 A 
ATOM     29  C   UNL A   1      43.344  29.615  28.352  1.00  0.00     0.049 A 
ATOM     30  C   UNL A   1      48.854  29.352  26.963  1.00  0.00     0.074 A 
ATOM     31  C   UNL A   1      42.897  30.840  28.807  1.00  0.00     0.029 A 
ATOM     32  N   UNL A   1      44.692  29.760  28.049  1.00  0.00    -0.354 N 
ATOM     33  N   UNL A   1      47.611  29.535  27.347  1.00  0.00    -0.248 NA
ATOM     34  C   UNL A   1      49.667  30.573  26.956  1.00  0.00     0.031 C 
ATOM     35  C   UNL A   1      43.960  31.743  28.718  1.00  0.00     0.029 A 
ATOM     36  C   UNL A   1      45.086  31.067  28.265  1.00  0.00     0.049 A 
ATOM     37  H   UNL A   1      45.280  29.039  27.727  1.00  0.00     0.167 HD
ATOM     38  C   UNL A   1      47.495  30.885  27.637  1.00  0.00     0.074 A 
ATOM     39  C   UNL A   1      48.805  31.469  27.415  1.00  0.00     0.031 C 
ATOM     40  C   UNL A   1      46.409  31.591  28.036  1.00  0.00     0.037 A 
BRANCH  27  41
ATOM     41  C   UNL A   1      41.140  28.375  28.483  1.00  0.00     0.057 A 
ATOM     42  C   UNL A   1      40.176  28.712  27.526  1.00  0.00     0.134 A 
ATOM     43  C   UNL A   1      40.687  28.005  29.756  1.00  0.00     0.134 A 
ATOM     44  F   UNL A   1      40.544  29.107  26.298  1.00  0.00    -0.206 F 
ATOM     45  C   UNL A   1      38.812  28.689  27.828  1.00  0.00     0.040 A 
ATOM     46  C   UNL A   1      39.328  27.957  30.063  1.00  0.00     0.040 A 
ATOM     47  F   UNL A   1      41.562  27.687  30.722  1.00  0.00    -0.206 F 
ATOM     48  C   UNL A   1      38.386  28.302  29.098  1.00  0.00     0.006 A 
ENDBRANCH  27  41
BRANCH  28  49
ATOM     49  C   UNL A   1      50.958  28.065  26.105  1.00  0.00     0.057 A 
ATOM     50  C   UNL A   1      51.328  28.099  24.755  1.00  0.00     0.134 A 
ATOM     51  C   UNL A   1      51.993  27.951  27.046  1.00  0.00     0.134 A 
ATOM     52  F   UNL A   1      50.391  28.188  23.801  1.00  0.00    -0.206 F 
ATOM     53  C   UNL A   1      52.663  27.983  24.357  1.00  0.00     0.040 A 
ATOM     54  C   UNL A   1      53.333  27.870  26.663  1.00  0.00     0.040 A 
ATOM     55  F   UNL A   1      51.717  27.912  28.358  1.00  0.00    -0.206 F 
ATOM     56  C   UNL A   1      53.670  27.869  25.312  1.00  0.00     0.006 A 
ENDBRANCH  28  49
BRANCH  40  57
ATOM     57  C   UNL A   1      46.607  33.056  28.269  1.00  0.00     0.057 A 
ATOM     58  C   UNL A   1      46.377  33.997  27.257  1.00  0.00     0.134 A 
ATOM     59  C   UNL A   1      46.964  33.531  29.537  1.00  0.00     0.134 A 
ATOM     60  F   UNL A   1      46.049  33.598  26.019  1.00  0.00    -0.206 F 
ATOM     61  C   UNL A   1      46.509  35.363  27.496  1.00  0.00     0.040 A 
ATOM     62  C   UNL A   1      47.066  34.896  29.795  1.00  0.00     0.040 A 
ATOM     63  F   UNL A   1      47.186  32.678  30.547  1.00  0.00    -0.206 F 
ATOM     64  C   UNL A   1      46.842  35.816  28.773  1.00  0.00     0.006 A 
ENDBRANCH  40  57
ENDBRANCH  14  15
ENDBRANCH   7   9
ENDBRANCH   6   7
ENDBRANCH   5   6
ENDBRANCH   4   5
ENDBRANCH   3   4
ENDBRANCH   2   3
ENDBRANCH   1   2
BRANCH   1  65
ATOM     65  O   UNL A   1      39.349  22.246  26.323  1.00  0.00    -0.460 OA
BRANCH  65  66
ATOM     66  C   UNL A   1      38.459  23.274  26.175  1.00  0.00     0.338 C 
ATOM     67  O   UNL A   1      38.589  24.406  26.591  1.00  0.00    -0.246 OA
BRANCH  66  68
ATOM     68  C   UNL A   1      37.315  22.787  25.352  1.00  0.00     0.060 A 
ATOM     69  C   UNL A   1      37.077  23.233  24.055  1.00  0.00     0.016 A 
ATOM     70  C   UNL A   1      36.431  21.882  25.918  1.00  0.00     0.020 A 
ATOM     71  C   UNL A   1      35.901  22.842  23.399  1.00  0.00     0.001 A 
ATOM     72  C   UNL A   1      35.164  21.687  25.393  1.00  0.00    -0.038 A 
ATOM     73  C   UNL A   1      34.917  22.121  24.089  1.00  0.00     0.004 A 
BRANCH  72  74
ATOM     74  C   UNL A   1      34.080  21.207  26.337  1.00  0.00     0.074 C 
ATOM     75  C   UNL A   1      33.125  20.212  25.626  1.00  0.00     0.020 C 
ATOM     76  C   UNL A   1      33.277  22.343  26.987  1.00  0.00     0.270 C 
ATOM     77  C   UNL A   1      32.009  20.873  24.807  1.00  0.00     0.062 C 
ATOM     78  N   UNL A   1      32.272  23.002  26.133  1.00  0.00    -0.331 N 
ATOM     79  C   UNL A   1      31.333  22.037  25.539  1.00  0.00     0.262 C 
ATOM     80  H   UNL A   1      32.784  23.426  25.360  1.00  0.00     0.348 HD
BRANCH  78  81
ATOM     81  C   UNL A   1      31.576  24.120  26.824  1.00  0.00     0.299 C 
BRANCH  81  82
ATOM     82  C   UNL A   1      31.782  25.493  26.203  1.00  0.00     0.010 A 
ATOM     83  C   UNL A   1      33.064  26.001  25.977  1.00  0.00     0.010 A 
ATOM     84  C   UNL A   1      30.676  26.205  25.710  1.00  0.00     0.056 A 
ATOM     85  C   UNL A   1      33.231  27.144  25.197  1.00  0.00     0.004 A 
ATOM     86  C   UNL A   1      30.840  27.246  24.806  1.00  0.00     0.119 A 
ATOM     87  C   UNL A   1      32.126  27.741  24.583  1.00  0.00     0.046 A 
BRANCH  86  88
ATOM     88  O   UNL A   1      29.845  27.802  24.046  1.00  0.00    -0.491 OA
BRANCH  88  89
ATOM     89  C   UNL A   1      30.107  28.088  22.663  1.00  0.00     0.257 C 
BRANCH  89  90
ATOM     90  C   UNL A   1      29.956  29.575  22.317  1.00  0.00     0.197 C 
BRANCH  90  91
ATOM     91  O   UNL A   1      30.849  30.009  21.301  1.00  0.00    -0.393 OA
ATOM     92  H   UNL A   1      31.749  30.053  21.658  1.00  0.00     0.210 HD
ENDBRANCH  90  91
ENDBRANCH  89  90
ENDBRANCH  88  89
ENDBRANCH  86  88
ENDBRANCH  81  82
ENDBRANCH  78  81
ENDBRANCH  72  74
ENDBRANCH  66  68
ENDBRANCH  65  66
ENDBRANCH   1  65
TORSDOF 21
ENDMDL
