MODEL 1
REMARK VINA RESULT:     -10.9      0.000      0.000
REMARK SMILES O=C(OCCOCCOC(=O)c1ccccc1C[N@H+]1CCCC[C@@H]1CCn1cccn1)c1ccc(-c2c3nc(c(-c4c(F)cccc4F)c4ccc([nH]4)c(-c4c(F)cccc4F)c4nc(c(-c5c(F)cccc5F)c5ccc2[nH]5)C=C4)C=C3)cc1
REMARK SMILES IDX 7 1 6 2 5 3 4 4 3 5 2 6 1 7 32 8 33 9 85 10 34 11 84 12
REMARK SMILES IDX 35 13 36 14 37 15 78 16 38 17 83 18 77 19 79 20 39 21 82 22
REMARK SMILES IDX 76 23 75 24 40 26 66 27 49 28 65 29 50 30 53 31 64 32 80 33
REMARK SMILES IDX 51 34 52 35 63 37 81 38 54 39 41 40 42 41 47 42 43 43 44 44
REMARK SMILES IDX 46 45 48 46 45 47 67 48 68 49 73 50 69 51 70 52 72 53 74 54
REMARK SMILES IDX 71 55 55 56 56 57 61 58 57 59 58 60 60 61 62 62 59 63 8 64
REMARK SMILES IDX 9 65 10 66 11 67 12 68 13 69 17 70 14 71 16 72 15 73 18 74
REMARK SMILES IDX 19 75 20 76 24 77 21 79 23 80 22 81 25 82 26 83 27 84 28 85
REMARK SMILES IDX 31 86 29 87 30 88
REMARK H PARENT 79 25 53 36 19 78
REMARK Flexibility Score: inf
ROOT
ATOM      1  C   UNL A   1      35.781  23.186  25.921  1.00  0.00     0.202 C 
ENDROOT
BRANCH   1   2
ATOM      2  O   UNL A   1      36.860  22.253  25.755  1.00  0.00    -0.374 OA
BRANCH   2   3
ATOM      3  C   UNL A   1      38.201  22.674  26.012  1.00  0.00     0.202 C 
BRANCH   3   4
ATOM      4  C   UNL A   1      38.511  24.078  26.544  1.00  0.00     0.261 C 
BRANCH   4   5
ATOM      5  O   UNL A   1      39.378  24.054  27.692  1.00  0.00    -0.460 OA
BRANCH   5   6
ATOM      6  C   UNL A   1      40.135  25.093  28.101  1.00  0.00     0.338 C 
ATOM      7  O   UNL A   1      41.342  25.115  27.879  1.00  0.00    -0.246 OA
BRANCH   6   8
ATOM      8  C   UNL A   1      39.462  26.309  28.624  1.00  0.00     0.060 A 
ATOM      9  C   UNL A   1      39.128  27.426  27.855  1.00  0.00     0.016 A 
ATOM     10  C   UNL A   1      39.279  26.348  30.009  1.00  0.00     0.016 A 
ATOM     11  C   UNL A   1      39.021  28.652  28.440  1.00  0.00     0.010 A 
ATOM     12  C   UNL A   1      39.060  27.560  30.616  1.00  0.00     0.010 A 
ATOM     13  C   UNL A   1      39.092  28.699  29.817  1.00  0.00    -0.014 A 
BRANCH  13  14
ATOM     14  C   UNL A   1      39.173  30.010  30.402  1.00  0.00     0.031 A 
ATOM     15  C   UNL A   1      40.543  30.582  30.353  1.00  0.00     0.074 A 
ATOM     16  C   UNL A   1      38.022  30.547  30.849  1.00  0.00     0.049 A 
ATOM     17  N   UNL A   1      41.245  31.082  31.317  1.00  0.00    -0.248 NA
ATOM     18  C   UNL A   1      41.306  30.393  29.101  1.00  0.00     0.031 C 
ATOM     19  C   UNL A   1      36.663  29.991  30.752  1.00  0.00     0.029 A 
ATOM     20  N   UNL A   1      37.807  31.789  31.343  1.00  0.00    -0.354 N 
ATOM     21  C   UNL A   1      42.442  31.486  30.730  1.00  0.00     0.074 A 
ATOM     22  C   UNL A   1      42.502  30.872  29.434  1.00  0.00     0.031 C 
ATOM     23  C   UNL A   1      35.764  30.986  30.895  1.00  0.00     0.029 A 
ATOM     24  C   UNL A   1      36.478  32.198  31.230  1.00  0.00     0.049 A 
ATOM     25  H   UNL A   1      38.515  32.346  31.741  1.00  0.00     0.167 HD
ATOM     26  C   UNL A   1      43.142  32.536  31.233  1.00  0.00     0.037 A 
ATOM     27  C   UNL A   1      36.089  33.495  31.252  1.00  0.00     0.037 A 
ATOM     28  C   UNL A   1      42.866  32.719  32.633  1.00  0.00     0.049 A 
ATOM     29  C   UNL A   1      37.204  34.255  31.889  1.00  0.00     0.074 A 
ATOM     30  C   UNL A   1      43.068  31.943  33.757  1.00  0.00     0.029 A 
ATOM     31  N   UNL A   1      41.932  33.661  32.989  1.00  0.00    -0.354 N 
ATOM     32  N   UNL A   1      37.568  34.076  33.134  1.00  0.00    -0.248 NA
ATOM     33  C   UNL A   1      38.239  34.782  31.005  1.00  0.00     0.031 C 
ATOM     34  C   UNL A   1      41.903  32.141  34.554  1.00  0.00     0.029 A 
ATOM     35  C   UNL A   1      41.098  33.083  33.913  1.00  0.00     0.049 A 
ATOM     36  H   UNL A   1      41.872  34.581  32.645  1.00  0.00     0.167 HD
ATOM     37  C   UNL A   1      38.958  34.077  33.105  1.00  0.00     0.074 A 
ATOM     38  C   UNL A   1      39.312  34.555  31.768  1.00  0.00     0.031 C 
ATOM     39  C   UNL A   1      39.697  33.414  34.045  1.00  0.00     0.037 A 
BRANCH  26  40
ATOM     40  C   UNL A   1      43.699  33.628  30.353  1.00  0.00     0.057 A 
ATOM     41  C   UNL A   1      45.042  34.006  30.506  1.00  0.00     0.134 A 
ATOM     42  C   UNL A   1      42.907  34.523  29.599  1.00  0.00     0.134 A 
ATOM     43  F   UNL A   1      45.897  33.240  31.201  1.00  0.00    -0.206 F 
ATOM     44  C   UNL A   1      45.536  35.224  30.022  1.00  0.00     0.040 A 
ATOM     45  C   UNL A   1      43.401  35.718  29.075  1.00  0.00     0.040 A 
ATOM     46  F   UNL A   1      41.595  34.349  29.408  1.00  0.00    -0.206 F 
ATOM     47  C   UNL A   1      44.710  36.090  29.317  1.00  0.00     0.006 A 
ENDBRANCH  26  40
BRANCH  27  48
ATOM     48  C   UNL A   1      35.072  34.107  30.368  1.00  0.00     0.057 A 
ATOM     49  C   UNL A   1      33.994  34.830  30.889  1.00  0.00     0.134 A 
ATOM     50  C   UNL A   1      35.256  34.194  28.973  1.00  0.00     0.134 A 
ATOM     51  F   UNL A   1      33.769  34.851  32.211  1.00  0.00    -0.206 F 
ATOM     52  C   UNL A   1      33.146  35.593  30.072  1.00  0.00     0.040 A 
ATOM     53  C   UNL A   1      34.413  34.943  28.147  1.00  0.00     0.040 A 
ATOM     54  F   UNL A   1      36.309  33.621  28.373  1.00  0.00    -0.206 F 
ATOM     55  C   UNL A   1      33.357  35.654  28.698  1.00  0.00     0.006 A 
ENDBRANCH  27  48
BRANCH  39  56
ATOM     56  C   UNL A   1      38.966  32.781  35.200  1.00  0.00     0.057 A 
ATOM     57  C   UNL A   1      38.600  31.424  35.242  1.00  0.00     0.134 A 
ATOM     58  C   UNL A   1      38.800  33.510  36.380  1.00  0.00     0.134 A 
ATOM     59  F   UNL A   1      38.824  30.617  34.201  1.00  0.00    -0.206 F 
ATOM     60  C   UNL A   1      38.059  30.834  36.389  1.00  0.00     0.040 A 
ATOM     61  C   UNL A   1      38.291  32.926  37.543  1.00  0.00     0.040 A 
ATOM     62  F   UNL A   1      39.192  34.792  36.440  1.00  0.00    -0.206 F 
ATOM     63  C   UNL A   1      37.911  31.586  37.549  1.00  0.00     0.006 A 
ENDBRANCH  39  56
ENDBRANCH  13  14
ENDBRANCH   6   8
ENDBRANCH   5   6
ENDBRANCH   4   5
ENDBRANCH   3   4
ENDBRANCH   2   3
ENDBRANCH   1   2
BRANCH   1  64
ATOM     64  C   UNL A   1      34.724  22.956  27.004  1.00  0.00     0.261 C 
BRANCH  64  65
ATOM     65  O   UNL A   1      33.552  23.737  26.773  1.00  0.00    -0.460 OA
BRANCH  65  66
ATOM     66  C   UNL A   1      32.387  23.059  26.654  1.00  0.00     0.338 C 
ATOM     67  O   UNL A   1      31.496  22.982  27.489  1.00  0.00    -0.246 OA
BRANCH  66  68
ATOM     68  C   UNL A   1      32.248  22.609  25.246  1.00  0.00     0.068 A 
ATOM     69  C   UNL A   1      32.615  21.278  24.974  1.00  0.00     0.016 A 
ATOM     70  C   UNL A   1      31.760  23.443  24.226  1.00  0.00     0.021 A 
ATOM     71  C   UNL A   1      32.483  20.755  23.692  1.00  0.00     0.001 A 
ATOM     72  C   UNL A   1      31.626  22.887  22.943  1.00  0.00     0.010 A 
ATOM     73  C   UNL A   1      31.991  21.565  22.675  1.00  0.00     0.001 A 
BRANCH  70  74
ATOM     74  C   UNL A   1      31.479  24.922  24.435  1.00  0.00     0.300 C 
BRANCH  74  75
ATOM     75  N   UNL A   1      32.531  25.849  23.950  1.00  0.00    -0.329 N 
ATOM     76  C   UNL A   1      32.412  26.050  22.493  1.00  0.00     0.262 C 
ATOM     77  C   UNL A   1      32.616  27.121  24.704  1.00  0.00     0.186 C 
ATOM     78  H   UNL A   1      33.426  25.396  24.135  1.00  0.00     0.348 HD
ATOM     79  C   UNL A   1      33.492  26.925  21.883  1.00  0.00     0.062 C 
ATOM     80  C   UNL A   1      33.739  28.003  24.108  1.00  0.00     0.065 C 
ATOM     81  C   UNL A   1      33.552  28.251  22.616  1.00  0.00     0.012 C 
BRANCH  77  82
ATOM     82  C   UNL A   1      32.907  26.869  26.210  1.00  0.00     0.088 C 
BRANCH  82  83
ATOM     83  C   UNL A   1      32.350  27.918  27.174  1.00  0.00     0.150 C 
BRANCH  83  84
ATOM     84  N   UNL A   1      33.205  29.083  27.311  1.00  0.00    -0.273 N 
ATOM     85  C   UNL A   1      34.559  29.089  27.477  1.00  0.00     0.108 A 
ATOM     86  N   UNL A   1      32.671  30.319  27.261  1.00  0.00    -0.182 NA
ATOM     87  C   UNL A   1      34.935  30.412  27.486  1.00  0.00     0.042 A 
ATOM     88  C   UNL A   1      33.731  31.126  27.352  1.00  0.00     0.135 A 
ENDBRANCH  83  84
ENDBRANCH  82  83
ENDBRANCH  77  82
ENDBRANCH  74  75
ENDBRANCH  70  74
ENDBRANCH  66  68
ENDBRANCH  65  66
ENDBRANCH  64  65
ENDBRANCH   1  64
TORSDOF 19
ENDMDL
MODEL 2
REMARK VINA RESULT:     -10.8      5.328     10.168
REMARK SMILES O=C(OCCOCCOC(=O)c1ccccc1C[N@H+]1CCCC[C@@H]1CCn1cccn1)c1ccc(-c2c3nc(c(-c4c(F)cccc4F)c4ccc([nH]4)c(-c4c(F)cccc4F)c4nc(c(-c5c(F)cccc5F)c5ccc2[nH]5)C=C4)C=C3)cc1
REMARK SMILES IDX 7 1 6 2 5 3 4 4 3 5 2 6 1 7 32 8 33 9 85 10 34 11 84 12
REMARK SMILES IDX 35 13 36 14 37 15 78 16 38 17 83 18 77 19 79 20 39 21 82 22
REMARK SMILES IDX 76 23 75 24 40 26 66 27 49 28 65 29 50 30 53 31 64 32 80 33
REMARK SMILES IDX 51 34 52 35 63 37 81 38 54 39 41 40 42 41 47 42 43 43 44 44
REMARK SMILES IDX 46 45 48 46 45 47 67 48 68 49 73 50 69 51 70 52 72 53 74 54
REMARK SMILES IDX 71 55 55 56 56 57 61 58 57 59 58 60 60 61 62 62 59 63 8 64
REMARK SMILES IDX 9 65 10 66 11 67 12 68 13 69 17 70 14 71 16 72 15 73 18 74
REMARK SMILES IDX 19 75 20 76 24 77 21 79 23 80 22 81 25 82 26 83 27 84 28 85
REMARK SMILES IDX 31 86 29 87 30 88
REMARK H PARENT 79 25 53 36 19 78
REMARK Flexibility Score: inf
ROOT
ATOM      1  C   UNL A   1      33.996  31.472  27.782  1.00  0.00     0.202 C 
ENDROOT
BRANCH   1   2
ATOM      2  O   UNL A   1      35.071  32.406  27.596  1.00  0.00    -0.374 OA
BRANCH   2   3
ATOM      3  C   UNL A   1      35.722  32.967  28.737  1.00  0.00     0.202 C 
BRANCH   3   4
ATOM      4  C   UNL A   1      37.051  32.407  29.257  1.00  0.00     0.261 C 
BRANCH   4   5
ATOM      5  O   UNL A   1      37.555  31.336  28.438  1.00  0.00    -0.460 OA
BRANCH   5   6
ATOM      6  C   UNL A   1      37.513  30.030  28.774  1.00  0.00     0.338 C 
ATOM      7  O   UNL A   1      36.553  29.571  29.387  1.00  0.00    -0.246 OA
BRANCH   6   8
ATOM      8  C   UNL A   1      38.528  29.109  28.204  1.00  0.00     0.060 A 
ATOM      9  C   UNL A   1      38.524  27.721  28.364  1.00  0.00     0.016 A 
ATOM     10  C   UNL A   1      39.614  29.724  27.574  1.00  0.00     0.016 A 
ATOM     11  C   UNL A   1      39.691  27.020  28.297  1.00  0.00     0.010 A 
ATOM     12  C   UNL A   1      40.770  29.008  27.393  1.00  0.00     0.010 A 
ATOM     13  C   UNL A   1      40.817  27.714  27.906  1.00  0.00    -0.014 A 
BRANCH  13  14
ATOM     14  C   UNL A   1      42.066  27.012  28.027  1.00  0.00     0.031 A 
ATOM     15  C   UNL A   1      42.812  27.367  29.262  1.00  0.00     0.074 A 
ATOM     16  C   UNL A   1      42.355  26.117  27.064  1.00  0.00     0.049 A 
ATOM     17  N   UNL A   1      44.038  27.754  29.382  1.00  0.00    -0.248 NA
ATOM     18  C   UNL A   1      42.025  27.493  30.509  1.00  0.00     0.031 C 
ATOM     19  C   UNL A   1      41.517  25.704  25.927  1.00  0.00     0.029 A 
ATOM     20  N   UNL A   1      43.402  25.262  26.994  1.00  0.00    -0.354 N 
ATOM     21  C   UNL A   1      44.235  27.937  30.750  1.00  0.00     0.074 A 
ATOM     22  C   UNL A   1      42.937  27.953  31.362  1.00  0.00     0.031 C 
ATOM     23  C   UNL A   1      41.942  24.508  25.471  1.00  0.00     0.029 A 
ATOM     24  C   UNL A   1      43.150  24.154  26.185  1.00  0.00     0.049 A 
ATOM     25  H   UNL A   1      44.254  25.406  27.466  1.00  0.00     0.167 HD
ATOM     26  C   UNL A   1      45.461  27.754  31.306  1.00  0.00     0.037 A 
ATOM     27  C   UNL A   1      43.831  22.988  26.276  1.00  0.00     0.037 A 
ATOM     28  C   UNL A   1      46.505  27.967  30.338  1.00  0.00     0.049 A 
ATOM     29  C   UNL A   1      45.109  23.305  26.978  1.00  0.00     0.074 A 
ATOM     30  C   UNL A   1      46.915  29.058  29.598  1.00  0.00     0.029 A 
ATOM     31  N   UNL A   1      47.042  26.867  29.716  1.00  0.00    -0.354 N 
ATOM     32  N   UNL A   1      46.022  24.096  26.472  1.00  0.00    -0.248 NA
ATOM     33  C   UNL A   1      45.114  23.197  28.433  1.00  0.00     0.031 C 
ATOM     34  C   UNL A   1      47.248  28.529  28.317  1.00  0.00     0.029 A 
ATOM     35  C   UNL A   1      47.100  27.142  28.372  1.00  0.00     0.049 A 
ATOM     36  H   UNL A   1      47.333  26.034  30.153  1.00  0.00     0.167 HD
ATOM     37  C   UNL A   1      46.440  24.888  27.536  1.00  0.00     0.074 A 
ATOM     38  C   UNL A   1      45.870  24.259  28.727  1.00  0.00     0.031 C 
ATOM     39  C   UNL A   1      46.955  26.139  27.342  1.00  0.00     0.037 A 
BRANCH  26  40
ATOM     40  C   UNL A   1      45.661  26.958  32.571  1.00  0.00     0.057 A 
ATOM     41  C   UNL A   1      45.151  25.652  32.642  1.00  0.00     0.134 A 
ATOM     42  C   UNL A   1      46.047  27.519  33.810  1.00  0.00     0.134 A 
ATOM     43  F   UNL A   1      44.749  25.010  31.535  1.00  0.00    -0.206 F 
ATOM     44  C   UNL A   1      44.956  24.991  33.861  1.00  0.00     0.040 A 
ATOM     45  C   UNL A   1      45.898  26.850  35.026  1.00  0.00     0.040 A 
ATOM     46  F   UNL A   1      46.495  28.773  33.933  1.00  0.00    -0.206 F 
ATOM     47  C   UNL A   1      45.316  25.596  35.058  1.00  0.00     0.006 A 
ENDBRANCH  26  40
BRANCH  27  48
ATOM     48  C   UNL A   1      43.239  21.634  26.212  1.00  0.00     0.057 A 
ATOM     49  C   UNL A   1      43.792  20.634  25.405  1.00  0.00     0.134 A 
ATOM     50  C   UNL A   1      42.246  21.214  27.120  1.00  0.00     0.134 A 
ATOM     51  F   UNL A   1      44.781  20.927  24.547  1.00  0.00    -0.206 F 
ATOM     52  C   UNL A   1      43.381  19.295  25.492  1.00  0.00     0.040 A 
ATOM     53  C   UNL A   1      41.820  19.886  27.210  1.00  0.00     0.040 A 
ATOM     54  F   UNL A   1      41.711  22.064  28.008  1.00  0.00    -0.206 F 
ATOM     55  C   UNL A   1      42.395  18.917  26.400  1.00  0.00     0.006 A 
ENDBRANCH  27  48
BRANCH  39  56
ATOM     56  C   UNL A   1      47.180  26.599  25.925  1.00  0.00     0.057 A 
ATOM     57  C   UNL A   1      46.270  27.396  25.209  1.00  0.00     0.134 A 
ATOM     58  C   UNL A   1      48.430  26.396  25.336  1.00  0.00     0.134 A 
ATOM     59  F   UNL A   1      45.091  27.740  25.738  1.00  0.00    -0.206 F 
ATOM     60  C   UNL A   1      46.575  27.931  23.953  1.00  0.00     0.040 A 
ATOM     61  C   UNL A   1      48.761  26.951  24.097  1.00  0.00     0.040 A 
ATOM     62  F   UNL A   1      49.377  25.705  25.989  1.00  0.00    -0.206 F 
ATOM     63  C   UNL A   1      47.830  27.715  23.397  1.00  0.00     0.006 A 
ENDBRANCH  39  56
ENDBRANCH  13  14
ENDBRANCH   6   8
ENDBRANCH   5   6
ENDBRANCH   4   5
ENDBRANCH   3   4
ENDBRANCH   2   3
ENDBRANCH   1   2
BRANCH   1  64
ATOM     64  C   UNL A   1      33.974  30.157  26.998  1.00  0.00     0.261 C 
BRANCH  64  65
ATOM     65  O   UNL A   1      32.854  30.085  26.117  1.00  0.00    -0.460 OA
BRANCH  65  66
ATOM     66  C   UNL A   1      32.027  29.028  26.275  1.00  0.00     0.338 C 
ATOM     67  O   UNL A   1      31.514  28.649  27.320  1.00  0.00    -0.246 OA
BRANCH  66  68
ATOM     68  C   UNL A   1      31.641  28.527  24.932  1.00  0.00     0.068 A 
ATOM     69  C   UNL A   1      30.692  29.291  24.228  1.00  0.00     0.016 A 
ATOM     70  C   UNL A   1      32.194  27.366  24.366  1.00  0.00     0.021 A 
ATOM     71  C   UNL A   1      30.297  28.921  22.946  1.00  0.00     0.001 A 
ATOM     72  C   UNL A   1      31.787  27.022  23.067  1.00  0.00     0.010 A 
ATOM     73  C   UNL A   1      30.843  27.782  22.368  1.00  0.00     0.001 A 
BRANCH  70  74
ATOM     74  C   UNL A   1      33.116  26.434  25.134  1.00  0.00     0.300 C 
BRANCH  74  75
ATOM     75  N   UNL A   1      32.449  25.325  25.858  1.00  0.00    -0.329 N 
ATOM     76  C   UNL A   1      30.989  25.375  25.650  1.00  0.00     0.262 C 
ATOM     77  C   UNL A   1      33.025  23.987  25.590  1.00  0.00     0.186 C 
ATOM     78  H   UNL A   1      32.633  25.474  26.851  1.00  0.00     0.348 HD
ATOM     79  C   UNL A   1      30.203  24.325  26.414  1.00  0.00     0.062 C 
ATOM     80  C   UNL A   1      32.249  22.918  26.393  1.00  0.00     0.065 C 
ATOM     81  C   UNL A   1      30.753  22.947  26.106  1.00  0.00     0.012 C 
BRANCH  77  82
ATOM     82  C   UNL A   1      34.529  23.931  25.979  1.00  0.00     0.088 C 
BRANCH  82  83
ATOM     83  C   UNL A   1      35.283  22.681  25.520  1.00  0.00     0.150 C 
BRANCH  83  84
ATOM     84  N   UNL A   1      36.710  22.745  25.775  1.00  0.00    -0.273 N 
ATOM     85  C   UNL A   1      37.412  23.821  26.237  1.00  0.00     0.108 A 
ATOM     86  N   UNL A   1      37.480  21.658  25.572  1.00  0.00    -0.182 NA
ATOM     87  C   UNL A   1      38.709  23.391  26.389  1.00  0.00     0.042 A 
ATOM     88  C   UNL A   1      38.694  22.052  25.963  1.00  0.00     0.135 A 
ENDBRANCH  83  84
ENDBRANCH  82  83
ENDBRANCH  77  82
ENDBRANCH  74  75
ENDBRANCH  70  74
ENDBRANCH  66  68
ENDBRANCH  65  66
ENDBRANCH  64  65
ENDBRANCH   1  64
TORSDOF 19
ENDMDL
MODEL 3
REMARK VINA RESULT:     -10.8      5.085      9.931
REMARK SMILES O=C(OCCOCCOC(=O)c1ccccc1C[N@H+]1CCCC[C@@H]1CCn1cccn1)c1ccc(-c2c3nc(c(-c4c(F)cccc4F)c4ccc([nH]4)c(-c4c(F)cccc4F)c4nc(c(-c5c(F)cccc5F)c5ccc2[nH]5)C=C4)C=C3)cc1
REMARK SMILES IDX 7 1 6 2 5 3 4 4 3 5 2 6 1 7 32 8 33 9 85 10 34 11 84 12
REMARK SMILES IDX 35 13 36 14 37 15 78 16 38 17 83 18 77 19 79 20 39 21 82 22
REMARK SMILES IDX 76 23 75 24 40 26 66 27 49 28 65 29 50 30 53 31 64 32 80 33
REMARK SMILES IDX 51 34 52 35 63 37 81 38 54 39 41 40 42 41 47 42 43 43 44 44
REMARK SMILES IDX 46 45 48 46 45 47 67 48 68 49 73 50 69 51 70 52 72 53 74 54
REMARK SMILES IDX 71 55 55 56 56 57 61 58 57 59 58 60 60 61 62 62 59 63 8 64
REMARK SMILES IDX 9 65 10 66 11 67 12 68 13 69 17 70 14 71 16 72 15 73 18 74
REMARK SMILES IDX 19 75 20 76 24 77 21 79 23 80 22 81 25 82 26 83 27 84 28 85
REMARK SMILES IDX 31 86 29 87 30 88
REMARK H PARENT 79 25 53 36 19 78
REMARK Flexibility Score: inf
ROOT
ATOM      1  C   UNL A   1      31.602  28.279  27.490  1.00  0.00     0.202 C 
ENDROOT
BRANCH   1   2
ATOM      2  O   UNL A   1      32.956  28.588  27.853  1.00  0.00    -0.374 OA
BRANCH   2   3
ATOM      3  C   UNL A   1      33.623  29.683  27.223  1.00  0.00     0.202 C 
BRANCH   3   4
ATOM      4  C   UNL A   1      35.145  29.693  27.039  1.00  0.00     0.261 C 
BRANCH   4   5
ATOM      5  O   UNL A   1      35.847  29.986  28.261  1.00  0.00    -0.460 OA
BRANCH   5   6
ATOM      6  C   UNL A   1      37.159  30.291  28.335  1.00  0.00     0.338 C 
ATOM      7  O   UNL A   1      37.531  31.337  28.858  1.00  0.00    -0.246 OA
BRANCH   6   8
ATOM      8  C   UNL A   1      38.158  29.251  27.980  1.00  0.00     0.060 A 
ATOM      9  C   UNL A   1      38.121  27.927  28.423  1.00  0.00     0.016 A 
ATOM     10  C   UNL A   1      39.263  29.702  27.251  1.00  0.00     0.016 A 
ATOM     11  C   UNL A   1      39.272  27.204  28.516  1.00  0.00     0.010 A 
ATOM     12  C   UNL A   1      40.404  28.940  27.237  1.00  0.00     0.010 A 
ATOM     13  C   UNL A   1      40.418  27.779  28.006  1.00  0.00    -0.014 A 
BRANCH  13  14
ATOM     14  C   UNL A   1      41.650  27.092  28.285  1.00  0.00     0.031 A 
ATOM     15  C   UNL A   1      42.253  27.492  29.582  1.00  0.00     0.074 A 
ATOM     16  C   UNL A   1      42.046  26.169  27.390  1.00  0.00     0.049 A 
ATOM     17  N   UNL A   1      43.458  27.893  29.823  1.00  0.00    -0.248 NA
ATOM     18  C   UNL A   1      41.335  27.651  30.731  1.00  0.00     0.031 C 
ATOM     19  C   UNL A   1      41.339  25.713  26.182  1.00  0.00     0.029 A 
ATOM     20  N   UNL A   1      43.099  25.321  27.462  1.00  0.00    -0.354 N 
ATOM     21  C   UNL A   1      43.503  28.121  31.197  1.00  0.00     0.074 A 
ATOM     22  C   UNL A   1      42.145  28.145  31.663  1.00  0.00     0.031 C 
ATOM     23  C   UNL A   1      41.818  24.507  25.814  1.00  0.00     0.029 A 
ATOM     24  C   UNL A   1      42.942  24.186  26.667  1.00  0.00     0.049 A 
ATOM     25  H   UNL A   1      43.893  25.487  28.020  1.00  0.00     0.167 HD
ATOM     26  C   UNL A   1      44.661  27.966  31.889  1.00  0.00     0.037 A 
ATOM     27  C   UNL A   1      43.615  23.029  26.869  1.00  0.00     0.037 A 
ATOM     28  C   UNL A   1      45.804  28.157  31.035  1.00  0.00     0.049 A 
ATOM     29  C   UNL A   1      44.807  23.379  27.696  1.00  0.00     0.074 A 
ATOM     30  C   UNL A   1      46.287  29.227  30.308  1.00  0.00     0.029 A 
ATOM     31  N   UNL A   1      46.411  27.042  30.511  1.00  0.00    -0.354 N 
ATOM     32  N   UNL A   1      45.765  24.161  27.267  1.00  0.00    -0.248 NA
ATOM     33  C   UNL A   1      44.653  23.317  29.146  1.00  0.00     0.031 C 
ATOM     34  C   UNL A   1      46.761  28.660  29.090  1.00  0.00     0.029 A 
ATOM     35  C   UNL A   1      46.615  27.275  29.174  1.00  0.00     0.049 A 
ATOM     36  H   UNL A   1      46.656  26.226  31.004  1.00  0.00     0.167 HD
ATOM     37  C   UNL A   1      46.061  24.990  28.344  1.00  0.00     0.074 A 
ATOM     38  C   UNL A   1      45.367  24.394  29.486  1.00  0.00     0.031 C 
ATOM     39  C   UNL A   1      46.588  26.238  28.167  1.00  0.00     0.037 A 
BRANCH  26  40
ATOM     40  C   UNL A   1      44.726  27.213  33.194  1.00  0.00     0.057 A 
ATOM     41  C   UNL A   1      44.307  25.873  33.228  1.00  0.00     0.134 A 
ATOM     42  C   UNL A   1      44.879  27.825  34.459  1.00  0.00     0.134 A 
ATOM     43  F   UNL A   1      44.123  25.181  32.094  1.00  0.00    -0.206 F 
ATOM     44  C   UNL A   1      43.978  25.223  34.424  1.00  0.00     0.040 A 
ATOM     45  C   UNL A   1      44.598  27.171  35.659  1.00  0.00     0.040 A 
ATOM     46  F   UNL A   1      45.212  29.112  34.608  1.00  0.00    -0.206 F 
ATOM     47  C   UNL A   1      44.110  25.877  35.643  1.00  0.00     0.006 A 
ENDBRANCH  26  40
BRANCH  27  48
ATOM     48  C   UNL A   1      43.039  21.668  26.785  1.00  0.00     0.057 A 
ATOM     49  C   UNL A   1      41.903  21.311  27.518  1.00  0.00     0.134 A 
ATOM     50  C   UNL A   1      43.455  20.745  25.804  1.00  0.00     0.134 A 
ATOM     51  F   UNL A   1      41.400  22.148  28.438  1.00  0.00    -0.206 F 
ATOM     52  C   UNL A   1      41.221  20.106  27.292  1.00  0.00     0.040 A 
ATOM     53  C   UNL A   1      42.791  19.537  25.575  1.00  0.00     0.040 A 
ATOM     54  F   UNL A   1      44.474  21.021  24.977  1.00  0.00    -0.206 F 
ATOM     55  C   UNL A   1      41.661  19.217  26.316  1.00  0.00     0.006 A 
ENDBRANCH  27  48
BRANCH  39  56
ATOM     56  C   UNL A   1      46.964  26.654  26.769  1.00  0.00     0.057 A 
ATOM     57  C   UNL A   1      48.145  26.246  26.124  1.00  0.00     0.134 A 
ATOM     58  C   UNL A   1      46.023  27.323  25.984  1.00  0.00     0.134 A 
ATOM     59  F   UNL A   1      49.056  25.503  26.760  1.00  0.00    -0.206 F 
ATOM     60  C   UNL A   1      48.392  26.524  24.775  1.00  0.00     0.040 A 
ATOM     61  C   UNL A   1      46.242  27.581  24.627  1.00  0.00     0.040 A 
ATOM     62  F   UNL A   1      44.842  27.683  26.509  1.00  0.00    -0.206 F 
ATOM     63  C   UNL A   1      47.433  27.188  24.020  1.00  0.00     0.006 A 
ENDBRANCH  39  56
ENDBRANCH  13  14
ENDBRANCH   6   8
ENDBRANCH   5   6
ENDBRANCH   4   5
ENDBRANCH   3   4
ENDBRANCH   2   3
ENDBRANCH   1   2
BRANCH   1  64
ATOM     64  C   UNL A   1      31.312  27.184  26.459  1.00  0.00     0.261 C 
BRANCH  64  65
ATOM     65  O   UNL A   1      31.746  25.903  26.913  1.00  0.00    -0.460 OA
BRANCH  65  66
ATOM     66  C   UNL A   1      31.242  24.829  26.264  1.00  0.00     0.338 C 
ATOM     67  O   UNL A   1      30.308  24.125  26.627  1.00  0.00    -0.246 OA
BRANCH  66  68
ATOM     68  C   UNL A   1      31.848  24.770  24.910  1.00  0.00     0.068 A 
ATOM     69  C   UNL A   1      31.049  25.228  23.846  1.00  0.00     0.016 A 
ATOM     70  C   UNL A   1      33.154  24.304  24.681  1.00  0.00     0.021 A 
ATOM     71  C   UNL A   1      31.545  25.247  22.546  1.00  0.00     0.001 A 
ATOM     72  C   UNL A   1      33.633  24.344  23.362  1.00  0.00     0.010 A 
ATOM     73  C   UNL A   1      32.838  24.800  22.305  1.00  0.00     0.001 A 
BRANCH  70  74
ATOM     74  C   UNL A   1      34.006  23.674  25.769  1.00  0.00     0.300 C 
BRANCH  74  75
ATOM     75  N   UNL A   1      35.281  23.067  25.315  1.00  0.00    -0.329 N 
ATOM     76  C   UNL A   1      36.430  23.738  25.952  1.00  0.00     0.262 C 
ATOM     77  C   UNL A   1      35.331  21.592  25.439  1.00  0.00     0.186 C 
ATOM     78  H   UNL A   1      35.337  23.228  24.309  1.00  0.00     0.348 HD
ATOM     79  C   UNL A   1      37.789  23.240  25.494  1.00  0.00     0.062 C 
ATOM     80  C   UNL A   1      36.702  21.077  24.940  1.00  0.00     0.065 C 
ATOM     81  C   UNL A   1      37.869  21.736  25.665  1.00  0.00     0.012 C 
BRANCH  77  82
ATOM     82  C   UNL A   1      34.199  20.915  24.616  1.00  0.00     0.088 C 
BRANCH  82  83
ATOM     83  C   UNL A   1      33.188  20.104  25.428  1.00  0.00     0.150 C 
BRANCH  83  84
ATOM     84  N   UNL A   1      33.244  18.679  25.155  1.00  0.00    -0.273 N 
ATOM     85  C   UNL A   1      34.088  18.044  24.291  1.00  0.00     0.108 A 
ATOM     86  N   UNL A   1      32.415  17.836  25.802  1.00  0.00    -0.182 NA
ATOM     87  C   UNL A   1      33.823  16.700  24.420  1.00  0.00     0.042 A 
ATOM     88  C   UNL A   1      32.783  16.630  25.363  1.00  0.00     0.135 A 
ENDBRANCH  83  84
ENDBRANCH  82  83
ENDBRANCH  77  82
ENDBRANCH  74  75
ENDBRANCH  70  74
ENDBRANCH  66  68
ENDBRANCH  65  66
ENDBRANCH  64  65
ENDBRANCH   1  64
TORSDOF 19
ENDMDL
