MODEL 1
REMARK VINA RESULT:      -9.5      0.000      0.000
REMARK SMILES C[C@@H]1CC[N@@H+]1[C@@H](CO)C(=O)OCCOCCOC(=O)c1ccc(-c2c3nc(c(-c4c(F)cccc4F)c4ccc([nH]4)c(-c4c(F)cccc4F)c4nc(c(-c5c(F)cccc5F)c5ccc2[nH]5)C=C4)C=C3)cc1
REMARK SMILES IDX 14 1 13 2 12 3 11 4 9 5 10 6 6 7 5 8 1 9 2 10 3 11 4 12 7 14
REMARK SMILES IDX 8 15 15 17 16 18 17 19 18 20 19 21 20 22 21 23 73 24 22 25
REMARK SMILES IDX 72 26 23 27 24 28 25 29 66 30 26 31 71 32 65 33 67 34 27 35
REMARK SMILES IDX 70 36 64 37 63 38 28 40 54 41 37 42 53 43 38 44 41 45 52 46
REMARK SMILES IDX 68 47 39 48 40 49 51 51 69 52 42 53 29 54 30 55 35 56 31 57
REMARK SMILES IDX 32 58 34 59 36 60 33 61 55 62 56 63 61 64 57 65 58 66 60 67
REMARK SMILES IDX 62 68 59 69 43 70 44 71 49 72 45 73 46 74 48 75 50 76 47 77
REMARK H PARENT 5 13 8 16 67 39 41 50
REMARK Flexibility Score: inf
ROOT
ATOM      1  O   UNL A   1      34.053  35.267  29.995  1.00  0.00    -0.374 OA
ENDROOT
BRANCH   1   2
ATOM      2  C   UNL A   1      33.417  34.466  29.002  1.00  0.00     0.202 C 
BRANCH   2   3
ATOM      3  C   UNL A   1      34.255  33.327  28.414  1.00  0.00     0.261 C 
BRANCH   3   4
ATOM      4  O   UNL A   1      33.445  32.392  27.677  1.00  0.00    -0.459 OA
BRANCH   4   5
ATOM      5  C   UNL A   1      33.848  31.090  27.717  1.00  0.00     0.367 C 
ATOM      6  O   UNL A   1      34.851  30.695  28.304  1.00  0.00    -0.245 OA
BRANCH   5   7
ATOM      7  C   UNL A   1      32.965  30.157  26.876  1.00  0.00     0.321 C 
BRANCH   7   8
ATOM      8  N   UNL A   1      32.927  28.782  27.440  1.00  0.00    -0.319 N 
ATOM      9  C   UNL A   1      33.857  27.871  25.189  1.00  0.00     0.075 C 
ATOM     10  C   UNL A   1      33.104  27.649  26.488  1.00  0.00     0.187 C 
ATOM     11  C   UNL A   1      31.568  27.499  26.430  1.00  0.00     0.126 C 
ATOM     12  C   UNL A   1      31.576  28.267  27.763  1.00  0.00     0.269 C 
ATOM     13  H   UNL A   1      33.623  28.949  28.167  1.00  0.00     0.349 HD
ENDBRANCH   7   8
BRANCH   7  14
ATOM     14  C   UNL A   1      31.706  30.953  26.481  1.00  0.00     0.233 C 
BRANCH  14  15
ATOM     15  O   UNL A   1      31.206  30.677  25.175  1.00  0.00    -0.390 OA
ATOM     16  H   UNL A   1      30.891  31.500  24.769  1.00  0.00     0.210 HD
ENDBRANCH  14  15
ENDBRANCH   7  14
ENDBRANCH   5   7
ENDBRANCH   4   5
ENDBRANCH   3   4
ENDBRANCH   2   3
ENDBRANCH   1   2
BRANCH   1  17
ATOM     17  C   UNL A   1      33.814  34.926  31.361  1.00  0.00     0.202 C 
BRANCH  17  18
ATOM     18  C   UNL A   1      35.020  34.400  32.148  1.00  0.00     0.261 C 
BRANCH  18  19
ATOM     19  O   UNL A   1      35.149  32.968  32.058  1.00  0.00    -0.460 OA
BRANCH  19  20
ATOM     20  C   UNL A   1      36.083  32.426  32.871  1.00  0.00     0.338 C 
ATOM     21  O   UNL A   1      36.105  32.443  34.096  1.00  0.00    -0.246 OA
BRANCH  20  22
ATOM     22  C   UNL A   1      37.040  31.628  32.083  1.00  0.00     0.060 A 
ATOM     23  C   UNL A   1      38.037  30.937  32.783  1.00  0.00     0.016 A 
ATOM     24  C   UNL A   1      37.019  31.621  30.687  1.00  0.00     0.016 A 
ATOM     25  C   UNL A   1      39.048  30.277  32.089  1.00  0.00     0.010 A 
ATOM     26  C   UNL A   1      38.041  30.967  29.992  1.00  0.00     0.010 A 
ATOM     27  C   UNL A   1      39.079  30.323  30.689  1.00  0.00    -0.014 A 
BRANCH  27  28
ATOM     28  C   UNL A   1      40.279  29.829  29.970  1.00  0.00     0.031 A 
ATOM     29  C   UNL A   1      41.437  30.764  29.755  1.00  0.00     0.074 A 
ATOM     30  C   UNL A   1      40.354  28.555  29.548  1.00  0.00     0.049 A 
ATOM     31  N   UNL A   1      42.571  30.554  29.137  1.00  0.00    -0.248 NA
ATOM     32  C   UNL A   1      41.298  32.118  30.313  1.00  0.00     0.031 C 
ATOM     33  C   UNL A   1      39.318  27.541  29.731  1.00  0.00     0.029 A 
ATOM     34  N   UNL A   1      41.352  27.900  28.871  1.00  0.00    -0.354 N 
ATOM     35  C   UNL A   1      43.277  31.746  29.228  1.00  0.00     0.074 A 
ATOM     36  C   UNL A   1      42.434  32.686  29.936  1.00  0.00     0.031 C 
ATOM     37  C   UNL A   1      39.731  26.391  29.170  1.00  0.00     0.029 A 
ATOM     38  C   UNL A   1      41.045  26.597  28.565  1.00  0.00     0.049 A 
ATOM     39  H   UNL A   1      42.206  28.324  28.626  1.00  0.00     0.167 HD
ATOM     40  C   UNL A   1      44.521  32.030  28.774  1.00  0.00     0.037 A 
ATOM     41  C   UNL A   1      41.740  25.682  27.862  1.00  0.00     0.037 A 
ATOM     42  C   UNL A   1      45.362  31.097  28.072  1.00  0.00     0.049 A 
ATOM     43  C   UNL A   1      43.091  26.045  27.303  1.00  0.00     0.074 A 
ATOM     44  C   UNL A   1      46.643  31.288  27.585  1.00  0.00     0.029 A 
ATOM     45  N   UNL A   1      45.001  29.798  27.752  1.00  0.00    -0.354 N 
ATOM     46  N   UNL A   1      43.758  27.168  27.415  1.00  0.00    -0.248 NA
ATOM     47  C   UNL A   1      43.784  25.012  26.521  1.00  0.00     0.031 C 
ATOM     48  C   UNL A   1      47.043  30.116  26.933  1.00  0.00     0.029 A 
ATOM     49  C   UNL A   1      46.027  29.182  27.053  1.00  0.00     0.049 A 
ATOM     50  H   UNL A   1      44.144  29.375  27.987  1.00  0.00     0.167 HD
ATOM     51  C   UNL A   1      44.958  26.967  26.743  1.00  0.00     0.074 A 
ATOM     52  C   UNL A   1      44.931  25.611  26.236  1.00  0.00     0.031 C 
ATOM     53  C   UNL A   1      45.988  27.828  26.562  1.00  0.00     0.037 A 
BRANCH  40  54
ATOM     54  C   UNL A   1      45.040  33.418  29.006  1.00  0.00     0.057 A 
ATOM     55  C   UNL A   1      44.789  34.460  28.106  1.00  0.00     0.134 A 
ATOM     56  C   UNL A   1      45.769  33.723  30.163  1.00  0.00     0.134 A 
ATOM     57  F   UNL A   1      44.108  34.231  26.973  1.00  0.00    -0.206 F 
ATOM     58  C   UNL A   1      45.263  35.753  28.337  1.00  0.00     0.040 A 
ATOM     59  C   UNL A   1      46.229  35.015  30.416  1.00  0.00     0.040 A 
ATOM     60  F   UNL A   1      46.041  32.770  31.067  1.00  0.00    -0.206 F 
ATOM     61  C   UNL A   1      45.979  36.035  29.499  1.00  0.00     0.006 A 
ENDBRANCH  40  54
BRANCH  41  62
ATOM     62  C   UNL A   1      41.169  24.333  27.627  1.00  0.00     0.057 A 
ATOM     63  C   UNL A   1      41.649  23.211  28.313  1.00  0.00     0.134 A 
ATOM     64  C   UNL A   1      40.148  24.128  26.691  1.00  0.00     0.134 A 
ATOM     65  F   UNL A   1      42.643  23.340  29.203  1.00  0.00    -0.206 F 
ATOM     66  C   UNL A   1      41.148  21.933  28.063  1.00  0.00     0.040 A 
ATOM     67  C   UNL A   1      39.621  22.859  26.448  1.00  0.00     0.040 A 
ATOM     68  F   UNL A   1      39.645  25.163  26.000  1.00  0.00    -0.206 F 
ATOM     69  C   UNL A   1      40.128  21.755  27.130  1.00  0.00     0.006 A 
ENDBRANCH  41  62
BRANCH  53  70
ATOM     70  C   UNL A   1      47.187  27.321  25.814  1.00  0.00     0.057 A 
ATOM     71  C   UNL A   1      47.353  27.546  24.443  1.00  0.00     0.134 A 
ATOM     72  C   UNL A   1      48.207  26.633  26.485  1.00  0.00     0.134 A 
ATOM     73  F   UNL A   1      46.406  28.189  23.740  1.00  0.00    -0.206 F 
ATOM     74  C   UNL A   1      48.481  27.088  23.760  1.00  0.00     0.040 A 
ATOM     75  C   UNL A   1      49.350  26.192  25.818  1.00  0.00     0.040 A 
ATOM     76  F   UNL A   1      48.113  26.391  27.802  1.00  0.00    -0.206 F 
ATOM     77  C   UNL A   1      49.487  26.414  24.450  1.00  0.00     0.006 A 
ENDBRANCH  53  70
ENDBRANCH  27  28
ENDBRANCH  20  22
ENDBRANCH  19  20
ENDBRANCH  18  19
ENDBRANCH  17  18
ENDBRANCH   1  17
TORSDOF 17
ENDMDL
MODEL 2
REMARK VINA RESULT:      -9.3      5.783     11.787
REMARK SMILES C[C@@H]1CC[N@@H+]1[C@@H](CO)C(=O)OCCOCCOC(=O)c1ccc(-c2c3nc(c(-c4c(F)cccc4F)c4ccc([nH]4)c(-c4c(F)cccc4F)c4nc(c(-c5c(F)cccc5F)c5ccc2[nH]5)C=C4)C=C3)cc1
REMARK SMILES IDX 14 1 13 2 12 3 11 4 9 5 10 6 6 7 5 8 1 9 2 10 3 11 4 12 7 14
REMARK SMILES IDX 8 15 15 17 16 18 17 19 18 20 19 21 20 22 21 23 73 24 22 25
REMARK SMILES IDX 72 26 23 27 24 28 25 29 66 30 26 31 71 32 65 33 67 34 27 35
REMARK SMILES IDX 70 36 64 37 63 38 28 40 54 41 37 42 53 43 38 44 41 45 52 46
REMARK SMILES IDX 68 47 39 48 40 49 51 51 69 52 42 53 29 54 30 55 35 56 31 57
REMARK SMILES IDX 32 58 34 59 36 60 33 61 55 62 56 63 61 64 57 65 58 66 60 67
REMARK SMILES IDX 62 68 59 69 43 70 44 71 49 72 45 73 46 74 48 75 50 76 47 77
REMARK H PARENT 5 13 8 16 67 39 41 50
REMARK Flexibility Score: inf
ROOT
ATOM      1  O   UNL A   1      45.528  21.321  24.437  1.00  0.00    -0.374 OA
ENDROOT
BRANCH   1   2
ATOM      2  C   UNL A   1      45.601  20.013  24.998  1.00  0.00     0.202 C 
BRANCH   2   3
ATOM      3  C   UNL A   1      44.644  18.972  24.410  1.00  0.00     0.261 C 
BRANCH   3   4
ATOM      4  O   UNL A   1      43.273  19.255  24.748  1.00  0.00    -0.459 OA
BRANCH   4   5
ATOM      5  C   UNL A   1      42.911  18.999  26.038  1.00  0.00     0.367 C 
ATOM      6  O   UNL A   1      43.071  17.920  26.600  1.00  0.00    -0.245 OA
BRANCH   5   7
ATOM      7  C   UNL A   1      42.193  20.178  26.710  1.00  0.00     0.321 C 
BRANCH   7   8
ATOM      8  N   UNL A   1      42.866  21.470  26.416  1.00  0.00    -0.319 N 
ATOM      9  C   UNL A   1      42.515  22.176  28.894  1.00  0.00     0.075 C 
ATOM     10  C   UNL A   1      42.755  22.546  27.441  1.00  0.00     0.187 C 
ATOM     11  C   UNL A   1      41.586  23.151  26.635  1.00  0.00     0.126 C 
ATOM     12  C   UNL A   1      42.158  22.348  25.454  1.00  0.00     0.269 C 
ATOM     13  H   UNL A   1      43.776  21.066  26.199  1.00  0.00     0.349 HD
ENDBRANCH   7   8
BRANCH   7  14
ATOM     14  C   UNL A   1      40.678  19.946  26.542  1.00  0.00     0.233 C 
BRANCH  14  15
ATOM     15  O   UNL A   1      40.328  18.839  25.716  1.00  0.00    -0.390 OA
ATOM     16  H   UNL A   1      41.135  18.428  25.368  1.00  0.00     0.210 HD
ENDBRANCH  14  15
ENDBRANCH   7  14
ENDBRANCH   5   7
ENDBRANCH   4   5
ENDBRANCH   3   4
ENDBRANCH   2   3
ENDBRANCH   1   2
BRANCH   1  17
ATOM     17  C   UNL A   1      45.923  22.412  25.271  1.00  0.00     0.202 C 
BRANCH  17  18
ATOM     18  C   UNL A   1      45.965  23.792  24.605  1.00  0.00     0.261 C 
BRANCH  18  19
ATOM     19  O   UNL A   1      44.905  24.653  25.064  1.00  0.00    -0.460 OA
BRANCH  19  20
ATOM     20  C   UNL A   1      45.267  25.936  25.290  1.00  0.00     0.338 C 
ATOM     21  O   UNL A   1      46.109  26.590  24.685  1.00  0.00    -0.246 OA
BRANCH  20  22
ATOM     22  C   UNL A   1      44.376  26.545  26.293  1.00  0.00     0.060 A 
ATOM     23  C   UNL A   1      44.331  27.943  26.354  1.00  0.00     0.016 A 
ATOM     24  C   UNL A   1      43.664  25.771  27.212  1.00  0.00     0.016 A 
ATOM     25  C   UNL A   1      43.613  28.576  27.367  1.00  0.00     0.010 A 
ATOM     26  C   UNL A   1      42.952  26.407  28.234  1.00  0.00     0.010 A 
ATOM     27  C   UNL A   1      42.954  27.810  28.337  1.00  0.00    -0.014 A 
BRANCH  27  28
ATOM     28  C   UNL A   1      42.398  28.479  29.539  1.00  0.00     0.031 A 
ATOM     29  C   UNL A   1      41.067  29.172  29.439  1.00  0.00     0.074 A 
ATOM     30  C   UNL A   1      43.050  28.440  30.714  1.00  0.00     0.049 A 
ATOM     31  N   UNL A   1      40.405  29.837  30.352  1.00  0.00    -0.248 NA
ATOM     32  C   UNL A   1      40.390  29.104  28.134  1.00  0.00     0.031 C 
ATOM     33  C   UNL A   1      44.326  27.768  30.951  1.00  0.00     0.029 A 
ATOM     34  N   UNL A   1      42.725  28.985  31.931  1.00  0.00    -0.354 N 
ATOM     35  C   UNL A   1      39.239  30.268  29.733  1.00  0.00     0.074 A 
ATOM     36  C   UNL A   1      39.295  29.816  28.359  1.00  0.00     0.031 C 
ATOM     37  C   UNL A   1      44.681  27.949  32.235  1.00  0.00     0.029 A 
ATOM     38  C   UNL A   1      43.673  28.772  32.901  1.00  0.00     0.049 A 
ATOM     39  H   UNL A   1      41.891  29.483  32.094  1.00  0.00     0.167 HD
ATOM     40  C   UNL A   1      38.208  30.968  30.263  1.00  0.00     0.037 A 
ATOM     41  C   UNL A   1      43.728  29.207  34.174  1.00  0.00     0.037 A 
ATOM     42  C   UNL A   1      38.149  31.417  31.629  1.00  0.00     0.049 A 
ATOM     43  C   UNL A   1      42.603  30.047  34.720  1.00  0.00     0.074 A 
ATOM     44  C   UNL A   1      37.140  32.121  32.263  1.00  0.00     0.029 A 
ATOM     45  N   UNL A   1      39.145  31.211  32.570  1.00  0.00    -0.354 N 
ATOM     46  N   UNL A   1      41.496  30.430  34.132  1.00  0.00    -0.248 NA
ATOM     47  C   UNL A   1      42.737  30.514  36.107  1.00  0.00     0.031 C 
ATOM     48  C   UNL A   1      37.544  32.377  33.578  1.00  0.00     0.029 A 
ATOM     49  C   UNL A   1      38.786  31.794  33.774  1.00  0.00     0.049 A 
ATOM     50  H   UNL A   1      39.984  30.722  32.407  1.00  0.00     0.167 HD
ATOM     51  C   UNL A   1      40.791  31.158  35.084  1.00  0.00     0.074 A 
ATOM     52  C   UNL A   1      41.591  31.153  36.291  1.00  0.00     0.031 C 
ATOM     53  C   UNL A   1      39.590  31.774  34.969  1.00  0.00     0.037 A 
BRANCH  40  54
ATOM     54  C   UNL A   1      37.066  31.310  29.353  1.00  0.00     0.057 A 
ATOM     55  C   UNL A   1      36.027  30.406  29.101  1.00  0.00     0.134 A 
ATOM     56  C   UNL A   1      36.987  32.572  28.751  1.00  0.00     0.134 A 
ATOM     57  F   UNL A   1      36.051  29.176  29.637  1.00  0.00    -0.206 F 
ATOM     58  C   UNL A   1      34.959  30.737  28.265  1.00  0.00     0.040 A 
ATOM     59  C   UNL A   1      35.913  32.923  27.931  1.00  0.00     0.040 A 
ATOM     60  F   UNL A   1      37.948  33.486  28.955  1.00  0.00    -0.206 F 
ATOM     61  C   UNL A   1      34.897  32.002  27.683  1.00  0.00     0.006 A 
ENDBRANCH  40  54
BRANCH  41  62
ATOM     62  C   UNL A   1      44.897  28.874  35.025  1.00  0.00     0.057 A 
ATOM     63  C   UNL A   1      46.069  29.638  34.981  1.00  0.00     0.134 A 
ATOM     64  C   UNL A   1      44.880  27.766  35.881  1.00  0.00     0.134 A 
ATOM     65  F   UNL A   1      46.154  30.696  34.162  1.00  0.00    -0.206 F 
ATOM     66  C   UNL A   1      47.188  29.302  35.744  1.00  0.00     0.040 A 
ATOM     67  C   UNL A   1      45.984  27.433  36.668  1.00  0.00     0.040 A 
ATOM     68  F   UNL A   1      43.788  26.993  35.967  1.00  0.00    -0.206 F 
ATOM     69  C   UNL A   1      47.146  28.199  36.594  1.00  0.00     0.006 A 
ENDBRANCH  41  62
BRANCH  53  70
ATOM     70  C   UNL A   1      39.050  32.464  36.187  1.00  0.00     0.057 A 
ATOM     71  C   UNL A   1      38.187  31.819  37.081  1.00  0.00     0.134 A 
ATOM     72  C   UNL A   1      39.432  33.778  36.490  1.00  0.00     0.134 A 
ATOM     73  F   UNL A   1      37.774  30.565  36.841  1.00  0.00    -0.206 F 
ATOM     74  C   UNL A   1      37.706  32.463  38.223  1.00  0.00     0.040 A 
ATOM     75  C   UNL A   1      38.978  34.423  37.641  1.00  0.00     0.040 A 
ATOM     76  F   UNL A   1      40.264  34.450  35.680  1.00  0.00    -0.206 F 
ATOM     77  C   UNL A   1      38.107  33.767  38.508  1.00  0.00     0.006 A 
ENDBRANCH  53  70
ENDBRANCH  27  28
ENDBRANCH  20  22
ENDBRANCH  19  20
ENDBRANCH  18  19
ENDBRANCH  17  18
ENDBRANCH   1  17
TORSDOF 17
ENDMDL
MODEL 3
REMARK VINA RESULT:      -9.2      4.239      8.392
REMARK SMILES C[C@@H]1CC[N@@H+]1[C@@H](CO)C(=O)OCCOCCOC(=O)c1ccc(-c2c3nc(c(-c4c(F)cccc4F)c4ccc([nH]4)c(-c4c(F)cccc4F)c4nc(c(-c5c(F)cccc5F)c5ccc2[nH]5)C=C4)C=C3)cc1
REMARK SMILES IDX 14 1 13 2 12 3 11 4 9 5 10 6 6 7 5 8 1 9 2 10 3 11 4 12 7 14
REMARK SMILES IDX 8 15 15 17 16 18 17 19 18 20 19 21 20 22 21 23 73 24 22 25
REMARK SMILES IDX 72 26 23 27 24 28 25 29 66 30 26 31 71 32 65 33 67 34 27 35
REMARK SMILES IDX 70 36 64 37 63 38 28 40 54 41 37 42 53 43 38 44 41 45 52 46
REMARK SMILES IDX 68 47 39 48 40 49 51 51 69 52 42 53 29 54 30 55 35 56 31 57
REMARK SMILES IDX 32 58 34 59 36 60 33 61 55 62 56 63 61 64 57 65 58 66 60 67
REMARK SMILES IDX 62 68 59 69 43 70 44 71 49 72 45 73 46 74 48 75 50 76 47 77
REMARK H PARENT 5 13 8 16 67 39 41 50
REMARK Flexibility Score: inf
ROOT
ATOM      1  O   UNL A   1      32.259  30.269  26.010  1.00  0.00    -0.374 OA
ENDROOT
BRANCH   1   2
ATOM      2  C   UNL A   1      31.728  28.947  26.057  1.00  0.00     0.202 C 
BRANCH   2   3
ATOM      3  C   UNL A   1      31.433  28.290  24.705  1.00  0.00     0.261 C 
BRANCH   3   4
ATOM      4  O   UNL A   1      31.135  29.267  23.690  1.00  0.00    -0.459 OA
BRANCH   4   5
ATOM      5  C   UNL A   1      30.243  28.882  22.733  1.00  0.00     0.367 C 
ATOM      6  O   UNL A   1      30.383  27.896  22.015  1.00  0.00    -0.245 OA
BRANCH   5   7
ATOM      7  C   UNL A   1      29.068  29.857  22.572  1.00  0.00     0.321 C 
BRANCH   7   8
ATOM      8  N   UNL A   1      29.416  30.993  21.678  1.00  0.00    -0.319 N 
ATOM      9  C   UNL A   1      28.892  32.638  23.623  1.00  0.00     0.075 C 
ATOM     10  C   UNL A   1      29.046  32.361  22.138  1.00  0.00     0.187 C 
ATOM     11  C   UNL A   1      27.771  32.274  21.271  1.00  0.00     0.126 C 
ATOM     12  C   UNL A   1      28.527  31.172  20.507  1.00  0.00     0.269 C 
ATOM     13  H   UNL A   1      30.398  30.741  21.569  1.00  0.00     0.349 HD
ENDBRANCH   7   8
BRANCH   7  14
ATOM     14  C   UNL A   1      27.790  29.010  22.419  1.00  0.00     0.233 C 
BRANCH  14  15
ATOM     15  O   UNL A   1      26.738  29.340  23.322  1.00  0.00    -0.390 OA
ATOM     16  H   UNL A   1      26.142  28.581  23.414  1.00  0.00     0.210 HD
ENDBRANCH  14  15
ENDBRANCH   7  14
ENDBRANCH   5   7
ENDBRANCH   4   5
ENDBRANCH   3   4
ENDBRANCH   2   3
ENDBRANCH   1   2
BRANCH   1  17
ATOM     17  C   UNL A   1      31.326  31.350  26.051  1.00  0.00     0.202 C 
BRANCH  17  18
ATOM     18  C   UNL A   1      31.524  32.373  27.176  1.00  0.00     0.261 C 
BRANCH  18  19
ATOM     19  O   UNL A   1      32.553  33.334  26.866  1.00  0.00    -0.460 OA
BRANCH  19  20
ATOM     20  C   UNL A   1      33.088  33.963  27.935  1.00  0.00     0.338 C 
ATOM     21  O   UNL A   1      32.590  34.867  28.595  1.00  0.00    -0.246 OA
BRANCH  20  22
ATOM     22  C   UNL A   1      34.338  33.296  28.342  1.00  0.00     0.060 A 
ATOM     23  C   UNL A   1      34.255  31.958  28.750  1.00  0.00     0.016 A 
ATOM     24  C   UNL A   1      35.552  33.982  28.406  1.00  0.00     0.016 A 
ATOM     25  C   UNL A   1      35.375  31.316  29.272  1.00  0.00     0.010 A 
ATOM     26  C   UNL A   1      36.674  33.339  28.939  1.00  0.00     0.010 A 
ATOM     27  C   UNL A   1      36.581  32.016  29.408  1.00  0.00    -0.014 A 
BRANCH  27  28
ATOM     28  C   UNL A   1      37.692  31.408  30.180  1.00  0.00     0.031 A 
ATOM     29  C   UNL A   1      38.595  30.416  29.499  1.00  0.00     0.074 A 
ATOM     30  C   UNL A   1      37.920  31.762  31.456  1.00  0.00     0.049 A 
ATOM     31  N   UNL A   1      39.611  29.747  29.985  1.00  0.00    -0.248 NA
ATOM     32  C   UNL A   1      38.317  30.142  28.081  1.00  0.00     0.031 C 
ATOM     33  C   UNL A   1      37.144  32.740  32.214  1.00  0.00     0.029 A 
ATOM     34  N   UNL A   1      38.875  31.329  32.342  1.00  0.00    -0.354 N 
ATOM     35  C   UNL A   1      40.089  28.973  28.935  1.00  0.00     0.074 A 
ATOM     36  C   UNL A   1      39.237  29.232  27.795  1.00  0.00     0.031 C 
ATOM     37  C   UNL A   1      37.648  32.827  33.457  1.00  0.00     0.029 A 
ATOM     38  C   UNL A   1      38.763  31.891  33.590  1.00  0.00     0.049 A 
ATOM     39  H   UNL A   1      39.575  30.677  32.106  1.00  0.00     0.167 HD
ATOM     40  C   UNL A   1      41.149  28.132  28.919  1.00  0.00     0.037 A 
ATOM     41  C   UNL A   1      39.468  31.661  34.714  1.00  0.00     0.037 A 
ATOM     42  C   UNL A   1      42.000  27.875  30.052  1.00  0.00     0.049 A 
ATOM     43  C   UNL A   1      40.598  30.665  34.690  1.00  0.00     0.074 A 
ATOM     44  C   UNL A   1      43.108  27.049  30.128  1.00  0.00     0.029 A 
ATOM     45  N   UNL A   1      41.831  28.437  31.307  1.00  0.00    -0.354 N 
ATOM     46  N   UNL A   1      41.054  29.955  33.687  1.00  0.00    -0.248 NA
ATOM     47  C   UNL A   1      41.309  30.439  35.956  1.00  0.00     0.031 C 
ATOM     48  C   UNL A   1      43.586  27.080  31.443  1.00  0.00     0.029 A 
ATOM     49  C   UNL A   1      42.801  27.958  32.172  1.00  0.00     0.049 A 
ATOM     50  H   UNL A   1      41.127  29.082  31.548  1.00  0.00     0.167 HD
ATOM     51  C   UNL A   1      42.121  29.222  34.193  1.00  0.00     0.074 A 
ATOM     52  C   UNL A   1      42.250  29.581  35.590  1.00  0.00     0.031 C 
ATOM     53  C   UNL A   1      42.922  28.332  33.558  1.00  0.00     0.037 A 
BRANCH  40  54
ATOM     54  C   UNL A   1      41.437  27.409  27.636  1.00  0.00     0.057 A 
ATOM     55  C   UNL A   1      42.227  27.978  26.630  1.00  0.00     0.134 A 
ATOM     56  C   UNL A   1      40.947  26.115  27.421  1.00  0.00     0.134 A 
ATOM     57  F   UNL A   1      42.716  29.219  26.769  1.00  0.00    -0.206 F 
ATOM     58  C   UNL A   1      42.503  27.292  25.445  1.00  0.00     0.040 A 
ATOM     59  C   UNL A   1      41.234  25.411  26.251  1.00  0.00     0.040 A 
ATOM     60  F   UNL A   1      40.186  25.512  28.348  1.00  0.00    -0.206 F 
ATOM     61  C   UNL A   1      42.012  26.002  25.257  1.00  0.00     0.006 A 
ENDBRANCH  40  54
BRANCH  41  62
ATOM     62  C   UNL A   1      39.122  32.374  35.969  1.00  0.00     0.057 A 
ATOM     63  C   UNL A   1      39.655  33.635  36.258  1.00  0.00     0.134 A 
ATOM     64  C   UNL A   1      38.272  31.798  36.921  1.00  0.00     0.134 A 
ATOM     65  F   UNL A   1      40.495  34.226  35.397  1.00  0.00    -0.206 F 
ATOM     66  C   UNL A   1      39.371  34.290  37.458  1.00  0.00     0.040 A 
ATOM     67  C   UNL A   1      37.960  32.452  38.113  1.00  0.00     0.040 A 
ATOM     68  F   UNL A   1      37.730  30.591  36.703  1.00  0.00    -0.206 F 
ATOM     69  C   UNL A   1      38.518  33.700  38.388  1.00  0.00     0.006 A 
ENDBRANCH  41  62
BRANCH  53  70
ATOM     70  C   UNL A   1      44.029  27.709  34.357  1.00  0.00     0.057 A 
ATOM     71  C   UNL A   1      43.866  26.487  35.020  1.00  0.00     0.134 A 
ATOM     72  C   UNL A   1      45.287  28.322  34.429  1.00  0.00     0.134 A 
ATOM     73  F   UNL A   1      42.681  25.856  34.999  1.00  0.00    -0.206 F 
ATOM     74  C   UNL A   1      44.908  25.905  35.744  1.00  0.00     0.040 A 
ATOM     75  C   UNL A   1      46.344  27.738  35.129  1.00  0.00     0.040 A 
ATOM     76  F   UNL A   1      45.513  29.490  33.809  1.00  0.00    -0.206 F 
ATOM     77  C   UNL A   1      46.154  26.529  35.794  1.00  0.00     0.006 A 
ENDBRANCH  53  70
ENDBRANCH  27  28
ENDBRANCH  20  22
ENDBRANCH  19  20
ENDBRANCH  18  19
ENDBRANCH  17  18
ENDBRANCH   1  17
TORSDOF 17
ENDMDL
