MODEL 1
REMARK VINA RESULT:     -12.5      0.000      0.000
REMARK SMILES COc1ccc([C@H](NC(=O)[C@H]2CC(C)=C(C)C[C@@H]2C(=O)OCCOCCOC(=O)c2ccc(-c3c4nc(c(-c5c(F)cccc5F)c5ccc([nH]5)c(-c5c(F)cccc5F)c5nc(c(-c6c(F)cccc6F)c6ccc3[nH]6)C=C5)C=C4)cc2)c2ccccc2)cc1
REMARK SMILES IDX 23 1 22 2 21 3 19 4 20 5 18 6 11 7 12 8 13 9 17 10 14 11
REMARK SMILES IDX 15 12 16 13 9 14 8 15 10 17 7 18 6 19 3 20 4 21 91 22 5 23
REMARK SMILES IDX 90 24 2 25 1 26 84 27 85 28 89 29 86 30 88 31 87 32 24 33
REMARK SMILES IDX 25 34 26 35 27 36 28 37 29 38 30 39 31 40 83 41 32 42 82 43
REMARK SMILES IDX 33 44 34 45 35 46 76 47 36 48 81 49 75 50 77 51 37 52 80 53
REMARK SMILES IDX 74 54 73 55 38 57 64 58 47 59 63 60 48 61 51 62 62 63 78 64
REMARK SMILES IDX 49 65 50 66 61 68 79 69 52 70 39 71 40 72 45 73 41 74 42 75
REMARK SMILES IDX 44 76 46 77 43 78 65 79 66 80 71 81 67 82 68 83 70 84 72 85
REMARK SMILES IDX 69 86 53 87 54 88 59 89 55 90 56 91 58 92 60 93 57 94
REMARK H PARENT 8 16 77 56 51 67
REMARK Flexibility Score: inf
ROOT
ATOM      1  C   UNL A   1      34.612  33.385  28.393  1.00  0.00     0.202 C 
ENDROOT
BRANCH   1   2
ATOM      2  C   UNL A   1      35.334  32.154  27.844  1.00  0.00     0.261 C 
BRANCH   2   3
ATOM      3  O   UNL A   1      34.457  31.019  27.931  1.00  0.00    -0.463 OA
BRANCH   3   4
ATOM      4  C   UNL A   1      34.961  29.827  27.533  1.00  0.00     0.310 C 
ATOM      5  O   UNL A   1      36.001  29.341  27.960  1.00  0.00    -0.252 OA
BRANCH   4   6
ATOM      6  C   UNL A   1      34.037  29.086  26.562  1.00  0.00     0.116 C 
ATOM      7  C   UNL A   1      32.599  29.266  27.045  1.00  0.00     0.097 C 
ATOM      8  C   UNL A   1      31.705  28.041  27.168  1.00  0.00     0.045 C 
ATOM      9  C   UNL A   1      32.151  26.783  26.482  1.00  0.00    -0.074 C 
ATOM     10  C   UNL A   1      34.485  27.647  26.248  1.00  0.00     0.046 C 
ATOM     11  C   UNL A   1      31.076  25.732  26.404  1.00  0.00     0.039 C 
ATOM     12  C   UNL A   1      33.416  26.603  26.059  1.00  0.00    -0.073 C 
ATOM     13  C   UNL A   1      33.894  25.322  25.424  1.00  0.00     0.039 C 
BRANCH   7  14
ATOM     14  C   UNL A   1      31.903  30.434  26.357  1.00  0.00     0.225 C 
ATOM     15  N   UNL A   1      31.245  30.437  25.184  1.00  0.00    -0.345 N 
ATOM     16  H   UNL A   1      31.251  31.339  24.790  1.00  0.00     0.164 HD
ATOM     17  O   UNL A   1      31.937  31.543  26.912  1.00  0.00    -0.275 OA
BRANCH  15  18
ATOM     18  C   UNL A   1      30.516  29.500  24.310  1.00  0.00     0.143 C 
BRANCH  18  19
ATOM     19  C   UNL A   1      29.474  30.232  23.401  1.00  0.00    -0.021 A 
ATOM     20  C   UNL A   1      27.943  31.733  21.525  1.00  0.00     0.118 A 
ATOM     21  C   UNL A   1      28.535  30.531  21.151  1.00  0.00     0.047 A 
ATOM     22  C   UNL A   1      28.028  32.137  22.851  1.00  0.00     0.047 A 
ATOM     23  C   UNL A   1      29.281  29.785  22.075  1.00  0.00     0.010 A 
ATOM     24  C   UNL A   1      28.776  31.396  23.776  1.00  0.00     0.010 A 
BRANCH  20  25
ATOM     25  O   UNL A   1      27.296  32.418  20.535  1.00  0.00    -0.497 OA
ATOM     26  C   UNL A   1      28.078  32.701  19.376  1.00  0.00     0.278 C 
ENDBRANCH  20  25
ENDBRANCH  18  19
BRANCH  18  27
ATOM     27  C   UNL A   1      31.433  28.669  23.409  1.00  0.00    -0.021 A 
ATOM     28  C   UNL A   1      31.078  27.368  23.009  1.00  0.00     0.006 A 
ATOM     29  C   UNL A   1      32.733  29.116  23.126  1.00  0.00     0.006 A 
ATOM     30  C   UNL A   1      31.997  26.547  22.352  1.00  0.00     0.000 A 
ATOM     31  C   UNL A   1      33.638  28.308  22.434  1.00  0.00     0.000 A 
ATOM     32  C   UNL A   1      33.272  27.021  22.053  1.00  0.00     0.000 A 
ENDBRANCH  18  27
ENDBRANCH  15  18
ENDBRANCH   7  14
ENDBRANCH   4   6
ENDBRANCH   3   4
ENDBRANCH   2   3
ENDBRANCH   1   2
BRANCH   1  33
ATOM     33  O   UNL A   1      34.036  33.224  29.689  1.00  0.00    -0.374 OA
BRANCH  33  34
ATOM     34  C   UNL A   1      34.355  34.215  30.669  1.00  0.00     0.202 C 
BRANCH  34  35
ATOM     35  C   UNL A   1      34.423  33.714  32.116  1.00  0.00     0.261 C 
BRANCH  35  36
ATOM     36  O   UNL A   1      34.922  32.364  32.179  1.00  0.00    -0.460 OA
BRANCH  36  37
ATOM     37  C   UNL A   1      36.059  32.211  32.896  1.00  0.00     0.338 C 
ATOM     38  O   UNL A   1      36.233  32.475  34.077  1.00  0.00    -0.246 OA
BRANCH  37  39
ATOM     39  C   UNL A   1      37.055  31.475  32.100  1.00  0.00     0.060 A 
ATOM     40  C   UNL A   1      37.979  30.682  32.794  1.00  0.00     0.016 A 
ATOM     41  C   UNL A   1      37.134  31.609  30.713  1.00  0.00     0.016 A 
ATOM     42  C   UNL A   1      39.016  30.056  32.109  1.00  0.00     0.010 A 
ATOM     43  C   UNL A   1      38.183  30.988  30.028  1.00  0.00     0.010 A 
ATOM     44  C   UNL A   1      39.147  30.236  30.727  1.00  0.00    -0.014 A 
BRANCH  44  45
ATOM     45  C   UNL A   1      40.364  29.749  30.034  1.00  0.00     0.031 A 
ATOM     46  C   UNL A   1      41.505  30.700  29.803  1.00  0.00     0.074 A 
ATOM     47  C   UNL A   1      40.457  28.473  29.623  1.00  0.00     0.049 A 
ATOM     48  N   UNL A   1      42.625  30.513  29.152  1.00  0.00    -0.248 NA
ATOM     49  C   UNL A   1      41.361  32.046  30.380  1.00  0.00     0.031 C 
ATOM     50  C   UNL A   1      39.437  27.446  29.824  1.00  0.00     0.029 A 
ATOM     51  N   UNL A   1      41.453  27.830  28.934  1.00  0.00    -0.354 N 
ATOM     52  C   UNL A   1      43.309  31.719  29.224  1.00  0.00     0.074 A 
ATOM     53  C   UNL A   1      42.468  32.639  29.960  1.00  0.00     0.031 C 
ATOM     54  C   UNL A   1      39.851  26.304  29.250  1.00  0.00     0.029 A 
ATOM     55  C   UNL A   1      41.144  26.533  28.607  1.00  0.00     0.049 A 
ATOM     56  H   UNL A   1      42.309  28.257  28.697  1.00  0.00     0.167 HD
ATOM     57  C   UNL A   1      44.530  32.030  28.726  1.00  0.00     0.037 A 
ATOM     58  C   UNL A   1      41.811  25.643  27.846  1.00  0.00     0.037 A 
ATOM     59  C   UNL A   1      45.364  31.108  27.997  1.00  0.00     0.049 A 
ATOM     60  C   UNL A   1      43.135  26.031  27.243  1.00  0.00     0.074 A 
ATOM     61  C   UNL A   1      46.630  31.316  27.479  1.00  0.00     0.029 A 
ATOM     62  N   UNL A   1      45.007  29.807  27.671  1.00  0.00    -0.354 N 
ATOM     63  N   UNL A   1      43.789  27.163  27.340  1.00  0.00    -0.248 NA
ATOM     64  C   UNL A   1      43.816  25.014  26.430  1.00  0.00     0.031 C 
ATOM     65  C   UNL A   1      47.012  30.165  26.784  1.00  0.00     0.029 A 
ATOM     66  C   UNL A   1      46.015  29.213  26.929  1.00  0.00     0.049 A 
ATOM     67  H   UNL A   1      44.164  29.371  27.930  1.00  0.00     0.167 HD
ATOM     68  C   UNL A   1      44.969  26.986  26.628  1.00  0.00     0.074 A 
ATOM     69  C   UNL A   1      44.945  25.633  26.111  1.00  0.00     0.031 C 
ATOM     70  C   UNL A   1      45.983  27.863  26.424  1.00  0.00     0.037 A 
BRANCH  57  71
ATOM     71  C   UNL A   1      45.019  33.437  28.916  1.00  0.00     0.057 A 
ATOM     72  C   UNL A   1      44.724  34.461  28.007  1.00  0.00     0.134 A 
ATOM     73  C   UNL A   1      45.781  33.776  30.041  1.00  0.00     0.134 A 
ATOM     74  F   UNL A   1      44.009  34.204  26.900  1.00  0.00    -0.206 F 
ATOM     75  C   UNL A   1      45.193  35.763  28.195  1.00  0.00     0.040 A 
ATOM     76  C   UNL A   1      46.230  35.080  30.257  1.00  0.00     0.040 A 
ATOM     77  F   UNL A   1      46.096  32.846  30.956  1.00  0.00    -0.206 F 
ATOM     78  C   UNL A   1      45.943  36.076  29.326  1.00  0.00     0.006 A 
ENDBRANCH  57  71
BRANCH  58  79
ATOM     79  C   UNL A   1      41.219  24.306  27.587  1.00  0.00     0.057 A 
ATOM     80  C   UNL A   1      40.168  24.138  26.681  1.00  0.00     0.134 A 
ATOM     81  C   UNL A   1      41.693  23.163  28.244  1.00  0.00     0.134 A 
ATOM     82  F   UNL A   1      39.655  25.197  26.037  1.00  0.00    -0.206 F 
ATOM     83  C   UNL A   1      39.596  22.885  26.448  1.00  0.00     0.040 A 
ATOM     84  C   UNL A   1      41.151  21.901  28.001  1.00  0.00     0.040 A 
ATOM     85  F   UNL A   1      42.702  23.256  29.124  1.00  0.00    -0.206 F 
ATOM     86  C   UNL A   1      40.094  21.761  27.104  1.00  0.00     0.006 A 
ENDBRANCH  58  79
BRANCH  70  87
ATOM     87  C   UNL A   1      47.174  27.380  25.645  1.00  0.00     0.057 A 
ATOM     88  C   UNL A   1      48.233  26.691  26.253  1.00  0.00     0.134 A 
ATOM     89  C   UNL A   1      47.237  27.564  24.257  1.00  0.00     0.134 A 
ATOM     90  F   UNL A   1      48.243  26.491  27.579  1.00  0.00    -0.206 F 
ATOM     91  C   UNL A   1      49.319  26.222  25.510  1.00  0.00     0.040 A 
ATOM     92  C   UNL A   1      48.303  27.072  23.501  1.00  0.00     0.040 A 
ATOM     93  F   UNL A   1      46.253  28.205  23.610  1.00  0.00    -0.206 F 
ATOM     94  C   UNL A   1      49.351  26.405  24.129  1.00  0.00     0.006 A 
ENDBRANCH  70  87
ENDBRANCH  44  45
ENDBRANCH  37  39
ENDBRANCH  36  37
ENDBRANCH  35  36
ENDBRANCH  34  35
ENDBRANCH  33  34
ENDBRANCH   1  33
TORSDOF 19
ENDMDL
MODEL 2
REMARK VINA RESULT:     -11.9      4.474      8.158
REMARK SMILES COc1ccc([C@H](NC(=O)[C@H]2CC(C)=C(C)C[C@@H]2C(=O)OCCOCCOC(=O)c2ccc(-c3c4nc(c(-c5c(F)cccc5F)c5ccc([nH]5)c(-c5c(F)cccc5F)c5nc(c(-c6c(F)cccc6F)c6ccc3[nH]6)C=C5)C=C4)cc2)c2ccccc2)cc1
REMARK SMILES IDX 23 1 22 2 21 3 19 4 20 5 18 6 11 7 12 8 13 9 17 10 14 11
REMARK SMILES IDX 15 12 16 13 9 14 8 15 10 17 7 18 6 19 3 20 4 21 91 22 5 23
REMARK SMILES IDX 90 24 2 25 1 26 84 27 85 28 89 29 86 30 88 31 87 32 24 33
REMARK SMILES IDX 25 34 26 35 27 36 28 37 29 38 30 39 31 40 83 41 32 42 82 43
REMARK SMILES IDX 33 44 34 45 35 46 76 47 36 48 81 49 75 50 77 51 37 52 80 53
REMARK SMILES IDX 74 54 73 55 38 57 64 58 47 59 63 60 48 61 51 62 62 63 78 64
REMARK SMILES IDX 49 65 50 66 61 68 79 69 52 70 39 71 40 72 45 73 41 74 42 75
REMARK SMILES IDX 44 76 46 77 43 78 65 79 66 80 71 81 67 82 68 83 70 84 72 85
REMARK SMILES IDX 69 86 53 87 54 88 59 89 55 90 56 91 58 92 60 93 57 94
REMARK H PARENT 8 16 77 56 51 67
REMARK Flexibility Score: inf
ROOT
ATOM      1  C   UNL A   1      35.188  33.373  27.996  1.00  0.00     0.202 C 
ENDROOT
BRANCH   1   2
ATOM      2  C   UNL A   1      35.258  31.916  28.454  1.00  0.00     0.261 C 
BRANCH   2   3
ATOM      3  O   UNL A   1      35.158  31.059  27.305  1.00  0.00    -0.463 OA
BRANCH   3   4
ATOM      4  C   UNL A   1      35.059  29.729  27.544  1.00  0.00     0.310 C 
ATOM      5  O   UNL A   1      35.581  29.158  28.492  1.00  0.00    -0.252 OA
BRANCH   4   6
ATOM      6  C   UNL A   1      34.128  29.018  26.556  1.00  0.00     0.116 C 
ATOM      7  C   UNL A   1      32.691  29.208  27.038  1.00  0.00     0.097 C 
ATOM      8  C   UNL A   1      31.781  27.993  27.137  1.00  0.00     0.045 C 
ATOM      9  C   UNL A   1      32.213  26.742  26.429  1.00  0.00    -0.074 C 
ATOM     10  C   UNL A   1      34.558  27.579  26.218  1.00  0.00     0.046 C 
ATOM     11  C   UNL A   1      31.124  25.706  26.329  1.00  0.00     0.039 C 
ATOM     12  C   UNL A   1      33.477  26.553  26.007  1.00  0.00    -0.073 C 
ATOM     13  C   UNL A   1      33.940  25.277  25.351  1.00  0.00     0.039 C 
BRANCH   7  14
ATOM     14  C   UNL A   1      32.013  30.397  26.370  1.00  0.00     0.225 C 
ATOM     15  N   UNL A   1      31.342  30.426  25.203  1.00  0.00    -0.345 N 
ATOM     16  H   UNL A   1      31.364  31.332  24.818  1.00  0.00     0.164 HD
ATOM     17  O   UNL A   1      32.076  31.500  26.935  1.00  0.00    -0.275 OA
BRANCH  15  18
ATOM     18  C   UNL A   1      30.586  29.513  24.327  1.00  0.00     0.143 C 
BRANCH  18  19
ATOM     19  C   UNL A   1      29.566  30.278  23.420  1.00  0.00    -0.021 A 
ATOM     20  C   UNL A   1      28.065  31.940  21.659  1.00  0.00     0.118 A 
ATOM     21  C   UNL A   1      28.919  30.964  21.152  1.00  0.00     0.047 A 
ATOM     22  C   UNL A   1      27.883  32.022  23.033  1.00  0.00     0.047 A 
ATOM     23  C   UNL A   1      29.650  30.138  22.018  1.00  0.00     0.010 A 
ATOM     24  C   UNL A   1      28.617  31.201  23.900  1.00  0.00     0.010 A 
BRANCH  20  25
ATOM     25  O   UNL A   1      27.450  32.738  20.736  1.00  0.00    -0.497 OA
ATOM     26  C   UNL A   1      27.709  32.408  19.373  1.00  0.00     0.278 C 
ENDBRANCH  20  25
ENDBRANCH  18  19
BRANCH  18  27
ATOM     27  C   UNL A   1      31.477  28.657  23.425  1.00  0.00    -0.021 A 
ATOM     28  C   UNL A   1      31.083  27.368  23.022  1.00  0.00     0.006 A 
ATOM     29  C   UNL A   1      32.789  29.065  23.142  1.00  0.00     0.006 A 
ATOM     30  C   UNL A   1      31.977  26.520  22.363  1.00  0.00     0.000 A 
ATOM     31  C   UNL A   1      33.670  28.231  22.448  1.00  0.00     0.000 A 
ATOM     32  C   UNL A   1      33.265  26.956  22.065  1.00  0.00     0.000 A 
ENDBRANCH  18  27
ENDBRANCH  15  18
ENDBRANCH   7  14
ENDBRANCH   4   6
ENDBRANCH   3   4
ENDBRANCH   2   3
ENDBRANCH   1   2
BRANCH   1  33
ATOM     33  O   UNL A   1      33.934  34.018  28.210  1.00  0.00    -0.374 OA
BRANCH  33  34
ATOM     34  C   UNL A   1      33.964  35.418  28.499  1.00  0.00     0.202 C 
BRANCH  34  35
ATOM     35  C   UNL A   1      32.939  35.900  29.532  1.00  0.00     0.261 C 
BRANCH  35  36
ATOM     36  O   UNL A   1      32.736  34.917  30.566  1.00  0.00    -0.460 OA
BRANCH  36  37
ATOM     37  C   UNL A   1      32.826  35.391  31.828  1.00  0.00     0.338 C 
ATOM     38  O   UNL A   1      31.995  36.055  32.434  1.00  0.00    -0.246 OA
BRANCH  37  39
ATOM     39  C   UNL A   1      34.013  34.827  32.491  1.00  0.00     0.060 A 
ATOM     40  C   UNL A   1      35.227  35.511  32.334  1.00  0.00     0.016 A 
ATOM     41  C   UNL A   1      33.963  33.620  33.189  1.00  0.00     0.016 A 
ATOM     42  C   UNL A   1      36.405  34.967  32.837  1.00  0.00     0.010 A 
ATOM     43  C   UNL A   1      35.150  33.070  33.684  1.00  0.00     0.010 A 
ATOM     44  C   UNL A   1      36.380  33.725  33.482  1.00  0.00    -0.014 A 
BRANCH  44  45
ATOM     45  C   UNL A   1      37.654  33.048  33.825  1.00  0.00     0.031 A 
ATOM     46  C   UNL A   1      38.188  31.984  32.908  1.00  0.00     0.074 A 
ATOM     47  C   UNL A   1      38.332  33.383  34.936  1.00  0.00     0.049 A 
ATOM     48  N   UNL A   1      39.235  31.211  33.053  1.00  0.00    -0.248 NA
ATOM     49  C   UNL A   1      37.437  31.756  31.664  1.00  0.00     0.031 C 
ATOM     50  C   UNL A   1      37.940  34.426  35.882  1.00  0.00     0.029 A 
ATOM     51  N   UNL A   1      39.488  32.867  35.463  1.00  0.00    -0.354 N 
ATOM     52  C   UNL A   1      39.258  30.394  31.929  1.00  0.00     0.074 A 
ATOM     53  C   UNL A   1      38.107  30.748  31.125  1.00  0.00     0.031 C 
ATOM     54  C   UNL A   1      38.829  34.457  36.888  1.00  0.00     0.029 A 
ATOM     55  C   UNL A   1      39.828  33.411  36.677  1.00  0.00     0.049 A 
ATOM     56  H   UNL A   1      40.023  32.172  35.014  1.00  0.00     0.167 HD
ATOM     57  C   UNL A   1      40.159  29.439  31.596  1.00  0.00     0.037 A 
ATOM     58  C   UNL A   1      40.810  33.078  37.537  1.00  0.00     0.037 A 
ATOM     59  C   UNL A   1      41.305  29.095  32.399  1.00  0.00     0.049 A 
ATOM     60  C   UNL A   1      41.762  31.967  37.180  1.00  0.00     0.074 A 
ATOM     61  C   UNL A   1      42.295  28.165  32.133  1.00  0.00     0.029 A 
ATOM     62  N   UNL A   1      41.605  29.657  33.632  1.00  0.00    -0.354 N 
ATOM     63  N   UNL A   1      41.795  31.220  36.103  1.00  0.00    -0.248 NA
ATOM     64  C   UNL A   1      42.816  31.658  38.156  1.00  0.00     0.031 C 
ATOM     65  C   UNL A   1      43.156  28.117  33.234  1.00  0.00     0.029 A 
ATOM     66  C   UNL A   1      42.745  29.068  34.154  1.00  0.00     0.049 A 
ATOM     67  H   UNL A   1      41.085  30.369  34.069  1.00  0.00     0.167 HD
ATOM     68  C   UNL A   1      42.887  30.374  36.257  1.00  0.00     0.074 A 
ATOM     69  C   UNL A   1      43.496  30.707  37.528  1.00  0.00     0.031 C 
ATOM     70  C   UNL A   1      43.346  29.412  35.419  1.00  0.00     0.037 A 
BRANCH  57  71
ATOM     71  C   UNL A   1      39.919  28.670  30.328  1.00  0.00     0.057 A 
ATOM     72  C   UNL A   1      40.489  29.048  29.105  1.00  0.00     0.134 A 
ATOM     73  C   UNL A   1      39.122  27.519  30.339  1.00  0.00     0.134 A 
ATOM     74  F   UNL A   1      41.253  30.148  29.021  1.00  0.00    -0.206 F 
ATOM     75  C   UNL A   1      40.249  28.326  27.934  1.00  0.00     0.040 A 
ATOM     76  C   UNL A   1      38.901  26.771  29.181  1.00  0.00     0.040 A 
ATOM     77  F   UNL A   1      38.550  27.096  31.477  1.00  0.00    -0.206 F 
ATOM     78  C   UNL A   1      39.458  27.180  27.973  1.00  0.00     0.006 A 
ENDBRANCH  57  71
BRANCH  58  79
ATOM     79  C   UNL A   1      40.924  33.789  38.836  1.00  0.00     0.057 A 
ATOM     80  C   UNL A   1      41.798  34.868  39.002  1.00  0.00     0.134 A 
ATOM     81  C   UNL A   1      40.159  33.402  39.944  1.00  0.00     0.134 A 
ATOM     82  F   UNL A   1      42.573  35.272  37.985  1.00  0.00    -0.206 F 
ATOM     83  C   UNL A   1      41.921  35.527  40.227  1.00  0.00     0.040 A 
ATOM     84  C   UNL A   1      40.251  34.069  41.165  1.00  0.00     0.040 A 
ATOM     85  F   UNL A   1      39.300  32.376  39.849  1.00  0.00    -0.206 F 
ATOM     86  C   UNL A   1      41.139  35.132  41.311  1.00  0.00     0.006 A 
ENDBRANCH  58  79
BRANCH  70  87
ATOM     87  C   UNL A   1      44.592  28.675  35.823  1.00  0.00     0.057 A 
ATOM     88  C   UNL A   1      45.873  29.143  35.500  1.00  0.00     0.134 A 
ATOM     89  C   UNL A   1      44.509  27.506  36.591  1.00  0.00     0.134 A 
ATOM     90  F   UNL A   1      46.026  30.250  34.756  1.00  0.00    -0.206 F 
ATOM     91  C   UNL A   1      47.022  28.463  35.909  1.00  0.00     0.040 A 
ATOM     92  C   UNL A   1      45.651  26.835  37.032  1.00  0.00     0.040 A 
ATOM     93  F   UNL A   1      43.314  27.009  36.946  1.00  0.00    -0.206 F 
ATOM     94  C   UNL A   1      46.912  27.310  36.684  1.00  0.00     0.006 A 
ENDBRANCH  70  87
ENDBRANCH  44  45
ENDBRANCH  37  39
ENDBRANCH  36  37
ENDBRANCH  35  36
ENDBRANCH  34  35
ENDBRANCH  33  34
ENDBRANCH   1  33
TORSDOF 19
ENDMDL
MODEL 3
REMARK VINA RESULT:     -11.9      0.540      5.897
REMARK SMILES COc1ccc([C@H](NC(=O)[C@H]2CC(C)=C(C)C[C@@H]2C(=O)OCCOCCOC(=O)c2ccc(-c3c4nc(c(-c5c(F)cccc5F)c5ccc([nH]5)c(-c5c(F)cccc5F)c5nc(c(-c6c(F)cccc6F)c6ccc3[nH]6)C=C5)C=C4)cc2)c2ccccc2)cc1
REMARK SMILES IDX 23 1 22 2 21 3 19 4 20 5 18 6 11 7 12 8 13 9 17 10 14 11
REMARK SMILES IDX 15 12 16 13 9 14 8 15 10 17 7 18 6 19 3 20 4 21 91 22 5 23
REMARK SMILES IDX 90 24 2 25 1 26 84 27 85 28 89 29 86 30 88 31 87 32 24 33
REMARK SMILES IDX 25 34 26 35 27 36 28 37 29 38 30 39 31 40 83 41 32 42 82 43
REMARK SMILES IDX 33 44 34 45 35 46 76 47 36 48 81 49 75 50 77 51 37 52 80 53
REMARK SMILES IDX 74 54 73 55 38 57 64 58 47 59 63 60 48 61 51 62 62 63 78 64
REMARK SMILES IDX 49 65 50 66 61 68 79 69 52 70 39 71 40 72 45 73 41 74 42 75
REMARK SMILES IDX 44 76 46 77 43 78 65 79 66 80 71 81 67 82 68 83 70 84 72 85
REMARK SMILES IDX 69 86 53 87 54 88 59 89 55 90 56 91 58 92 60 93 57 94
REMARK H PARENT 8 16 77 56 51 67
REMARK Flexibility Score: inf
ROOT
ATOM      1  C   UNL A   1      34.309  33.291  29.039  1.00  0.00     0.202 C 
ENDROOT
BRANCH   1   2
ATOM      2  C   UNL A   1      34.973  31.919  28.918  1.00  0.00     0.261 C 
BRANCH   2   3
ATOM      3  O   UNL A   1      34.388  31.212  27.813  1.00  0.00    -0.463 OA
BRANCH   3   4
ATOM      4  C   UNL A   1      34.800  29.936  27.619  1.00  0.00     0.310 C 
ATOM      5  O   UNL A   1      35.722  29.409  28.227  1.00  0.00    -0.252 OA
BRANCH   4   6
ATOM      6  C   UNL A   1      33.917  29.172  26.626  1.00  0.00     0.116 C 
ATOM      7  C   UNL A   1      32.463  29.331  27.065  1.00  0.00     0.097 C 
ATOM      8  C   UNL A   1      31.587  28.092  27.171  1.00  0.00     0.045 C 
ATOM      9  C   UNL A   1      32.074  26.837  26.507  1.00  0.00    -0.074 C 
ATOM     10  C   UNL A   1      34.399  27.739  26.337  1.00  0.00     0.046 C 
ATOM     11  C   UNL A   1      31.019  25.767  26.405  1.00  0.00     0.039 C 
ATOM     12  C   UNL A   1      33.353  26.677  26.123  1.00  0.00    -0.073 C 
ATOM     13  C   UNL A   1      33.872  25.399  25.512  1.00  0.00     0.039 C 
BRANCH   7  14
ATOM     14  C   UNL A   1      31.768  30.482  26.349  1.00  0.00     0.225 C 
ATOM     15  N   UNL A   1      31.160  30.471  25.148  1.00  0.00    -0.345 N 
ATOM     16  H   UNL A   1      31.161  31.373  24.755  1.00  0.00     0.164 HD
ATOM     17  O   UNL A   1      31.751  31.592  26.904  1.00  0.00    -0.275 OA
BRANCH  15  18
ATOM     18  C   UNL A   1      30.493  29.517  24.244  1.00  0.00     0.143 C 
BRANCH  18  19
ATOM     19  C   UNL A   1      29.469  30.223  23.295  1.00  0.00    -0.021 A 
ATOM     20  C   UNL A   1      27.964  31.759  21.427  1.00  0.00     0.118 A 
ATOM     21  C   UNL A   1      28.785  30.725  20.990  1.00  0.00     0.047 A 
ATOM     22  C   UNL A   1      27.815  31.964  22.793  1.00  0.00     0.047 A 
ATOM     23  C   UNL A   1      29.519  29.960  21.908  1.00  0.00     0.010 A 
ATOM     24  C   UNL A   1      28.551  31.205  23.712  1.00  0.00     0.010 A 
BRANCH  20  25
ATOM     25  O   UNL A   1      27.344  32.489  20.451  1.00  0.00    -0.497 OA
ATOM     26  C   UNL A   1      28.015  32.521  19.193  1.00  0.00     0.278 C 
ENDBRANCH  20  25
ENDBRANCH  18  19
BRANCH  18  27
ATOM     27  C   UNL A   1      31.468  28.714  23.379  1.00  0.00    -0.021 A 
ATOM     28  C   UNL A   1      31.141  27.426  22.916  1.00  0.00     0.006 A 
ATOM     29  C   UNL A   1      32.783  29.168  23.196  1.00  0.00     0.006 A 
ATOM     30  C   UNL A   1      32.102  26.625  22.295  1.00  0.00     0.000 A 
ATOM     31  C   UNL A   1      33.733  28.381  22.539  1.00  0.00     0.000 A 
ATOM     32  C   UNL A   1      33.393  27.107  22.095  1.00  0.00     0.000 A 
ENDBRANCH  18  27
ENDBRANCH  15  18
ENDBRANCH   7  14
ENDBRANCH   4   6
ENDBRANCH   3   4
ENDBRANCH   2   3
ENDBRANCH   1   2
BRANCH   1  33
ATOM     33  O   UNL A   1      33.703  33.565  30.301  1.00  0.00    -0.374 OA
BRANCH  33  34
ATOM     34  C   UNL A   1      34.548  34.091  31.327  1.00  0.00     0.202 C 
BRANCH  34  35
ATOM     35  C   UNL A   1      34.695  33.213  32.575  1.00  0.00     0.261 C 
BRANCH  35  36
ATOM     36  O   UNL A   1      35.388  31.987  32.274  1.00  0.00    -0.460 OA
BRANCH  36  37
ATOM     37  C   UNL A   1      36.559  31.820  32.929  1.00  0.00     0.338 C 
ATOM     38  O   UNL A   1      36.777  32.001  34.119  1.00  0.00    -0.246 OA
BRANCH  37  39
ATOM     39  C   UNL A   1      37.541  31.178  32.039  1.00  0.00     0.060 A 
ATOM     40  C   UNL A   1      38.591  30.468  32.639  1.00  0.00     0.016 A 
ATOM     41  C   UNL A   1      37.484  31.325  30.652  1.00  0.00     0.016 A 
ATOM     42  C   UNL A   1      39.613  29.940  31.857  1.00  0.00     0.010 A 
ATOM     43  C   UNL A   1      38.518  30.802  29.870  1.00  0.00     0.010 A 
ATOM     44  C   UNL A   1      39.603  30.136  30.471  1.00  0.00    -0.014 A 
BRANCH  44  45
ATOM     45  C   UNL A   1      40.792  29.762  29.667  1.00  0.00     0.031 A 
ATOM     46  C   UNL A   1      40.888  28.371  29.106  1.00  0.00     0.074 A 
ATOM     47  C   UNL A   1      41.769  30.653  29.430  1.00  0.00     0.049 A 
ATOM     48  N   UNL A   1      41.868  27.806  28.447  1.00  0.00    -0.248 NA
ATOM     49  C   UNL A   1      39.725  27.496  29.324  1.00  0.00     0.031 C 
ATOM     50  C   UNL A   1      41.772  32.042  29.884  1.00  0.00     0.029 A 
ATOM     51  N   UNL A   1      42.959  30.513  28.762  1.00  0.00    -0.354 N 
ATOM     52  C   UNL A   1      41.448  26.508  28.188  1.00  0.00     0.074 A 
ATOM     53  C   UNL A   1      40.137  26.360  28.783  1.00  0.00     0.031 C 
ATOM     54  C   UNL A   1      42.922  32.622  29.500  1.00  0.00     0.029 A 
ATOM     55  C   UNL A   1      43.750  31.634  28.810  1.00  0.00     0.049 A 
ATOM     56  H   UNL A   1      43.221  29.687  28.293  1.00  0.00     0.167 HD
ATOM     57  C   UNL A   1      42.096  25.529  27.511  1.00  0.00     0.037 A 
ATOM     58  C   UNL A   1      45.012  31.830  28.380  1.00  0.00     0.037 A 
ATOM     59  C   UNL A   1      43.400  25.684  26.918  1.00  0.00     0.049 A 
ATOM     60  C   UNL A   1      45.741  30.707  27.691  1.00  0.00     0.074 A 
ATOM     61  C   UNL A   1      44.128  24.763  26.184  1.00  0.00     0.029 A 
ATOM     62  N   UNL A   1      44.177  26.830  27.004  1.00  0.00    -0.354 N 
ATOM     63  N   UNL A   1      45.327  29.492  27.424  1.00  0.00    -0.248 NA
ATOM     64  C   UNL A   1      47.111  30.986  27.238  1.00  0.00     0.031 C 
ATOM     65  C   UNL A   1      45.370  25.329  25.883  1.00  0.00     0.029 A 
ATOM     66  C   UNL A   1      45.390  26.627  26.366  1.00  0.00     0.049 A 
ATOM     67  H   UNL A   1      43.906  27.665  27.450  1.00  0.00     0.167 HD
ATOM     68  C   UNL A   1      46.371  28.872  26.747  1.00  0.00     0.074 A 
ATOM     69  C   UNL A   1      47.435  29.849  26.637  1.00  0.00     0.031 C 
ATOM     70  C   UNL A   1      46.440  27.610  26.258  1.00  0.00     0.037 A 
BRANCH  57  71
ATOM     71  C   UNL A   1      41.422  24.190  27.412  1.00  0.00     0.057 A 
ATOM     72  C   UNL A   1      40.359  23.951  26.532  1.00  0.00     0.134 A 
ATOM     73  C   UNL A   1      41.862  23.116  28.196  1.00  0.00     0.134 A 
ATOM     74  F   UNL A   1      39.878  24.940  25.761  1.00  0.00    -0.206 F 
ATOM     75  C   UNL A   1      39.738  22.703  26.459  1.00  0.00     0.040 A 
ATOM     76  C   UNL A   1      41.271  21.855  28.109  1.00  0.00     0.040 A 
ATOM     77  F   UNL A   1      42.881  23.272  29.055  1.00  0.00    -0.206 F 
ATOM     78  C   UNL A   1      40.199  21.649  27.244  1.00  0.00     0.006 A 
ENDBRANCH  57  71
BRANCH  58  79
ATOM     79  C   UNL A   1      45.676  33.136  28.618  1.00  0.00     0.057 A 
ATOM     80  C   UNL A   1      46.348  33.406  29.814  1.00  0.00     0.134 A 
ATOM     81  C   UNL A   1      45.652  34.149  27.650  1.00  0.00     0.134 A 
ATOM     82  F   UNL A   1      46.388  32.485  30.789  1.00  0.00    -0.206 F 
ATOM     83  C   UNL A   1      46.958  34.640  30.048  1.00  0.00     0.040 A 
ATOM     84  C   UNL A   1      46.281  35.377  27.858  1.00  0.00     0.040 A 
ATOM     85  F   UNL A   1      45.026  33.953  26.479  1.00  0.00    -0.206 F 
ATOM     86  C   UNL A   1      46.932  35.627  29.065  1.00  0.00     0.006 A 
ENDBRANCH  58  79
BRANCH  70  87
ATOM     87  C   UNL A   1      47.689  27.218  25.518  1.00  0.00     0.057 A 
ATOM     88  C   UNL A   1      47.831  27.418  24.138  1.00  0.00     0.134 A 
ATOM     89  C   UNL A   1      48.784  26.680  26.207  1.00  0.00     0.134 A 
ATOM     90  F   UNL A   1      46.818  27.917  23.414  1.00  0.00    -0.206 F 
ATOM     91  C   UNL A   1      49.010  27.077  23.470  1.00  0.00     0.040 A 
ATOM     92  C   UNL A   1      49.977  26.364  25.556  1.00  0.00     0.040 A 
ATOM     93  F   UNL A   1      48.719  26.474  27.531  1.00  0.00    -0.206 F 
ATOM     94  C   UNL A   1      50.089  26.556  24.181  1.00  0.00     0.006 A 
ENDBRANCH  70  87
ENDBRANCH  44  45
ENDBRANCH  37  39
ENDBRANCH  36  37
ENDBRANCH  35  36
ENDBRANCH  34  35
ENDBRANCH  33  34
ENDBRANCH   1  33
TORSDOF 19
ENDMDL
