MODEL 1
REMARK VINA RESULT:     -12.2      0.000      0.000
REMARK SMILES O=C1CCCC2=C1[C@H](c1ccc([N+](=O)[O-])cc1)CC(=O)N2c1ccccc1C(=O)OCCOCCOC(=O)c1ccc(-c2c3nc(c(-c4c(F)cccc4F)c4ccc([nH]4)c(-c4c(F)cccc4F)c4nc(c(-c5c(F)cccc5F)c5ccc2[nH]5)C=C4)C=C3)cc1
REMARK SMILES IDX 32 1 31 2 30 3 28 4 29 5 27 6 22 7 23 8 24 9 26 10 25 11
REMARK SMILES IDX 21 12 1 13 2 14 3 15 7 16 4 17 6 18 8 19 5 20 18 21 19 22
REMARK SMILES IDX 20 23 9 24 10 25 17 26 11 27 16 28 12 29 13 30 14 31 15 32
REMARK SMILES IDX 33 33 34 34 35 35 36 36 37 37 38 38 39 39 40 40 92 41 41 42
REMARK SMILES IDX 91 43 42 44 43 45 44 46 85 47 45 48 90 49 84 50 86 51 46 52
REMARK SMILES IDX 89 53 83 54 82 55 47 57 73 58 56 59 72 60 57 61 60 62 71 63
REMARK SMILES IDX 87 64 58 65 59 66 70 68 88 69 61 70 48 71 49 72 54 73 50 74
REMARK SMILES IDX 51 75 53 76 55 77 52 78 74 79 75 80 80 81 76 82 77 83 79 84
REMARK SMILES IDX 81 85 78 86 62 87 63 88 68 89 64 90 65 91 67 92 69 93 66 94
REMARK H PARENT 86 56 60 67
REMARK Flexibility Score: inf
ROOT
ATOM      1  C   UNL A   1      38.650  23.525  26.630  1.00  0.00     0.202 C 
ENDROOT
BRANCH   1   2
ATOM      2  C   UNL A   1      37.419  23.627  25.719  1.00  0.00     0.261 C 
BRANCH   2   3
ATOM      3  O   UNL A   1      36.146  23.573  26.372  1.00  0.00    -0.460 OA
BRANCH   3   4
ATOM      4  C   UNL A   1      35.121  23.924  25.556  1.00  0.00     0.340 C 
ATOM      5  O   UNL A   1      35.049  24.958  24.906  1.00  0.00    -0.246 OA
BRANCH   4   6
ATOM      6  C   UNL A   1      34.053  22.904  25.479  1.00  0.00     0.084 A 
ATOM      7  C   UNL A   1      32.698  23.109  25.160  1.00  0.00     0.063 A 
ATOM      8  C   UNL A   1      31.869  21.962  25.098  1.00  0.00     0.027 A 
ATOM      9  C   UNL A   1      32.344  20.677  25.367  1.00  0.00     0.002 A 
ATOM     10  C   UNL A   1      34.518  21.599  25.764  1.00  0.00     0.018 A 
ATOM     11  C   UNL A   1      33.672  20.496  25.716  1.00  0.00     0.001 A 
BRANCH   7  12
ATOM     12  N   UNL A   1      32.044  24.379  24.911  1.00  0.00    -0.284 N 
ATOM     13  O   UNL A   1      30.717  27.962  22.098  1.00  0.00    -0.294 OA
ATOM     14  C   UNL A   1      31.495  27.039  22.316  1.00  0.00     0.161 C 
ATOM     15  C   UNL A   1      32.584  26.668  21.348  1.00  0.00     0.081 C 
ATOM     16  C   UNL A   1      31.477  26.300  23.613  1.00  0.00     0.023 C 
ATOM     17  C   UNL A   1      32.517  25.175  21.126  1.00  0.00     0.015 C 
ATOM     18  C   UNL A   1      32.040  25.071  23.679  1.00  0.00     0.033 C 
ATOM     19  C   UNL A   1      30.812  26.991  24.780  1.00  0.00     0.064 C 
ATOM     20  C   UNL A   1      32.628  24.401  22.443  1.00  0.00     0.055 C 
ATOM     21  C   UNL A   1      30.248  25.903  25.675  1.00  0.00     0.114 C 
ATOM     22  C   UNL A   1      31.310  24.888  26.019  1.00  0.00     0.232 C 
ATOM     23  O   UNL A   1      31.416  24.493  27.182  1.00  0.00    -0.274 OA
BRANCH  19  24
ATOM     24  C   UNL A   1      31.747  27.968  25.507  1.00  0.00    -0.039 A 
ATOM     25  C   UNL A   1      31.372  29.714  25.525  1.00  0.00     0.011 A 
ATOM     26  C   UNL A   1      33.201  27.302  26.247  1.00  0.00     0.011 A 
ATOM     27  C   UNL A   1      32.394  30.932  26.296  1.00  0.00     0.086 A 
ATOM     28  C   UNL A   1      34.337  28.415  27.072  1.00  0.00     0.086 A 
ATOM     29  C   UNL A   1      33.916  30.398  27.110  1.00  0.00     0.269 A 
BRANCH  29  30
ATOM     30  N   UNL A   1      34.403  31.640  27.886  1.00  0.00     0.062 N 
ATOM     31  O   UNL A   1      35.337  32.264  27.359  1.00  0.00    -0.258 OA
ATOM     32  O   UNL A   1      33.954  31.878  29.015  1.00  0.00    -0.258 OA
ENDBRANCH  29  30
ENDBRANCH  19  24
ENDBRANCH   7  12
ENDBRANCH   4   6
ENDBRANCH   3   4
ENDBRANCH   2   3
ENDBRANCH   1   2
BRANCH   1  33
ATOM     33  O   UNL A   1      39.663  22.563  26.378  1.00  0.00    -0.374 OA
BRANCH  33  34
ATOM     34  C   UNL A   1      39.337  21.301  25.806  1.00  0.00     0.202 C 
BRANCH  34  35
ATOM     35  C   UNL A   1      40.040  20.033  26.295  1.00  0.00     0.261 C 
BRANCH  35  36
ATOM     36  O   UNL A   1      41.063  19.580  25.408  1.00  0.00    -0.460 OA
BRANCH  36  37
ATOM     37  C   UNL A   1      42.292  19.474  25.957  1.00  0.00     0.338 C 
ATOM     38  O   UNL A   1      42.996  18.489  26.067  1.00  0.00    -0.246 OA
BRANCH  37  39
ATOM     39  C   UNL A   1      42.727  20.816  26.337  1.00  0.00     0.060 A 
ATOM     40  C   UNL A   1      42.649  21.339  28.029  1.00  0.00     0.016 A 
ATOM     41  C   UNL A   1      43.111  22.046  25.085  1.00  0.00     0.016 A 
ATOM     42  C   UNL A   1      42.907  23.038  28.541  1.00  0.00     0.010 A 
ATOM     43  C   UNL A   1      43.395  23.957  25.680  1.00  0.00     0.010 A 
ATOM     44  C   UNL A   1      43.259  24.355  27.420  1.00  0.00    -0.014 A 
BRANCH  44  45
ATOM     45  C   UNL A   1      43.396  25.769  27.807  1.00  0.00     0.031 A 
ATOM     46  C   UNL A   1      44.756  26.379  27.936  1.00  0.00     0.074 A 
ATOM     47  C   UNL A   1      42.320  26.454  28.226  1.00  0.00     0.049 A 
ATOM     48  N   UNL A   1      45.102  27.637  27.997  1.00  0.00    -0.248 NA
ATOM     49  C   UNL A   1      45.887  25.452  28.007  1.00  0.00     0.031 C 
ATOM     50  C   UNL A   1      40.954  25.939  28.297  1.00  0.00     0.029 A 
ATOM     51  N   UNL A   1      42.224  27.723  28.733  1.00  0.00    -0.354 N 
ATOM     52  C   UNL A   1      46.493  27.636  27.958  1.00  0.00     0.074 A 
ATOM     53  C   UNL A   1      46.929  26.264  27.944  1.00  0.00     0.031 C 
ATOM     54  C   UNL A   1      40.166  26.860  28.878  1.00  0.00     0.029 A 
ATOM     55  C   UNL A   1      40.964  28.046  29.168  1.00  0.00     0.049 A 
ATOM     56  H   UNL A   1      42.987  28.343  28.780  1.00  0.00     0.167 HD
ATOM     57  C   UNL A   1      47.332  28.696  27.956  1.00  0.00     0.037 A 
ATOM     58  C   UNL A   1      40.511  29.189  29.714  1.00  0.00     0.037 A 
ATOM     59  C   UNL A   1      46.889  30.029  28.245  1.00  0.00     0.049 A 
ATOM     60  C   UNL A   1      41.455  30.358  29.796  1.00  0.00     0.074 A 
ATOM     61  C   UNL A   1      47.616  31.202  28.288  1.00  0.00     0.029 A 
ATOM     62  N   UNL A   1      45.593  30.336  28.638  1.00  0.00    -0.354 N 
ATOM     63  N   UNL A   1      42.728  30.417  29.478  1.00  0.00    -0.248 NA
ATOM     64  C   UNL A   1      40.889  31.632  30.255  1.00  0.00     0.031 C 
ATOM     65  C   UNL A   1      46.773  32.206  28.782  1.00  0.00     0.029 A 
ATOM     66  C   UNL A   1      45.508  31.670  28.981  1.00  0.00     0.049 A 
ATOM     67  H   UNL A   1      44.845  29.697  28.667  1.00  0.00     0.167 HD
ATOM     68  C   UNL A   1      43.105  31.742  29.653  1.00  0.00     0.074 A 
ATOM     69  C   UNL A   1      41.923  32.450  30.105  1.00  0.00     0.031 C 
ATOM     70  C   UNL A   1      44.311  32.329  29.442  1.00  0.00     0.037 A 
BRANCH  57  71
ATOM     71  C   UNL A   1      48.780  28.419  27.679  1.00  0.00     0.057 A 
ATOM     72  C   UNL A   1      49.231  28.193  26.369  1.00  0.00     0.134 A 
ATOM     73  C   UNL A   1      49.732  28.369  28.702  1.00  0.00     0.134 A 
ATOM     74  F   UNL A   1      48.369  28.213  25.341  1.00  0.00    -0.206 F 
ATOM     75  C   UNL A   1      50.570  27.912  26.090  1.00  0.00     0.040 A 
ATOM     76  C   UNL A   1      51.079  28.107  28.434  1.00  0.00     0.040 A 
ATOM     77  F   UNL A   1      49.372  28.560  29.980  1.00  0.00    -0.206 F 
ATOM     78  C   UNL A   1      51.500  27.874  27.126  1.00  0.00     0.006 A 
ENDBRANCH  57  71
BRANCH  58  79
ATOM     79  C   UNL A   1      39.084  29.303  30.105  1.00  0.00     0.057 A 
ATOM     80  C   UNL A   1      38.684  29.106  31.431  1.00  0.00     0.134 A 
ATOM     81  C   UNL A   1      38.094  29.661  29.181  1.00  0.00     0.134 A 
ATOM     82  F   UNL A   1      39.585  28.753  32.360  1.00  0.00    -0.206 F 
ATOM     83  C   UNL A   1      37.353  29.248  31.826  1.00  0.00     0.040 A 
ATOM     84  C   UNL A   1      36.761  29.827  29.566  1.00  0.00     0.040 A 
ATOM     85  F   UNL A   1      38.411  29.871  27.895  1.00  0.00    -0.206 F 
ATOM     86  C   UNL A   1      36.387  29.617  30.892  1.00  0.00     0.006 A 
ENDBRANCH  58  79
BRANCH  70  87
ATOM     87  C   UNL A   1      44.397  33.804  29.683  1.00  0.00     0.057 A 
ATOM     88  C   UNL A   1      44.137  34.736  28.670  1.00  0.00     0.134 A 
ATOM     89  C   UNL A   1      44.696  34.294  30.960  1.00  0.00     0.134 A 
ATOM     90  F   UNL A   1      43.854  34.325  27.425  1.00  0.00    -0.206 F 
ATOM     91  C   UNL A   1      44.196  36.107  28.915  1.00  0.00     0.040 A 
ATOM     92  C   UNL A   1      44.729  35.662  31.223  1.00  0.00     0.040 A 
ATOM     93  F   UNL A   1      44.941  33.451  31.974  1.00  0.00    -0.206 F 
ATOM     94  C   UNL A   1      44.486  36.573  30.197  1.00  0.00     0.006 A 
ENDBRANCH  70  87
ENDBRANCH  44  45
ENDBRANCH  37  39
ENDBRANCH  36  37
ENDBRANCH  35  36
ENDBRANCH  34  35
ENDBRANCH  33  34
ENDBRANCH   1  33
TORSDOF 17
ENDMDL
MODEL 2
REMARK VINA RESULT:     -12.1      4.281      5.900
REMARK SMILES O=C1CCCC2=C1[C@H](c1ccc([N+](=O)[O-])cc1)CC(=O)N2c1ccccc1C(=O)OCCOCCOC(=O)c1ccc(-c2c3nc(c(-c4c(F)cccc4F)c4ccc([nH]4)c(-c4c(F)cccc4F)c4nc(c(-c5c(F)cccc5F)c5ccc2[nH]5)C=C4)C=C3)cc1
REMARK SMILES IDX 32 1 31 2 30 3 28 4 29 5 27 6 22 7 23 8 24 9 26 10 25 11
REMARK SMILES IDX 21 12 1 13 2 14 3 15 7 16 4 17 6 18 8 19 5 20 18 21 19 22
REMARK SMILES IDX 20 23 9 24 10 25 17 26 11 27 16 28 12 29 13 30 14 31 15 32
REMARK SMILES IDX 33 33 34 34 35 35 36 36 37 37 38 38 39 39 40 40 92 41 41 42
REMARK SMILES IDX 91 43 42 44 43 45 44 46 85 47 45 48 90 49 84 50 86 51 46 52
REMARK SMILES IDX 89 53 83 54 82 55 47 57 73 58 56 59 72 60 57 61 60 62 71 63
REMARK SMILES IDX 87 64 58 65 59 66 70 68 88 69 61 70 48 71 49 72 54 73 50 74
REMARK SMILES IDX 51 75 53 76 55 77 52 78 74 79 75 80 80 81 76 82 77 83 79 84
REMARK SMILES IDX 81 85 78 86 62 87 63 88 68 89 64 90 65 91 67 92 69 93 66 94
REMARK H PARENT 86 56 60 67
REMARK Flexibility Score: inf
ROOT
ATOM      1  C   UNL A   1      38.672  21.566  25.404  1.00  0.00     0.202 C 
ENDROOT
BRANCH   1   2
ATOM      2  C   UNL A   1      37.674  22.716  25.596  1.00  0.00     0.261 C 
BRANCH   2   3
ATOM      3  O   UNL A   1      36.574  22.757  24.679  1.00  0.00    -0.460 OA
BRANCH   3   4
ATOM      4  C   UNL A   1      35.370  22.774  25.301  1.00  0.00     0.340 C 
ATOM      5  O   UNL A   1      35.003  23.604  26.122  1.00  0.00    -0.246 OA
BRANCH   4   6
ATOM      6  C   UNL A   1      34.470  21.682  24.874  1.00  0.00     0.084 A 
ATOM      7  C   UNL A   1      33.165  21.801  24.360  1.00  0.00     0.063 A 
ATOM      8  C   UNL A   1      32.513  20.606  23.970  1.00  0.00     0.027 A 
ATOM      9  C   UNL A   1      33.104  19.348  24.108  1.00  0.00     0.002 A 
ATOM     10  C   UNL A   1      35.050  20.400  25.024  1.00  0.00     0.018 A 
ATOM     11  C   UNL A   1      34.373  19.244  24.653  1.00  0.00     0.001 A 
BRANCH   7  12
ATOM     12  N   UNL A   1      32.398  23.022  24.206  1.00  0.00    -0.284 N 
ATOM     13  O   UNL A   1      30.871  26.761  21.716  1.00  0.00    -0.294 OA
ATOM     14  C   UNL A   1      31.726  25.899  21.886  1.00  0.00     0.161 C 
ATOM     15  C   UNL A   1      32.902  25.749  20.961  1.00  0.00     0.081 C 
ATOM     16  C   UNL A   1      31.711  25.017  23.090  1.00  0.00     0.023 C 
ATOM     17  C   UNL A   1      33.004  24.293  20.572  1.00  0.00     0.015 C 
ATOM     18  C   UNL A   1      32.394  23.848  23.059  1.00  0.00     0.033 C 
ATOM     19  C   UNL A   1      30.911  25.500  24.276  1.00  0.00     0.064 C 
ATOM     20  C   UNL A   1      33.118  23.386  21.802  1.00  0.00     0.055 C 
ATOM     21  C   UNL A   1      30.413  24.267  25.006  1.00  0.00     0.114 C 
ATOM     22  C   UNL A   1      31.553  23.327  25.309  1.00  0.00     0.232 C 
ATOM     23  O   UNL A   1      31.632  22.812  26.427  1.00  0.00    -0.274 OA
BRANCH  19  24
ATOM     24  C   UNL A   1      31.696  26.472  25.169  1.00  0.00    -0.039 A 
ATOM     25  C   UNL A   1      33.413  26.816  24.817  1.00  0.00     0.011 A 
ATOM     26  C   UNL A   1      30.855  27.160  26.556  1.00  0.00     0.011 A 
ATOM     27  C   UNL A   1      34.423  27.885  25.796  1.00  0.00     0.086 A 
ATOM     28  C   UNL A   1      31.749  28.268  27.644  1.00  0.00     0.086 A 
ATOM     29  C   UNL A   1      33.695  28.676  27.248  1.00  0.00     0.269 A 
BRANCH  29  30
ATOM     30  N   UNL A   1      34.742  29.718  27.694  1.00  0.00     0.062 N 
ATOM     31  O   UNL A   1      34.468  30.898  27.424  1.00  0.00    -0.258 OA
ATOM     32  O   UNL A   1      35.826  29.345  28.161  1.00  0.00    -0.258 OA
ENDBRANCH  29  30
ENDBRANCH  19  24
ENDBRANCH   7  12
ENDBRANCH   4   6
ENDBRANCH   3   4
ENDBRANCH   2   3
ENDBRANCH   1   2
BRANCH   1  33
ATOM     33  O   UNL A   1      39.559  21.192  26.448  1.00  0.00    -0.374 OA
BRANCH  33  34
ATOM     34  C   UNL A   1      40.511  22.119  26.957  1.00  0.00     0.202 C 
BRANCH  34  35
ATOM     35  C   UNL A   1      42.002  21.915  26.682  1.00  0.00     0.261 C 
BRANCH  35  36
ATOM     36  O   UNL A   1      42.796  23.052  27.018  1.00  0.00    -0.460 OA
BRANCH  36  37
ATOM     37  C   UNL A   1      42.633  24.123  26.213  1.00  0.00     0.338 C 
ATOM     38  O   UNL A   1      42.721  24.188  25.002  1.00  0.00    -0.246 OA
BRANCH  37  39
ATOM     39  C   UNL A   1      42.211  25.246  27.046  1.00  0.00     0.060 A 
ATOM     40  C   UNL A   1      43.390  26.454  27.589  1.00  0.00     0.016 A 
ATOM     41  C   UNL A   1      40.557  25.300  27.746  1.00  0.00     0.016 A 
ATOM     42  C   UNL A   1      43.015  27.703  28.821  1.00  0.00     0.010 A 
ATOM     43  C   UNL A   1      40.154  26.712  29.136  1.00  0.00     0.010 A 
ATOM     44  C   UNL A   1      41.447  27.854  29.615  1.00  0.00    -0.014 A 
BRANCH  44  45
ATOM     45  C   UNL A   1      41.140  28.818  30.685  1.00  0.00     0.031 A 
ATOM     46  C   UNL A   1      41.735  28.636  32.046  1.00  0.00     0.074 A 
ATOM     47  C   UNL A   1      40.184  29.742  30.498  1.00  0.00     0.049 A 
ATOM     48  N   UNL A   1      41.821  29.483  33.037  1.00  0.00    -0.248 NA
ATOM     49  C   UNL A   1      42.315  27.325  32.339  1.00  0.00     0.031 C 
ATOM     50  C   UNL A   1      39.414  29.937  29.271  1.00  0.00     0.029 A 
ATOM     51  N   UNL A   1      39.658  30.656  31.371  1.00  0.00    -0.354 N 
ATOM     52  C   UNL A   1      42.597  28.844  33.998  1.00  0.00     0.074 A 
ATOM     53  C   UNL A   1      42.894  27.522  33.512  1.00  0.00     0.031 C 
ATOM     54  C   UNL A   1      38.467  30.866  29.489  1.00  0.00     0.029 A 
ATOM     55  C   UNL A   1      38.604  31.366  30.853  1.00  0.00     0.049 A 
ATOM     56  H   UNL A   1      40.002  30.791  32.283  1.00  0.00     0.167 HD
ATOM     57  C   UNL A   1      43.007  29.318  35.196  1.00  0.00     0.037 A 
ATOM     58  C   UNL A   1      37.857  32.331  31.419  1.00  0.00     0.037 A 
ATOM     59  C   UNL A   1      42.476  30.520  35.770  1.00  0.00     0.049 A 
ATOM     60  C   UNL A   1      38.248  32.818  32.788  1.00  0.00     0.074 A 
ATOM     61  C   UNL A   1      42.783  31.125  36.973  1.00  0.00     0.029 A 
ATOM     62  N   UNL A   1      41.439  31.248  35.200  1.00  0.00    -0.354 N 
ATOM     63  N   UNL A   1      39.195  32.376  33.584  1.00  0.00    -0.248 NA
ATOM     64  C   UNL A   1      37.510  33.972  33.314  1.00  0.00     0.031 C 
ATOM     65  C   UNL A   1      41.877  32.177  37.163  1.00  0.00     0.029 A 
ATOM     66  C   UNL A   1      41.053  32.265  36.050  1.00  0.00     0.049 A 
ATOM     67  H   UNL A   1      41.040  31.065  34.319  1.00  0.00     0.167 HD
ATOM     68  C   UNL A   1      39.199  33.225  34.683  1.00  0.00     0.074 A 
ATOM     69  C   UNL A   1      38.158  34.207  34.447  1.00  0.00     0.031 C 
ATOM     70  C   UNL A   1      40.000  33.211  35.779  1.00  0.00     0.037 A 
BRANCH  57  71
ATOM     71  C   UNL A   1      44.026  28.506  35.939  1.00  0.00     0.057 A 
ATOM     72  C   UNL A   1      45.398  28.761  35.788  1.00  0.00     0.134 A 
ATOM     73  C   UNL A   1      43.658  27.468  36.802  1.00  0.00     0.134 A 
ATOM     74  F   UNL A   1      45.822  29.733  34.965  1.00  0.00    -0.206 F 
ATOM     75  C   UNL A   1      46.365  28.003  36.452  1.00  0.00     0.040 A 
ATOM     76  C   UNL A   1      44.616  26.716  37.487  1.00  0.00     0.040 A 
ATOM     77  F   UNL A   1      42.366  27.159  36.984  1.00  0.00    -0.206 F 
ATOM     78  C   UNL A   1      45.973  26.980  37.310  1.00  0.00     0.006 A 
ENDBRANCH  57  71
BRANCH  58  79
ATOM     79  C   UNL A   1      36.760  32.962  30.645  1.00  0.00     0.057 A 
ATOM     80  C   UNL A   1      37.036  33.834  29.585  1.00  0.00     0.134 A 
ATOM     81  C   UNL A   1      35.415  32.672  30.906  1.00  0.00     0.134 A 
ATOM     82  F   UNL A   1      38.304  34.156  29.292  1.00  0.00    -0.206 F 
ATOM     83  C   UNL A   1      36.017  34.404  28.820  1.00  0.00     0.040 A 
ATOM     84  C   UNL A   1      34.386  33.219  30.134  1.00  0.00     0.040 A 
ATOM     85  F   UNL A   1      35.082  31.839  31.902  1.00  0.00    -0.206 F 
ATOM     86  C   UNL A   1      34.687  34.092  29.090  1.00  0.00     0.006 A 
ENDBRANCH  58  79
BRANCH  70  87
ATOM     87  C   UNL A   1      39.786  34.297  36.787  1.00  0.00     0.057 A 
ATOM     88  C   UNL A   1      38.955  34.120  37.900  1.00  0.00     0.134 A 
ATOM     89  C   UNL A   1      40.462  35.518  36.664  1.00  0.00     0.134 A 
ATOM     90  F   UNL A   1      38.276  32.975  38.067  1.00  0.00    -0.206 F 
ATOM     91  C   UNL A   1      38.785  35.131  38.845  1.00  0.00     0.040 A 
ATOM     92  C   UNL A   1      40.322  36.524  37.617  1.00  0.00     0.040 A 
ATOM     93  F   UNL A   1      41.281  35.742  35.626  1.00  0.00    -0.206 F 
ATOM     94  C   UNL A   1      39.475  36.334  38.707  1.00  0.00     0.006 A 
ENDBRANCH  70  87
ENDBRANCH  44  45
ENDBRANCH  37  39
ENDBRANCH  36  37
ENDBRANCH  35  36
ENDBRANCH  34  35
ENDBRANCH  33  34
ENDBRANCH   1  33
TORSDOF 17
ENDMDL
MODEL 3
REMARK VINA RESULT:     -11.7      2.884      7.211
REMARK SMILES O=C1CCCC2=C1[C@H](c1ccc([N+](=O)[O-])cc1)CC(=O)N2c1ccccc1C(=O)OCCOCCOC(=O)c1ccc(-c2c3nc(c(-c4c(F)cccc4F)c4ccc([nH]4)c(-c4c(F)cccc4F)c4nc(c(-c5c(F)cccc5F)c5ccc2[nH]5)C=C4)C=C3)cc1
REMARK SMILES IDX 32 1 31 2 30 3 28 4 29 5 27 6 22 7 23 8 24 9 26 10 25 11
REMARK SMILES IDX 21 12 1 13 2 14 3 15 7 16 4 17 6 18 8 19 5 20 18 21 19 22
REMARK SMILES IDX 20 23 9 24 10 25 17 26 11 27 16 28 12 29 13 30 14 31 15 32
REMARK SMILES IDX 33 33 34 34 35 35 36 36 37 37 38 38 39 39 40 40 92 41 41 42
REMARK SMILES IDX 91 43 42 44 43 45 44 46 85 47 45 48 90 49 84 50 86 51 46 52
REMARK SMILES IDX 89 53 83 54 82 55 47 57 73 58 56 59 72 60 57 61 60 62 71 63
REMARK SMILES IDX 87 64 58 65 59 66 70 68 88 69 61 70 48 71 49 72 54 73 50 74
REMARK SMILES IDX 51 75 53 76 55 77 52 78 74 79 75 80 80 81 76 82 77 83 79 84
REMARK SMILES IDX 81 85 78 86 62 87 63 88 68 89 64 90 65 91 67 92 69 93 66 94
REMARK H PARENT 86 56 60 67
REMARK Flexibility Score: inf
ROOT
ATOM      1  C   UNL A   1      38.082  21.952  25.404  1.00  0.00     0.202 C 
ENDROOT
BRANCH   1   2
ATOM      2  C   UNL A   1      37.335  23.293  25.385  1.00  0.00     0.261 C 
BRANCH   2   3
ATOM      3  O   UNL A   1      36.037  23.282  24.779  1.00  0.00    -0.460 OA
BRANCH   3   4
ATOM      4  C   UNL A   1      35.067  22.847  25.620  1.00  0.00     0.340 C 
ATOM      5  O   UNL A   1      34.869  23.260  26.755  1.00  0.00    -0.246 OA
BRANCH   4   6
ATOM      6  C   UNL A   1      34.198  21.806  25.031  1.00  0.00     0.084 A 
ATOM      7  C   UNL A   1      32.964  21.991  24.380  1.00  0.00     0.063 A 
ATOM      8  C   UNL A   1      32.335  20.838  23.849  1.00  0.00     0.027 A 
ATOM      9  C   UNL A   1      32.879  19.559  23.979  1.00  0.00     0.002 A 
ATOM     10  C   UNL A   1      34.730  20.502  25.169  1.00  0.00     0.018 A 
ATOM     11  C   UNL A   1      34.075  19.388  24.656  1.00  0.00     0.001 A 
BRANCH   7  12
ATOM     12  N   UNL A   1      32.246  23.239  24.213  1.00  0.00    -0.284 N 
ATOM     13  O   UNL A   1      30.897  27.027  21.692  1.00  0.00    -0.294 OA
ATOM     14  C   UNL A   1      31.717  26.133  21.876  1.00  0.00     0.161 C 
ATOM     15  C   UNL A   1      32.899  25.937  20.969  1.00  0.00     0.081 C 
ATOM     16  C   UNL A   1      31.650  25.256  23.082  1.00  0.00     0.023 C 
ATOM     17  C   UNL A   1      32.951  24.476  20.585  1.00  0.00     0.015 C 
ATOM     18  C   UNL A   1      32.290  24.062  23.064  1.00  0.00     0.033 C 
ATOM     19  C   UNL A   1      30.853  25.772  24.256  1.00  0.00     0.064 C 
ATOM     20  C   UNL A   1      33.014  23.569  21.818  1.00  0.00     0.055 C 
ATOM     21  C   UNL A   1      30.298  24.561  24.981  1.00  0.00     0.114 C 
ATOM     22  C   UNL A   1      31.397  23.579  25.303  1.00  0.00     0.232 C 
ATOM     23  O   UNL A   1      31.440  23.064  26.422  1.00  0.00    -0.274 OA
BRANCH  19  24
ATOM     24  C   UNL A   1      31.661  26.716  25.157  1.00  0.00    -0.039 A 
ATOM     25  C   UNL A   1      33.299  27.232  24.665  1.00  0.00     0.011 A 
ATOM     26  C   UNL A   1      30.934  27.197  26.689  1.00  0.00     0.011 A 
ATOM     27  C   UNL A   1      34.333  28.283  25.639  1.00  0.00     0.086 A 
ATOM     28  C   UNL A   1      31.863  28.267  27.786  1.00  0.00     0.086 A 
ATOM     29  C   UNL A   1      33.717  28.870  27.234  1.00  0.00     0.269 A 
BRANCH  29  30
ATOM     30  N   UNL A   1      34.731  29.948  27.673  1.00  0.00     0.062 N 
ATOM     31  O   UNL A   1      35.625  29.556  28.438  1.00  0.00    -0.258 OA
ATOM     32  O   UNL A   1      34.545  31.133  27.367  1.00  0.00    -0.258 OA
ENDBRANCH  29  30
ENDBRANCH  19  24
ENDBRANCH   7  12
ENDBRANCH   4   6
ENDBRANCH   3   4
ENDBRANCH   2   3
ENDBRANCH   1   2
BRANCH   1  33
ATOM     33  O   UNL A   1      39.077  21.689  26.383  1.00  0.00    -0.374 OA
BRANCH  33  34
ATOM     34  C   UNL A   1      40.440  21.532  26.006  1.00  0.00     0.202 C 
BRANCH  34  35
ATOM     35  C   UNL A   1      41.554  21.870  27.000  1.00  0.00     0.261 C 
BRANCH  35  36
ATOM     36  O   UNL A   1      41.098  22.634  28.116  1.00  0.00    -0.460 OA
BRANCH  36  37
ATOM     37  C   UNL A   1      40.764  23.912  27.839  1.00  0.00     0.338 C 
ATOM     38  O   UNL A   1      39.664  24.428  27.826  1.00  0.00    -0.246 OA
BRANCH  37  39
ATOM     39  C   UNL A   1      42.002  24.661  27.638  1.00  0.00     0.060 A 
ATOM     40  C   UNL A   1      42.841  25.394  29.018  1.00  0.00     0.016 A 
ATOM     41  C   UNL A   1      42.571  25.070  25.984  1.00  0.00     0.016 A 
ATOM     42  C   UNL A   1      44.206  26.543  28.835  1.00  0.00     0.010 A 
ATOM     43  C   UNL A   1      44.108  26.370  25.797  1.00  0.00     0.010 A 
ATOM     44  C   UNL A   1      44.847  27.060  27.275  1.00  0.00    -0.014 A 
BRANCH  44  45
ATOM     45  C   UNL A   1      45.912  28.061  27.098  1.00  0.00     0.031 A 
ATOM     46  C   UNL A   1      45.559  29.506  26.937  1.00  0.00     0.074 A 
ATOM     47  C   UNL A   1      47.177  27.662  26.891  1.00  0.00     0.049 A 
ATOM     48  N   UNL A   1      46.317  30.565  27.037  1.00  0.00    -0.248 NA
ATOM     49  C   UNL A   1      44.162  29.809  26.620  1.00  0.00     0.031 C 
ATOM     50  C   UNL A   1      47.643  26.276  26.870  1.00  0.00     0.029 A 
ATOM     51  N   UNL A   1      48.297  28.393  26.595  1.00  0.00    -0.354 N 
ATOM     52  C   UNL A   1      45.448  31.648  26.945  1.00  0.00     0.074 A 
ATOM     53  C   UNL A   1      44.126  31.127  26.708  1.00  0.00     0.031 C 
ATOM     54  C   UNL A   1      48.938  26.252  26.512  1.00  0.00     0.029 A 
ATOM     55  C   UNL A   1      49.402  27.624  26.334  1.00  0.00     0.049 A 
ATOM     56  H   UNL A   1      48.307  29.377  26.572  1.00  0.00     0.167 HD
ATOM     57  C   UNL A   1      45.737  32.965  27.030  1.00  0.00     0.037 A 
ATOM     58  C   UNL A   1      50.654  27.999  26.014  1.00  0.00     0.037 A 
ATOM     59  C   UNL A   1      47.082  33.461  26.992  1.00  0.00     0.049 A 
ATOM     60  C   UNL A   1      50.977  29.469  26.024  1.00  0.00     0.074 A 
ATOM     61  C   UNL A   1      47.537  34.763  27.060  1.00  0.00     0.029 A 
ATOM     62  N   UNL A   1      48.190  32.653  26.773  1.00  0.00    -0.354 N 
ATOM     63  N   UNL A   1      50.177  30.490  26.226  1.00  0.00    -0.248 NA
ATOM     64  C   UNL A   1      52.383  29.836  25.820  1.00  0.00     0.031 C 
ATOM     65  C   UNL A   1      48.914  34.746  26.806  1.00  0.00     0.029 A 
ATOM     66  C   UNL A   1      49.324  33.430  26.647  1.00  0.00     0.049 A 
ATOM     67  H   UNL A   1      48.170  31.670  26.717  1.00  0.00     0.167 HD
ATOM     68  C   UNL A   1      50.987  31.618  26.222  1.00  0.00     0.074 A 
ATOM     69  C   UNL A   1      52.341  31.151  25.996  1.00  0.00     0.031 C 
ATOM     70  C   UNL A   1      50.651  32.920  26.407  1.00  0.00     0.037 A 
BRANCH  57  71
ATOM     71  C   UNL A   1      44.579  33.914  27.125  1.00  0.00     0.057 A 
ATOM     72  C   UNL A   1      43.978  34.433  25.968  1.00  0.00     0.134 A 
ATOM     73  C   UNL A   1      44.057  34.322  28.357  1.00  0.00     0.134 A 
ATOM     74  F   UNL A   1      44.439  34.095  24.753  1.00  0.00    -0.206 F 
ATOM     75  C   UNL A   1      42.915  35.335  26.033  1.00  0.00     0.040 A 
ATOM     76  C   UNL A   1      42.980  35.209  28.434  1.00  0.00     0.040 A 
ATOM     77  F   UNL A   1      44.590  33.878  29.505  1.00  0.00    -0.206 F 
ATOM     78  C   UNL A   1      42.409  35.721  27.271  1.00  0.00     0.006 A 
ENDBRANCH  57  71
BRANCH  58  79
ATOM     79  C   UNL A   1      51.694  26.967  25.780  1.00  0.00     0.057 A 
ATOM     80  C   UNL A   1      52.008  26.544  24.483  1.00  0.00     0.134 A 
ATOM     81  C   UNL A   1      52.435  26.418  26.833  1.00  0.00     0.134 A 
ATOM     82  F   UNL A   1      51.328  27.029  23.435  1.00  0.00    -0.206 F 
ATOM     83  C   UNL A   1      53.012  25.605  24.241  1.00  0.00     0.040 A 
ATOM     84  C   UNL A   1      53.457  25.492  26.603  1.00  0.00     0.040 A 
ATOM     85  F   UNL A   1      52.190  26.785  28.099  1.00  0.00    -0.206 F 
ATOM     86  C   UNL A   1      53.744  25.080  25.303  1.00  0.00     0.006 A 
ENDBRANCH  58  79
BRANCH  70  87
ATOM     87  C   UNL A   1      51.769  33.917  26.387  1.00  0.00     0.057 A 
ATOM     88  C   UNL A   1      52.154  34.572  25.211  1.00  0.00     0.134 A 
ATOM     89  C   UNL A   1      52.431  34.258  27.573  1.00  0.00     0.134 A 
ATOM     90  F   UNL A   1      51.561  34.280  24.044  1.00  0.00    -0.206 F 
ATOM     91  C   UNL A   1      53.180  35.517  25.212  1.00  0.00     0.040 A 
ATOM     92  C   UNL A   1      53.437  35.221  27.590  1.00  0.00     0.040 A 
ATOM     93  F   UNL A   1      52.097  33.674  28.733  1.00  0.00    -0.206 F 
ATOM     94  C   UNL A   1      53.819  35.848  26.405  1.00  0.00     0.006 A 
ENDBRANCH  70  87
ENDBRANCH  44  45
ENDBRANCH  37  39
ENDBRANCH  36  37
ENDBRANCH  35  36
ENDBRANCH  34  35
ENDBRANCH  33  34
ENDBRANCH   1  33
TORSDOF 17
ENDMDL
