MODEL 1
REMARK VINA RESULT:     -11.2      0.000      0.000
REMARK SMILES O=C(OCCOCCOC(=O)c1cccc(NC(=S)N/N=C\c2c[nH]c3ccccc23)c1)c1ccc(-c2c3nc(c(-c4c(F)cccc4F)c4ccc([nH]4)c(-c4c(F)cccc4F)c4nc(c(-c5c(F)cccc5F)c5ccc2[nH]5)C=C4)C=C3)cc1
REMARK SMILES IDX 7 1 6 2 5 3 4 4 3 5 2 6 1 7 33 8 34 9 86 10 35 11 85 12
REMARK SMILES IDX 36 13 37 14 38 15 79 16 39 17 84 18 78 19 80 20 40 21 83 22
REMARK SMILES IDX 77 23 76 24 41 26 67 27 50 28 66 29 51 30 54 31 65 32 81 33
REMARK SMILES IDX 52 34 53 35 64 37 82 38 55 39 42 40 43 41 48 42 44 43 45 44
REMARK SMILES IDX 47 45 49 46 46 47 68 48 69 49 74 50 70 51 71 52 73 53 75 54
REMARK SMILES IDX 72 55 56 56 57 57 62 58 58 59 59 60 61 61 63 62 60 63 8 64
REMARK SMILES IDX 9 65 10 66 11 67 12 68 13 69 32 70 14 71 16 72 15 73 17 74
REMARK SMILES IDX 18 76 19 77 20 78 21 80 22 81 23 82 24 83 31 84 25 85 26 86
REMARK SMILES IDX 30 87 27 89 29 90 28 91
REMARK H PARENT 80 25 54 36 17 75 20 79 25 88
REMARK Flexibility Score: inf
ROOT
ATOM      1  C   UNL A   1      33.692  35.412  30.028  1.00  0.00     0.202 C 
ENDROOT
BRANCH   1   2
ATOM      2  O   UNL A   1      34.591  34.500  30.674  1.00  0.00    -0.374 OA
BRANCH   2   3
ATOM      3  C   UNL A   1      34.666  34.599  32.100  1.00  0.00     0.202 C 
BRANCH   3   4
ATOM      4  C   UNL A   1      34.186  33.367  32.867  1.00  0.00     0.261 C 
BRANCH   4   5
ATOM      5  O   UNL A   1      35.065  32.256  32.628  1.00  0.00    -0.460 OA
BRANCH   5   6
ATOM      6  C   UNL A   1      36.307  32.054  33.129  1.00  0.00     0.338 C 
ATOM      7  O   UNL A   1      36.504  32.271  34.322  1.00  0.00    -0.246 OA
BRANCH   6   8
ATOM      8  C   UNL A   1      37.465  31.601  32.299  1.00  0.00     0.060 A 
ATOM      9  C   UNL A   1      38.563  30.896  32.788  1.00  0.00     0.016 A 
ATOM     10  C   UNL A   1      37.392  31.819  30.911  1.00  0.00     0.016 A 
ATOM     11  C   UNL A   1      39.591  30.481  31.959  1.00  0.00     0.010 A 
ATOM     12  C   UNL A   1      38.395  31.348  30.055  1.00  0.00     0.010 A 
ATOM     13  C   UNL A   1      39.505  30.685  30.586  1.00  0.00    -0.014 A 
BRANCH  13  14
ATOM     14  C   UNL A   1      40.640  30.220  29.770  1.00  0.00     0.031 A 
ATOM     15  C   UNL A   1      41.827  31.114  29.609  1.00  0.00     0.074 A 
ATOM     16  C   UNL A   1      40.657  28.939  29.358  1.00  0.00     0.049 A 
ATOM     17  N   UNL A   1      42.955  30.883  28.994  1.00  0.00    -0.248 NA
ATOM     18  C   UNL A   1      41.745  32.438  30.248  1.00  0.00     0.031 C 
ATOM     19  C   UNL A   1      39.579  27.969  29.583  1.00  0.00     0.029 A 
ATOM     20  N   UNL A   1      41.625  28.215  28.719  1.00  0.00    -0.354 N 
ATOM     21  C   UNL A   1      43.715  32.031  29.164  1.00  0.00     0.074 A 
ATOM     22  C   UNL A   1      42.917  32.966  29.927  1.00  0.00     0.031 C 
ATOM     23  C   UNL A   1      39.967  26.768  29.127  1.00  0.00     0.029 A 
ATOM     24  C   UNL A   1      41.285  26.898  28.519  1.00  0.00     0.049 A 
ATOM     25  H   UNL A   1      42.485  28.599  28.429  1.00  0.00     0.167 HD
ATOM     26  C   UNL A   1      44.968  32.275  28.720  1.00  0.00     0.037 A 
ATOM     27  C   UNL A   1      41.960  25.919  27.890  1.00  0.00     0.037 A 
ATOM     28  C   UNL A   1      45.731  31.331  27.949  1.00  0.00     0.049 A 
ATOM     29  C   UNL A   1      43.310  26.253  27.321  1.00  0.00     0.074 A 
ATOM     30  C   UNL A   1      46.964  31.497  27.348  1.00  0.00     0.029 A 
ATOM     31  N   UNL A   1      45.321  30.032  27.680  1.00  0.00    -0.354 N 
ATOM     32  N   UNL A   1      43.990  27.373  27.409  1.00  0.00    -0.248 NA
ATOM     33  C   UNL A   1      43.983  25.199  26.554  1.00  0.00     0.031 C 
ATOM     34  C   UNL A   1      47.287  30.305  26.688  1.00  0.00     0.029 A 
ATOM     35  C   UNL A   1      46.274  29.384  26.914  1.00  0.00     0.049 A 
ATOM     36  H   UNL A   1      44.477  29.630  27.990  1.00  0.00     0.167 HD
ATOM     37  C   UNL A   1      45.168  27.159  26.711  1.00  0.00     0.074 A 
ATOM     38  C   UNL A   1      45.127  25.789  26.238  1.00  0.00     0.031 C 
ATOM     39  C   UNL A   1      46.189  28.017  26.464  1.00  0.00     0.037 A 
BRANCH  26  40
ATOM     40  C   UNL A   1      45.538  33.630  29.009  1.00  0.00     0.057 A 
ATOM     41  C   UNL A   1      45.216  34.751  28.233  1.00  0.00     0.134 A 
ATOM     42  C   UNL A   1      46.450  33.809  30.057  1.00  0.00     0.134 A 
ATOM     43  F   UNL A   1      44.373  34.639  27.195  1.00  0.00    -0.206 F 
ATOM     44  C   UNL A   1      45.797  35.998  28.474  1.00  0.00     0.040 A 
ATOM     45  C   UNL A   1      47.023  35.055  30.320  1.00  0.00     0.040 A 
ATOM     46  F   UNL A   1      46.809  32.775  30.831  1.00  0.00    -0.206 F 
ATOM     47  C   UNL A   1      46.702  36.152  29.523  1.00  0.00     0.006 A 
ENDBRANCH  26  40
BRANCH  27  48
ATOM     48  C   UNL A   1      41.350  24.575  27.707  1.00  0.00     0.057 A 
ATOM     49  C   UNL A   1      41.778  23.465  28.445  1.00  0.00     0.134 A 
ATOM     50  C   UNL A   1      40.340  24.362  26.760  1.00  0.00     0.134 A 
ATOM     51  F   UNL A   1      42.757  23.594  29.353  1.00  0.00    -0.206 F 
ATOM     52  C   UNL A   1      41.241  22.192  28.232  1.00  0.00     0.040 A 
ATOM     53  C   UNL A   1      39.772  23.103  26.558  1.00  0.00     0.040 A 
ATOM     54  F   UNL A   1      39.881  25.381  26.018  1.00  0.00    -0.206 F 
ATOM     55  C   UNL A   1      40.231  22.011  27.289  1.00  0.00     0.006 A 
ENDBRANCH  27  48
BRANCH  39  56
ATOM     56  C   UNL A   1      47.333  27.480  25.661  1.00  0.00     0.057 A 
ATOM     57  C   UNL A   1      47.377  27.615  24.267  1.00  0.00     0.134 A 
ATOM     58  C   UNL A   1      48.407  26.842  26.290  1.00  0.00     0.134 A 
ATOM     59  F   UNL A   1      46.367  28.204  23.609  1.00  0.00    -0.206 F 
ATOM     60  C   UNL A   1      48.441  27.108  23.523  1.00  0.00     0.040 A 
ATOM     61  C   UNL A   1      49.490  26.355  25.559  1.00  0.00     0.040 A 
ATOM     62  F   UNL A   1      48.425  26.690  27.622  1.00  0.00    -0.206 F 
ATOM     63  C   UNL A   1      49.504  26.481  24.170  1.00  0.00     0.006 A 
ENDBRANCH  39  56
ENDBRANCH  13  14
ENDBRANCH   6   8
ENDBRANCH   5   6
ENDBRANCH   4   5
ENDBRANCH   3   4
ENDBRANCH   2   3
ENDBRANCH   1   2
BRANCH   1  64
ATOM     64  C   UNL A   1      33.271  34.834  28.669  1.00  0.00     0.261 C 
BRANCH  64  65
ATOM     65  O   UNL A   1      33.767  33.489  28.587  1.00  0.00    -0.460 OA
BRANCH  65  66
ATOM     66  C   UNL A   1      33.014  32.690  27.777  1.00  0.00     0.338 C 
ATOM     67  O   UNL A   1      32.008  33.009  27.194  1.00  0.00    -0.246 OA
BRANCH  66  68
ATOM     68  C   UNL A   1      33.759  31.419  27.552  1.00  0.00     0.062 A 
ATOM     69  C   UNL A   1      35.127  31.396  27.849  1.00  0.00     0.016 A 
ATOM     70  C   UNL A   1      33.105  30.237  27.190  1.00  0.00     0.041 A 
ATOM     71  C   UNL A   1      35.834  30.195  27.794  1.00  0.00     0.003 A 
ATOM     72  C   UNL A   1      33.836  29.059  27.057  1.00  0.00     0.041 A 
ATOM     73  C   UNL A   1      35.189  29.030  27.390  1.00  0.00     0.026 A 
BRANCH  72  74
ATOM     74  N   UNL A   1      33.177  27.907  26.616  1.00  0.00    -0.331 N 
ATOM     75  H   UNL A   1      32.533  27.513  27.247  1.00  0.00     0.169 HD
BRANCH  74  76
ATOM     76  C   UNL A   1      33.314  27.262  25.427  1.00  0.00     0.191 C 
ATOM     77  S   UNL A   1      34.017  25.738  25.432  1.00  0.00    -0.039 S 
BRANCH  76  78
ATOM     78  N   UNL A   1      32.774  27.747  24.266  1.00  0.00    -0.254 N 
ATOM     79  H   UNL A   1      32.469  28.683  24.293  1.00  0.00     0.193 HD
BRANCH  78  80
ATOM     80  N   UNL A   1      32.600  27.092  23.059  1.00  0.00    -0.181 NA
ATOM     81  C   UNL A   1      31.393  26.763  22.669  1.00  0.00     0.143 C 
BRANCH  81  82
ATOM     82  C   UNL A   1      30.206  27.145  23.399  1.00  0.00     0.020 A 
ATOM     83  C   UNL A   1      29.345  26.250  24.002  1.00  0.00     0.093 A 
ATOM     84  C   UNL A   1      29.539  28.394  23.485  1.00  0.00     0.008 A 
ATOM     85  N   UNL A   1      28.096  26.727  23.706  1.00  0.00    -0.361 N 
ATOM     86  C   UNL A   1      28.196  28.046  23.343  1.00  0.00     0.046 A 
ATOM     87  C   UNL A   1      29.877  29.758  23.500  1.00  0.00     0.011 A 
ATOM     88  H   UNL A   1      27.261  26.207  23.746  1.00  0.00     0.166 HD
ATOM     89  C   UNL A   1      27.222  28.941  22.913  1.00  0.00     0.027 A 
ATOM     90  C   UNL A   1      28.854  30.696  23.307  1.00  0.00     0.001 A 
ATOM     91  C   UNL A   1      27.574  30.289  22.928  1.00  0.00     0.002 A 
ENDBRANCH  81  82
ENDBRANCH  78  80
ENDBRANCH  76  78
ENDBRANCH  74  76
ENDBRANCH  72  74
ENDBRANCH  66  68
ENDBRANCH  65  66
ENDBRANCH  64  65
ENDBRANCH   1  64
TORSDOF 19
ENDMDL
MODEL 2
REMARK VINA RESULT:     -11.2      3.544      8.280
REMARK SMILES O=C(OCCOCCOC(=O)c1cccc(NC(=S)N/N=C\c2c[nH]c3ccccc23)c1)c1ccc(-c2c3nc(c(-c4c(F)cccc4F)c4ccc([nH]4)c(-c4c(F)cccc4F)c4nc(c(-c5c(F)cccc5F)c5ccc2[nH]5)C=C4)C=C3)cc1
REMARK SMILES IDX 7 1 6 2 5 3 4 4 3 5 2 6 1 7 33 8 34 9 86 10 35 11 85 12
REMARK SMILES IDX 36 13 37 14 38 15 79 16 39 17 84 18 78 19 80 20 40 21 83 22
REMARK SMILES IDX 77 23 76 24 41 26 67 27 50 28 66 29 51 30 54 31 65 32 81 33
REMARK SMILES IDX 52 34 53 35 64 37 82 38 55 39 42 40 43 41 48 42 44 43 45 44
REMARK SMILES IDX 47 45 49 46 46 47 68 48 69 49 74 50 70 51 71 52 73 53 75 54
REMARK SMILES IDX 72 55 56 56 57 57 62 58 58 59 59 60 61 61 63 62 60 63 8 64
REMARK SMILES IDX 9 65 10 66 11 67 12 68 13 69 32 70 14 71 16 72 15 73 17 74
REMARK SMILES IDX 18 76 19 77 20 78 21 80 22 81 23 82 24 83 31 84 25 85 26 86
REMARK SMILES IDX 30 87 27 89 29 90 28 91
REMARK H PARENT 80 25 54 36 17 75 20 79 25 88
REMARK Flexibility Score: inf
ROOT
ATOM      1  C   UNL A   1      34.992  23.735  23.901  1.00  0.00     0.202 C 
ENDROOT
BRANCH   1   2
ATOM      2  O   UNL A   1      34.761  22.883  25.032  1.00  0.00    -0.374 OA
BRANCH   2   3
ATOM      3  C   UNL A   1      34.696  21.480  24.755  1.00  0.00     0.202 C 
BRANCH   3   4
ATOM      4  C   UNL A   1      36.016  20.722  24.910  1.00  0.00     0.261 C 
BRANCH   4   5
ATOM      5  O   UNL A   1      36.861  21.381  25.866  1.00  0.00    -0.460 OA
BRANCH   5   6
ATOM      6  C   UNL A   1      38.212  21.466  25.863  1.00  0.00     0.338 C 
ATOM      7  O   UNL A   1      38.864  20.494  25.491  1.00  0.00    -0.246 OA
BRANCH   6   8
ATOM      8  C   UNL A   1      38.961  22.679  26.315  1.00  0.00     0.060 A 
ATOM      9  C   UNL A   1      38.576  23.992  26.051  1.00  0.00     0.016 A 
ATOM     10  C   UNL A   1      40.077  22.479  27.148  1.00  0.00     0.016 A 
ATOM     11  C   UNL A   1      39.301  25.073  26.524  1.00  0.00     0.010 A 
ATOM     12  C   UNL A   1      40.780  23.565  27.683  1.00  0.00     0.010 A 
ATOM     13  C   UNL A   1      40.394  24.868  27.359  1.00  0.00    -0.014 A 
BRANCH  13  14
ATOM     14  C   UNL A   1      41.117  26.067  27.817  1.00  0.00     0.031 A 
ATOM     15  C   UNL A   1      42.521  26.284  27.354  1.00  0.00     0.074 A 
ATOM     16  C   UNL A   1      40.433  27.021  28.476  1.00  0.00     0.049 A 
ATOM     17  N   UNL A   1      43.316  27.295  27.579  1.00  0.00    -0.248 NA
ATOM     18  C   UNL A   1      43.102  25.234  26.501  1.00  0.00     0.031 C 
ATOM     19  C   UNL A   1      39.020  26.930  28.860  1.00  0.00     0.029 A 
ATOM     20  N   UNL A   1      40.807  28.271  28.889  1.00  0.00    -0.354 N 
ATOM     21  C   UNL A   1      44.492  27.002  26.903  1.00  0.00     0.074 A 
ATOM     22  C   UNL A   1      44.316  25.713  26.272  1.00  0.00     0.031 C 
ATOM     23  C   UNL A   1      38.639  28.091  29.414  1.00  0.00     0.029 A 
ATOM     24  C   UNL A   1      39.792  28.979  29.486  1.00  0.00     0.049 A 
ATOM     25  H   UNL A   1      41.718  28.628  28.770  1.00  0.00     0.167 HD
ATOM     26  C   UNL A   1      45.616  27.750  26.822  1.00  0.00     0.037 A 
ATOM     27  C   UNL A   1      39.808  30.201  30.048  1.00  0.00     0.037 A 
ATOM     28  C   UNL A   1      45.767  29.022  27.476  1.00  0.00     0.049 A 
ATOM     29  C   UNL A   1      41.102  30.965  30.026  1.00  0.00     0.074 A 
ATOM     30  C   UNL A   1      46.889  29.825  27.562  1.00  0.00     0.029 A 
ATOM     31  N   UNL A   1      44.748  29.676  28.155  1.00  0.00    -0.354 N 
ATOM     32  N   UNL A   1      42.242  30.643  29.460  1.00  0.00    -0.248 NA
ATOM     33  C   UNL A   1      41.123  32.251  30.732  1.00  0.00     0.031 C 
ATOM     34  C   UNL A   1      46.555  30.953  28.322  1.00  0.00     0.029 A 
ATOM     35  C   UNL A   1      45.215  30.871  28.672  1.00  0.00     0.049 A 
ATOM     36  H   UNL A   1      43.828  29.339  28.254  1.00  0.00     0.167 HD
ATOM     37  C   UNL A   1      43.114  31.685  29.739  1.00  0.00     0.074 A 
ATOM     38  C   UNL A   1      42.358  32.666  30.494  1.00  0.00     0.031 C 
ATOM     39  C   UNL A   1      44.425  31.818  29.419  1.00  0.00     0.037 A 
BRANCH  26  40
ATOM     40  C   UNL A   1      46.764  27.167  26.057  1.00  0.00     0.057 A 
ATOM     41  C   UNL A   1      47.739  26.373  26.674  1.00  0.00     0.134 A 
ATOM     42  C   UNL A   1      46.917  27.434  24.691  1.00  0.00     0.134 A 
ATOM     43  F   UNL A   1      47.667  26.106  27.987  1.00  0.00    -0.206 F 
ATOM     44  C   UNL A   1      48.838  25.882  25.965  1.00  0.00     0.040 A 
ATOM     45  C   UNL A   1      48.000  26.934  23.966  1.00  0.00     0.040 A 
ATOM     46  F   UNL A   1      46.025  28.197  24.043  1.00  0.00    -0.206 F 
ATOM     47  C   UNL A   1      48.968  26.160  24.605  1.00  0.00     0.006 A 
ENDBRANCH  26  40
BRANCH  27  48
ATOM     48  C   UNL A   1      38.600  30.739  30.727  1.00  0.00     0.057 A 
ATOM     49  C   UNL A   1      37.666  31.534  30.051  1.00  0.00     0.134 A 
ATOM     50  C   UNL A   1      38.366  30.495  32.087  1.00  0.00     0.134 A 
ATOM     51  F   UNL A   1      37.840  31.824  28.753  1.00  0.00    -0.206 F 
ATOM     52  C   UNL A   1      36.560  32.082  30.707  1.00  0.00     0.040 A 
ATOM     53  C   UNL A   1      37.249  31.010  32.747  1.00  0.00     0.040 A 
ATOM     54  F   UNL A   1      39.219  29.742  32.797  1.00  0.00    -0.206 F 
ATOM     55  C   UNL A   1      36.348  31.816  32.058  1.00  0.00     0.006 A 
ENDBRANCH  27  48
BRANCH  39  56
ATOM     56  C   UNL A   1      45.100  33.073  29.880  1.00  0.00     0.057 A 
ATOM     57  C   UNL A   1      45.117  34.228  29.088  1.00  0.00     0.134 A 
ATOM     58  C   UNL A   1      45.718  33.130  31.133  1.00  0.00     0.134 A 
ATOM     59  F   UNL A   1      44.553  34.227  27.871  1.00  0.00    -0.206 F 
ATOM     60  C   UNL A   1      45.751  35.392  29.518  1.00  0.00     0.040 A 
ATOM     61  C   UNL A   1      46.333  34.297  31.586  1.00  0.00     0.040 A 
ATOM     62  F   UNL A   1      45.728  32.057  31.939  1.00  0.00    -0.206 F 
ATOM     63  C   UNL A   1      46.356  35.430  30.773  1.00  0.00     0.006 A 
ENDBRANCH  39  56
ENDBRANCH  13  14
ENDBRANCH   6   8
ENDBRANCH   5   6
ENDBRANCH   4   5
ENDBRANCH   3   4
ENDBRANCH   2   3
ENDBRANCH   1   2
BRANCH   1  64
ATOM     64  C   UNL A   1      34.143  23.249  22.717  1.00  0.00     0.261 C 
BRANCH  64  65
ATOM     65  O   UNL A   1      32.852  23.871  22.814  1.00  0.00    -0.460 OA
BRANCH  65  66
ATOM     66  C   UNL A   1      32.721  24.960  22.002  1.00  0.00     0.338 C 
ATOM     67  O   UNL A   1      33.279  25.137  20.948  1.00  0.00    -0.246 OA
BRANCH  66  68
ATOM     68  C   UNL A   1      31.603  25.797  22.521  1.00  0.00     0.062 A 
ATOM     69  C   UNL A   1      30.586  25.163  23.247  1.00  0.00     0.016 A 
ATOM     70  C   UNL A   1      31.620  27.192  22.421  1.00  0.00     0.041 A 
ATOM     71  C   UNL A   1      29.599  25.922  23.876  1.00  0.00     0.003 A 
ATOM     72  C   UNL A   1      30.584  27.936  22.981  1.00  0.00     0.041 A 
ATOM     73  C   UNL A   1      29.595  27.306  23.735  1.00  0.00     0.026 A 
BRANCH  72  74
ATOM     74  N   UNL A   1      30.579  29.322  22.799  1.00  0.00    -0.331 N 
ATOM     75  H   UNL A   1      30.822  29.638  21.900  1.00  0.00     0.169 HD
BRANCH  74  76
ATOM     76  C   UNL A   1      30.280  30.289  23.708  1.00  0.00     0.191 C 
ATOM     77  S   UNL A   1      28.854  31.149  23.504  1.00  0.00    -0.039 S 
BRANCH  76  78
ATOM     78  N   UNL A   1      31.020  30.479  24.844  1.00  0.00    -0.254 N 
ATOM     79  H   UNL A   1      31.682  29.778  25.047  1.00  0.00     0.193 HD
BRANCH  78  80
ATOM     80  N   UNL A   1      30.959  31.528  25.745  1.00  0.00    -0.181 NA
ATOM     81  C   UNL A   1      31.678  31.484  26.840  1.00  0.00     0.143 C 
BRANCH  81  82
ATOM     82  C   UNL A   1      32.624  30.425  27.109  1.00  0.00     0.020 A 
ATOM     83  C   UNL A   1      33.983  30.619  27.255  1.00  0.00     0.093 A 
ATOM     84  C   UNL A   1      32.468  29.016  27.062  1.00  0.00     0.008 A 
ATOM     85  N   UNL A   1      34.551  29.584  26.563  1.00  0.00    -0.361 N 
ATOM     86  C   UNL A   1      33.618  28.592  26.395  1.00  0.00     0.046 A 
ATOM     87  C   UNL A   1      31.469  28.068  27.336  1.00  0.00     0.011 A 
ATOM     88  H   UNL A   1      35.480  29.555  26.238  1.00  0.00     0.166 HD
ATOM     89  C   UNL A   1      33.701  27.378  25.724  1.00  0.00     0.027 A 
ATOM     90  C   UNL A   1      31.650  26.760  26.869  1.00  0.00     0.001 A 
ATOM     91  C   UNL A   1      32.699  26.450  26.001  1.00  0.00     0.002 A 
ENDBRANCH  81  82
ENDBRANCH  78  80
ENDBRANCH  76  78
ENDBRANCH  74  76
ENDBRANCH  72  74
ENDBRANCH  66  68
ENDBRANCH  65  66
ENDBRANCH  64  65
ENDBRANCH   1  64
TORSDOF 19
ENDMDL
MODEL 3
REMARK VINA RESULT:     -11.2      4.027      8.487
REMARK SMILES O=C(OCCOCCOC(=O)c1cccc(NC(=S)N/N=C\c2c[nH]c3ccccc23)c1)c1ccc(-c2c3nc(c(-c4c(F)cccc4F)c4ccc([nH]4)c(-c4c(F)cccc4F)c4nc(c(-c5c(F)cccc5F)c5ccc2[nH]5)C=C4)C=C3)cc1
REMARK SMILES IDX 7 1 6 2 5 3 4 4 3 5 2 6 1 7 33 8 34 9 86 10 35 11 85 12
REMARK SMILES IDX 36 13 37 14 38 15 79 16 39 17 84 18 78 19 80 20 40 21 83 22
REMARK SMILES IDX 77 23 76 24 41 26 67 27 50 28 66 29 51 30 54 31 65 32 81 33
REMARK SMILES IDX 52 34 53 35 64 37 82 38 55 39 42 40 43 41 48 42 44 43 45 44
REMARK SMILES IDX 47 45 49 46 46 47 68 48 69 49 74 50 70 51 71 52 73 53 75 54
REMARK SMILES IDX 72 55 56 56 57 57 62 58 58 59 59 60 61 61 63 62 60 63 8 64
REMARK SMILES IDX 9 65 10 66 11 67 12 68 13 69 32 70 14 71 16 72 15 73 17 74
REMARK SMILES IDX 18 76 19 77 20 78 21 80 22 81 23 82 24 83 31 84 25 85 26 86
REMARK SMILES IDX 30 87 27 89 29 90 28 91
REMARK H PARENT 80 25 54 36 17 75 20 79 25 88
REMARK Flexibility Score: inf
ROOT
ATOM      1  C   UNL A   1      37.326  22.995  25.811  1.00  0.00     0.202 C 
ENDROOT
BRANCH   1   2
ATOM      2  O   UNL A   1      38.315  21.968  25.653  1.00  0.00    -0.374 OA
BRANCH   2   3
ATOM      3  C   UNL A   1      37.814  20.639  25.479  1.00  0.00     0.202 C 
BRANCH   3   4
ATOM      4  C   UNL A   1      38.780  19.660  24.810  1.00  0.00     0.261 C 
BRANCH   4   5
ATOM      5  O   UNL A   1      39.712  19.140  25.772  1.00  0.00    -0.460 OA
BRANCH   5   6
ATOM      6  C   UNL A   1      41.004  19.497  25.956  1.00  0.00     0.338 C 
ATOM      7  O   UNL A   1      41.884  18.680  25.694  1.00  0.00    -0.246 OA
BRANCH   6   8
ATOM      8  C   UNL A   1      41.423  20.830  26.488  1.00  0.00     0.060 A 
ATOM      9  C   UNL A   1      41.768  21.925  25.698  1.00  0.00     0.016 A 
ATOM     10  C   UNL A   1      41.369  21.018  27.881  1.00  0.00     0.016 A 
ATOM     11  C   UNL A   1      42.120  23.143  26.255  1.00  0.00     0.010 A 
ATOM     12  C   UNL A   1      41.662  22.263  28.451  1.00  0.00     0.010 A 
ATOM     13  C   UNL A   1      42.049  23.327  27.632  1.00  0.00    -0.014 A 
BRANCH  13  14
ATOM     14  C   UNL A   1      42.444  24.648  28.150  1.00  0.00     0.031 A 
ATOM     15  C   UNL A   1      43.897  24.990  28.224  1.00  0.00     0.074 A 
ATOM     16  C   UNL A   1      41.487  25.573  28.355  1.00  0.00     0.049 A 
ATOM     17  N   UNL A   1      44.463  26.110  28.583  1.00  0.00    -0.248 NA
ATOM     18  C   UNL A   1      44.842  23.937  27.816  1.00  0.00     0.031 C 
ATOM     19  C   UNL A   1      40.048  25.346  28.187  1.00  0.00     0.029 A 
ATOM     20  N   UNL A   1      41.576  26.896  28.692  1.00  0.00    -0.354 N 
ATOM     21  C   UNL A   1      45.828  25.897  28.451  1.00  0.00     0.074 A 
ATOM     22  C   UNL A   1      46.009  24.537  27.994  1.00  0.00     0.031 C 
ATOM     23  C   UNL A   1      39.395  26.502  28.381  1.00  0.00     0.029 A 
ATOM     24  C   UNL A   1      40.359  27.530  28.752  1.00  0.00     0.049 A 
ATOM     25  H   UNL A   1      42.431  27.351  28.875  1.00  0.00     0.167 HD
ATOM     26  C   UNL A   1      46.834  26.767  28.692  1.00  0.00     0.037 A 
ATOM     27  C   UNL A   1      40.063  28.797  29.094  1.00  0.00     0.037 A 
ATOM     28  C   UNL A   1      46.623  28.110  29.162  1.00  0.00     0.049 A 
ATOM     29  C   UNL A   1      41.201  29.711  29.452  1.00  0.00     0.074 A 
ATOM     30  C   UNL A   1      47.558  29.052  29.547  1.00  0.00     0.029 A 
ATOM     31  N   UNL A   1      45.373  28.699  29.303  1.00  0.00    -0.354 N 
ATOM     32  N   UNL A   1      42.492  29.477  29.411  1.00  0.00    -0.248 NA
ATOM     33  C   UNL A   1      40.848  31.056  29.918  1.00  0.00     0.031 C 
ATOM     34  C   UNL A   1      46.870  30.203  29.952  1.00  0.00     0.029 A 
ATOM     35  C   UNL A   1      45.510  29.991  29.778  1.00  0.00     0.049 A 
ATOM     36  H   UNL A   1      44.516  28.262  29.095  1.00  0.00     0.167 HD
ATOM     37  C   UNL A   1      43.105  30.642  29.844  1.00  0.00     0.074 A 
ATOM     38  C   UNL A   1      42.044  31.595  30.106  1.00  0.00     0.031 C 
ATOM     39  C   UNL A   1      44.423  30.904  30.026  1.00  0.00     0.037 A 
BRANCH  26  40
ATOM     40  C   UNL A   1      48.231  26.256  28.510  1.00  0.00     0.057 A 
ATOM     41  C   UNL A   1      48.941  25.651  29.555  1.00  0.00     0.134 A 
ATOM     42  C   UNL A   1      48.888  26.403  27.282  1.00  0.00     0.134 A 
ATOM     43  F   UNL A   1      48.379  25.509  30.765  1.00  0.00    -0.206 F 
ATOM     44  C   UNL A   1      50.262  25.230  29.392  1.00  0.00     0.040 A 
ATOM     45  C   UNL A   1      50.202  25.969  27.101  1.00  0.00     0.040 A 
ATOM     46  F   UNL A   1      48.268  26.984  26.244  1.00  0.00    -0.206 F 
ATOM     47  C   UNL A   1      50.895  25.386  28.160  1.00  0.00     0.006 A 
ENDBRANCH  26  40
BRANCH  27  48
ATOM     48  C   UNL A   1      38.648  29.248  29.182  1.00  0.00     0.057 A 
ATOM     49  C   UNL A   1      37.928  29.188  30.380  1.00  0.00     0.134 A 
ATOM     50  C   UNL A   1      37.969  29.722  28.051  1.00  0.00     0.134 A 
ATOM     51  F   UNL A   1      38.510  28.725  31.497  1.00  0.00    -0.206 F 
ATOM     52  C   UNL A   1      36.582  29.562  30.446  1.00  0.00     0.040 A 
ATOM     53  C   UNL A   1      36.635  30.128  28.108  1.00  0.00     0.040 A 
ATOM     54  F   UNL A   1      38.597  29.805  26.869  1.00  0.00    -0.206 F 
ATOM     55  C   UNL A   1      35.934  30.037  29.307  1.00  0.00     0.006 A 
ENDBRANCH  27  48
BRANCH  39  56
ATOM     56  C   UNL A   1      44.769  32.276  30.519  1.00  0.00     0.057 A 
ATOM     57  C   UNL A   1      44.900  32.551  31.886  1.00  0.00     0.134 A 
ATOM     58  C   UNL A   1      44.992  33.321  29.617  1.00  0.00     0.134 A 
ATOM     59  F   UNL A   1      44.683  31.591  32.798  1.00  0.00    -0.206 F 
ATOM     60  C   UNL A   1      45.217  33.830  32.341  1.00  0.00     0.040 A 
ATOM     61  C   UNL A   1      45.335  34.599  30.059  1.00  0.00     0.040 A 
ATOM     62  F   UNL A   1      44.888  33.116  28.296  1.00  0.00    -0.206 F 
ATOM     63  C   UNL A   1      45.441  34.856  31.425  1.00  0.00     0.006 A 
ENDBRANCH  39  56
ENDBRANCH  13  14
ENDBRANCH   6   8
ENDBRANCH   5   6
ENDBRANCH   4   5
ENDBRANCH   3   4
ENDBRANCH   2   3
ENDBRANCH   1   2
BRANCH   1  64
ATOM     64  C   UNL A   1      35.945  22.431  25.448  1.00  0.00     0.261 C 
BRANCH  64  65
ATOM     65  O   UNL A   1      35.151  23.506  24.922  1.00  0.00    -0.460 OA
BRANCH  65  66
ATOM     66  C   UNL A   1      35.069  23.493  23.561  1.00  0.00     0.338 C 
ATOM     67  O   UNL A   1      35.838  22.957  22.803  1.00  0.00    -0.246 OA
BRANCH  66  68
ATOM     68  C   UNL A   1      33.749  24.064  23.168  1.00  0.00     0.062 A 
ATOM     69  C   UNL A   1      32.595  23.344  23.501  1.00  0.00     0.016 A 
ATOM     70  C   UNL A   1      33.637  25.341  22.610  1.00  0.00     0.041 A 
ATOM     71  C   UNL A   1      31.336  23.904  23.285  1.00  0.00     0.003 A 
ATOM     72  C   UNL A   1      32.376  25.858  22.321  1.00  0.00     0.041 A 
ATOM     73  C   UNL A   1      31.228  25.157  22.689  1.00  0.00     0.026 A 
BRANCH  72  74
ATOM     74  N   UNL A   1      32.289  27.101  21.690  1.00  0.00    -0.331 N 
ATOM     75  H   UNL A   1      31.871  27.103  20.798  1.00  0.00     0.169 HD
BRANCH  74  76
ATOM     76  C   UNL A   1      32.707  28.311  22.151  1.00  0.00     0.191 C 
ATOM     77  S   UNL A   1      34.349  28.527  22.420  1.00  0.00    -0.039 S 
BRANCH  76  78
ATOM     78  N   UNL A   1      31.863  29.383  22.261  1.00  0.00    -0.254 N 
ATOM     79  H   UNL A   1      32.282  30.270  22.167  1.00  0.00     0.193 HD
BRANCH  78  80
ATOM     80  N   UNL A   1      30.497  29.384  22.488  1.00  0.00    -0.181 NA
ATOM     81  C   UNL A   1      30.043  29.201  23.703  1.00  0.00     0.143 C 
BRANCH  81  82
ATOM     82  C   UNL A   1      30.912  29.099  24.853  1.00  0.00     0.020 A 
ATOM     83  C   UNL A   1      31.640  30.151  25.370  1.00  0.00     0.093 A 
ATOM     84  C   UNL A   1      31.393  27.958  25.546  1.00  0.00     0.008 A 
ATOM     85  N   UNL A   1      32.865  29.610  25.655  1.00  0.00    -0.361 N 
ATOM     86  C   UNL A   1      32.745  28.246  25.730  1.00  0.00     0.046 A 
ATOM     87  C   UNL A   1      30.929  26.679  25.896  1.00  0.00     0.011 A 
ATOM     88  H   UNL A   1      33.698  30.119  25.786  1.00  0.00     0.166 HD
ATOM     89  C   UNL A   1      33.707  27.265  25.944  1.00  0.00     0.027 A 
ATOM     90  C   UNL A   1      31.862  25.738  26.351  1.00  0.00     0.001 A 
ATOM     91  C   UNL A   1      33.232  26.000  26.285  1.00  0.00     0.002 A 
ENDBRANCH  81  82
ENDBRANCH  78  80
ENDBRANCH  76  78
ENDBRANCH  74  76
ENDBRANCH  72  74
ENDBRANCH  66  68
ENDBRANCH  65  66
ENDBRANCH  64  65
ENDBRANCH   1  64
TORSDOF 19
ENDMDL
