MODEL 1
REMARK VINA RESULT:     -12.5      0.000      0.000
REMARK SMILES O=C(OCCOCCOC(=O)c1ccc(-c2c3nc(c(-c4c(F)cccc4F)c4ccc([nH]4)c(-c4c(F)cccc4F)c4nc(c(-c5c(F)cccc5F)c5ccc2[nH]5)C=C4)C=C3)cc1)C1=Cc2cc(Cl)c(Cl)c(Cl)c2O[C@@H]1C(F)(F)F
REMARK SMILES IDX 7 1 6 2 5 3 4 4 3 5 2 6 1 7 66 8 67 9 78 10 68 11 77 12
REMARK SMILES IDX 69 13 76 14 70 15 74 16 71 17 72 18 75 19 73 20 79 21 80 22
REMARK SMILES IDX 81 23 82 24 8 25 9 26 10 27 11 28 12 29 13 30 65 31 14 32
REMARK SMILES IDX 64 33 15 34 16 35 17 36 58 37 18 38 63 39 57 40 59 41 19 42
REMARK SMILES IDX 62 43 56 44 55 45 20 47 46 48 29 49 45 50 30 51 33 52 44 53
REMARK SMILES IDX 60 54 31 55 32 56 43 58 61 59 34 60 21 61 22 62 27 63 23 64
REMARK SMILES IDX 24 65 26 66 28 67 25 68 47 69 48 70 53 71 49 72 50 73 52 74
REMARK SMILES IDX 54 75 51 76 35 77 36 78 41 79 37 80 38 81 40 82 42 83 39 84
REMARK H PARENT 59 46 33 57
REMARK Flexibility Score: inf
ROOT
ATOM      1  C   UNL A   1      41.993  20.742  26.127  1.00  0.00     0.202 C 
ENDROOT
BRANCH   1   2
ATOM      2  O   UNL A   1      40.836  21.194  26.855  1.00  0.00    -0.374 OA
BRANCH   2   3
ATOM      3  C   UNL A   1      39.458  21.817  26.311  1.00  0.00     0.202 C 
BRANCH   3   4
ATOM      4  C   UNL A   1      37.878  20.886  25.154  1.00  0.00     0.261 C 
BRANCH   4   5
ATOM      5  O   UNL A   1      36.361  21.160  25.282  1.00  0.00    -0.460 OA
BRANCH   5   6
ATOM      6  C   UNL A   1      35.910  22.030  24.376  1.00  0.00     0.338 C 
ATOM      7  O   UNL A   1      36.482  22.580  23.470  1.00  0.00    -0.246 OA
BRANCH   6   8
ATOM      8  C   UNL A   1      34.669  22.302  25.055  1.00  0.00     0.087 C 
ATOM      9  C   UNL A   1      34.692  23.654  25.672  1.00  0.00     0.027 C 
ATOM     10  C   UNL A   1      33.490  21.765  23.611  1.00  0.00     0.316 C 
ATOM     11  C   UNL A   1      33.755  25.069  25.021  1.00  0.00     0.020 A 
ATOM     12  O   UNL A   1      32.550  23.269  22.862  1.00  0.00    -0.474 OA
ATOM     13  C   UNL A   1      33.963  26.303  25.569  1.00  0.00     0.034 A 
ATOM     14  C   UNL A   1      32.760  24.924  23.609  1.00  0.00     0.148 A 
ATOM     15  C   UNL A   1      33.393  27.373  24.863  1.00  0.00     0.062 A 
ATOM     16  C   UNL A   1      32.406  26.040  22.893  1.00  0.00     0.103 A 
ATOM     17  Cl  UNL A   1      33.629  28.928  25.632  1.00  0.00    -0.083 Cl
ATOM     18  C   UNL A   1      32.712  27.266  23.568  1.00  0.00     0.082 A 
ATOM     19  Cl  UNL A   1      32.011  25.933  21.232  1.00  0.00    -0.079 Cl
ATOM     20  Cl  UNL A   1      32.357  28.781  22.786  1.00  0.00    -0.081 Cl
BRANCH  10  21
ATOM     21  C   UNL A   1      32.941  20.404  24.207  1.00  0.00     0.430 C 
ATOM     22  F   UNL A   1      32.137  20.536  25.277  1.00  0.00    -0.167 F 
ATOM     23  F   UNL A   1      32.171  19.818  23.245  1.00  0.00    -0.167 F 
ATOM     24  F   UNL A   1      33.891  19.486  24.494  1.00  0.00    -0.167 F 
ENDBRANCH  10  21
ENDBRANCH   6   8
ENDBRANCH   5   6
ENDBRANCH   4   5
ENDBRANCH   3   4
ENDBRANCH   2   3
ENDBRANCH   1   2
BRANCH   1  25
ATOM     25  C   UNL A   1      43.021  21.838  25.850  1.00  0.00     0.261 C 
BRANCH  25  26
ATOM     26  O   UNL A   1      42.399  23.042  25.418  1.00  0.00    -0.460 OA
BRANCH  26  27
ATOM     27  C   UNL A   1      43.224  24.113  25.442  1.00  0.00     0.338 C 
ATOM     28  O   UNL A   1      44.197  24.324  24.738  1.00  0.00    -0.246 OA
BRANCH  27  29
ATOM     29  C   UNL A   1      42.773  25.036  26.494  1.00  0.00     0.060 A 
ATOM     30  C   UNL A   1      43.388  26.288  26.564  1.00  0.00     0.016 A 
ATOM     31  C   UNL A   1      41.755  24.683  27.394  1.00  0.00     0.016 A 
ATOM     32  C   UNL A   1      42.980  27.194  27.535  1.00  0.00     0.010 A 
ATOM     33  C   UNL A   1      41.337  25.596  28.355  1.00  0.00     0.010 A 
ATOM     34  C   UNL A   1      41.960  26.847  28.432  1.00  0.00    -0.014 A 
BRANCH  34  35
ATOM     35  C   UNL A   1      41.682  27.749  29.563  1.00  0.00     0.031 A 
ATOM     36  C   UNL A   1      40.515  28.670  29.441  1.00  0.00     0.074 A 
ATOM     37  C   UNL A   1      42.410  27.684  30.688  1.00  0.00     0.049 A 
ATOM     38  N   UNL A   1      39.994  29.460  30.340  1.00  0.00    -0.248 NA
ATOM     39  C   UNL A   1      39.851  28.718  28.127  1.00  0.00     0.031 C 
ATOM     40  C   UNL A   1      43.593  26.853  30.871  1.00  0.00     0.029 A 
ATOM     41  N   UNL A   1      42.251  28.306  31.896  1.00  0.00    -0.354 N 
ATOM     42  C   UNL A   1      38.927  30.079  29.709  1.00  0.00     0.074 A 
ATOM     43  C   UNL A   1      38.906  29.620  28.339  1.00  0.00     0.031 C 
ATOM     44  C   UNL A   1      44.012  26.949  32.143  1.00  0.00     0.029 A 
ATOM     45  C   UNL A   1      43.172  27.916  32.839  1.00  0.00     0.049 A 
ATOM     46  H   UNL A   1      41.545  28.969  32.073  1.00  0.00     0.167 HD
ATOM     47  C   UNL A   1      38.035  30.941  30.242  1.00  0.00     0.037 A 
ATOM     48  C   UNL A   1      43.323  28.317  34.115  1.00  0.00     0.037 A 
ATOM     49  C   UNL A   1      38.103  31.420  31.596  1.00  0.00     0.049 A 
ATOM     50  C   UNL A   1      42.352  29.332  34.656  1.00  0.00     0.074 A 
ATOM     51  C   UNL A   1      37.269  32.318  32.234  1.00  0.00     0.029 A 
ATOM     52  N   UNL A   1      39.075  31.049  32.514  1.00  0.00    -0.354 N 
ATOM     53  N   UNL A   1      41.314  29.881  34.070  1.00  0.00    -0.248 NA
ATOM     54  C   UNL A   1      42.574  29.786  36.034  1.00  0.00     0.031 C 
ATOM     55  C   UNL A   1      37.769  32.532  33.522  1.00  0.00     0.029 A 
ATOM     56  C   UNL A   1      38.874  31.716  33.710  1.00  0.00     0.049 A 
ATOM     57  H   UNL A   1      39.800  30.405  32.341  1.00  0.00     0.167 HD
ATOM     58  C   UNL A   1      40.749  30.730  35.013  1.00  0.00     0.074 A 
ATOM     59  C   UNL A   1      41.538  30.589  36.220  1.00  0.00     0.031 C 
ATOM     60  C   UNL A   1      39.681  31.557  34.895  1.00  0.00     0.037 A 
BRANCH  47  61
ATOM     61  C   UNL A   1      36.938  31.426  29.345  1.00  0.00     0.057 A 
ATOM     62  C   UNL A   1      35.826  30.627  29.045  1.00  0.00     0.134 A 
ATOM     63  C   UNL A   1      36.992  32.704  28.777  1.00  0.00     0.134 A 
ATOM     64  F   UNL A   1      35.731  29.381  29.534  1.00  0.00    -0.206 F 
ATOM     65  C   UNL A   1      34.811  31.078  28.201  1.00  0.00     0.040 A 
ATOM     66  C   UNL A   1      35.969  33.176  27.954  1.00  0.00     0.040 A 
ATOM     67  F   UNL A   1      38.035  33.513  29.013  1.00  0.00    -0.206 F 
ATOM     68  C   UNL A   1      34.876  32.361  27.661  1.00  0.00     0.006 A 
ENDBRANCH  47  61
BRANCH  48  69
ATOM     69  C   UNL A   1      44.443  27.805  34.949  1.00  0.00     0.057 A 
ATOM     70  C   UNL A   1      45.719  28.380  34.898  1.00  0.00     0.134 A 
ATOM     71  C   UNL A   1      44.278  26.687  35.776  1.00  0.00     0.134 A 
ATOM     72  F   UNL A   1      45.953  29.442  34.113  1.00  0.00    -0.206 F 
ATOM     73  C   UNL A   1      46.796  27.837  35.603  1.00  0.00     0.040 A 
ATOM     74  C   UNL A   1      45.337  26.156  36.515  1.00  0.00     0.040 A 
ATOM     75  F   UNL A   1      43.083  26.087  35.878  1.00  0.00    -0.206 F 
ATOM     76  C   UNL A   1      46.605  26.722  36.416  1.00  0.00     0.006 A 
ENDBRANCH  48  69
BRANCH  60  77
ATOM     77  C   UNL A   1      39.297  32.342  36.116  1.00  0.00     0.057 A 
ATOM     78  C   UNL A   1      38.350  31.871  37.036  1.00  0.00     0.134 A 
ATOM     79  C   UNL A   1      39.888  33.585  36.378  1.00  0.00     0.134 A 
ATOM     80  F   UNL A   1      37.738  30.693  36.840  1.00  0.00    -0.206 F 
ATOM     81  C   UNL A   1      37.970  32.630  38.143  1.00  0.00     0.040 A 
ATOM     82  C   UNL A   1      39.545  34.334  37.503  1.00  0.00     0.040 A 
ATOM     83  F   UNL A   1      40.814  34.088  35.547  1.00  0.00    -0.206 F 
ATOM     84  C   UNL A   1      38.572  33.863  38.381  1.00  0.00     0.006 A 
ENDBRANCH  60  77
ENDBRANCH  34  35
ENDBRANCH  27  29
ENDBRANCH  26  27
ENDBRANCH  25  26
ENDBRANCH   1  25
TORSDOF 15
ENDMDL
MODEL 2
REMARK VINA RESULT:     -12.4      0.616      6.261
REMARK SMILES O=C(OCCOCCOC(=O)c1ccc(-c2c3nc(c(-c4c(F)cccc4F)c4ccc([nH]4)c(-c4c(F)cccc4F)c4nc(c(-c5c(F)cccc5F)c5ccc2[nH]5)C=C4)C=C3)cc1)C1=Cc2cc(Cl)c(Cl)c(Cl)c2O[C@@H]1C(F)(F)F
REMARK SMILES IDX 7 1 6 2 5 3 4 4 3 5 2 6 1 7 66 8 67 9 78 10 68 11 77 12
REMARK SMILES IDX 69 13 76 14 70 15 74 16 71 17 72 18 75 19 73 20 79 21 80 22
REMARK SMILES IDX 81 23 82 24 8 25 9 26 10 27 11 28 12 29 13 30 65 31 14 32
REMARK SMILES IDX 64 33 15 34 16 35 17 36 58 37 18 38 63 39 57 40 59 41 19 42
REMARK SMILES IDX 62 43 56 44 55 45 20 47 46 48 29 49 45 50 30 51 33 52 44 53
REMARK SMILES IDX 60 54 31 55 32 56 43 58 61 59 34 60 21 61 22 62 27 63 23 64
REMARK SMILES IDX 24 65 26 66 28 67 25 68 47 69 48 70 53 71 49 72 50 73 52 74
REMARK SMILES IDX 54 75 51 76 35 77 36 78 41 79 37 80 38 81 40 82 42 83 39 84
REMARK H PARENT 59 46 33 57
REMARK Flexibility Score: inf
ROOT
ATOM      1  C   UNL A   1      42.852  21.354  25.809  1.00  0.00     0.202 C 
ENDROOT
BRANCH   1   2
ATOM      2  O   UNL A   1      41.508  21.818  25.585  1.00  0.00    -0.374 OA
BRANCH   2   3
ATOM      3  C   UNL A   1      40.128  21.331  26.248  1.00  0.00     0.202 C 
BRANCH   3   4
ATOM      4  C   UNL A   1      38.167  21.099  25.353  1.00  0.00     0.261 C 
BRANCH   4   5
ATOM      5  O   UNL A   1      36.872  21.833  25.773  1.00  0.00    -0.460 OA
BRANCH   5   6
ATOM      6  C   UNL A   1      36.406  22.652  24.828  1.00  0.00     0.338 C 
ATOM      7  O   UNL A   1      36.985  23.242  23.953  1.00  0.00    -0.246 OA
BRANCH   6   8
ATOM      8  C   UNL A   1      35.104  22.820  25.422  1.00  0.00     0.087 C 
ATOM      9  C   UNL A   1      34.943  24.197  25.956  1.00  0.00     0.027 C 
ATOM     10  C   UNL A   1      34.079  22.076  23.953  1.00  0.00     0.316 C 
ATOM     11  C   UNL A   1      33.899  25.460  25.172  1.00  0.00     0.020 A 
ATOM     12  O   UNL A   1      33.027  23.421  23.066  1.00  0.00    -0.474 OA
ATOM     13  C   UNL A   1      33.938  26.738  25.654  1.00  0.00     0.034 A 
ATOM     14  C   UNL A   1      33.010  25.128  23.720  1.00  0.00     0.148 A 
ATOM     15  C   UNL A   1      33.298  27.697  24.856  1.00  0.00     0.062 A 
ATOM     16  C   UNL A   1      32.580  26.157  22.920  1.00  0.00     0.103 A 
ATOM     17  Cl  UNL A   1      33.316  29.308  25.540  1.00  0.00    -0.083 Cl
ATOM     18  C   UNL A   1      32.710  27.444  23.535  1.00  0.00     0.082 A 
ATOM     19  Cl  UNL A   1      32.298  25.915  21.250  1.00  0.00    -0.079 Cl
ATOM     20  Cl  UNL A   1      32.239  28.864  22.645  1.00  0.00    -0.081 Cl
BRANCH  10  21
ATOM     21  C   UNL A   1      33.647  20.696  24.601  1.00  0.00     0.430 C 
ATOM     22  F   UNL A   1      32.688  20.030  23.934  1.00  0.00    -0.167 F 
ATOM     23  F   UNL A   1      34.738  19.877  24.583  1.00  0.00    -0.167 F 
ATOM     24  F   UNL A   1      33.292  20.768  25.904  1.00  0.00    -0.167 F 
ENDBRANCH  10  21
ENDBRANCH   6   8
ENDBRANCH   5   6
ENDBRANCH   4   5
ENDBRANCH   3   4
ENDBRANCH   2   3
ENDBRANCH   1   2
BRANCH   1  25
ATOM     25  C   UNL A   1      43.931  22.276  25.245  1.00  0.00     0.261 C 
BRANCH  25  26
ATOM     26  O   UNL A   1      43.380  23.498  24.770  1.00  0.00    -0.460 OA
BRANCH  26  27
ATOM     27  C   UNL A   1      44.123  24.583  25.086  1.00  0.00     0.338 C 
ATOM     28  O   UNL A   1      45.202  24.910  24.624  1.00  0.00    -0.246 OA
BRANCH  27  29
ATOM     29  C   UNL A   1      43.421  25.353  26.124  1.00  0.00     0.060 A 
ATOM     30  C   UNL A   1      43.920  26.620  26.437  1.00  0.00     0.016 A 
ATOM     31  C   UNL A   1      42.286  24.845  26.774  1.00  0.00     0.016 A 
ATOM     32  C   UNL A   1      43.277  27.385  27.401  1.00  0.00     0.010 A 
ATOM     33  C   UNL A   1      41.634  25.617  27.728  1.00  0.00     0.010 A 
ATOM     34  C   UNL A   1      42.139  26.883  28.050  1.00  0.00    -0.014 A 
BRANCH  34  35
ATOM     35  C   UNL A   1      41.595  27.632  29.195  1.00  0.00     0.031 A 
ATOM     36  C   UNL A   1      42.327  27.540  30.492  1.00  0.00     0.074 A 
ATOM     37  C   UNL A   1      40.524  28.427  29.049  1.00  0.00     0.049 A 
ATOM     38  N   UNL A   1      42.123  28.200  31.600  1.00  0.00    -0.248 NA
ATOM     39  C   UNL A   1      43.429  26.565  30.555  1.00  0.00     0.031 C 
ATOM     40  C   UNL A   1      39.723  28.536  27.836  1.00  0.00     0.029 A 
ATOM     41  N   UNL A   1      39.940  29.312  29.913  1.00  0.00    -0.354 N 
ATOM     42  C   UNL A   1      43.087  27.740  32.482  1.00  0.00     0.074 A 
ATOM     43  C   UNL A   1      43.838  26.707  31.805  1.00  0.00     0.031 C 
ATOM     44  C   UNL A   1      38.798  29.495  27.999  1.00  0.00     0.029 A 
ATOM     45  C   UNL A   1      38.891  30.007  29.361  1.00  0.00     0.049 A 
ATOM     46  H   UNL A   1      40.241  29.438  30.843  1.00  0.00     0.167 HD
ATOM     47  C   UNL A   1      43.328  28.162  33.741  1.00  0.00     0.037 A 
ATOM     48  C   UNL A   1      38.089  30.939  29.908  1.00  0.00     0.037 A 
ATOM     49  C   UNL A   1      42.538  29.159  34.411  1.00  0.00     0.049 A 
ATOM     50  C   UNL A   1      38.343  31.337  31.338  1.00  0.00     0.074 A 
ATOM     51  C   UNL A   1      42.672  29.643  35.698  1.00  0.00     0.029 A 
ATOM     52  N   UNL A   1      41.450  29.810  33.846  1.00  0.00    -0.354 N 
ATOM     53  N   UNL A   1      39.286  30.933  32.157  1.00  0.00    -0.248 NA
ATOM     54  C   UNL A   1      37.420  32.318  31.922  1.00  0.00     0.031 C 
ATOM     55  C   UNL A   1      41.633  30.549  35.929  1.00  0.00     0.029 A 
ATOM     56  C   UNL A   1      40.891  30.680  34.766  1.00  0.00     0.049 A 
ATOM     57  H   UNL A   1      41.124  29.675  32.926  1.00  0.00     0.167 HD
ATOM     58  C   UNL A   1      39.082  31.624  33.344  1.00  0.00     0.074 A 
ATOM     59  C   UNL A   1      37.949  32.501  33.122  1.00  0.00     0.031 C 
ATOM     60  C   UNL A   1      39.759  31.539  34.516  1.00  0.00     0.037 A 
BRANCH  47  61
ATOM     61  C   UNL A   1      44.474  27.525  34.465  1.00  0.00     0.057 A 
ATOM     62  C   UNL A   1      45.765  28.070  34.422  1.00  0.00     0.134 A 
ATOM     63  C   UNL A   1      44.286  26.358  35.214  1.00  0.00     0.134 A 
ATOM     64  F   UNL A   1      46.016  29.170  33.696  1.00  0.00    -0.206 F 
ATOM     65  C   UNL A   1      46.832  27.469  35.089  1.00  0.00     0.040 A 
ATOM     66  C   UNL A   1      45.340  25.764  35.908  1.00  0.00     0.040 A 
ATOM     67  F   UNL A   1      43.079  25.779  35.285  1.00  0.00    -0.206 F 
ATOM     68  C   UNL A   1      46.619  26.317  35.844  1.00  0.00     0.006 A 
ENDBRANCH  47  61
BRANCH  48  69
ATOM     69  C   UNL A   1      36.959  31.523  29.138  1.00  0.00     0.057 A 
ATOM     70  C   UNL A   1      37.009  32.830  28.637  1.00  0.00     0.134 A 
ATOM     71  C   UNL A   1      35.773  30.806  28.936  1.00  0.00     0.134 A 
ATOM     72  F   UNL A   1      38.106  33.580  28.811  1.00  0.00    -0.206 F 
ATOM     73  C   UNL A   1      35.909  33.414  28.004  1.00  0.00     0.040 A 
ATOM     74  C   UNL A   1      34.680  31.364  28.272  1.00  0.00     0.040 A 
ATOM     75  F   UNL A   1      35.655  29.547  29.384  1.00  0.00    -0.206 F 
ATOM     76  C   UNL A   1      34.740  32.679  27.818  1.00  0.00     0.006 A 
ENDBRANCH  48  69
BRANCH  60  77
ATOM     77  C   UNL A   1      39.305  32.443  35.625  1.00  0.00     0.057 A 
ATOM     78  C   UNL A   1      39.789  33.751  35.764  1.00  0.00     0.134 A 
ATOM     79  C   UNL A   1      38.365  32.000  36.564  1.00  0.00     0.134 A 
ATOM     80  F   UNL A   1      40.698  34.235  34.905  1.00  0.00    -0.206 F 
ATOM     81  C   UNL A   1      39.392  34.566  36.825  1.00  0.00     0.040 A 
ATOM     82  C   UNL A   1      37.930  32.819  37.606  1.00  0.00     0.040 A 
ATOM     83  F   UNL A   1      37.848  30.764  36.481  1.00  0.00    -0.206 F 
ATOM     84  C   UNL A   1      38.456  34.101  37.746  1.00  0.00     0.006 A 
ENDBRANCH  60  77
ENDBRANCH  34  35
ENDBRANCH  27  29
ENDBRANCH  26  27
ENDBRANCH  25  26
ENDBRANCH   1  25
TORSDOF 15
ENDMDL
MODEL 3
REMARK VINA RESULT:     -12.2      5.241      9.881
REMARK SMILES O=C(OCCOCCOC(=O)c1ccc(-c2c3nc(c(-c4c(F)cccc4F)c4ccc([nH]4)c(-c4c(F)cccc4F)c4nc(c(-c5c(F)cccc5F)c5ccc2[nH]5)C=C4)C=C3)cc1)C1=Cc2cc(Cl)c(Cl)c(Cl)c2O[C@@H]1C(F)(F)F
REMARK SMILES IDX 7 1 6 2 5 3 4 4 3 5 2 6 1 7 66 8 67 9 78 10 68 11 77 12
REMARK SMILES IDX 69 13 76 14 70 15 74 16 71 17 72 18 75 19 73 20 79 21 80 22
REMARK SMILES IDX 81 23 82 24 8 25 9 26 10 27 11 28 12 29 13 30 65 31 14 32
REMARK SMILES IDX 64 33 15 34 16 35 17 36 58 37 18 38 63 39 57 40 59 41 19 42
REMARK SMILES IDX 62 43 56 44 55 45 20 47 46 48 29 49 45 50 30 51 33 52 44 53
REMARK SMILES IDX 60 54 31 55 32 56 43 58 61 59 34 60 21 61 22 62 27 63 23 64
REMARK SMILES IDX 24 65 26 66 28 67 25 68 47 69 48 70 53 71 49 72 50 73 52 74
REMARK SMILES IDX 54 75 51 76 35 77 36 78 41 79 37 80 38 81 40 82 42 83 39 84
REMARK H PARENT 59 46 33 57
REMARK Flexibility Score: inf
ROOT
ATOM      1  C   UNL A   1      34.715  34.101  29.630  1.00  0.00     0.202 C 
ENDROOT
BRANCH   1   2
ATOM      2  O   UNL A   1      33.945  33.560  28.541  1.00  0.00    -0.374 OA
BRANCH   2   3
ATOM      3  C   UNL A   1      33.943  32.078  27.920  1.00  0.00     0.202 C 
BRANCH   3   4
ATOM      4  C   UNL A   1      32.366  31.014  26.880  1.00  0.00     0.261 C 
BRANCH   4   5
ATOM      5  O   UNL A   1      32.551  29.919  25.804  1.00  0.00    -0.460 OA
BRANCH   5   6
ATOM      6  C   UNL A   1      32.069  28.732  26.179  1.00  0.00     0.338 C 
ATOM      7  O   UNL A   1      31.771  28.321  27.270  1.00  0.00    -0.246 OA
BRANCH   6   8
ATOM      8  C   UNL A   1      32.348  28.071  24.929  1.00  0.00     0.087 C 
ATOM      9  C   UNL A   1      33.589  27.259  25.029  1.00  0.00     0.027 C 
ATOM     10  C   UNL A   1      30.571  27.345  24.648  1.00  0.00     0.316 C 
ATOM     11  C   UNL A   1      33.596  25.444  25.107  1.00  0.00     0.020 A 
ATOM     12  O   UNL A   1      30.553  25.427  24.805  1.00  0.00    -0.474 OA
ATOM     13  C   UNL A   1      34.776  24.801  25.350  1.00  0.00     0.034 A 
ATOM     14  C   UNL A   1      32.123  24.530  25.071  1.00  0.00     0.148 A 
ATOM     15  C   UNL A   1      34.663  23.432  25.634  1.00  0.00     0.062 A 
ATOM     16  C   UNL A   1      32.096  23.241  25.542  1.00  0.00     0.103 A 
ATOM     17  Cl  UNL A   1      36.201  22.634  25.877  1.00  0.00    -0.083 Cl
ATOM     18  C   UNL A   1      33.400  22.701  25.789  1.00  0.00     0.082 A 
ATOM     19  Cl  UNL A   1      30.645  22.544  26.120  1.00  0.00    -0.079 Cl
ATOM     20  Cl  UNL A   1      33.547  21.085  26.419  1.00  0.00    -0.081 Cl
BRANCH  10  21
ATOM     21  C   UNL A   1      30.083  28.284  23.469  1.00  0.00     0.430 C 
ATOM     22  F   UNL A   1      30.801  28.193  22.335  1.00  0.00    -0.167 F 
ATOM     23  F   UNL A   1      28.820  27.892  23.131  1.00  0.00    -0.167 F 
ATOM     24  F   UNL A   1      29.962  29.590  23.796  1.00  0.00    -0.167 F 
ENDBRANCH  10  21
ENDBRANCH   6   8
ENDBRANCH   5   6
ENDBRANCH   4   5
ENDBRANCH   3   4
ENDBRANCH   2   3
ENDBRANCH   1   2
BRANCH   1  25
ATOM     25  C   UNL A   1      34.478  33.403  30.968  1.00  0.00     0.261 C 
BRANCH  25  26
ATOM     26  O   UNL A   1      35.025  32.090  30.977  1.00  0.00    -0.460 OA
BRANCH  26  27
ATOM     27  C   UNL A   1      35.982  31.912  31.916  1.00  0.00     0.338 C 
ATOM     28  O   UNL A   1      35.919  32.168  33.106  1.00  0.00    -0.246 OA
BRANCH  27  29
ATOM     29  C   UNL A   1      37.176  31.344  31.273  1.00  0.00     0.060 A 
ATOM     30  C   UNL A   1      38.174  30.828  32.104  1.00  0.00     0.016 A 
ATOM     31  C   UNL A   1      37.314  31.310  29.877  1.00  0.00     0.016 A 
ATOM     32  C   UNL A   1      39.312  30.270  31.536  1.00  0.00     0.010 A 
ATOM     33  C   UNL A   1      38.446  30.737  29.309  1.00  0.00     0.010 A 
ATOM     34  C   UNL A   1      39.451  30.229  30.141  1.00  0.00    -0.014 A 
BRANCH  34  35
ATOM     35  C   UNL A   1      40.743  29.807  29.576  1.00  0.00     0.031 A 
ATOM     36  C   UNL A   1      40.861  28.400  29.094  1.00  0.00     0.074 A 
ATOM     37  C   UNL A   1      41.749  30.684  29.433  1.00  0.00     0.049 A 
ATOM     38  N   UNL A   1      41.842  27.832  28.448  1.00  0.00    -0.248 NA
ATOM     39  C   UNL A   1      39.726  27.509  29.390  1.00  0.00     0.031 C 
ATOM     40  C   UNL A   1      41.736  32.057  29.920  1.00  0.00     0.029 A 
ATOM     41  N   UNL A   1      42.963  30.562  28.815  1.00  0.00    -0.354 N 
ATOM     42  C   UNL A   1      41.432  26.525  28.237  1.00  0.00     0.074 A 
ATOM     43  C   UNL A   1      40.143  26.366  28.871  1.00  0.00     0.031 C 
ATOM     44  C   UNL A   1      42.853  32.683  29.516  1.00  0.00     0.029 A 
ATOM     45  C   UNL A   1      43.697  31.724  28.812  1.00  0.00     0.049 A 
ATOM     46  H   UNL A   1      43.283  29.721  28.413  1.00  0.00     0.167 HD
ATOM     47  C   UNL A   1      42.076  25.554  27.555  1.00  0.00     0.037 A 
ATOM     48  C   UNL A   1      44.920  31.971  28.311  1.00  0.00     0.037 A 
ATOM     49  C   UNL A   1      43.380  25.722  26.972  1.00  0.00     0.049 A 
ATOM     50  C   UNL A   1      45.640  30.846  27.617  1.00  0.00     0.074 A 
ATOM     51  C   UNL A   1      44.141  24.796  26.284  1.00  0.00     0.029 A 
ATOM     52  N   UNL A   1      44.121  26.894  27.028  1.00  0.00    -0.354 N 
ATOM     53  N   UNL A   1      45.231  29.622  27.378  1.00  0.00    -0.248 NA
ATOM     54  C   UNL A   1      46.993  31.133  27.125  1.00  0.00     0.031 C 
ATOM     55  C   UNL A   1      45.366  25.392  25.970  1.00  0.00     0.029 A 
ATOM     56  C   UNL A   1      45.342  26.709  26.403  1.00  0.00     0.049 A 
ATOM     57  H   UNL A   1      43.823  27.733  27.449  1.00  0.00     0.167 HD
ATOM     58  C   UNL A   1      46.265  29.000  26.692  1.00  0.00     0.074 A 
ATOM     59  C   UNL A   1      47.304  29.997  26.521  1.00  0.00     0.031 C 
ATOM     60  C   UNL A   1      46.358  27.721  26.251  1.00  0.00     0.037 A 
BRANCH  47  61
ATOM     61  C   UNL A   1      41.381  24.233  27.434  1.00  0.00     0.057 A 
ATOM     62  C   UNL A   1      41.761  23.128  28.210  1.00  0.00     0.134 A 
ATOM     63  C   UNL A   1      40.321  24.062  26.537  1.00  0.00     0.134 A 
ATOM     64  F   UNL A   1      42.790  23.220  29.066  1.00  0.00    -0.206 F 
ATOM     65  C   UNL A   1      41.118  21.897  28.088  1.00  0.00     0.040 A 
ATOM     66  C   UNL A   1      39.652  22.843  26.427  1.00  0.00     0.040 A 
ATOM     67  F   UNL A   1      39.917  25.075  25.756  1.00  0.00    -0.206 F 
ATOM     68  C   UNL A   1      40.052  21.755  27.201  1.00  0.00     0.006 A 
ENDBRANCH  47  61
BRANCH  48  69
ATOM     69  C   UNL A   1      45.560  33.304  28.477  1.00  0.00     0.057 A 
ATOM     70  C   UNL A   1      46.317  33.619  29.613  1.00  0.00     0.134 A 
ATOM     71  C   UNL A   1      45.379  34.318  27.528  1.00  0.00     0.134 A 
ATOM     72  F   UNL A   1      46.516  32.701  30.570  1.00  0.00    -0.206 F 
ATOM     73  C   UNL A   1      46.832  34.901  29.818  1.00  0.00     0.040 A 
ATOM     74  C   UNL A   1      45.919  35.593  27.703  1.00  0.00     0.040 A 
ATOM     75  F   UNL A   1      44.670  34.087  26.414  1.00  0.00    -0.206 F 
ATOM     76  C   UNL A   1      46.635  35.893  28.859  1.00  0.00     0.006 A 
ENDBRANCH  48  69
BRANCH  60  77
ATOM     77  C   UNL A   1      47.614  27.351  25.514  1.00  0.00     0.057 A 
ATOM     78  C   UNL A   1      48.733  26.821  26.172  1.00  0.00     0.134 A 
ATOM     79  C   UNL A   1      47.702  27.523  24.127  1.00  0.00     0.134 A 
ATOM     80  F   UNL A   1      48.719  26.639  27.501  1.00  0.00    -0.206 F 
ATOM     81  C   UNL A   1      49.909  26.522  25.482  1.00  0.00     0.040 A 
ATOM     82  C   UNL A   1      48.858  27.191  23.422  1.00  0.00     0.040 A 
ATOM     83  F   UNL A   1      46.663  28.012  23.433  1.00  0.00    -0.206 F 
ATOM     84  C   UNL A   1      49.971  26.703  24.102  1.00  0.00     0.006 A 
ENDBRANCH  60  77
ENDBRANCH  34  35
ENDBRANCH  27  29
ENDBRANCH  26  27
ENDBRANCH  25  26
ENDBRANCH   1  25
TORSDOF 15
ENDMDL
