MODEL 1
REMARK VINA RESULT:     -10.6      0.000      0.000
REMARK SMILES CC(C)(C)OC(=O)N1C[C@H](Cc2ccccc2)[C@H](C(=O)OCCOCCOC(=O)c2ccc(-c3c4nc(c(-c5c(F)cccc5F)c5ccc([nH]5)c(-c5c(F)cccc5F)c5nc(c(-c6c(F)cccc6F)c6ccc3[nH]6)C=C5)C=C4)cc2)C1
REMARK SMILES IDX 23 1 22 2 21 3 19 4 20 5 18 6 8 7 9 8 84 9 10 10 6 11 7 12
REMARK SMILES IDX 5 13 2 14 1 15 3 16 4 17 11 18 12 19 13 20 17 21 14 22 16 23
REMARK SMILES IDX 15 24 24 25 25 26 26 27 27 28 28 29 29 30 30 31 31 32 83 33
REMARK SMILES IDX 32 34 82 35 33 36 34 37 35 38 76 39 36 40 81 41 75 42 77 43
REMARK SMILES IDX 37 44 80 45 74 46 73 47 38 49 64 50 47 51 63 52 48 53 51 54
REMARK SMILES IDX 62 55 78 56 49 57 50 58 61 60 79 61 52 62 39 63 40 64 45 65
REMARK SMILES IDX 41 66 42 67 44 68 46 69 43 70 65 71 66 72 71 73 67 74 68 75
REMARK SMILES IDX 70 76 72 77 69 78 53 79 54 80 59 81 55 82 56 83 58 84 60 85
REMARK SMILES IDX 57 86
REMARK H PARENT 77 48 51 59
REMARK Flexibility Score: inf
ROOT
ATOM      1  C   UNL A   1      33.808  22.260  26.894  1.00  0.00     0.202 C 
ENDROOT
BRANCH   1   2
ATOM      2  C   UNL A   1      33.133  22.930  25.697  1.00  0.00     0.261 C 
BRANCH   2   3
ATOM      3  O   UNL A   1      32.622  24.224  26.067  1.00  0.00    -0.463 OA
BRANCH   3   4
ATOM      4  C   UNL A   1      32.625  25.165  25.095  1.00  0.00     0.311 C 
ATOM      5  O   UNL A   1      33.359  25.157  24.114  1.00  0.00    -0.252 OA
BRANCH   4   6
ATOM      6  C   UNL A   1      31.656  26.291  25.353  1.00  0.00     0.124 C 
ATOM      7  N   UNL A   1      30.599  27.985  24.122  1.00  0.00    -0.307 N 
ATOM      8  C   UNL A   1      30.933  28.559  25.410  1.00  0.00     0.128 C 
ATOM      9  C   UNL A   1      30.872  26.570  24.080  1.00  0.00     0.138 C 
ATOM     10  C   UNL A   1      32.089  27.678  25.906  1.00  0.00     0.029 C 
BRANCH   7  11
ATOM     11  C   UNL A   1      30.212  28.652  22.993  1.00  0.00     0.410 C 
ATOM     12  O   UNL A   1      30.514  28.278  21.866  1.00  0.00    -0.224 OA
BRANCH  11  13
ATOM     13  O   UNL A   1      29.554  29.797  23.288  1.00  0.00    -0.444 OA
BRANCH  13  14
ATOM     14  C   UNL A   1      28.213  30.032  22.791  1.00  0.00     0.106 C 
ATOM     15  C   UNL A   1      27.686  31.203  23.633  1.00  0.00     0.056 C 
ATOM     16  C   UNL A   1      27.363  28.788  23.050  1.00  0.00     0.056 C 
ATOM     17  C   UNL A   1      28.174  30.459  21.316  1.00  0.00     0.056 C 
ENDBRANCH  13  14
ENDBRANCH  11  13
ENDBRANCH   7  11
BRANCH  10  18
ATOM     18  C   UNL A   1      33.435  28.293  25.461  1.00  0.00     0.042 C 
BRANCH  18  19
ATOM     19  C   UNL A   1      34.006  29.255  26.492  1.00  0.00    -0.048 A 
ATOM     20  C   UNL A   1      35.211  28.963  27.147  1.00  0.00     0.004 A 
ATOM     21  C   UNL A   1      33.356  30.463  26.792  1.00  0.00     0.004 A 
ATOM     22  C   UNL A   1      35.765  29.870  28.056  1.00  0.00     0.000 A 
ATOM     23  C   UNL A   1      33.913  31.370  27.697  1.00  0.00     0.000 A 
ATOM     24  C   UNL A   1      35.120  31.075  28.326  1.00  0.00     0.000 A 
ENDBRANCH  18  19
ENDBRANCH  10  18
ENDBRANCH   4   6
ENDBRANCH   3   4
ENDBRANCH   2   3
ENDBRANCH   1   2
BRANCH   1  25
ATOM     25  O   UNL A   1      35.065  21.647  26.605  1.00  0.00    -0.374 OA
BRANCH  25  26
ATOM     26  C   UNL A   1      35.147  20.876  25.407  1.00  0.00     0.202 C 
BRANCH  26  27
ATOM     27  C   UNL A   1      36.571  20.551  24.943  1.00  0.00     0.261 C 
BRANCH  27  28
ATOM     28  O   UNL A   1      37.471  21.632  25.252  1.00  0.00    -0.460 OA
BRANCH  28  29
ATOM     29  C   UNL A   1      38.646  21.260  25.813  1.00  0.00     0.338 C 
ATOM     30  O   UNL A   1      39.205  20.182  25.700  1.00  0.00    -0.246 OA
BRANCH  29  31
ATOM     31  C   UNL A   1      39.294  22.422  26.456  1.00  0.00     0.060 A 
ATOM     32  C   UNL A   1      38.819  23.692  26.101  1.00  0.00     0.016 A 
ATOM     33  C   UNL A   1      40.366  22.295  27.344  1.00  0.00     0.016 A 
ATOM     34  C   UNL A   1      39.450  24.838  26.581  1.00  0.00     0.010 A 
ATOM     35  C   UNL A   1      41.005  23.449  27.819  1.00  0.00     0.010 A 
ATOM     36  C   UNL A   1      40.573  24.723  27.409  1.00  0.00    -0.014 A 
BRANCH  36  37
ATOM     37  C   UNL A   1      41.379  25.935  27.706  1.00  0.00     0.031 A 
ATOM     38  C   UNL A   1      40.777  27.015  28.564  1.00  0.00     0.074 A 
ATOM     39  C   UNL A   1      42.648  26.050  27.275  1.00  0.00     0.049 A 
ATOM     40  N   UNL A   1      41.295  28.154  28.950  1.00  0.00    -0.248 NA
ATOM     41  C   UNL A   1      39.412  26.775  29.060  1.00  0.00     0.031 C 
ATOM     42  C   UNL A   1      43.368  25.051  26.488  1.00  0.00     0.029 A 
ATOM     43  N   UNL A   1      43.557  27.063  27.448  1.00  0.00    -0.354 N 
ATOM     44  C   UNL A   1      40.326  28.760  29.738  1.00  0.00     0.074 A 
ATOM     45  C   UNL A   1      39.176  27.881  29.749  1.00  0.00     0.031 C 
ATOM     46  C   UNL A   1      44.610  25.506  26.240  1.00  0.00     0.029 A 
ATOM     47  C   UNL A   1      44.760  26.836  26.827  1.00  0.00     0.049 A 
ATOM     48  H   UNL A   1      43.365  27.877  27.969  1.00  0.00     0.167 HD
ATOM     49  C   UNL A   1      40.389  29.937  30.404  1.00  0.00     0.037 A 
ATOM     50  C   UNL A   1      45.852  27.621  26.730  1.00  0.00     0.037 A 
ATOM     51  C   UNL A   1      41.526  30.820  30.393  1.00  0.00     0.049 A 
ATOM     52  C   UNL A   1      45.858  28.974  27.394  1.00  0.00     0.074 A 
ATOM     53  C   UNL A   1      41.679  32.036  31.035  1.00  0.00     0.029 A 
ATOM     54  N   UNL A   1      42.702  30.581  29.702  1.00  0.00    -0.354 N 
ATOM     55  N   UNL A   1      44.938  29.533  28.143  1.00  0.00    -0.248 NA
ATOM     56  C   UNL A   1      47.055  29.806  27.195  1.00  0.00     0.031 C 
ATOM     57  C   UNL A   1      42.935  32.554  30.699  1.00  0.00     0.029 A 
ATOM     58  C   UNL A   1      43.578  31.638  29.883  1.00  0.00     0.049 A 
ATOM     59  H   UNL A   1      42.889  29.778  29.164  1.00  0.00     0.167 HD
ATOM     60  C   UNL A   1      45.457  30.765  28.527  1.00  0.00     0.074 A 
ATOM     61  C   UNL A   1      46.774  30.868  27.936  1.00  0.00     0.031 C 
ATOM     62  C   UNL A   1      44.892  31.723  29.301  1.00  0.00     0.037 A 
BRANCH  49  63
ATOM     63  C   UNL A   1      39.184  30.349  31.194  1.00  0.00     0.057 A 
ATOM     64  C   UNL A   1      38.185  31.159  30.642  1.00  0.00     0.134 A 
ATOM     65  C   UNL A   1      39.001  29.898  32.507  1.00  0.00     0.134 A 
ATOM     66  F   UNL A   1      38.310  31.635  29.393  1.00  0.00    -0.206 F 
ATOM     67  C   UNL A   1      37.052  31.519  31.372  1.00  0.00     0.040 A 
ATOM     68  C   UNL A   1      37.862  30.232  33.240  1.00  0.00     0.040 A 
ATOM     69  F   UNL A   1      39.920  29.115  33.093  1.00  0.00    -0.206 F 
ATOM     70  C   UNL A   1      36.885  31.048  32.673  1.00  0.00     0.006 A 
ENDBRANCH  49  63
BRANCH  50  71
ATOM     71  C   UNL A   1      47.034  27.168  25.956  1.00  0.00     0.057 A 
ATOM     72  C   UNL A   1      48.100  26.510  26.578  1.00  0.00     0.134 A 
ATOM     73  C   UNL A   1      47.147  27.426  24.584  1.00  0.00     0.134 A 
ATOM     74  F   UNL A   1      48.063  26.259  27.895  1.00  0.00    -0.206 F 
ATOM     75  C   UNL A   1      49.245  26.141  25.870  1.00  0.00     0.040 A 
ATOM     76  C   UNL A   1      48.275  27.042  23.858  1.00  0.00     0.040 A 
ATOM     77  F   UNL A   1      46.161  28.058  23.931  1.00  0.00    -0.206 F 
ATOM     78  C   UNL A   1      49.333  26.404  24.504  1.00  0.00     0.006 A 
ENDBRANCH  50  71
BRANCH  62  79
ATOM     79  C   UNL A   1      45.706  32.951  29.586  1.00  0.00     0.057 A 
ATOM     80  C   UNL A   1      45.619  34.095  28.783  1.00  0.00     0.134 A 
ATOM     81  C   UNL A   1      46.548  33.005  30.702  1.00  0.00     0.134 A 
ATOM     82  F   UNL A   1      44.839  34.103  27.692  1.00  0.00    -0.206 F 
ATOM     83  C   UNL A   1      46.354  35.246  29.074  1.00  0.00     0.040 A 
ATOM     84  C   UNL A   1      47.271  34.156  31.017  1.00  0.00     0.040 A 
ATOM     85  F   UNL A   1      46.668  31.945  31.516  1.00  0.00    -0.206 F 
ATOM     86  C   UNL A   1      47.179  35.280  30.198  1.00  0.00     0.006 A 
ENDBRANCH  62  79
ENDBRANCH  36  37
ENDBRANCH  29  31
ENDBRANCH  28  29
ENDBRANCH  27  28
ENDBRANCH  26  27
ENDBRANCH  25  26
ENDBRANCH   1  25
TORSDOF 19
ENDMDL
MODEL 2
REMARK VINA RESULT:     -10.6      4.126      8.292
REMARK SMILES CC(C)(C)OC(=O)N1C[C@H](Cc2ccccc2)[C@H](C(=O)OCCOCCOC(=O)c2ccc(-c3c4nc(c(-c5c(F)cccc5F)c5ccc([nH]5)c(-c5c(F)cccc5F)c5nc(c(-c6c(F)cccc6F)c6ccc3[nH]6)C=C5)C=C4)cc2)C1
REMARK SMILES IDX 23 1 22 2 21 3 19 4 20 5 18 6 8 7 9 8 84 9 10 10 6 11 7 12
REMARK SMILES IDX 5 13 2 14 1 15 3 16 4 17 11 18 12 19 13 20 17 21 14 22 16 23
REMARK SMILES IDX 15 24 24 25 25 26 26 27 27 28 28 29 29 30 30 31 31 32 83 33
REMARK SMILES IDX 32 34 82 35 33 36 34 37 35 38 76 39 36 40 81 41 75 42 77 43
REMARK SMILES IDX 37 44 80 45 74 46 73 47 38 49 64 50 47 51 63 52 48 53 51 54
REMARK SMILES IDX 62 55 78 56 49 57 50 58 61 60 79 61 52 62 39 63 40 64 45 65
REMARK SMILES IDX 41 66 42 67 44 68 46 69 43 70 65 71 66 72 71 73 67 74 68 75
REMARK SMILES IDX 70 76 72 77 69 78 53 79 54 80 59 81 55 82 56 83 58 84 60 85
REMARK SMILES IDX 57 86
REMARK H PARENT 77 48 51 59
REMARK Flexibility Score: inf
ROOT
ATOM      1  C   UNL A   1      33.128  30.248  27.028  1.00  0.00     0.202 C 
ENDROOT
BRANCH   1   2
ATOM      2  C   UNL A   1      33.398  28.771  26.737  1.00  0.00     0.261 C 
BRANCH   2   3
ATOM      3  O   UNL A   1      33.278  28.507  25.327  1.00  0.00    -0.463 OA
BRANCH   3   4
ATOM      4  C   UNL A   1      33.108  27.211  24.977  1.00  0.00     0.311 C 
ATOM      5  O   UNL A   1      33.699  26.650  24.062  1.00  0.00    -0.252 OA
BRANCH   4   6
ATOM      6  C   UNL A   1      32.059  26.504  25.796  1.00  0.00     0.124 C 
ATOM      7  N   UNL A   1      31.265  24.316  26.082  1.00  0.00    -0.307 N 
ATOM      8  C   UNL A   1      30.109  25.186  26.151  1.00  0.00     0.128 C 
ATOM      9  C   UNL A   1      32.496  25.065  26.023  1.00  0.00     0.138 C 
ATOM     10  C   UNL A   1      30.559  26.442  25.392  1.00  0.00     0.029 C 
BRANCH   7  11
ATOM     11  C   UNL A   1      31.272  22.956  25.937  1.00  0.00     0.410 C 
ATOM     12  O   UNL A   1      30.275  22.266  26.109  1.00  0.00    -0.224 OA
BRANCH  11  13
ATOM     13  O   UNL A   1      32.515  22.486  25.682  1.00  0.00    -0.444 OA
BRANCH  13  14
ATOM     14  C   UNL A   1      32.802  21.775  24.452  1.00  0.00     0.106 C 
ATOM     15  C   UNL A   1      34.311  21.956  24.241  1.00  0.00     0.056 C 
ATOM     16  C   UNL A   1      32.038  22.439  23.306  1.00  0.00     0.056 C 
ATOM     17  C   UNL A   1      32.517  20.268  24.537  1.00  0.00     0.056 C 
ENDBRANCH  13  14
ENDBRANCH  11  13
ENDBRANCH   7  11
BRANCH  10  18
ATOM     18  C   UNL A   1      30.175  26.312  23.902  1.00  0.00     0.042 C 
BRANCH  18  19
ATOM     19  C   UNL A   1      29.395  27.516  23.392  1.00  0.00    -0.048 A 
ATOM     20  C   UNL A   1      28.001  27.569  23.526  1.00  0.00     0.004 A 
ATOM     21  C   UNL A   1      30.054  28.605  22.800  1.00  0.00     0.004 A 
ATOM     22  C   UNL A   1      27.289  28.696  23.106  1.00  0.00     0.000 A 
ATOM     23  C   UNL A   1      29.342  29.733  22.385  1.00  0.00     0.000 A 
ATOM     24  C   UNL A   1      27.959  29.780  22.542  1.00  0.00     0.000 A 
ENDBRANCH  18  19
ENDBRANCH  10  18
ENDBRANCH   4   6
ENDBRANCH   3   4
ENDBRANCH   2   3
ENDBRANCH   1   2
BRANCH   1  25
ATOM     25  O   UNL A   1      31.886  30.739  26.520  1.00  0.00    -0.374 OA
BRANCH  25  26
ATOM     26  C   UNL A   1      31.567  32.102  26.801  1.00  0.00     0.202 C 
BRANCH  26  27
ATOM     27  C   UNL A   1      32.518  32.800  27.778  1.00  0.00     0.261 C 
BRANCH  27  28
ATOM     28  O   UNL A   1      32.746  34.166  27.385  1.00  0.00    -0.460 OA
BRANCH  28  29
ATOM     29  C   UNL A   1      32.974  35.028  28.405  1.00  0.00     0.338 C 
ATOM     30  O   UNL A   1      32.265  35.956  28.754  1.00  0.00    -0.246 OA
BRANCH  29  31
ATOM     31  C   UNL A   1      34.141  34.582  29.196  1.00  0.00     0.060 A 
ATOM     32  C   UNL A   1      35.382  34.569  28.546  1.00  0.00     0.016 A 
ATOM     33  C   UNL A   1      34.034  34.141  30.518  1.00  0.00     0.016 A 
ATOM     34  C   UNL A   1      36.508  34.059  29.191  1.00  0.00     0.010 A 
ATOM     35  C   UNL A   1      35.165  33.620  31.162  1.00  0.00     0.010 A 
ATOM     36  C   UNL A   1      36.397  33.543  30.488  1.00  0.00    -0.014 A 
BRANCH  36  37
ATOM     37  C   UNL A   1      37.535  32.782  31.062  1.00  0.00     0.031 A 
ATOM     38  C   UNL A   1      38.099  33.210  32.390  1.00  0.00     0.074 A 
ATOM     39  C   UNL A   1      38.022  31.689  30.448  1.00  0.00     0.049 A 
ATOM     40  N   UNL A   1      39.088  32.695  33.077  1.00  0.00    -0.248 NA
ATOM     41  C   UNL A   1      37.457  34.367  33.034  1.00  0.00     0.031 C 
ATOM     42  C   UNL A   1      37.528  31.134  29.189  1.00  0.00     0.029 A 
ATOM     43  N   UNL A   1      39.044  30.847  30.810  1.00  0.00    -0.354 N 
ATOM     44  C   UNL A   1      39.180  33.459  34.234  1.00  0.00     0.074 A 
ATOM     45  C   UNL A   1      38.171  34.492  34.142  1.00  0.00     0.031 C 
ATOM     46  C   UNL A   1      38.253  30.044  28.880  1.00  0.00     0.029 A 
ATOM     47  C   UNL A   1      39.278  29.842  29.903  1.00  0.00     0.049 A 
ATOM     48  H   UNL A   1      39.561  30.953  31.642  1.00  0.00     0.167 HD
ATOM     49  C   UNL A   1      40.020  33.307  35.285  1.00  0.00     0.037 A 
ATOM     50  C   UNL A   1      40.222  28.881  29.893  1.00  0.00     0.037 A 
ATOM     51  C   UNL A   1      41.030  32.287  35.381  1.00  0.00     0.049 A 
ATOM     52  C   UNL A   1      41.214  28.799  31.026  1.00  0.00     0.074 A 
ATOM     53  C   UNL A   1      41.931  32.059  36.406  1.00  0.00     0.029 A 
ATOM     54  N   UNL A   1      41.274  31.326  34.413  1.00  0.00    -0.354 N 
ATOM     55  N   UNL A   1      41.286  29.521  32.117  1.00  0.00    -0.248 NA
ATOM     56  C   UNL A   1      42.257  27.767  30.920  1.00  0.00     0.031 C 
ATOM     57  C   UNL A   1      42.748  30.984  36.040  1.00  0.00     0.029 A 
ATOM     58  C   UNL A   1      42.326  30.517  34.807  1.00  0.00     0.049 A 
ATOM     59  H   UNL A   1      40.772  31.232  33.571  1.00  0.00     0.167 HD
ATOM     60  C   UNL A   1      42.360  29.014  32.839  1.00  0.00     0.074 A 
ATOM     61  C   UNL A   1      42.904  27.917  32.068  1.00  0.00     0.031 C 
ATOM     62  C   UNL A   1      42.850  29.420  34.035  1.00  0.00     0.037 A 
BRANCH  49  63
ATOM     63  C   UNL A   1      39.892  34.282  36.416  1.00  0.00     0.057 A 
ATOM     64  C   UNL A   1      40.544  35.521  36.396  1.00  0.00     0.134 A 
ATOM     65  C   UNL A   1      39.078  33.995  37.518  1.00  0.00     0.134 A 
ATOM     66  F   UNL A   1      41.350  35.847  35.374  1.00  0.00    -0.206 F 
ATOM     67  C   UNL A   1      40.402  36.436  37.439  1.00  0.00     0.040 A 
ATOM     68  C   UNL A   1      38.910  34.912  38.558  1.00  0.00     0.040 A 
ATOM     69  F   UNL A   1      38.423  32.827  37.597  1.00  0.00    -0.206 F 
ATOM     70  C   UNL A   1      39.576  36.135  38.521  1.00  0.00     0.006 A 
ENDBRANCH  49  63
BRANCH  50  71
ATOM     71  C   UNL A   1      40.302  27.921  28.764  1.00  0.00     0.057 A 
ATOM     72  C   UNL A   1      41.023  28.222  27.605  1.00  0.00     0.134 A 
ATOM     73  C   UNL A   1      39.618  26.699  28.800  1.00  0.00     0.134 A 
ATOM     74  F   UNL A   1      41.676  29.389  27.500  1.00  0.00    -0.206 F 
ATOM     75  C   UNL A   1      41.047  27.353  26.512  1.00  0.00     0.040 A 
ATOM     76  C   UNL A   1      39.653  25.810  27.725  1.00  0.00     0.040 A 
ATOM     77  F   UNL A   1      38.905  26.354  29.882  1.00  0.00    -0.206 F 
ATOM     78  C   UNL A   1      40.362  26.141  26.572  1.00  0.00     0.006 A 
ENDBRANCH  50  71
BRANCH  62  79
ATOM     79  C   UNL A   1      44.010  28.656  34.604  1.00  0.00     0.057 A 
ATOM     80  C   UNL A   1      43.825  27.513  35.392  1.00  0.00     0.134 A 
ATOM     81  C   UNL A   1      45.325  29.041  34.318  1.00  0.00     0.134 A 
ATOM     82  F   UNL A   1      42.589  27.100  35.711  1.00  0.00    -0.206 F 
ATOM     83  C   UNL A   1      44.910  26.789  35.889  1.00  0.00     0.040 A 
ATOM     84  C   UNL A   1      46.418  28.313  34.791  1.00  0.00     0.040 A 
ATOM     85  F   UNL A   1      45.570  30.121  33.561  1.00  0.00    -0.206 F 
ATOM     86  C   UNL A   1      46.211  27.185  35.583  1.00  0.00     0.006 A 
ENDBRANCH  62  79
ENDBRANCH  36  37
ENDBRANCH  29  31
ENDBRANCH  28  29
ENDBRANCH  27  28
ENDBRANCH  26  27
ENDBRANCH  25  26
ENDBRANCH   1  25
TORSDOF 19
ENDMDL
MODEL 3
REMARK VINA RESULT:     -10.5      3.887      9.243
REMARK SMILES CC(C)(C)OC(=O)N1C[C@H](Cc2ccccc2)[C@H](C(=O)OCCOCCOC(=O)c2ccc(-c3c4nc(c(-c5c(F)cccc5F)c5ccc([nH]5)c(-c5c(F)cccc5F)c5nc(c(-c6c(F)cccc6F)c6ccc3[nH]6)C=C5)C=C4)cc2)C1
REMARK SMILES IDX 23 1 22 2 21 3 19 4 20 5 18 6 8 7 9 8 84 9 10 10 6 11 7 12
REMARK SMILES IDX 5 13 2 14 1 15 3 16 4 17 11 18 12 19 13 20 17 21 14 22 16 23
REMARK SMILES IDX 15 24 24 25 25 26 26 27 27 28 28 29 29 30 30 31 31 32 83 33
REMARK SMILES IDX 32 34 82 35 33 36 34 37 35 38 76 39 36 40 81 41 75 42 77 43
REMARK SMILES IDX 37 44 80 45 74 46 73 47 38 49 64 50 47 51 63 52 48 53 51 54
REMARK SMILES IDX 62 55 78 56 49 57 50 58 61 60 79 61 52 62 39 63 40 64 45 65
REMARK SMILES IDX 41 66 42 67 44 68 46 69 43 70 65 71 66 72 71 73 67 74 68 75
REMARK SMILES IDX 70 76 72 77 69 78 53 79 54 80 59 81 55 82 56 83 58 84 60 85
REMARK SMILES IDX 57 86
REMARK H PARENT 77 48 51 59
REMARK Flexibility Score: inf
ROOT
ATOM      1  C   UNL A   1      32.013  29.589  27.198  1.00  0.00     0.202 C 
ENDROOT
BRANCH   1   2
ATOM      2  C   UNL A   1      33.139  28.561  27.067  1.00  0.00     0.261 C 
BRANCH   2   3
ATOM      3  O   UNL A   1      33.424  28.302  25.680  1.00  0.00    -0.463 OA
BRANCH   3   4
ATOM      4  C   UNL A   1      33.220  27.033  25.258  1.00  0.00     0.311 C 
ATOM      5  O   UNL A   1      33.858  26.480  24.370  1.00  0.00    -0.252 OA
BRANCH   4   6
ATOM      6  C   UNL A   1      32.071  26.350  25.954  1.00  0.00     0.124 C 
ATOM      7  N   UNL A   1      31.186  24.184  26.122  1.00  0.00    -0.307 N 
ATOM      8  C   UNL A   1      30.056  25.090  26.086  1.00  0.00     0.128 C 
ATOM      9  C   UNL A   1      32.439  24.895  26.201  1.00  0.00     0.138 C 
ATOM     10  C   UNL A   1      30.620  26.342  25.398  1.00  0.00     0.029 C 
BRANCH   7  11
ATOM     11  C   UNL A   1      31.166  22.827  25.956  1.00  0.00     0.410 C 
ATOM     12  O   UNL A   1      30.161  22.151  26.140  1.00  0.00    -0.224 OA
BRANCH  11  13
ATOM     13  O   UNL A   1      32.395  22.340  25.665  1.00  0.00    -0.444 OA
BRANCH  13  14
ATOM     14  C   UNL A   1      32.725  21.912  24.321  1.00  0.00     0.106 C 
ATOM     15  C   UNL A   1      32.457  20.401  24.317  1.00  0.00     0.056 C 
ATOM     16  C   UNL A   1      34.210  22.172  24.068  1.00  0.00     0.056 C 
ATOM     17  C   UNL A   1      31.837  22.549  23.241  1.00  0.00     0.056 C 
ENDBRANCH  13  14
ENDBRANCH  11  13
ENDBRANCH   7  11
BRANCH  10  18
ATOM     18  C   UNL A   1      30.386  26.243  23.874  1.00  0.00     0.042 C 
BRANCH  18  19
ATOM     19  C   UNL A   1      29.696  27.476  23.308  1.00  0.00    -0.048 A 
ATOM     20  C   UNL A   1      28.308  27.633  23.428  1.00  0.00     0.004 A 
ATOM     21  C   UNL A   1      30.433  28.491  22.676  1.00  0.00     0.004 A 
ATOM     22  C   UNL A   1      27.680  28.788  22.956  1.00  0.00     0.000 A 
ATOM     23  C   UNL A   1      29.804  29.647  22.209  1.00  0.00     0.000 A 
ATOM     24  C   UNL A   1      28.427  29.798  22.352  1.00  0.00     0.000 A 
ENDBRANCH  18  19
ENDBRANCH  10  18
ENDBRANCH   4   6
ENDBRANCH   3   4
ENDBRANCH   2   3
ENDBRANCH   1   2
BRANCH   1  25
ATOM     25  O   UNL A   1      32.443  30.951  27.170  1.00  0.00    -0.374 OA
BRANCH  25  26
ATOM     26  C   UNL A   1      31.619  31.874  26.457  1.00  0.00     0.202 C 
BRANCH  26  27
ATOM     27  C   UNL A   1      31.856  33.349  26.798  1.00  0.00     0.261 C 
BRANCH  27  28
ATOM     28  O   UNL A   1      32.381  33.489  28.132  1.00  0.00    -0.460 OA
BRANCH  28  29
ATOM     29  C   UNL A   1      33.460  34.300  28.242  1.00  0.00     0.338 C 
ATOM     30  O   UNL A   1      33.473  35.518  28.179  1.00  0.00    -0.246 OA
BRANCH  29  31
ATOM     31  C   UNL A   1      34.646  33.516  28.647  1.00  0.00     0.060 A 
ATOM     32  C   UNL A   1      34.415  32.352  29.391  1.00  0.00     0.016 A 
ATOM     33  C   UNL A   1      35.954  33.920  28.361  1.00  0.00     0.016 A 
ATOM     34  C   UNL A   1      35.485  31.619  29.902  1.00  0.00     0.010 A 
ATOM     35  C   UNL A   1      37.029  33.188  28.883  1.00  0.00     0.010 A 
ATOM     36  C   UNL A   1      36.798  32.057  29.687  1.00  0.00    -0.014 A 
BRANCH  36  37
ATOM     37  C   UNL A   1      37.905  31.416  30.440  1.00  0.00     0.031 A 
ATOM     38  C   UNL A   1      38.758  30.390  29.745  1.00  0.00     0.074 A 
ATOM     39  C   UNL A   1      38.192  31.783  31.702  1.00  0.00     0.049 A 
ATOM     40  N   UNL A   1      39.774  29.705  30.206  1.00  0.00    -0.248 NA
ATOM     41  C   UNL A   1      38.427  30.104  28.339  1.00  0.00     0.031 C 
ATOM     42  C   UNL A   1      37.483  32.805  32.469  1.00  0.00     0.029 A 
ATOM     43  N   UNL A   1      39.167  31.334  32.559  1.00  0.00    -0.354 N 
ATOM     44  C   UNL A   1      40.207  28.915  29.148  1.00  0.00     0.074 A 
ATOM     45  C   UNL A   1      39.324  29.179  28.032  1.00  0.00     0.031 C 
ATOM     46  C   UNL A   1      38.044  32.901  33.688  1.00  0.00     0.029 A 
ATOM     47  C   UNL A   1      39.131  31.930  33.795  1.00  0.00     0.049 A 
ATOM     48  H   UNL A   1      39.829  30.649  32.310  1.00  0.00     0.167 HD
ATOM     49  C   UNL A   1      41.253  28.056  29.104  1.00  0.00     0.037 A 
ATOM     50  C   UNL A   1      39.880  31.704  34.892  1.00  0.00     0.037 A 
ATOM     51  C   UNL A   1      42.131  27.783  30.210  1.00  0.00     0.049 A 
ATOM     52  C   UNL A   1      40.972  30.666  34.848  1.00  0.00     0.074 A 
ATOM     53  C   UNL A   1      43.215  26.924  30.259  1.00  0.00     0.029 A 
ATOM     54  N   UNL A   1      42.023  28.363  31.463  1.00  0.00    -0.354 N 
ATOM     55  N   UNL A   1      41.376  29.932  33.841  1.00  0.00    -0.248 NA
ATOM     56  C   UNL A   1      41.708  30.424  36.099  1.00  0.00     0.031 C 
ATOM     57  C   UNL A   1      43.739  26.953  31.556  1.00  0.00     0.029 A 
ATOM     58  C   UNL A   1      43.007  27.863  32.300  1.00  0.00     0.049 A 
ATOM     59  H   UNL A   1      41.348  29.032  31.721  1.00  0.00     0.167 HD
ATOM     60  C   UNL A   1      42.429  29.165  34.326  1.00  0.00     0.074 A 
ATOM     61  C   UNL A   1      42.608  29.529  35.715  1.00  0.00     0.031 C 
ATOM     62  C   UNL A   1      43.182  28.244  33.677  1.00  0.00     0.037 A 
BRANCH  49  63
ATOM     63  C   UNL A   1      41.498  27.334  27.813  1.00  0.00     0.057 A 
ATOM     64  C   UNL A   1      42.286  27.890  26.798  1.00  0.00     0.134 A 
ATOM     65  C   UNL A   1      40.972  26.054  27.599  1.00  0.00     0.134 A 
ATOM     66  F   UNL A   1      42.805  29.119  26.938  1.00  0.00    -0.206 F 
ATOM     67  C   UNL A   1      42.533  27.203  25.609  1.00  0.00     0.040 A 
ATOM     68  C   UNL A   1      41.229  25.348  26.423  1.00  0.00     0.040 A 
ATOM     69  F   UNL A   1      40.211  25.465  28.534  1.00  0.00    -0.206 F 
ATOM     70  C   UNL A   1      42.009  25.925  25.423  1.00  0.00     0.006 A 
ENDBRANCH  49  63
BRANCH  50  71
ATOM     71  C   UNL A   1      39.620  32.456  36.145  1.00  0.00     0.057 A 
ATOM     72  C   UNL A   1      40.383  33.575  36.492  1.00  0.00     0.134 A 
ATOM     73  C   UNL A   1      38.631  32.043  37.048  1.00  0.00     0.134 A 
ATOM     74  F   UNL A   1      41.363  34.001  35.681  1.00  0.00    -0.206 F 
ATOM     75  C   UNL A   1      40.190  34.247  37.701  1.00  0.00     0.040 A 
ATOM     76  C   UNL A   1      38.410  32.720  38.249  1.00  0.00     0.040 A 
ATOM     77  F   UNL A   1      37.869  30.975  36.775  1.00  0.00    -0.206 F 
ATOM     78  C   UNL A   1      39.197  33.821  38.582  1.00  0.00     0.006 A 
ENDBRANCH  50  71
BRANCH  62  79
ATOM     79  C   UNL A   1      44.291  27.589  34.448  1.00  0.00     0.057 A 
ATOM     80  C   UNL A   1      45.564  28.165  34.542  1.00  0.00     0.134 A 
ATOM     81  C   UNL A   1      44.067  26.395  35.144  1.00  0.00     0.134 A 
ATOM     82  F   UNL A   1      45.845  29.302  33.889  1.00  0.00    -0.206 F 
ATOM     83  C   UNL A   1      46.580  27.566  35.289  1.00  0.00     0.040 A 
ATOM     84  C   UNL A   1      45.067  25.798  35.911  1.00  0.00     0.040 A 
ATOM     85  F   UNL A   1      42.866  25.797  35.102  1.00  0.00    -0.206 F 
ATOM     86  C   UNL A   1      46.331  26.382  35.981  1.00  0.00     0.006 A 
ENDBRANCH  62  79
ENDBRANCH  36  37
ENDBRANCH  29  31
ENDBRANCH  28  29
ENDBRANCH  27  28
ENDBRANCH  26  27
ENDBRANCH  25  26
ENDBRANCH   1  25
TORSDOF 19
ENDMDL
