MODEL 1
REMARK VINA RESULT:     -10.4      0.000      0.000
REMARK SMILES Cc1ccccc1[C@@H](CC(=O)OCCOCCOC(=O)c1ccc(-c2c3nc(c(-c4c(F)cccc4F)c4ccc([nH]4)c(-c4c(F)cccc4F)c4nc(c(-c5c(F)cccc5F)c5ccc2[nH]5)C=C4)C=C3)cc1)NC(=O)C(F)(F)F
REMARK SMILES IDX 14 1 13 2 12 3 10 4 11 5 9 6 8 7 7 8 1 9 2 10 3 11 4 12 6 13
REMARK SMILES IDX 5 14 75 15 76 16 77 18 78 19 79 20 80 21 81 22 15 23 16 24
REMARK SMILES IDX 17 25 18 26 19 27 20 28 21 29 22 30 74 31 23 32 73 33 24 34
REMARK SMILES IDX 25 35 26 36 67 37 27 38 72 39 66 40 68 41 28 42 71 43 65 44
REMARK SMILES IDX 64 45 29 47 55 48 38 49 54 50 39 51 42 52 53 53 69 54 40 55
REMARK SMILES IDX 41 56 52 58 70 59 43 60 30 61 31 62 36 63 32 64 33 65 35 66
REMARK SMILES IDX 37 67 34 68 56 69 57 70 62 71 58 72 59 73 61 74 63 75 60 76
REMARK SMILES IDX 44 77 45 78 50 79 46 80 47 81 49 82 51 83 48 84
REMARK H PARENT 75 17 68 46 42 57
REMARK Flexibility Score: inf
ROOT
ATOM      1  C   UNL A   1      31.734  29.049  24.684  1.00  0.00     0.202 C 
ENDROOT
BRANCH   1   2
ATOM      2  C   UNL A   1      31.317  27.621  24.812  1.00  0.00     0.261 C 
BRANCH   2   3
ATOM      3  O   UNL A   1      31.702  27.065  26.062  1.00  0.00    -0.463 OA
BRANCH   3   4
ATOM      4  C   UNL A   1      32.989  26.631  26.117  1.00  0.00     0.308 C 
ATOM      5  O   UNL A   1      33.971  27.319  26.281  1.00  0.00    -0.252 OA
BRANCH   4   6
ATOM      6  C   UNL A   1      33.019  25.138  25.972  1.00  0.00     0.152 C 
BRANCH   6   7
ATOM      7  C   UNL A   1      33.558  24.659  24.601  1.00  0.00     0.124 C 
BRANCH   7   8
ATOM      8  C   UNL A   1      34.657  23.580  24.629  1.00  0.00    -0.022 A 
ATOM      9  C   UNL A   1      32.956  21.699  24.212  1.00  0.00     0.045 C 
ATOM     10  C   UNL A   1      34.336  22.207  24.534  1.00  0.00    -0.046 A 
ATOM     11  C   UNL A   1      35.360  21.238  24.600  1.00  0.00     0.004 A 
ATOM     12  C   UNL A   1      36.695  21.598  24.756  1.00  0.00     0.000 A 
ATOM     13  C   UNL A   1      36.030  23.905  24.725  1.00  0.00     0.006 A 
ATOM     14  C   UNL A   1      37.031  22.937  24.826  1.00  0.00     0.000 A 
ENDBRANCH   7   8
BRANCH   7  15
ATOM     15  N   UNL A   1      33.902  25.799  23.748  1.00  0.00    -0.341 N 
ATOM     16  C   UNL A   1      33.563  26.025  22.437  1.00  0.00     0.326 C 
ATOM     17  H   UNL A   1      34.450  26.499  24.172  1.00  0.00     0.164 HD
ATOM     18  O   UNL A   1      33.992  27.063  21.923  1.00  0.00    -0.265 OA
BRANCH  16  19
ATOM     19  C   UNL A   1      32.678  25.002  21.703  1.00  0.00     0.471 C 
ATOM     20  F   UNL A   1      33.283  23.785  21.596  1.00  0.00    -0.162 F 
ATOM     21  F   UNL A   1      31.510  24.785  22.371  1.00  0.00    -0.162 F 
ATOM     22  F   UNL A   1      32.344  25.381  20.442  1.00  0.00    -0.162 F 
ENDBRANCH  16  19
ENDBRANCH   7  15
ENDBRANCH   6   7
ENDBRANCH   4   6
ENDBRANCH   3   4
ENDBRANCH   2   3
ENDBRANCH   1   2
BRANCH   1  23
ATOM     23  O   UNL A   1      31.400  29.737  25.873  1.00  0.00    -0.374 OA
BRANCH  23  24
ATOM     24  C   UNL A   1      32.317  30.759  26.246  1.00  0.00     0.202 C 
BRANCH  24  25
ATOM     25  C   UNL A   1      33.247  30.399  27.422  1.00  0.00     0.261 C 
BRANCH  25  26
ATOM     26  O   UNL A   1      34.346  31.339  27.495  1.00  0.00    -0.460 OA
BRANCH  26  27
ATOM     27  C   UNL A   1      35.049  31.385  28.664  1.00  0.00     0.338 C 
ATOM     28  O   UNL A   1      35.135  32.356  29.399  1.00  0.00    -0.246 OA
BRANCH  27  29
ATOM     29  C   UNL A   1      36.008  30.228  28.712  1.00  0.00     0.060 A 
ATOM     30  C   UNL A   1      36.337  29.635  29.950  1.00  0.00     0.016 A 
ATOM     31  C   UNL A   1      36.869  30.073  27.633  1.00  0.00     0.016 A 
ATOM     32  C   UNL A   1      37.605  29.048  30.147  1.00  0.00     0.010 A 
ATOM     33  C   UNL A   1      38.155  29.635  27.881  1.00  0.00     0.010 A 
ATOM     34  C   UNL A   1      38.555  29.132  29.135  1.00  0.00    -0.014 A 
BRANCH  34  35
ATOM     35  C   UNL A   1      39.995  28.802  29.201  1.00  0.00     0.031 A 
ATOM     36  C   UNL A   1      40.381  27.407  28.850  1.00  0.00     0.074 A 
ATOM     37  C   UNL A   1      40.981  29.737  29.270  1.00  0.00     0.049 A 
ATOM     38  N   UNL A   1      41.584  26.953  28.862  1.00  0.00    -0.248 NA
ATOM     39  C   UNL A   1      39.404  26.382  28.491  1.00  0.00     0.031 C 
ATOM     40  C   UNL A   1      42.335  29.631  28.718  1.00  0.00     0.029 A 
ATOM     41  N   UNL A   1      40.999  30.997  29.878  1.00  0.00    -0.354 N 
ATOM     42  C   UNL A   1      41.588  25.710  28.272  1.00  0.00     0.074 A 
ATOM     43  C   UNL A   1      40.197  25.373  28.131  1.00  0.00     0.031 C 
ATOM     44  C   UNL A   1      43.108  30.604  29.223  1.00  0.00     0.029 A 
ATOM     45  C   UNL A   1      42.332  31.295  30.227  1.00  0.00     0.049 A 
ATOM     46  H   UNL A   1      40.216  31.574  30.037  1.00  0.00     0.167 HD
ATOM     47  C   UNL A   1      42.787  25.164  27.918  1.00  0.00     0.037 A 
ATOM     48  C   UNL A   1      42.662  31.577  31.517  1.00  0.00     0.037 A 
ATOM     49  C   UNL A   1      43.893  25.973  28.462  1.00  0.00     0.049 A 
ATOM     50  C   UNL A   1      43.530  30.492  32.074  1.00  0.00     0.074 A 
ATOM     51  C   UNL A   1      44.749  26.937  27.958  1.00  0.00     0.029 A 
ATOM     52  N   UNL A   1      44.022  26.049  29.841  1.00  0.00    -0.354 N 
ATOM     53  N   UNL A   1      44.119  29.589  31.341  1.00  0.00    -0.248 NA
ATOM     54  C   UNL A   1      43.682  30.255  33.504  1.00  0.00     0.031 C 
ATOM     55  C   UNL A   1      45.324  27.641  29.069  1.00  0.00     0.029 A 
ATOM     56  C   UNL A   1      44.854  27.080  30.246  1.00  0.00     0.049 A 
ATOM     57  H   UNL A   1      43.571  25.436  30.466  1.00  0.00     0.167 HD
ATOM     58  C   UNL A   1      44.526  28.573  32.144  1.00  0.00     0.074 A 
ATOM     59  C   UNL A   1      44.276  29.053  33.498  1.00  0.00     0.031 C 
ATOM     60  C   UNL A   1      44.962  27.369  31.675  1.00  0.00     0.037 A 
BRANCH  47  61
ATOM     61  C   UNL A   1      42.999  23.955  27.022  1.00  0.00     0.057 A 
ATOM     62  C   UNL A   1      43.370  24.141  25.675  1.00  0.00     0.134 A 
ATOM     63  C   UNL A   1      42.814  22.599  27.366  1.00  0.00     0.134 A 
ATOM     64  F   UNL A   1      43.591  25.363  25.171  1.00  0.00    -0.206 F 
ATOM     65  C   UNL A   1      43.527  23.084  24.763  1.00  0.00     0.040 A 
ATOM     66  C   UNL A   1      42.981  21.532  26.471  1.00  0.00     0.040 A 
ATOM     67  F   UNL A   1      42.448  22.196  28.581  1.00  0.00    -0.206 F 
ATOM     68  C   UNL A   1      43.334  21.770  25.158  1.00  0.00     0.006 A 
ENDBRANCH  47  61
BRANCH  48  69
ATOM     69  C   UNL A   1      41.534  32.277  32.202  1.00  0.00     0.057 A 
ATOM     70  C   UNL A   1      41.377  33.637  31.879  1.00  0.00     0.134 A 
ATOM     71  C   UNL A   1      40.385  31.573  32.585  1.00  0.00     0.134 A 
ATOM     72  F   UNL A   1      42.440  34.375  31.522  1.00  0.00    -0.206 F 
ATOM     73  C   UNL A   1      40.110  34.193  31.707  1.00  0.00     0.040 A 
ATOM     74  C   UNL A   1      39.113  32.140  32.444  1.00  0.00     0.040 A 
ATOM     75  F   UNL A   1      40.458  30.276  32.920  1.00  0.00    -0.206 F 
ATOM     76  C   UNL A   1      38.972  33.428  31.935  1.00  0.00     0.006 A 
ENDBRANCH  48  69
BRANCH  60  77
ATOM     77  C   UNL A   1      45.475  26.375  32.662  1.00  0.00     0.057 A 
ATOM     78  C   UNL A   1      46.851  26.101  32.738  1.00  0.00     0.134 A 
ATOM     79  C   UNL A   1      44.649  25.657  33.536  1.00  0.00     0.134 A 
ATOM     80  F   UNL A   1      47.716  26.682  31.891  1.00  0.00    -0.206 F 
ATOM     81  C   UNL A   1      47.386  25.258  33.709  1.00  0.00     0.040 A 
ATOM     82  C   UNL A   1      45.167  24.755  34.466  1.00  0.00     0.040 A 
ATOM     83  F   UNL A   1      43.319  25.829  33.557  1.00  0.00    -0.206 F 
ATOM     84  C   UNL A   1      46.541  24.580  34.576  1.00  0.00     0.006 A 
ENDBRANCH  60  77
ENDBRANCH  34  35
ENDBRANCH  27  29
ENDBRANCH  26  27
ENDBRANCH  25  26
ENDBRANCH  24  25
ENDBRANCH  23  24
ENDBRANCH   1  23
TORSDOF 18
ENDMDL
MODEL 2
REMARK VINA RESULT:     -10.3      1.406      1.948
REMARK SMILES Cc1ccccc1[C@@H](CC(=O)OCCOCCOC(=O)c1ccc(-c2c3nc(c(-c4c(F)cccc4F)c4ccc([nH]4)c(-c4c(F)cccc4F)c4nc(c(-c5c(F)cccc5F)c5ccc2[nH]5)C=C4)C=C3)cc1)NC(=O)C(F)(F)F
REMARK SMILES IDX 14 1 13 2 12 3 10 4 11 5 9 6 8 7 7 8 1 9 2 10 3 11 4 12 6 13
REMARK SMILES IDX 5 14 75 15 76 16 77 18 78 19 79 20 80 21 81 22 15 23 16 24
REMARK SMILES IDX 17 25 18 26 19 27 20 28 21 29 22 30 74 31 23 32 73 33 24 34
REMARK SMILES IDX 25 35 26 36 67 37 27 38 72 39 66 40 68 41 28 42 71 43 65 44
REMARK SMILES IDX 64 45 29 47 55 48 38 49 54 50 39 51 42 52 53 53 69 54 40 55
REMARK SMILES IDX 41 56 52 58 70 59 43 60 30 61 31 62 36 63 32 64 33 65 35 66
REMARK SMILES IDX 37 67 34 68 56 69 57 70 62 71 58 72 59 73 61 74 63 75 60 76
REMARK SMILES IDX 44 77 45 78 50 79 46 80 47 81 49 82 51 83 48 84
REMARK H PARENT 75 17 68 46 42 57
REMARK Flexibility Score: inf
ROOT
ATOM      1  C   UNL A   1      32.550  29.243  25.185  1.00  0.00     0.202 C 
ENDROOT
BRANCH   1   2
ATOM      2  C   UNL A   1      31.487  28.358  25.750  1.00  0.00     0.261 C 
BRANCH   2   3
ATOM      3  O   UNL A   1      31.427  27.106  25.081  1.00  0.00    -0.463 OA
BRANCH   3   4
ATOM      4  C   UNL A   1      31.477  26.023  25.901  1.00  0.00     0.308 C 
ATOM      5  O   UNL A   1      30.544  25.525  26.490  1.00  0.00    -0.252 OA
BRANCH   4   6
ATOM      6  C   UNL A   1      32.882  25.500  25.951  1.00  0.00     0.152 C 
BRANCH   6   7
ATOM      7  C   UNL A   1      33.389  24.953  24.593  1.00  0.00     0.124 C 
BRANCH   7   8
ATOM      8  C   UNL A   1      34.414  23.803  24.649  1.00  0.00    -0.022 A 
ATOM      9  C   UNL A   1      32.598  22.037  24.214  1.00  0.00     0.045 C 
ATOM     10  C   UNL A   1      34.003  22.455  24.558  1.00  0.00    -0.046 A 
ATOM     11  C   UNL A   1      34.958  21.420  24.651  1.00  0.00     0.004 A 
ATOM     12  C   UNL A   1      36.311  21.690  24.828  1.00  0.00     0.000 A 
ATOM     13  C   UNL A   1      35.802  24.037  24.768  1.00  0.00     0.006 A 
ATOM     14  C   UNL A   1      36.735  23.005  24.894  1.00  0.00     0.000 A 
ENDBRANCH   7   8
BRANCH   7  15
ATOM     15  N   UNL A   1      33.811  26.048  23.715  1.00  0.00    -0.341 N 
ATOM     16  C   UNL A   1      33.536  26.235  22.383  1.00  0.00     0.326 C 
ATOM     17  H   UNL A   1      34.366  26.743  24.136  1.00  0.00     0.164 HD
ATOM     18  O   UNL A   1      34.024  27.237  21.850  1.00  0.00    -0.265 OA
BRANCH  16  19
ATOM     19  C   UNL A   1      32.645  25.217  21.649  1.00  0.00     0.471 C 
ATOM     20  F   UNL A   1      31.415  25.104  22.224  1.00  0.00    -0.162 F 
ATOM     21  F   UNL A   1      32.424  25.590  20.357  1.00  0.00    -0.162 F 
ATOM     22  F   UNL A   1      33.172  23.966  21.610  1.00  0.00    -0.162 F 
ENDBRANCH  16  19
ENDBRANCH   7  15
ENDBRANCH   6   7
ENDBRANCH   4   6
ENDBRANCH   3   4
ENDBRANCH   2   3
ENDBRANCH   1   2
BRANCH   1  23
ATOM     23  O   UNL A   1      32.456  30.520  25.784  1.00  0.00    -0.374 OA
BRANCH  23  24
ATOM     24  C   UNL A   1      32.862  30.568  27.146  1.00  0.00     0.202 C 
BRANCH  24  25
ATOM     25  C   UNL A   1      34.297  30.068  27.414  1.00  0.00     0.261 C 
BRANCH  25  26
ATOM     26  O   UNL A   1      35.215  31.186  27.449  1.00  0.00    -0.460 OA
BRANCH  26  27
ATOM     27  C   UNL A   1      36.050  31.273  28.525  1.00  0.00     0.338 C 
ATOM     28  O   UNL A   1      36.340  32.303  29.113  1.00  0.00    -0.246 OA
BRANCH  27  29
ATOM     29  C   UNL A   1      36.858  30.010  28.630  1.00  0.00     0.060 A 
ATOM     30  C   UNL A   1      36.927  29.315  29.857  1.00  0.00     0.016 A 
ATOM     31  C   UNL A   1      37.852  29.812  27.679  1.00  0.00     0.016 A 
ATOM     32  C   UNL A   1      38.078  28.572  30.194  1.00  0.00     0.010 A 
ATOM     33  C   UNL A   1      39.029  29.212  28.080  1.00  0.00     0.010 A 
ATOM     34  C   UNL A   1      39.175  28.597  29.340  1.00  0.00    -0.014 A 
BRANCH  34  35
ATOM     35  C   UNL A   1      40.543  28.095  29.591  1.00  0.00     0.031 A 
ATOM     36  C   UNL A   1      40.885  26.762  29.020  1.00  0.00     0.074 A 
ATOM     37  C   UNL A   1      41.563  28.876  30.039  1.00  0.00     0.049 A 
ATOM     38  N   UNL A   1      42.024  26.178  29.150  1.00  0.00    -0.248 NA
ATOM     39  C   UNL A   1      39.926  25.951  28.277  1.00  0.00     0.031 C 
ATOM     40  C   UNL A   1      42.989  28.725  29.731  1.00  0.00     0.029 A 
ATOM     41  N   UNL A   1      41.554  29.979  30.900  1.00  0.00    -0.354 N 
ATOM     42  C   UNL A   1      42.052  25.086  28.314  1.00  0.00     0.074 A 
ATOM     43  C   UNL A   1      40.695  24.948  27.854  1.00  0.00     0.031 C 
ATOM     44  C   UNL A   1      43.716  29.482  30.567  1.00  0.00     0.029 A 
ATOM     45  C   UNL A   1      42.809  30.045  31.540  1.00  0.00     0.049 A 
ATOM     46  H   UNL A   1      40.802  30.601  31.036  1.00  0.00     0.167 HD
ATOM     47  C   UNL A   1      43.252  24.486  28.072  1.00  0.00     0.037 A 
ATOM     48  C   UNL A   1      42.893  30.024  32.898  1.00  0.00     0.037 A 
ATOM     49  C   UNL A   1      44.284  25.036  28.970  1.00  0.00     0.049 A 
ATOM     50  C   UNL A   1      43.547  28.756  33.352  1.00  0.00     0.074 A 
ATOM     51  C   UNL A   1      45.295  25.975  28.851  1.00  0.00     0.029 A 
ATOM     52  N   UNL A   1      44.139  24.820  30.332  1.00  0.00    -0.354 N 
ATOM     53  N   UNL A   1      44.201  27.955  32.559  1.00  0.00    -0.248 NA
ATOM     54  C   UNL A   1      43.390  28.223  34.700  1.00  0.00     0.031 C 
ATOM     55  C   UNL A   1      45.686  26.372  30.173  1.00  0.00     0.029 A 
ATOM     56  C   UNL A   1      44.949  25.645  31.095  1.00  0.00     0.049 A 
ATOM     57  H   UNL A   1      43.527  24.151  30.716  1.00  0.00     0.167 HD
ATOM     58  C   UNL A   1      44.359  26.759  33.181  1.00  0.00     0.074 A 
ATOM     59  C   UNL A   1      43.880  26.986  34.540  1.00  0.00     0.031 C 
ATOM     60  C   UNL A   1      44.789  25.630  32.548  1.00  0.00     0.037 A 
BRANCH  47  61
ATOM     61  C   UNL A   1      43.548  23.463  26.987  1.00  0.00     0.057 A 
ATOM     62  C   UNL A   1      44.230  23.860  25.820  1.00  0.00     0.134 A 
ATOM     63  C   UNL A   1      43.164  22.105  26.972  1.00  0.00     0.134 A 
ATOM     64  F   UNL A   1      44.673  25.115  25.661  1.00  0.00    -0.206 F 
ATOM     65  C   UNL A   1      44.491  22.996  24.744  1.00  0.00     0.040 A 
ATOM     66  C   UNL A   1      43.429  21.226  25.912  1.00  0.00     0.040 A 
ATOM     67  F   UNL A   1      42.495  21.523  27.965  1.00  0.00    -0.206 F 
ATOM     68  C   UNL A   1      44.091  21.670  24.785  1.00  0.00     0.006 A 
ENDBRANCH  47  61
BRANCH  48  69
ATOM     69  C   UNL A   1      41.706  30.700  33.505  1.00  0.00     0.057 A 
ATOM     70  C   UNL A   1      40.690  29.844  33.964  1.00  0.00     0.134 A 
ATOM     71  C   UNL A   1      41.842  31.937  34.149  1.00  0.00     0.134 A 
ATOM     72  F   UNL A   1      40.493  28.651  33.379  1.00  0.00    -0.206 F 
ATOM     73  C   UNL A   1      40.015  30.104  35.155  1.00  0.00     0.040 A 
ATOM     74  C   UNL A   1      41.142  32.214  35.328  1.00  0.00     0.040 A 
ATOM     75  F   UNL A   1      42.781  32.811  33.758  1.00  0.00    -0.206 F 
ATOM     76  C   UNL A   1      40.280  31.266  35.871  1.00  0.00     0.006 A 
ENDBRANCH  48  69
BRANCH  60  77
ATOM     77  C   UNL A   1      45.016  24.406  33.371  1.00  0.00     0.057 A 
ATOM     78  C   UNL A   1      46.314  24.066  33.786  1.00  0.00     0.134 A 
ATOM     79  C   UNL A   1      43.992  23.533  33.757  1.00  0.00     0.134 A 
ATOM     80  F   UNL A   1      47.374  24.798  33.403  1.00  0.00    -0.206 F 
ATOM     81  C   UNL A   1      46.563  22.992  34.637  1.00  0.00     0.040 A 
ATOM     82  C   UNL A   1      44.237  22.413  34.551  1.00  0.00     0.040 A 
ATOM     83  F   UNL A   1      42.711  23.750  33.421  1.00  0.00    -0.206 F 
ATOM     84  C   UNL A   1      45.521  22.160  35.021  1.00  0.00     0.006 A 
ENDBRANCH  60  77
ENDBRANCH  34  35
ENDBRANCH  27  29
ENDBRANCH  26  27
ENDBRANCH  25  26
ENDBRANCH  24  25
ENDBRANCH  23  24
ENDBRANCH   1  23
TORSDOF 18
ENDMDL
MODEL 3
REMARK VINA RESULT:     -10.2      1.298      2.271
REMARK SMILES Cc1ccccc1[C@@H](CC(=O)OCCOCCOC(=O)c1ccc(-c2c3nc(c(-c4c(F)cccc4F)c4ccc([nH]4)c(-c4c(F)cccc4F)c4nc(c(-c5c(F)cccc5F)c5ccc2[nH]5)C=C4)C=C3)cc1)NC(=O)C(F)(F)F
REMARK SMILES IDX 14 1 13 2 12 3 10 4 11 5 9 6 8 7 7 8 1 9 2 10 3 11 4 12 6 13
REMARK SMILES IDX 5 14 75 15 76 16 77 18 78 19 79 20 80 21 81 22 15 23 16 24
REMARK SMILES IDX 17 25 18 26 19 27 20 28 21 29 22 30 74 31 23 32 73 33 24 34
REMARK SMILES IDX 25 35 26 36 67 37 27 38 72 39 66 40 68 41 28 42 71 43 65 44
REMARK SMILES IDX 64 45 29 47 55 48 38 49 54 50 39 51 42 52 53 53 69 54 40 55
REMARK SMILES IDX 41 56 52 58 70 59 43 60 30 61 31 62 36 63 32 64 33 65 35 66
REMARK SMILES IDX 37 67 34 68 56 69 57 70 62 71 58 72 59 73 61 74 63 75 60 76
REMARK SMILES IDX 44 77 45 78 50 79 46 80 47 81 49 82 51 83 48 84
REMARK H PARENT 75 17 68 46 42 57
REMARK Flexibility Score: inf
ROOT
ATOM      1  C   UNL A   1      33.773  28.591  23.842  1.00  0.00     0.202 C 
ENDROOT
BRANCH   1   2
ATOM      2  C   UNL A   1      32.973  28.052  22.701  1.00  0.00     0.261 C 
BRANCH   2   3
ATOM      3  O   UNL A   1      33.660  27.014  22.014  1.00  0.00    -0.463 OA
BRANCH   3   4
ATOM      4  C   UNL A   1      32.893  25.938  21.700  1.00  0.00     0.308 C 
ATOM      5  O   UNL A   1      31.857  25.953  21.073  1.00  0.00    -0.252 OA
BRANCH   4   6
ATOM      6  C   UNL A   1      33.542  24.692  22.228  1.00  0.00     0.152 C 
BRANCH   6   7
ATOM      7  C   UNL A   1      33.012  24.256  23.617  1.00  0.00     0.124 C 
BRANCH   7   8
ATOM      8  C   UNL A   1      33.200  22.775  23.995  1.00  0.00    -0.022 A 
ATOM      9  C   UNL A   1      35.131  23.330  25.597  1.00  0.00     0.045 C 
ATOM     10  C   UNL A   1      34.249  22.367  24.849  1.00  0.00    -0.046 A 
ATOM     11  C   UNL A   1      34.421  20.999  25.149  1.00  0.00     0.004 A 
ATOM     12  C   UNL A   1      33.576  20.026  24.625  1.00  0.00     0.000 A 
ATOM     13  C   UNL A   1      32.327  21.763  23.534  1.00  0.00     0.006 A 
ATOM     14  C   UNL A   1      32.528  20.408  23.808  1.00  0.00     0.000 A 
ENDBRANCH   7   8
BRANCH   7  15
ATOM     15  N   UNL A   1      31.638  24.726  23.821  1.00  0.00    -0.341 N 
ATOM     16  C   UNL A   1      31.099  25.351  24.917  1.00  0.00     0.326 C 
ATOM     17  H   UNL A   1      31.019  24.573  23.072  1.00  0.00     0.164 HD
ATOM     18  O   UNL A   1      29.898  25.637  24.859  1.00  0.00    -0.265 OA
BRANCH  16  19
ATOM     19  C   UNL A   1      32.001  25.664  26.124  1.00  0.00     0.471 C 
ATOM     20  F   UNL A   1      32.240  24.559  26.885  1.00  0.00    -0.162 F 
ATOM     21  F   UNL A   1      33.223  26.119  25.727  1.00  0.00    -0.162 F 
ATOM     22  F   UNL A   1      31.485  26.604  26.957  1.00  0.00    -0.162 F 
ENDBRANCH  16  19
ENDBRANCH   7  15
ENDBRANCH   6   7
ENDBRANCH   4   6
ENDBRANCH   3   4
ENDBRANCH   2   3
ENDBRANCH   1   2
BRANCH   1  23
ATOM     23  O   UNL A   1      32.967  29.475  24.595  1.00  0.00    -0.374 OA
BRANCH  23  24
ATOM     24  C   UNL A   1      33.215  29.456  25.996  1.00  0.00     0.202 C 
BRANCH  24  25
ATOM     25  C   UNL A   1      32.982  30.802  26.714  1.00  0.00     0.261 C 
BRANCH  25  26
ATOM     26  O   UNL A   1      33.641  30.798  28.004  1.00  0.00    -0.460 OA
BRANCH  26  27
ATOM     27  C   UNL A   1      34.920  31.272  28.050  1.00  0.00     0.338 C 
ATOM     28  O   UNL A   1      35.287  32.357  27.627  1.00  0.00    -0.246 OA
BRANCH  27  29
ATOM     29  C   UNL A   1      35.861  30.133  28.322  1.00  0.00     0.060 A 
ATOM     30  C   UNL A   1      36.181  29.782  29.652  1.00  0.00     0.016 A 
ATOM     31  C   UNL A   1      36.721  29.762  27.296  1.00  0.00     0.016 A 
ATOM     32  C   UNL A   1      37.440  29.226  29.962  1.00  0.00     0.010 A 
ATOM     33  C   UNL A   1      38.000  29.362  27.628  1.00  0.00     0.010 A 
ATOM     34  C   UNL A   1      38.392  29.102  28.956  1.00  0.00    -0.014 A 
BRANCH  34  35
ATOM     35  C   UNL A   1      39.827  28.770  29.090  1.00  0.00     0.031 A 
ATOM     36  C   UNL A   1      40.233  27.384  28.723  1.00  0.00     0.074 A 
ATOM     37  C   UNL A   1      40.807  29.703  29.235  1.00  0.00     0.049 A 
ATOM     38  N   UNL A   1      41.435  26.931  28.786  1.00  0.00    -0.248 NA
ATOM     39  C   UNL A   1      39.278  26.369  28.287  1.00  0.00     0.031 C 
ATOM     40  C   UNL A   1      42.189  29.611  28.752  1.00  0.00     0.029 A 
ATOM     41  N   UNL A   1      40.791  30.947  29.875  1.00  0.00    -0.354 N 
ATOM     42  C   UNL A   1      41.472  25.704  28.166  1.00  0.00     0.074 A 
ATOM     43  C   UNL A   1      40.090  25.370  27.943  1.00  0.00     0.031 C 
ATOM     44  C   UNL A   1      42.932  30.571  29.322  1.00  0.00     0.029 A 
ATOM     45  C   UNL A   1      42.104  31.236  30.302  1.00  0.00     0.049 A 
ATOM     46  H   UNL A   1      40.000  31.520  30.007  1.00  0.00     0.167 HD
ATOM     47  C   UNL A   1      42.688  25.167  27.861  1.00  0.00     0.037 A 
ATOM     48  C   UNL A   1      42.364  31.484  31.614  1.00  0.00     0.037 A 
ATOM     49  C   UNL A   1      43.762  25.961  28.484  1.00  0.00     0.049 A 
ATOM     50  C   UNL A   1      43.204  30.385  32.187  1.00  0.00     0.074 A 
ATOM     51  C   UNL A   1      44.643  26.938  28.050  1.00  0.00     0.029 A 
ATOM     52  N   UNL A   1      43.819  26.001  29.869  1.00  0.00    -0.354 N 
ATOM     53  N   UNL A   1      43.832  29.502  31.463  1.00  0.00    -0.248 NA
ATOM     54  C   UNL A   1      43.280  30.110  33.617  1.00  0.00     0.031 C 
ATOM     55  C   UNL A   1      45.157  27.613  29.208  1.00  0.00     0.029 A 
ATOM     56  C   UNL A   1      44.627  27.021  30.344  1.00  0.00     0.049 A 
ATOM     57  H   UNL A   1      43.336  25.372  30.453  1.00  0.00     0.167 HD
ATOM     58  C   UNL A   1      44.197  28.464  32.259  1.00  0.00     0.074 A 
ATOM     59  C   UNL A   1      43.875  28.909  33.611  1.00  0.00     0.031 C 
ATOM     60  C   UNL A   1      44.659  27.273  31.783  1.00  0.00     0.037 A 
BRANCH  47  61
ATOM     61  C   UNL A   1      42.948  23.981  26.946  1.00  0.00     0.057 A 
ATOM     62  C   UNL A   1      42.706  22.673  27.412  1.00  0.00     0.134 A 
ATOM     63  C   UNL A   1      43.476  24.017  25.639  1.00  0.00     0.134 A 
ATOM     64  F   UNL A   1      42.201  22.447  28.633  1.00  0.00    -0.206 F 
ATOM     65  C   UNL A   1      42.975  21.521  26.656  1.00  0.00     0.040 A 
ATOM     66  C   UNL A   1      43.738  22.876  24.866  1.00  0.00     0.040 A 
ATOM     67  F   UNL A   1      43.794  25.146  25.009  1.00  0.00    -0.206 F 
ATOM     68  C   UNL A   1      43.493  21.616  25.375  1.00  0.00     0.006 A 
ENDBRANCH  47  61
BRANCH  48  69
ATOM     69  C   UNL A   1      41.201  32.166  32.257  1.00  0.00     0.057 A 
ATOM     70  C   UNL A   1      41.060  33.533  31.961  1.00  0.00     0.134 A 
ATOM     71  C   UNL A   1      40.034  31.452  32.560  1.00  0.00     0.134 A 
ATOM     72  F   UNL A   1      42.139  34.281  31.680  1.00  0.00    -0.206 F 
ATOM     73  C   UNL A   1      39.803  34.094  31.737  1.00  0.00     0.040 A 
ATOM     74  C   UNL A   1      38.771  32.022  32.367  1.00  0.00     0.040 A 
ATOM     75  F   UNL A   1      40.091  30.147  32.865  1.00  0.00    -0.206 F 
ATOM     76  C   UNL A   1      38.656  33.323  31.885  1.00  0.00     0.006 A 
ENDBRANCH  48  69
BRANCH  60  77
ATOM     77  C   UNL A   1      45.121  26.254  32.770  1.00  0.00     0.057 A 
ATOM     78  C   UNL A   1      46.484  25.930  32.864  1.00  0.00     0.134 A 
ATOM     79  C   UNL A   1      44.256  25.559  33.626  1.00  0.00     0.134 A 
ATOM     80  F   UNL A   1      47.383  26.484  32.035  1.00  0.00    -0.206 F 
ATOM     81  C   UNL A   1      46.974  25.060  33.836  1.00  0.00     0.040 A 
ATOM     82  C   UNL A   1      44.727  24.633  34.557  1.00  0.00     0.040 A 
ATOM     83  F   UNL A   1      42.933  25.780  33.629  1.00  0.00    -0.206 F 
ATOM     84  C   UNL A   1      46.092  24.407  34.685  1.00  0.00     0.006 A 
ENDBRANCH  60  77
ENDBRANCH  34  35
ENDBRANCH  27  29
ENDBRANCH  26  27
ENDBRANCH  25  26
ENDBRANCH  24  25
ENDBRANCH  23  24
ENDBRANCH   1  23
TORSDOF 18
ENDMDL
