MODEL 1
REMARK VINA RESULT:     -12.5      0.000      0.000
REMARK SMILES CCOC(=O)c1c(NC(=O)[C@@H]2[C@@H](C(=O)OCCOCCOC(=O)c3ccc(-c4c5nc(c(-c6c(F)cccc6F)c6ccc([nH]6)c(-c6c(F)cccc6F)c6nc(c(-c7c(F)cccc7F)c7ccc4[nH]7)C=C6)C=C5)cc3)[C@@H]3C=C[C@H]2CC3)sc2c1CCC2
REMARK SMILES IDX 16 1 15 2 13 3 14 4 12 5 11 6 81 7 78 8 80 9 82 10 79 11
REMARK SMILES IDX 83 12 9 13 8 14 10 16 7 17 6 18 86 19 84 20 85 21 87 22
REMARK SMILES IDX 89 23 88 24 4 25 5 26 3 27 2 28 1 29 17 30 18 31 19 32 20 33
REMARK SMILES IDX 21 34 22 35 23 36 24 37 25 38 77 39 26 40 76 41 27 42 28 43
REMARK SMILES IDX 29 44 70 45 30 46 75 47 69 48 71 49 31 50 74 51 68 52 67 53
REMARK SMILES IDX 32 55 58 56 41 57 57 58 42 59 45 60 56 61 72 62 43 63 44 64
REMARK SMILES IDX 55 66 73 67 46 68 33 69 34 70 39 71 35 72 36 73 38 74 40 75
REMARK SMILES IDX 37 76 59 77 60 78 65 79 61 80 62 81 64 82 66 83 63 84 47 85
REMARK SMILES IDX 48 86 53 87 49 88 50 89 52 90 54 91 51 92
REMARK H PARENT 8 15 71 54 45 65
REMARK Flexibility Score: inf
ROOT
ATOM      1  C   UNL A   1      33.134  28.592  26.929  1.00  0.00     0.261 C 
ENDROOT
BRANCH   1   2
ATOM      2  O   UNL A   1      33.808  28.198  25.727  1.00  0.00    -0.463 OA
BRANCH   2   3
ATOM      3  C   UNL A   1      32.966  28.093  24.658  1.00  0.00     0.310 C 
ATOM      4  O   UNL A   1      32.702  29.027  23.910  1.00  0.00    -0.252 OA
BRANCH   3   5
ATOM      5  C   UNL A   1      32.327  26.702  24.551  1.00  0.00     0.119 C 
ATOM      6  C   UNL A   1      32.931  25.294  24.525  1.00  0.00     0.100 C 
ATOM      7  C   UNL A   1      32.356  24.523  23.283  1.00  0.00     0.025 C 
ATOM      8  C   UNL A   1      31.143  26.780  23.574  1.00  0.00     0.026 C 
ATOM      9  C   UNL A   1      30.871  24.380  23.499  1.00  0.00    -0.027 C 
ATOM     10  C   UNL A   1      32.504  25.399  21.999  1.00  0.00     0.009 C 
ATOM     11  C   UNL A   1      30.247  25.553  23.677  1.00  0.00    -0.027 C 
ATOM     12  C   UNL A   1      31.766  26.743  22.174  1.00  0.00     0.009 C 
BRANCH   6  13
ATOM     13  C   UNL A   1      32.740  24.465  25.853  1.00  0.00     0.229 C 
ATOM     14  N   UNL A   1      33.416  23.337  26.281  1.00  0.00    -0.317 N 
ATOM     15  H   UNL A   1      33.104  22.997  27.151  1.00  0.00     0.170 HD
ATOM     16  O   UNL A   1      31.929  24.937  26.672  1.00  0.00    -0.274 OA
BRANCH  14  17
ATOM     17  C   UNL A   1      34.448  22.586  25.728  1.00  0.00     0.110 A 
ATOM     18  C   UNL A   1      34.549  21.272  25.246  1.00  0.00     0.098 A 
ATOM     19  C   UNL A   1      35.951  20.959  25.215  1.00  0.00    -0.017 A 
ATOM     20  S   UNL A   1      35.684  23.281  24.650  1.00  0.00    -0.122 S 
ATOM     21  C   UNL A   1      36.679  22.114  25.383  1.00  0.00     0.011 A 
ATOM     22  C   UNL A   1      36.901  19.900  24.797  1.00  0.00     0.038 C 
ATOM     23  C   UNL A   1      38.137  21.959  25.516  1.00  0.00     0.047 C 
ATOM     24  C   UNL A   1      38.272  20.423  25.351  1.00  0.00     0.010 C 
BRANCH  18  25
ATOM     25  C   UNL A   1      33.405  20.561  24.753  1.00  0.00     0.341 C 
ATOM     26  O   UNL A   1      32.423  21.164  24.333  1.00  0.00    -0.246 OA
BRANCH  25  27
ATOM     27  O   UNL A   1      33.565  19.213  24.728  1.00  0.00    -0.462 OA
BRANCH  27  28
ATOM     28  C   UNL A   1      32.550  18.527  23.985  1.00  0.00     0.230 C 
ATOM     29  C   UNL A   1      33.114  17.424  23.101  1.00  0.00     0.049 C 
ENDBRANCH  27  28
ENDBRANCH  25  27
ENDBRANCH  18  25
ENDBRANCH  14  17
ENDBRANCH   6  13
ENDBRANCH   3   5
ENDBRANCH   2   3
ENDBRANCH   1   2
BRANCH   1  30
ATOM     30  C   UNL A   1      33.091  30.118  27.076  1.00  0.00     0.202 C 
BRANCH  30  31
ATOM     31  O   UNL A   1      34.060  30.805  27.876  1.00  0.00    -0.374 OA
BRANCH  31  32
ATOM     32  C   UNL A   1      35.452  30.672  27.612  1.00  0.00     0.202 C 
BRANCH  32  33
ATOM     33  C   UNL A   1      36.385  30.057  28.630  1.00  0.00     0.261 C 
BRANCH  33  34
ATOM     34  O   UNL A   1      37.498  29.532  27.942  1.00  0.00    -0.460 OA
BRANCH  34  35
ATOM     35  C   UNL A   1      38.398  28.940  28.741  1.00  0.00     0.338 C 
ATOM     36  O   UNL A   1      38.187  28.300  29.774  1.00  0.00    -0.246 OA
BRANCH  35  37
ATOM     37  C   UNL A   1      39.713  29.306  28.254  1.00  0.00     0.060 A 
ATOM     38  C   UNL A   1      39.879  29.309  26.873  1.00  0.00     0.016 A 
ATOM     39  C   UNL A   1      40.754  28.949  29.095  1.00  0.00     0.016 A 
ATOM     40  C   UNL A   1      40.825  28.412  26.375  1.00  0.00     0.010 A 
ATOM     41  C   UNL A   1      41.835  28.388  28.490  1.00  0.00     0.010 A 
ATOM     42  C   UNL A   1      41.655  27.707  27.286  1.00  0.00    -0.014 A 
BRANCH  42  43
ATOM     43  C   UNL A   1      42.870  26.899  26.917  1.00  0.00     0.031 A 
ATOM     44  C   UNL A   1      42.296  25.440  26.978  1.00  0.00     0.074 A 
ATOM     45  C   UNL A   1      44.136  27.380  26.518  1.00  0.00     0.049 A 
ATOM     46  N   UNL A   1      42.330  24.697  28.048  1.00  0.00    -0.248 NA
ATOM     47  C   UNL A   1      41.216  24.901  26.068  1.00  0.00     0.031 C 
ATOM     48  C   UNL A   1      44.752  28.758  26.398  1.00  0.00     0.029 A 
ATOM     49  N   UNL A   1      45.300  26.655  26.163  1.00  0.00    -0.354 N 
ATOM     50  C   UNL A   1      41.738  23.478  27.696  1.00  0.00     0.074 A 
ATOM     51  C   UNL A   1      40.802  23.783  26.678  1.00  0.00     0.031 C 
ATOM     52  C   UNL A   1      45.959  28.743  25.733  1.00  0.00     0.029 A 
ATOM     53  C   UNL A   1      46.357  27.373  25.455  1.00  0.00     0.049 A 
ATOM     54  H   UNL A   1      45.392  25.701  26.384  1.00  0.00     0.167 HD
ATOM     55  C   UNL A   1      42.441  22.330  27.906  1.00  0.00     0.037 A 
ATOM     56  C   UNL A   1      47.583  26.883  24.980  1.00  0.00     0.037 A 
ATOM     57  C   UNL A   1      43.493  22.629  28.848  1.00  0.00     0.049 A 
ATOM     58  C   UNL A   1      47.754  25.573  25.649  1.00  0.00     0.074 A 
ATOM     59  C   UNL A   1      43.520  23.030  30.167  1.00  0.00     0.029 A 
ATOM     60  N   UNL A   1      44.588  23.181  28.234  1.00  0.00    -0.354 N 
ATOM     61  N   UNL A   1      47.952  25.495  26.935  1.00  0.00    -0.248 NA
ATOM     62  C   UNL A   1      47.039  24.477  25.011  1.00  0.00     0.031 C 
ATOM     63  C   UNL A   1      44.540  24.022  30.252  1.00  0.00     0.029 A 
ATOM     64  C   UNL A   1      45.249  24.040  29.057  1.00  0.00     0.049 A 
ATOM     65  H   UNL A   1      44.862  22.980  27.311  1.00  0.00     0.167 HD
ATOM     66  C   UNL A   1      46.953  24.636  27.356  1.00  0.00     0.074 A 
ATOM     67  C   UNL A   1      46.433  24.018  26.113  1.00  0.00     0.031 C 
ATOM     68  C   UNL A   1      46.381  24.791  28.593  1.00  0.00     0.037 A 
BRANCH  55  69
ATOM     69  C   UNL A   1      42.596  21.194  26.903  1.00  0.00     0.057 A 
ATOM     70  C   UNL A   1      42.072  19.937  27.257  1.00  0.00     0.134 A 
ATOM     71  C   UNL A   1      43.455  21.178  25.781  1.00  0.00     0.134 A 
ATOM     72  F   UNL A   1      41.251  19.812  28.310  1.00  0.00    -0.206 F 
ATOM     73  C   UNL A   1      42.416  18.754  26.587  1.00  0.00     0.040 A 
ATOM     74  C   UNL A   1      43.768  20.007  25.075  1.00  0.00     0.040 A 
ATOM     75  F   UNL A   1      44.106  22.265  25.353  1.00  0.00    -0.206 F 
ATOM     76  C   UNL A   1      43.268  18.785  25.492  1.00  0.00     0.006 A 
ENDBRANCH  55  69
BRANCH  56  77
ATOM     77  C   UNL A   1      48.419  27.119  23.711  1.00  0.00     0.057 A 
ATOM     78  C   UNL A   1      48.047  27.864  22.548  1.00  0.00     0.134 A 
ATOM     79  C   UNL A   1      49.796  26.894  23.806  1.00  0.00     0.134 A 
ATOM     80  F   UNL A   1      46.775  28.240  22.337  1.00  0.00    -0.206 F 
ATOM     81  C   UNL A   1      48.985  28.309  21.568  1.00  0.00     0.040 A 
ATOM     82  C   UNL A   1      50.736  27.350  22.859  1.00  0.00     0.040 A 
ATOM     83  F   UNL A   1      50.290  26.300  24.899  1.00  0.00    -0.206 F 
ATOM     84  C   UNL A   1      50.342  28.059  21.733  1.00  0.00     0.006 A 
ENDBRANCH  56  77
BRANCH  68  85
ATOM     85  C   UNL A   1      46.984  25.772  29.568  1.00  0.00     0.057 A 
ATOM     86  C   UNL A   1      48.295  25.765  30.083  1.00  0.00     0.134 A 
ATOM     87  C   UNL A   1      46.217  26.898  29.858  1.00  0.00     0.134 A 
ATOM     88  F   UNL A   1      49.182  24.836  29.715  1.00  0.00    -0.206 F 
ATOM     89  C   UNL A   1      48.770  26.778  30.932  1.00  0.00     0.040 A 
ATOM     90  C   UNL A   1      46.691  27.937  30.657  1.00  0.00     0.040 A 
ATOM     91  F   UNL A   1      45.008  27.040  29.296  1.00  0.00    -0.206 F 
ATOM     92  C   UNL A   1      47.957  27.866  31.228  1.00  0.00     0.006 A 
ENDBRANCH  68  85
ENDBRANCH  42  43
ENDBRANCH  35  37
ENDBRANCH  34  35
ENDBRANCH  33  34
ENDBRANCH  32  33
ENDBRANCH  31  32
ENDBRANCH  30  31
ENDBRANCH   1  30
TORSDOF 19
ENDMDL
MODEL 2
REMARK VINA RESULT:     -11.9      6.213     11.629
REMARK SMILES CCOC(=O)c1c(NC(=O)[C@@H]2[C@@H](C(=O)OCCOCCOC(=O)c3ccc(-c4c5nc(c(-c6c(F)cccc6F)c6ccc([nH]6)c(-c6c(F)cccc6F)c6nc(c(-c7c(F)cccc7F)c7ccc4[nH]7)C=C6)C=C5)cc3)[C@@H]3C=C[C@H]2CC3)sc2c1CCC2
REMARK SMILES IDX 16 1 15 2 13 3 14 4 12 5 11 6 81 7 78 8 80 9 82 10 79 11
REMARK SMILES IDX 83 12 9 13 8 14 10 16 7 17 6 18 86 19 84 20 85 21 87 22
REMARK SMILES IDX 89 23 88 24 4 25 5 26 3 27 2 28 1 29 17 30 18 31 19 32 20 33
REMARK SMILES IDX 21 34 22 35 23 36 24 37 25 38 77 39 26 40 76 41 27 42 28 43
REMARK SMILES IDX 29 44 70 45 30 46 75 47 69 48 71 49 31 50 74 51 68 52 67 53
REMARK SMILES IDX 32 55 58 56 41 57 57 58 42 59 45 60 56 61 72 62 43 63 44 64
REMARK SMILES IDX 55 66 73 67 46 68 33 69 34 70 39 71 35 72 36 73 38 74 40 75
REMARK SMILES IDX 37 76 59 77 60 78 65 79 61 80 62 81 64 82 66 83 63 84 47 85
REMARK SMILES IDX 48 86 53 87 49 88 50 89 52 90 54 91 51 92
REMARK H PARENT 8 15 71 54 45 65
REMARK Flexibility Score: inf
ROOT
ATOM      1  C   UNL A   1      36.414  24.038  24.829  1.00  0.00     0.261 C 
ENDROOT
BRANCH   1   2
ATOM      2  O   UNL A   1      35.210  24.798  24.992  1.00  0.00    -0.463 OA
BRANCH   2   3
ATOM      3  C   UNL A   1      34.254  24.481  24.069  1.00  0.00     0.310 C 
ATOM      4  O   UNL A   1      34.171  25.015  22.969  1.00  0.00    -0.252 OA
BRANCH   3   5
ATOM      5  C   UNL A   1      33.253  23.445  24.598  1.00  0.00     0.119 C 
ATOM      6  C   UNL A   1      32.814  23.074  26.018  1.00  0.00     0.100 C 
ATOM      7  C   UNL A   1      32.947  21.518  26.196  1.00  0.00     0.025 C 
ATOM      8  C   UNL A   1      33.361  22.176  23.737  1.00  0.00     0.026 C 
ATOM      9  C   UNL A   1      31.978  20.879  25.235  1.00  0.00    -0.027 C 
ATOM     10  C   UNL A   1      34.361  21.049  25.730  1.00  0.00     0.009 C 
ATOM     11  C   UNL A   1      32.178  21.243  23.961  1.00  0.00    -0.027 C 
ATOM     12  C   UNL A   1      34.599  21.435  24.255  1.00  0.00     0.009 C 
BRANCH   6  13
ATOM     13  C   UNL A   1      31.373  23.576  26.419  1.00  0.00     0.229 C 
ATOM     14  N   UNL A   1      30.890  24.869  26.492  1.00  0.00    -0.317 N 
ATOM     15  H   UNL A   1      29.950  24.924  26.777  1.00  0.00     0.170 HD
ATOM     16  O   UNL A   1      30.526  22.685  26.616  1.00  0.00    -0.274 OA
BRANCH  14  17
ATOM     17  C   UNL A   1      31.468  26.110  26.242  1.00  0.00     0.110 A 
ATOM     18  C   UNL A   1      31.694  26.866  25.083  1.00  0.00     0.098 A 
ATOM     19  C   UNL A   1      32.701  27.835  25.420  1.00  0.00    -0.017 A 
ATOM     20  S   UNL A   1      31.302  27.498  27.347  1.00  0.00    -0.122 S 
ATOM     21  C   UNL A   1      32.864  27.865  26.786  1.00  0.00     0.011 A 
ATOM     22  C   UNL A   1      33.428  29.003  24.867  1.00  0.00     0.038 C 
ATOM     23  C   UNL A   1      33.958  28.705  27.299  1.00  0.00     0.047 C 
ATOM     24  C   UNL A   1      34.497  29.304  25.974  1.00  0.00     0.010 C 
BRANCH  18  25
ATOM     25  C   UNL A   1      30.881  26.708  23.911  1.00  0.00     0.341 C 
ATOM     26  O   UNL A   1      31.029  25.744  23.169  1.00  0.00    -0.246 OA
BRANCH  25  27
ATOM     27  O   UNL A   1      29.921  27.659  23.777  1.00  0.00    -0.462 OA
BRANCH  27  28
ATOM     28  C   UNL A   1      29.980  28.365  22.532  1.00  0.00     0.230 C 
ATOM     29  C   UNL A   1      28.850  29.372  22.374  1.00  0.00     0.049 C 
ENDBRANCH  27  28
ENDBRANCH  25  27
ENDBRANCH  18  25
ENDBRANCH  14  17
ENDBRANCH   6  13
ENDBRANCH   3   5
ENDBRANCH   2   3
ENDBRANCH   1   2
BRANCH   1  30
ATOM     30  C   UNL A   1      37.151  23.857  26.161  1.00  0.00     0.202 C 
BRANCH  30  31
ATOM     31  O   UNL A   1      38.294  23.000  26.256  1.00  0.00    -0.374 OA
BRANCH  31  32
ATOM     32  C   UNL A   1      39.500  23.456  26.861  1.00  0.00     0.202 C 
BRANCH  32  33
ATOM     33  C   UNL A   1      39.880  24.919  26.838  1.00  0.00     0.261 C 
BRANCH  33  34
ATOM     34  O   UNL A   1      39.590  25.467  28.104  1.00  0.00    -0.460 OA
BRANCH  34  35
ATOM     35  C   UNL A   1      39.764  26.795  28.172  1.00  0.00     0.338 C 
ATOM     36  O   UNL A   1      39.854  27.595  27.238  1.00  0.00    -0.246 OA
BRANCH  35  37
ATOM     37  C   UNL A   1      39.979  27.130  29.566  1.00  0.00     0.060 A 
ATOM     38  C   UNL A   1      38.977  26.750  30.452  1.00  0.00     0.016 A 
ATOM     39  C   UNL A   1      40.706  28.291  29.770  1.00  0.00     0.016 A 
ATOM     40  C   UNL A   1      38.342  27.791  31.130  1.00  0.00     0.010 A 
ATOM     41  C   UNL A   1      40.224  29.128  30.726  1.00  0.00     0.010 A 
ATOM     42  C   UNL A   1      38.859  29.109  31.014  1.00  0.00    -0.014 A 
BRANCH  42  43
ATOM     43  C   UNL A   1      38.451  30.286  31.858  1.00  0.00     0.031 A 
ATOM     44  C   UNL A   1      37.486  31.043  30.878  1.00  0.00     0.074 A 
ATOM     45  C   UNL A   1      38.784  30.537  33.206  1.00  0.00     0.049 A 
ATOM     46  N   UNL A   1      37.879  31.975  30.057  1.00  0.00    -0.248 NA
ATOM     47  C   UNL A   1      36.174  30.494  30.367  1.00  0.00     0.031 C 
ATOM     48  C   UNL A   1      39.668  29.845  34.221  1.00  0.00     0.029 A 
ATOM     49  N   UNL A   1      38.420  31.629  34.031  1.00  0.00    -0.354 N 
ATOM     50  C   UNL A   1      36.735  32.403  29.374  1.00  0.00     0.074 A 
ATOM     51  C   UNL A   1      35.872  31.282  29.328  1.00  0.00     0.031 C 
ATOM     52  C   UNL A   1      39.494  30.334  35.498  1.00  0.00     0.029 A 
ATOM     53  C   UNL A   1      38.597  31.477  35.474  1.00  0.00     0.049 A 
ATOM     54  H   UNL A   1      38.060  32.460  33.646  1.00  0.00     0.167 HD
ATOM     55  C   UNL A   1      36.425  33.731  29.393  1.00  0.00     0.037 A 
ATOM     56  C   UNL A   1      38.297  32.392  36.495  1.00  0.00     0.037 A 
ATOM     57  C   UNL A   1      37.615  34.450  29.780  1.00  0.00     0.049 A 
ATOM     58  C   UNL A   1      38.092  33.684  35.799  1.00  0.00     0.074 A 
ATOM     59  C   UNL A   1      38.862  34.624  29.218  1.00  0.00     0.029 A 
ATOM     60  N   UNL A   1      37.778  34.475  31.141  1.00  0.00    -0.354 N 
ATOM     61  N   UNL A   1      39.083  34.299  35.219  1.00  0.00    -0.248 NA
ATOM     62  C   UNL A   1      36.766  33.851  35.223  1.00  0.00     0.031 C 
ATOM     63  C   UNL A   1      39.792  34.522  30.292  1.00  0.00     0.029 A 
ATOM     64  C   UNL A   1      39.092  34.513  31.492  1.00  0.00     0.049 A 
ATOM     65  H   UNL A   1      37.034  34.466  31.786  1.00  0.00     0.167 HD
ATOM     66  C   UNL A   1      38.623  34.489  33.928  1.00  0.00     0.074 A 
ATOM     67  C   UNL A   1      37.168  34.212  33.999  1.00  0.00     0.031 C 
ATOM     68  C   UNL A   1      39.494  34.465  32.869  1.00  0.00     0.037 A 
BRANCH  55  69
ATOM     69  C   UNL A   1      35.044  34.311  29.663  1.00  0.00     0.057 A 
ATOM     70  C   UNL A   1      34.448  35.077  28.644  1.00  0.00     0.134 A 
ATOM     71  C   UNL A   1      34.408  34.411  30.921  1.00  0.00     0.134 A 
ATOM     72  F   UNL A   1      34.960  35.079  27.404  1.00  0.00    -0.206 F 
ATOM     73  C   UNL A   1      33.348  35.917  28.869  1.00  0.00     0.040 A 
ATOM     74  C   UNL A   1      33.278  35.212  31.145  1.00  0.00     0.040 A 
ATOM     75  F   UNL A   1      34.884  33.817  32.021  1.00  0.00    -0.206 F 
ATOM     76  C   UNL A   1      32.759  35.989  30.123  1.00  0.00     0.006 A 
ENDBRANCH  55  69
BRANCH  56  77
ATOM     77  C   UNL A   1      37.702  32.272  37.908  1.00  0.00     0.057 A 
ATOM     78  C   UNL A   1      37.215  31.091  38.552  1.00  0.00     0.134 A 
ATOM     79  C   UNL A   1      37.962  33.320  38.797  1.00  0.00     0.134 A 
ATOM     80  F   UNL A   1      36.990  29.962  37.861  1.00  0.00    -0.206 F 
ATOM     81  C   UNL A   1      36.991  31.001  39.959  1.00  0.00     0.040 A 
ATOM     82  C   UNL A   1      37.769  33.235  40.192  1.00  0.00     0.040 A 
ATOM     83  F   UNL A   1      38.520  34.447  38.339  1.00  0.00    -0.206 F 
ATOM     84  C   UNL A   1      37.282  32.079  40.786  1.00  0.00     0.006 A 
ENDBRANCH  56  77
BRANCH  68  85
ATOM     85  C   UNL A   1      40.980  34.432  33.136  1.00  0.00     0.057 A 
ATOM     86  C   UNL A   1      41.742  35.393  33.829  1.00  0.00     0.134 A 
ATOM     87  C   UNL A   1      41.635  33.248  32.809  1.00  0.00     0.134 A 
ATOM     88  F   UNL A   1      41.175  36.480  34.361  1.00  0.00    -0.206 F 
ATOM     89  C   UNL A   1      43.113  35.218  34.082  1.00  0.00     0.040 A 
ATOM     90  C   UNL A   1      42.982  33.038  33.098  1.00  0.00     0.040 A 
ATOM     91  F   UNL A   1      40.944  32.235  32.267  1.00  0.00    -0.206 F 
ATOM     92  C   UNL A   1      43.738  34.036  33.704  1.00  0.00     0.006 A 
ENDBRANCH  68  85
ENDBRANCH  42  43
ENDBRANCH  35  37
ENDBRANCH  34  35
ENDBRANCH  33  34
ENDBRANCH  32  33
ENDBRANCH  31  32
ENDBRANCH  30  31
ENDBRANCH   1  30
TORSDOF 19
ENDMDL
MODEL 3
REMARK VINA RESULT:     -11.6      2.629      5.740
REMARK SMILES CCOC(=O)c1c(NC(=O)[C@@H]2[C@@H](C(=O)OCCOCCOC(=O)c3ccc(-c4c5nc(c(-c6c(F)cccc6F)c6ccc([nH]6)c(-c6c(F)cccc6F)c6nc(c(-c7c(F)cccc7F)c7ccc4[nH]7)C=C6)C=C5)cc3)[C@@H]3C=C[C@H]2CC3)sc2c1CCC2
REMARK SMILES IDX 16 1 15 2 13 3 14 4 12 5 11 6 81 7 78 8 80 9 82 10 79 11
REMARK SMILES IDX 83 12 9 13 8 14 10 16 7 17 6 18 86 19 84 20 85 21 87 22
REMARK SMILES IDX 89 23 88 24 4 25 5 26 3 27 2 28 1 29 17 30 18 31 19 32 20 33
REMARK SMILES IDX 21 34 22 35 23 36 24 37 25 38 77 39 26 40 76 41 27 42 28 43
REMARK SMILES IDX 29 44 70 45 30 46 75 47 69 48 71 49 31 50 74 51 68 52 67 53
REMARK SMILES IDX 32 55 58 56 41 57 57 58 42 59 45 60 56 61 72 62 43 63 44 64
REMARK SMILES IDX 55 66 73 67 46 68 33 69 34 70 39 71 35 72 36 73 38 74 40 75
REMARK SMILES IDX 37 76 59 77 60 78 65 79 61 80 62 81 64 82 66 83 63 84 47 85
REMARK SMILES IDX 48 86 53 87 49 88 50 89 52 90 54 91 51 92
REMARK H PARENT 8 15 71 54 45 65
REMARK Flexibility Score: inf
ROOT
ATOM      1  C   UNL A   1      32.001  29.527  26.744  1.00  0.00     0.261 C 
ENDROOT
BRANCH   1   2
ATOM      2  O   UNL A   1      33.069  28.997  25.948  1.00  0.00    -0.463 OA
BRANCH   2   3
ATOM      3  C   UNL A   1      32.665  28.630  24.697  1.00  0.00     0.310 C 
ATOM      4  O   UNL A   1      32.856  29.312  23.697  1.00  0.00    -0.252 OA
BRANCH   3   5
ATOM      5  C   UNL A   1      31.876  27.314  24.700  1.00  0.00     0.119 C 
ATOM      6  C   UNL A   1      32.322  25.849  24.648  1.00  0.00     0.100 C 
ATOM      7  C   UNL A   1      31.534  25.124  23.498  1.00  0.00     0.025 C 
ATOM      8  C   UNL A   1      30.605  27.503  23.857  1.00  0.00     0.026 C 
ATOM      9  C   UNL A   1      30.076  25.145  23.880  1.00  0.00    -0.027 C 
ATOM     10  C   UNL A   1      31.629  25.958  22.181  1.00  0.00     0.009 C 
ATOM     11  C   UNL A   1      29.602  26.381  24.091  1.00  0.00    -0.027 C 
ATOM     12  C   UNL A   1      31.061  27.376  22.398  1.00  0.00     0.009 C 
BRANCH   6  13
ATOM     13  C   UNL A   1      32.195  25.068  26.012  1.00  0.00     0.229 C 
ATOM     14  N   UNL A   1      32.854  23.925  26.426  1.00  0.00    -0.317 N 
ATOM     15  H   UNL A   1      32.593  23.623  27.326  1.00  0.00     0.170 HD
ATOM     16  O   UNL A   1      31.464  25.596  26.871  1.00  0.00    -0.274 OA
BRANCH  14  17
ATOM     17  C   UNL A   1      33.812  23.115  25.825  1.00  0.00     0.110 A 
ATOM     18  C   UNL A   1      33.824  21.787  25.374  1.00  0.00     0.098 A 
ATOM     19  C   UNL A   1      35.207  21.412  25.256  1.00  0.00    -0.017 A 
ATOM     20  S   UNL A   1      35.001  23.729  24.648  1.00  0.00    -0.122 S 
ATOM     21  C   UNL A   1      35.993  22.537  25.343  1.00  0.00     0.011 A 
ATOM     22  C   UNL A   1      36.080  20.301  24.804  1.00  0.00     0.038 C 
ATOM     23  C   UNL A   1      37.449  22.321  25.382  1.00  0.00     0.047 C 
ATOM     24  C   UNL A   1      37.507  20.777  25.250  1.00  0.00     0.010 C 
BRANCH  18  25
ATOM     25  C   UNL A   1      32.620  21.116  24.978  1.00  0.00     0.341 C 
ATOM     26  O   UNL A   1      31.545  21.395  25.497  1.00  0.00    -0.246 OA
BRANCH  25  27
ATOM     27  O   UNL A   1      32.790  20.242  23.953  1.00  0.00    -0.462 OA
BRANCH  27  28
ATOM     28  C   UNL A   1      32.563  18.876  24.318  1.00  0.00     0.230 C 
ATOM     29  C   UNL A   1      32.849  17.908  23.178  1.00  0.00     0.049 C 
ENDBRANCH  27  28
ENDBRANCH  25  27
ENDBRANCH  18  25
ENDBRANCH  14  17
ENDBRANCH   6  13
ENDBRANCH   3   5
ENDBRANCH   2   3
ENDBRANCH   1   2
BRANCH   1  30
ATOM     30  C   UNL A   1      31.875  31.046  26.578  1.00  0.00     0.202 C 
BRANCH  30  31
ATOM     31  O   UNL A   1      32.604  31.939  27.427  1.00  0.00    -0.374 OA
BRANCH  31  32
ATOM     32  C   UNL A   1      33.979  31.713  27.716  1.00  0.00     0.202 C 
BRANCH  32  33
ATOM     33  C   UNL A   1      34.626  32.303  28.948  1.00  0.00     0.261 C 
BRANCH  33  34
ATOM     34  O   UNL A   1      35.481  31.329  29.503  1.00  0.00    -0.460 OA
BRANCH  34  35
ATOM     35  C   UNL A   1      36.652  31.820  29.935  1.00  0.00     0.338 C 
ATOM     36  O   UNL A   1      36.842  32.639  30.837  1.00  0.00    -0.246 OA
BRANCH  35  37
ATOM     37  C   UNL A   1      37.683  31.320  29.047  1.00  0.00     0.060 A 
ATOM     38  C   UNL A   1      37.323  30.263  28.220  1.00  0.00     0.016 A 
ATOM     39  C   UNL A   1      38.970  31.427  29.548  1.00  0.00     0.016 A 
ATOM     40  C   UNL A   1      38.035  29.077  28.408  1.00  0.00     0.010 A 
ATOM     41  C   UNL A   1      39.760  30.333  29.379  1.00  0.00     0.010 A 
ATOM     42  C   UNL A   1      39.161  29.078  29.275  1.00  0.00    -0.014 A 
BRANCH  42  43
ATOM     43  C   UNL A   1      40.169  27.968  29.399  1.00  0.00     0.031 A 
ATOM     44  C   UNL A   1      40.443  27.977  30.945  1.00  0.00     0.074 A 
ATOM     45  C   UNL A   1      40.628  27.102  28.383  1.00  0.00     0.049 A 
ATOM     46  N   UNL A   1      41.389  28.678  31.504  1.00  0.00    -0.248 NA
ATOM     47  C   UNL A   1      39.416  27.650  32.003  1.00  0.00     0.031 C 
ATOM     48  C   UNL A   1      40.386  27.003  26.892  1.00  0.00     0.029 A 
ATOM     49  N   UNL A   1      41.571  26.048  28.460  1.00  0.00    -0.354 N 
ATOM     50  C   UNL A   1      41.315  28.409  32.876  1.00  0.00     0.074 A 
ATOM     51  C   UNL A   1      39.956  28.111  33.138  1.00  0.00     0.031 C 
ATOM     52  C   UNL A   1      40.874  25.833  26.351  1.00  0.00     0.029 A 
ATOM     53  C   UNL A   1      41.606  25.086  27.361  1.00  0.00     0.049 A 
ATOM     54  H   UNL A   1      42.181  25.967  29.229  1.00  0.00     0.167 HD
ATOM     55  C   UNL A   1      42.435  27.961  33.511  1.00  0.00     0.037 A 
ATOM     56  C   UNL A   1      42.424  23.956  27.211  1.00  0.00     0.037 A 
ATOM     57  C   UNL A   1      43.567  28.275  32.672  1.00  0.00     0.049 A 
ATOM     58  C   UNL A   1      43.494  24.124  28.221  1.00  0.00     0.074 A 
ATOM     59  C   UNL A   1      44.141  29.447  32.227  1.00  0.00     0.029 A 
ATOM     60  N   UNL A   1      43.754  27.335  31.692  1.00  0.00    -0.354 N 
ATOM     61  N   UNL A   1      44.382  25.072  28.108  1.00  0.00    -0.248 NA
ATOM     62  C   UNL A   1      43.121  23.709  29.565  1.00  0.00     0.031 C 
ATOM     63  C   UNL A   1      44.469  29.225  30.858  1.00  0.00     0.029 A 
ATOM     64  C   UNL A   1      44.297  27.877  30.568  1.00  0.00     0.049 A 
ATOM     65  H   UNL A   1      43.524  26.383  31.790  1.00  0.00     0.167 HD
ATOM     66  C   UNL A   1      44.291  25.734  29.319  1.00  0.00     0.074 A 
ATOM     67  C   UNL A   1      43.508  24.826  30.192  1.00  0.00     0.031 C 
ATOM     68  C   UNL A   1      44.505  27.087  29.388  1.00  0.00     0.037 A 
BRANCH  55  69
ATOM     69  C   UNL A   1      42.490  26.791  34.484  1.00  0.00     0.057 A 
ATOM     70  C   UNL A   1      42.035  27.014  35.797  1.00  0.00     0.134 A 
ATOM     71  C   UNL A   1      43.208  25.588  34.307  1.00  0.00     0.134 A 
ATOM     72  F   UNL A   1      41.349  28.125  36.101  1.00  0.00    -0.206 F 
ATOM     73  C   UNL A   1      42.318  26.142  36.857  1.00  0.00     0.040 A 
ATOM     74  C   UNL A   1      43.456  24.685  35.352  1.00  0.00     0.040 A 
ATOM     75  F   UNL A   1      43.784  25.252  33.147  1.00  0.00    -0.206 F 
ATOM     76  C   UNL A   1      43.033  24.973  36.639  1.00  0.00     0.006 A 
ENDBRANCH  55  69
BRANCH  56  77
ATOM     77  C   UNL A   1      42.204  22.531  26.676  1.00  0.00     0.057 A 
ATOM     78  C   UNL A   1      43.176  21.660  26.091  1.00  0.00     0.134 A 
ATOM     79  C   UNL A   1      41.047  21.867  27.095  1.00  0.00     0.134 A 
ATOM     80  F   UNL A   1      44.379  22.115  25.706  1.00  0.00    -0.206 F 
ATOM     81  C   UNL A   1      42.974  20.256  25.927  1.00  0.00     0.040 A 
ATOM     82  C   UNL A   1      40.845  20.477  26.963  1.00  0.00     0.040 A 
ATOM     83  F   UNL A   1      40.102  22.547  27.754  1.00  0.00    -0.206 F 
ATOM     84  C   UNL A   1      41.803  19.660  26.378  1.00  0.00     0.006 A 
ENDBRANCH  56  77
BRANCH  68  85
ATOM     85  C   UNL A   1      45.038  27.813  28.177  1.00  0.00     0.057 A 
ATOM     86  C   UNL A   1      44.319  28.653  27.304  1.00  0.00     0.134 A 
ATOM     87  C   UNL A   1      46.419  27.785  28.003  1.00  0.00     0.134 A 
ATOM     88  F   UNL A   1      43.022  28.910  27.495  1.00  0.00    -0.206 F 
ATOM     89  C   UNL A   1      44.941  29.338  26.246  1.00  0.00     0.040 A 
ATOM     90  C   UNL A   1      47.057  28.499  26.990  1.00  0.00     0.040 A 
ATOM     91  F   UNL A   1      47.184  27.114  28.876  1.00  0.00    -0.206 F 
ATOM     92  C   UNL A   1      46.318  29.251  26.084  1.00  0.00     0.006 A 
ENDBRANCH  68  85
ENDBRANCH  42  43
ENDBRANCH  35  37
ENDBRANCH  34  35
ENDBRANCH  33  34
ENDBRANCH  32  33
ENDBRANCH  31  32
ENDBRANCH  30  31
ENDBRANCH   1  30
TORSDOF 19
ENDMDL
