MODEL 1
REMARK VINA RESULT:     -13.4      0.000      0.000
REMARK SMILES CC1(C)O[C@@H]2C[C@@H]3[C@H]4CCC5=CC(=O)C=C[C@@]5(C)[C@]4(F)[C@H](O)C[C@]3(C)[C@]2(C(=O)OCCOCCOC(=O)c2ccc(-c3c4nc(c(-c5c(F)cccc5F)c5ccc([nH]5)c(-c5c(F)cccc5F)c5nc(c(-c6c(F)cccc6F)c6ccc3[nH]6)C=C5)C=C4)cc2)O1
REMARK SMILES IDX 33 1 32 2 31 3 30 4 29 5 27 6 28 7 26 8 1 9 2 10 4 11 92 12
REMARK SMILES IDX 3 13 5 14 6 15 24 16 7 17 23 18 25 19 8 20 21 21 9 22 19 23
REMARK SMILES IDX 10 24 17 25 20 26 11 27 16 28 18 29 12 30 15 31 13 32 14 33
REMARK SMILES IDX 22 34 34 36 35 37 36 38 37 39 38 40 39 41 91 42 40 43 90 44
REMARK SMILES IDX 41 45 42 46 43 47 84 48 44 49 89 50 83 51 85 52 45 53 88 54
REMARK SMILES IDX 82 55 81 56 46 58 72 59 55 60 71 61 56 62 59 63 70 64 86 65
REMARK SMILES IDX 57 66 58 67 69 69 87 70 60 71 47 72 48 73 53 74 49 75 50 76
REMARK SMILES IDX 52 77 54 78 51 79 73 80 74 81 79 82 75 83 76 84 78 85 80 86
REMARK SMILES IDX 77 87 61 88 62 89 67 90 63 91 64 92 66 93 68 94 65 95
REMARK H PARENT 22 35 85 57 59 68
REMARK Flexibility Score: inf
ROOT
ATOM      1  C   UNL A   1      42.232  20.821  26.124  1.00  0.00     0.202 C 
ENDROOT
BRANCH   1   2
ATOM      2  O   UNL A   1      40.991  21.408  26.508  1.00  0.00    -0.374 OA
BRANCH   2   3
ATOM      3  C   UNL A   1      39.776  20.777  26.130  1.00  0.00     0.202 C 
BRANCH   3   4
ATOM      4  C   UNL A   1      38.625  21.582  25.484  1.00  0.00     0.261 C 
BRANCH   4   5
ATOM      5  O   UNL A   1      37.334  20.953  25.359  1.00  0.00    -0.461 OA
BRANCH   5   6
ATOM      6  C   UNL A   1      36.475  21.758  24.695  1.00  0.00     0.341 C 
ATOM      7  O   UNL A   1      36.709  22.165  23.558  1.00  0.00    -0.249 OA
BRANCH   6   8
ATOM      8  C   UNL A   1      35.157  22.092  25.377  1.00  0.00     0.200 C 
ATOM      9  C   UNL A   1      33.276  19.428  24.236  1.00  0.00     0.075 C 
ATOM     10  C   UNL A   1      33.246  20.729  25.024  1.00  0.00     0.165 C 
ATOM     11  O   UNL A   1      33.695  20.462  26.352  1.00  0.00    -0.344 OA
ATOM     12  O   UNL A   1      34.118  21.713  24.402  1.00  0.00    -0.329 OA
ATOM     13  C   UNL A   1      31.773  21.198  25.044  1.00  0.00     0.075 C 
ATOM     14  C   UNL A   1      34.606  21.506  26.708  1.00  0.00     0.166 C 
ATOM     15  C   UNL A   1      33.768  22.698  27.409  1.00  0.00     0.040 C 
ATOM     16  C   UNL A   1      35.189  23.660  25.732  1.00  0.00     0.016 C 
ATOM     17  C   UNL A   1      33.748  23.762  26.285  1.00  0.00     0.008 C 
ATOM     18  C   UNL A   1      35.487  24.769  24.706  1.00  0.00     0.046 C 
ATOM     19  C   UNL A   1      36.303  23.877  26.819  1.00  0.00     0.015 C 
ATOM     20  C   UNL A   1      32.650  24.605  25.550  1.00  0.00     0.035 C 
ATOM     21  C   UNL A   1      34.375  25.128  23.749  1.00  0.00     0.154 C 
ATOM     22  C   UNL A   1      31.497  25.106  26.405  1.00  0.00     0.012 C 
ATOM     23  C   UNL A   1      33.141  25.658  24.532  1.00  0.00     0.152 C 
ATOM     24  C   UNL A   1      30.303  25.368  25.475  1.00  0.00     0.032 C 
ATOM     25  C   UNL A   1      31.961  26.134  23.577  1.00  0.00     0.044 C 
ATOM     26  F   UNL A   1      33.557  26.738  25.275  1.00  0.00    -0.239 F 
ATOM     27  C   UNL A   1      30.625  26.305  24.332  1.00  0.00    -0.053 C 
ATOM     28  C   UNL A   1      32.329  27.441  22.870  1.00  0.00    -0.009 C 
ATOM     29  C   UNL A   1      31.674  25.128  22.424  1.00  0.00     0.024 C 
ATOM     30  C   UNL A   1      29.704  27.197  23.915  1.00  0.00     0.052 C 
ATOM     31  C   UNL A   1      31.413  28.328  22.457  1.00  0.00     0.048 C 
ATOM     32  C   UNL A   1      29.989  28.116  22.789  1.00  0.00     0.178 C 
ATOM     33  O   UNL A   1      29.094  28.703  22.197  1.00  0.00    -0.290 OA
BRANCH  21  34
ATOM     34  O   UNL A   1      34.111  24.033  22.883  1.00  0.00    -0.390 OA
ATOM     35  H   UNL A   1      33.564  23.379  23.344  1.00  0.00     0.211 HD
ENDBRANCH  21  34
ENDBRANCH   6   8
ENDBRANCH   5   6
ENDBRANCH   4   5
ENDBRANCH   3   4
ENDBRANCH   2   3
ENDBRANCH   1   2
BRANCH   1  36
ATOM     36  C   UNL A   1      43.352  21.750  25.648  1.00  0.00     0.261 C 
BRANCH  36  37
ATOM     37  O   UNL A   1      42.834  22.866  24.900  1.00  0.00    -0.460 OA
BRANCH  37  38
ATOM     38  C   UNL A   1      43.570  23.995  25.029  1.00  0.00     0.338 C 
ATOM     39  O   UNL A   1      44.632  24.254  24.489  1.00  0.00    -0.246 OA
BRANCH  38  40
ATOM     40  C   UNL A   1      42.821  25.010  25.784  1.00  0.00     0.060 A 
ATOM     41  C   UNL A   1      43.436  26.255  25.977  1.00  0.00     0.016 A 
ATOM     42  C   UNL A   1      41.627  24.691  26.429  1.00  0.00     0.016 A 
ATOM     43  C   UNL A   1      42.889  27.166  26.874  1.00  0.00     0.010 A 
ATOM     44  C   UNL A   1      41.089  25.601  27.342  1.00  0.00     0.010 A 
ATOM     45  C   UNL A   1      41.745  26.819  27.602  1.00  0.00    -0.014 A 
BRANCH  45  46
ATOM     46  C   UNL A   1      41.354  27.653  28.760  1.00  0.00     0.031 A 
ATOM     47  C   UNL A   1      42.144  27.536  30.036  1.00  0.00     0.074 A 
ATOM     48  C   UNL A   1      40.350  28.539  28.654  1.00  0.00     0.049 A 
ATOM     49  N   UNL A   1      41.965  28.143  31.180  1.00  0.00    -0.248 NA
ATOM     50  C   UNL A   1      43.290  26.611  30.018  1.00  0.00     0.031 C 
ATOM     51  C   UNL A   1      39.553  28.772  27.450  1.00  0.00     0.029 A 
ATOM     52  N   UNL A   1      39.828  29.406  29.579  1.00  0.00    -0.354 N 
ATOM     53  C   UNL A   1      42.973  27.678  32.015  1.00  0.00     0.074 A 
ATOM     54  C   UNL A   1      43.742  26.715  31.259  1.00  0.00     0.031 C 
ATOM     55  C   UNL A   1      38.627  29.709  27.717  1.00  0.00     0.029 A 
ATOM     56  C   UNL A   1      38.751  30.119  29.114  1.00  0.00     0.049 A 
ATOM     57  H   UNL A   1      40.191  29.507  30.489  1.00  0.00     0.167 HD
ATOM     58  C   UNL A   1      43.241  28.034  33.294  1.00  0.00     0.037 A 
ATOM     59  C   UNL A   1      37.943  30.983  29.756  1.00  0.00     0.037 A 
ATOM     60  C   UNL A   1      42.469  28.990  34.041  1.00  0.00     0.049 A 
ATOM     61  C   UNL A   1      38.217  31.306  31.201  1.00  0.00     0.074 A 
ATOM     62  C   UNL A   1      42.646  29.412  35.347  1.00  0.00     0.029 A 
ATOM     63  N   UNL A   1      41.370  29.675  33.543  1.00  0.00    -0.354 N 
ATOM     64  N   UNL A   1      39.175  30.863  31.981  1.00  0.00    -0.248 NA
ATOM     65  C   UNL A   1      37.303  32.253  31.854  1.00  0.00     0.031 C 
ATOM     66  C   UNL A   1      41.631  30.325  35.652  1.00  0.00     0.029 A 
ATOM     67  C   UNL A   1      40.851  30.506  34.521  1.00  0.00     0.049 A 
ATOM     68  H   UNL A   1      41.014  29.583  32.631  1.00  0.00     0.167 HD
ATOM     69  C   UNL A   1      38.995  31.496  33.204  1.00  0.00     0.074 A 
ATOM     70  C   UNL A   1      37.845  32.365  33.058  1.00  0.00     0.031 C 
ATOM     71  C   UNL A   1      39.713  31.371  34.347  1.00  0.00     0.037 A 
BRANCH  58  72
ATOM     72  C   UNL A   1      44.406  27.374  33.969  1.00  0.00     0.057 A 
ATOM     73  C   UNL A   1      45.683  27.951  33.963  1.00  0.00     0.134 A 
ATOM     74  C   UNL A   1      44.242  26.174  34.671  1.00  0.00     0.134 A 
ATOM     75  F   UNL A   1      45.910  29.092  33.296  1.00  0.00    -0.206 F 
ATOM     76  C   UNL A   1      46.758  27.349  34.620  1.00  0.00     0.040 A 
ATOM     77  C   UNL A   1      45.304  25.575  35.351  1.00  0.00     0.040 A 
ATOM     78  F   UNL A   1      43.045  25.570  34.719  1.00  0.00    -0.206 F 
ATOM     79  C   UNL A   1      46.569  26.161  35.324  1.00  0.00     0.006 A 
ENDBRANCH  58  72
BRANCH  59  80
ATOM     80  C   UNL A   1      36.782  31.585  29.053  1.00  0.00     0.057 A 
ATOM     81  C   UNL A   1      36.791  32.923  28.642  1.00  0.00     0.134 A 
ATOM     82  C   UNL A   1      35.622  30.841  28.804  1.00  0.00     0.134 A 
ATOM     83  F   UNL A   1      37.866  33.692  28.870  1.00  0.00    -0.206 F 
ATOM     84  C   UNL A   1      35.679  33.507  28.032  1.00  0.00     0.040 A 
ATOM     85  C   UNL A   1      34.513  31.405  28.172  1.00  0.00     0.040 A 
ATOM     86  F   UNL A   1      35.551  29.552  29.170  1.00  0.00    -0.206 F 
ATOM     87  C   UNL A   1      34.537  32.745  27.793  1.00  0.00     0.006 A 
ENDBRANCH  59  80
BRANCH  71  88
ATOM     88  C   UNL A   1      39.299  32.219  35.512  1.00  0.00     0.057 A 
ATOM     89  C   UNL A   1      38.458  31.731  36.520  1.00  0.00     0.134 A 
ATOM     90  C   UNL A   1      39.781  33.528  35.646  1.00  0.00     0.134 A 
ATOM     91  F   UNL A   1      37.954  30.490  36.443  1.00  0.00    -0.206 F 
ATOM     92  C   UNL A   1      38.092  32.523  37.608  1.00  0.00     0.040 A 
ATOM     93  C   UNL A   1      39.442  34.320  36.742  1.00  0.00     0.040 A 
ATOM     94  F   UNL A   1      40.598  34.051  34.719  1.00  0.00    -0.206 F 
ATOM     95  C   UNL A   1      38.590  33.820  37.726  1.00  0.00     0.006 A 
ENDBRANCH  71  88
ENDBRANCH  45  46
ENDBRANCH  38  40
ENDBRANCH  37  38
ENDBRANCH  36  37
ENDBRANCH   1  36
TORSDOF 15
ENDMDL
MODEL 2
REMARK VINA RESULT:     -13.3      0.211      1.236
REMARK SMILES CC1(C)O[C@@H]2C[C@@H]3[C@H]4CCC5=CC(=O)C=C[C@@]5(C)[C@]4(F)[C@H](O)C[C@]3(C)[C@]2(C(=O)OCCOCCOC(=O)c2ccc(-c3c4nc(c(-c5c(F)cccc5F)c5ccc([nH]5)c(-c5c(F)cccc5F)c5nc(c(-c6c(F)cccc6F)c6ccc3[nH]6)C=C5)C=C4)cc2)O1
REMARK SMILES IDX 33 1 32 2 31 3 30 4 29 5 27 6 28 7 26 8 1 9 2 10 4 11 92 12
REMARK SMILES IDX 3 13 5 14 6 15 24 16 7 17 23 18 25 19 8 20 21 21 9 22 19 23
REMARK SMILES IDX 10 24 17 25 20 26 11 27 16 28 18 29 12 30 15 31 13 32 14 33
REMARK SMILES IDX 22 34 34 36 35 37 36 38 37 39 38 40 39 41 91 42 40 43 90 44
REMARK SMILES IDX 41 45 42 46 43 47 84 48 44 49 89 50 83 51 85 52 45 53 88 54
REMARK SMILES IDX 82 55 81 56 46 58 72 59 55 60 71 61 56 62 59 63 70 64 86 65
REMARK SMILES IDX 57 66 58 67 69 69 87 70 60 71 47 72 48 73 53 74 49 75 50 76
REMARK SMILES IDX 52 77 54 78 51 79 73 80 74 81 79 82 75 83 76 84 78 85 80 86
REMARK SMILES IDX 77 87 61 88 62 89 67 90 63 91 64 92 66 93 68 94 65 95
REMARK H PARENT 22 35 85 57 59 68
REMARK Flexibility Score: inf
ROOT
ATOM      1  C   UNL A   1      42.161  20.740  26.094  1.00  0.00     0.202 C 
ENDROOT
BRANCH   1   2
ATOM      2  O   UNL A   1      40.899  21.363  26.321  1.00  0.00    -0.374 OA
BRANCH   2   3
ATOM      3  C   UNL A   1      39.717  20.737  25.846  1.00  0.00     0.202 C 
BRANCH   3   4
ATOM      4  C   UNL A   1      38.415  21.543  25.630  1.00  0.00     0.261 C 
BRANCH   4   5
ATOM      5  O   UNL A   1      37.302  20.891  24.988  1.00  0.00    -0.461 OA
BRANCH   5   6
ATOM      6  C   UNL A   1      36.472  21.802  24.434  1.00  0.00     0.341 C 
ATOM      7  O   UNL A   1      36.695  22.303  23.332  1.00  0.00    -0.249 OA
BRANCH   6   8
ATOM      8  C   UNL A   1      35.196  22.141  25.190  1.00  0.00     0.200 C 
ATOM      9  C   UNL A   1      33.262  19.453  24.206  1.00  0.00     0.075 C 
ATOM     10  C   UNL A   1      33.274  20.766  24.975  1.00  0.00     0.165 C 
ATOM     11  O   UNL A   1      33.805  20.521  26.277  1.00  0.00    -0.344 OA
ATOM     12  O   UNL A   1      34.102  21.744  24.286  1.00  0.00    -0.329 OA
ATOM     13  C   UNL A   1      31.803  21.230  25.078  1.00  0.00     0.075 C 
ATOM     14  C   UNL A   1      34.731  21.574  26.561  1.00  0.00     0.166 C 
ATOM     15  C   UNL A   1      33.931  22.774  27.294  1.00  0.00     0.040 C 
ATOM     16  C   UNL A   1      35.243  23.716  25.518  1.00  0.00     0.016 C 
ATOM     17  C   UNL A   1      33.838  23.820  26.157  1.00  0.00     0.008 C 
ATOM     18  C   UNL A   1      35.472  24.809  24.460  1.00  0.00     0.046 C 
ATOM     19  C   UNL A   1      36.421  23.953  26.532  1.00  0.00     0.015 C 
ATOM     20  C   UNL A   1      32.693  24.647  25.479  1.00  0.00     0.035 C 
ATOM     21  C   UNL A   1      34.302  25.149  23.568  1.00  0.00     0.154 C 
ATOM     22  C   UNL A   1      31.593  25.157  26.396  1.00  0.00     0.012 C 
ATOM     23  C   UNL A   1      33.116  25.687  24.417  1.00  0.00     0.152 C 
ATOM     24  C   UNL A   1      30.342  25.401  25.536  1.00  0.00     0.032 C 
ATOM     25  C   UNL A   1      31.877  26.143  23.529  1.00  0.00     0.044 C 
ATOM     26  F   UNL A   1      33.572  26.780  25.117  1.00  0.00    -0.239 F 
ATOM     27  C   UNL A   1      30.590  26.321  24.362  1.00  0.00    -0.053 C 
ATOM     28  C   UNL A   1      32.195  27.441  22.782  1.00  0.00    -0.009 C 
ATOM     29  C   UNL A   1      31.525  25.119  22.411  1.00  0.00     0.024 C 
ATOM     30  C   UNL A   1      29.641  27.203  23.989  1.00  0.00     0.052 C 
ATOM     31  C   UNL A   1      31.252  28.318  22.412  1.00  0.00     0.048 C 
ATOM     32  C   UNL A   1      29.851  28.106  22.834  1.00  0.00     0.178 C 
ATOM     33  O   UNL A   1      28.919  28.681  22.289  1.00  0.00    -0.290 OA
BRANCH  21  34
ATOM     34  O   UNL A   1      33.991  24.041  22.736  1.00  0.00    -0.390 OA
ATOM     35  H   UNL A   1      34.604  23.313  22.924  1.00  0.00     0.211 HD
ENDBRANCH  21  34
ENDBRANCH   6   8
ENDBRANCH   5   6
ENDBRANCH   4   5
ENDBRANCH   3   4
ENDBRANCH   2   3
ENDBRANCH   1   2
BRANCH   1  36
ATOM     36  C   UNL A   1      43.298  21.599  25.534  1.00  0.00     0.261 C 
BRANCH  36  37
ATOM     37  O   UNL A   1      42.796  22.735  24.806  1.00  0.00    -0.460 OA
BRANCH  37  38
ATOM     38  C   UNL A   1      43.555  23.849  24.946  1.00  0.00     0.338 C 
ATOM     39  O   UNL A   1      44.619  24.093  24.406  1.00  0.00    -0.246 OA
BRANCH  38  40
ATOM     40  C   UNL A   1      42.828  24.869  25.716  1.00  0.00     0.060 A 
ATOM     41  C   UNL A   1      43.455  26.109  25.896  1.00  0.00     0.016 A 
ATOM     42  C   UNL A   1      41.646  24.557  26.385  1.00  0.00     0.016 A 
ATOM     43  C   UNL A   1      42.934  27.024  26.804  1.00  0.00     0.010 A 
ATOM     44  C   UNL A   1      41.132  25.472  27.310  1.00  0.00     0.010 A 
ATOM     45  C   UNL A   1      41.802  26.685  27.555  1.00  0.00    -0.014 A 
BRANCH  45  46
ATOM     46  C   UNL A   1      41.441  27.522  28.721  1.00  0.00     0.031 A 
ATOM     47  C   UNL A   1      42.255  27.399  29.981  1.00  0.00     0.074 A 
ATOM     48  C   UNL A   1      40.441  28.415  28.636  1.00  0.00     0.049 A 
ATOM     49  N   UNL A   1      42.104  28.008  31.128  1.00  0.00    -0.248 NA
ATOM     50  C   UNL A   1      43.394  26.467  29.940  1.00  0.00     0.031 C 
ATOM     51  C   UNL A   1      39.621  28.653  27.448  1.00  0.00     0.029 A 
ATOM     52  N   UNL A   1      39.944  29.286  29.570  1.00  0.00    -0.354 N 
ATOM     53  C   UNL A   1      43.126  27.535  31.942  1.00  0.00     0.074 A 
ATOM     54  C   UNL A   1      43.873  26.567  31.171  1.00  0.00     0.031 C 
ATOM     55  C   UNL A   1      38.707  29.597  27.733  1.00  0.00     0.029 A 
ATOM     56  C   UNL A   1      38.862  30.006  29.127  1.00  0.00     0.049 A 
ATOM     57  H   UNL A   1      40.326  29.384  30.473  1.00  0.00     0.167 HD
ATOM     58  C   UNL A   1      43.422  27.889  33.216  1.00  0.00     0.037 A 
ATOM     59  C   UNL A   1      38.074  30.876  29.786  1.00  0.00     0.037 A 
ATOM     60  C   UNL A   1      42.672  28.851  33.978  1.00  0.00     0.049 A 
ATOM     61  C   UNL A   1      38.380  31.197  31.225  1.00  0.00     0.074 A 
ATOM     62  C   UNL A   1      42.879  29.272  35.280  1.00  0.00     0.029 A 
ATOM     63  N   UNL A   1      41.568  29.544  33.502  1.00  0.00    -0.354 N 
ATOM     64  N   UNL A   1      39.350  30.748  31.985  1.00  0.00    -0.248 NA
ATOM     65  C   UNL A   1      37.485  32.150  31.896  1.00  0.00     0.031 C 
ATOM     66  C   UNL A   1      41.877  30.192  35.605  1.00  0.00     0.029 A 
ATOM     67  C   UNL A   1      41.075  30.378  34.490  1.00  0.00     0.049 A 
ATOM     68  H   UNL A   1      41.192  29.454  32.597  1.00  0.00     0.167 HD
ATOM     69  C   UNL A   1      39.199  31.382  33.211  1.00  0.00     0.074 A 
ATOM     70  C   UNL A   1      38.053  32.258  33.089  1.00  0.00     0.031 C 
ATOM     71  C   UNL A   1      39.940  31.252  34.339  1.00  0.00     0.037 A 
BRANCH  58  72
ATOM     72  C   UNL A   1      44.596  27.222  33.867  1.00  0.00     0.057 A 
ATOM     73  C   UNL A   1      45.876  27.791  33.838  1.00  0.00     0.134 A 
ATOM     74  C   UNL A   1      44.439  26.021  34.569  1.00  0.00     0.134 A 
ATOM     75  F   UNL A   1      46.097  28.933  33.170  1.00  0.00    -0.206 F 
ATOM     76  C   UNL A   1      46.960  27.182  34.474  1.00  0.00     0.040 A 
ATOM     77  C   UNL A   1      45.510  25.414  35.227  1.00  0.00     0.040 A 
ATOM     78  F   UNL A   1      43.239  25.424  34.638  1.00  0.00    -0.206 F 
ATOM     79  C   UNL A   1      46.777  25.994  35.178  1.00  0.00     0.006 A 
ENDBRANCH  58  72
BRANCH  59  80
ATOM     80  C   UNL A   1      36.904  31.486  29.106  1.00  0.00     0.057 A 
ATOM     81  C   UNL A   1      35.733  30.755  28.873  1.00  0.00     0.134 A 
ATOM     82  C   UNL A   1      36.942  32.807  28.645  1.00  0.00     0.134 A 
ATOM     83  F   UNL A   1      35.643  29.478  29.273  1.00  0.00    -0.206 F 
ATOM     84  C   UNL A   1      34.652  31.308  28.182  1.00  0.00     0.040 A 
ATOM     85  C   UNL A   1      35.859  33.381  27.976  1.00  0.00     0.040 A 
ATOM     86  F   UNL A   1      38.033  33.563  28.840  1.00  0.00    -0.206 F 
ATOM     87  C   UNL A   1      34.714  32.627  27.735  1.00  0.00     0.006 A 
ENDBRANCH  59  80
BRANCH  71  88
ATOM     88  C   UNL A   1      39.556  32.103  35.512  1.00  0.00     0.057 A 
ATOM     89  C   UNL A   1      40.068  33.395  35.687  1.00  0.00     0.134 A 
ATOM     90  C   UNL A   1      38.632  31.637  36.457  1.00  0.00     0.134 A 
ATOM     91  F   UNL A   1      40.966  33.893  34.824  1.00  0.00    -0.206 F 
ATOM     92  C   UNL A   1      39.691  34.185  36.774  1.00  0.00     0.040 A 
ATOM     93  C   UNL A   1      38.229  32.428  37.533  1.00  0.00     0.040 A 
ATOM     94  F   UNL A   1      38.097  30.413  36.340  1.00  0.00    -0.206 F 
ATOM     95  C   UNL A   1      38.764  33.705  37.697  1.00  0.00     0.006 A 
ENDBRANCH  71  88
ENDBRANCH  45  46
ENDBRANCH  38  40
ENDBRANCH  37  38
ENDBRANCH  36  37
ENDBRANCH   1  36
TORSDOF 15
ENDMDL
MODEL 3
REMARK VINA RESULT:     -12.7      1.392      6.066
REMARK SMILES CC1(C)O[C@@H]2C[C@@H]3[C@H]4CCC5=CC(=O)C=C[C@@]5(C)[C@]4(F)[C@H](O)C[C@]3(C)[C@]2(C(=O)OCCOCCOC(=O)c2ccc(-c3c4nc(c(-c5c(F)cccc5F)c5ccc([nH]5)c(-c5c(F)cccc5F)c5nc(c(-c6c(F)cccc6F)c6ccc3[nH]6)C=C5)C=C4)cc2)O1
REMARK SMILES IDX 33 1 32 2 31 3 30 4 29 5 27 6 28 7 26 8 1 9 2 10 4 11 92 12
REMARK SMILES IDX 3 13 5 14 6 15 24 16 7 17 23 18 25 19 8 20 21 21 9 22 19 23
REMARK SMILES IDX 10 24 17 25 20 26 11 27 16 28 18 29 12 30 15 31 13 32 14 33
REMARK SMILES IDX 22 34 34 36 35 37 36 38 37 39 38 40 39 41 91 42 40 43 90 44
REMARK SMILES IDX 41 45 42 46 43 47 84 48 44 49 89 50 83 51 85 52 45 53 88 54
REMARK SMILES IDX 82 55 81 56 46 58 72 59 55 60 71 61 56 62 59 63 70 64 86 65
REMARK SMILES IDX 57 66 58 67 69 69 87 70 60 71 47 72 48 73 53 74 49 75 50 76
REMARK SMILES IDX 52 77 54 78 51 79 73 80 74 81 79 82 75 83 76 84 78 85 80 86
REMARK SMILES IDX 77 87 61 88 62 89 67 90 63 91 64 92 66 93 68 94 65 95
REMARK H PARENT 22 35 85 57 59 68
REMARK Flexibility Score: inf
ROOT
ATOM      1  C   UNL A   1      41.799  21.618  26.844  1.00  0.00     0.202 C 
ENDROOT
BRANCH   1   2
ATOM      2  O   UNL A   1      40.416  21.417  27.127  1.00  0.00    -0.374 OA
BRANCH   2   3
ATOM      3  C   UNL A   1      39.585  20.814  26.147  1.00  0.00     0.202 C 
BRANCH   3   4
ATOM      4  C   UNL A   1      38.500  21.630  25.406  1.00  0.00     0.261 C 
BRANCH   4   5
ATOM      5  O   UNL A   1      37.305  20.951  24.975  1.00  0.00    -0.461 OA
BRANCH   5   6
ATOM      6  C   UNL A   1      36.434  21.824  24.422  1.00  0.00     0.341 C 
ATOM      7  O   UNL A   1      36.618  22.310  23.306  1.00  0.00    -0.249 OA
BRANCH   6   8
ATOM      8  C   UNL A   1      35.165  22.138  25.199  1.00  0.00     0.200 C 
ATOM      9  C   UNL A   1      33.245  19.447  24.195  1.00  0.00     0.075 C 
ATOM     10  C   UNL A   1      33.254  20.747  24.985  1.00  0.00     0.165 C 
ATOM     11  O   UNL A   1      33.804  20.486  26.276  1.00  0.00    -0.344 OA
ATOM     12  O   UNL A   1      34.063  21.745  24.302  1.00  0.00    -0.329 OA
ATOM     13  C   UNL A   1      31.780  21.194  25.114  1.00  0.00     0.075 C 
ATOM     14  C   UNL A   1      34.723  21.544  26.566  1.00  0.00     0.166 C 
ATOM     15  C   UNL A   1      33.920  22.723  27.329  1.00  0.00     0.040 C 
ATOM     16  C   UNL A   1      35.200  23.707  25.553  1.00  0.00     0.016 C 
ATOM     17  C   UNL A   1      33.802  23.786  26.211  1.00  0.00     0.008 C 
ATOM     18  C   UNL A   1      35.406  24.820  24.510  1.00  0.00     0.046 C 
ATOM     19  C   UNL A   1      36.388  23.939  26.556  1.00  0.00     0.015 C 
ATOM     20  C   UNL A   1      32.641  24.613  25.560  1.00  0.00     0.035 C 
ATOM     21  C   UNL A   1      34.221  25.163  23.639  1.00  0.00     0.154 C 
ATOM     22  C   UNL A   1      31.547  25.096  26.499  1.00  0.00     0.012 C 
ATOM     23  C   UNL A   1      33.040  25.674  24.511  1.00  0.00     0.152 C 
ATOM     24  C   UNL A   1      30.284  25.342  25.659  1.00  0.00     0.032 C 
ATOM     25  C   UNL A   1      31.786  26.133  23.646  1.00  0.00     0.044 C 
ATOM     26  F   UNL A   1      33.494  26.760  25.223  1.00  0.00    -0.239 F 
ATOM     27  C   UNL A   1      30.507  26.284  24.497  1.00  0.00    -0.053 C 
ATOM     28  C   UNL A   1      32.082  27.446  22.916  1.00  0.00    -0.009 C 
ATOM     29  C   UNL A   1      31.431  25.124  22.515  1.00  0.00     0.024 C 
ATOM     30  C   UNL A   1      29.545  27.163  24.151  1.00  0.00     0.052 C 
ATOM     31  C   UNL A   1      31.125  28.320  22.573  1.00  0.00     0.048 C 
ATOM     32  C   UNL A   1      29.733  28.086  23.008  1.00  0.00     0.178 C 
ATOM     33  O   UNL A   1      28.788  28.661  22.485  1.00  0.00    -0.290 OA
BRANCH  21  34
ATOM     34  O   UNL A   1      33.910  24.065  22.792  1.00  0.00    -0.390 OA
ATOM     35  H   UNL A   1      33.098  24.257  22.297  1.00  0.00     0.211 HD
ENDBRANCH  21  34
ENDBRANCH   6   8
ENDBRANCH   5   6
ENDBRANCH   4   5
ENDBRANCH   3   4
ENDBRANCH   2   3
ENDBRANCH   1   2
BRANCH   1  36
ATOM     36  C   UNL A   1      42.247  23.009  26.389  1.00  0.00     0.261 C 
BRANCH  36  37
ATOM     37  O   UNL A   1      41.174  23.966  26.472  1.00  0.00    -0.460 OA
BRANCH  37  38
ATOM     38  C   UNL A   1      41.517  25.206  26.047  1.00  0.00     0.338 C 
ATOM     39  O   UNL A   1      42.077  25.504  25.007  1.00  0.00    -0.246 OA
BRANCH  38  40
ATOM     40  C   UNL A   1      40.941  26.227  26.934  1.00  0.00     0.060 A 
ATOM     41  C   UNL A   1      41.473  27.522  26.857  1.00  0.00     0.016 A 
ATOM     42  C   UNL A   1      40.030  25.883  27.931  1.00  0.00     0.016 A 
ATOM     43  C   UNL A   1      41.142  28.465  27.823  1.00  0.00     0.010 A 
ATOM     44  C   UNL A   1      39.712  26.828  28.911  1.00  0.00     0.010 A 
ATOM     45  C   UNL A   1      40.305  28.104  28.886  1.00  0.00    -0.014 A 
BRANCH  45  46
ATOM     46  C   UNL A   1      40.208  29.003  30.057  1.00  0.00     0.031 A 
ATOM     47  C   UNL A   1      39.162  30.086  30.052  1.00  0.00     0.074 A 
ATOM     48  C   UNL A   1      40.999  28.819  31.126  1.00  0.00     0.049 A 
ATOM     49  N   UNL A   1      38.915  31.003  30.951  1.00  0.00    -0.248 NA
ATOM     50  C   UNL A   1      38.275  30.140  28.878  1.00  0.00     0.031 C 
ATOM     51  C   UNL A   1      42.010  27.770  31.258  1.00  0.00     0.029 A 
ATOM     52  N   UNL A   1      41.078  29.515  32.305  1.00  0.00    -0.354 N 
ATOM     53  C   UNL A   1      37.847  31.739  30.454  1.00  0.00     0.074 A 
ATOM     54  C   UNL A   1      37.512  31.184  29.161  1.00  0.00     0.031 C 
ATOM     55  C   UNL A   1      42.623  27.904  32.447  1.00  0.00     0.029 A 
ATOM     56  C   UNL A   1      42.066  29.062  33.143  1.00  0.00     0.049 A 
ATOM     57  H   UNL A   1      40.484  30.268  32.527  1.00  0.00     0.167 HD
ATOM     58  C   UNL A   1      37.196  32.776  31.031  1.00  0.00     0.037 A 
ATOM     59  C   UNL A   1      42.487  29.548  34.326  1.00  0.00     0.037 A 
ATOM     60  C   UNL A   1      37.536  33.325  32.317  1.00  0.00     0.049 A 
ATOM     61  C   UNL A   1      41.794  30.749  34.913  1.00  0.00     0.074 A 
ATOM     62  C   UNL A   1      36.950  34.384  32.987  1.00  0.00     0.029 A 
ATOM     63  N   UNL A   1      38.559  32.853  33.126  1.00  0.00    -0.354 N 
ATOM     64  N   UNL A   1      40.783  31.436  34.436  1.00  0.00    -0.248 NA
ATOM     65  C   UNL A   1      42.296  31.239  36.204  1.00  0.00     0.031 C 
ATOM     66  C   UNL A   1      37.642  34.578  34.187  1.00  0.00     0.029 A 
ATOM     67  C   UNL A   1      38.629  33.609  34.284  1.00  0.00     0.049 A 
ATOM     68  H   UNL A   1      39.147  32.095  32.910  1.00  0.00     0.167 HD
ATOM     69  C   UNL A   1      40.512  32.419  35.379  1.00  0.00     0.074 A 
ATOM     70  C   UNL A   1      41.455  32.230  36.462  1.00  0.00     0.031 C 
ATOM     71  C   UNL A   1      39.569  33.393  35.353  1.00  0.00     0.037 A 
BRANCH  58  72
ATOM     72  C   UNL A   1      36.059  33.393  30.271  1.00  0.00     0.057 A 
ATOM     73  C   UNL A   1      36.280  34.233  29.172  1.00  0.00     0.134 A 
ATOM     74  C   UNL A   1      34.731  33.110  30.612  1.00  0.00     0.134 A 
ATOM     75  F   UNL A   1      37.528  34.556  28.802  1.00  0.00    -0.206 F 
ATOM     76  C   UNL A   1      35.218  34.779  28.447  1.00  0.00     0.040 A 
ATOM     77  C   UNL A   1      33.662  33.632  29.882  1.00  0.00     0.040 A 
ATOM     78  F   UNL A   1      34.451  32.311  31.653  1.00  0.00    -0.206 F 
ATOM     79  C   UNL A   1      33.905  34.473  28.797  1.00  0.00     0.006 A 
ENDBRANCH  58  72
BRANCH  59  80
ATOM     80  C   UNL A   1      43.637  28.921  35.024  1.00  0.00     0.057 A 
ATOM     81  C   UNL A   1      43.450  27.943  36.008  1.00  0.00     0.134 A 
ATOM     82  C   UNL A   1      44.953  29.310  34.744  1.00  0.00     0.134 A 
ATOM     83  F   UNL A   1      42.212  27.543  36.335  1.00  0.00    -0.206 F 
ATOM     84  C   UNL A   1      44.527  27.394  36.707  1.00  0.00     0.040 A 
ATOM     85  C   UNL A   1      46.041  28.750  35.417  1.00  0.00     0.040 A 
ATOM     86  F   UNL A   1      45.202  30.240  33.809  1.00  0.00    -0.206 F 
ATOM     87  C   UNL A   1      45.827  27.796  36.408  1.00  0.00     0.006 A 
ENDBRANCH  59  80
BRANCH  71  88
ATOM     88  C   UNL A   1      39.488  34.299  36.545  1.00  0.00     0.057 A 
ATOM     89  C   UNL A   1      38.806  33.928  37.711  1.00  0.00     0.134 A 
ATOM     90  C   UNL A   1      40.134  35.542  36.538  1.00  0.00     0.134 A 
ATOM     91  F   UNL A   1      38.157  32.756  37.775  1.00  0.00    -0.206 F 
ATOM     92  C   UNL A   1      38.751  34.772  38.820  1.00  0.00     0.040 A 
ATOM     93  C   UNL A   1      40.107  36.383  37.651  1.00  0.00     0.040 A 
ATOM     94  F   UNL A   1      40.812  35.952  35.456  1.00  0.00    -0.206 F 
ATOM     95  C   UNL A   1      39.409  36.001  38.795  1.00  0.00     0.006 A 
ENDBRANCH  71  88
ENDBRANCH  45  46
ENDBRANCH  38  40
ENDBRANCH  37  38
ENDBRANCH  36  37
ENDBRANCH   1  36
TORSDOF 15
ENDMDL
