MODEL 1
REMARK VINA RESULT:     -12.1      0.000      0.000
REMARK SMILES O=C(OCCOCCOC(=O)[C@H]1Cc2c([nH]c3ccccc23)[C@@H](c2ccc(OC(F)(F)F)cc2)[NH2+]1)c1ccc(-c2c3nc(c(-c4c(F)cccc4F)c4ccc([nH]4)c(-c4c(F)cccc4F)c4nc(c(-c5c(F)cccc5F)c5ccc2[nH]5)C=C4)C=C3)cc1
REMARK SMILES IDX 7 1 6 2 5 3 4 4 3 5 2 6 1 7 36 8 37 9 89 10 38 11 88 12
REMARK SMILES IDX 39 13 40 14 41 15 82 16 42 17 87 18 81 19 83 20 43 21 86 22
REMARK SMILES IDX 80 23 79 24 44 26 70 27 53 28 69 29 54 30 57 31 68 32 84 33
REMARK SMILES IDX 55 34 56 35 67 37 85 38 58 39 45 40 46 41 51 42 47 43 48 44
REMARK SMILES IDX 50 45 52 46 49 47 71 48 72 49 77 50 73 51 74 52 76 53 78 54
REMARK SMILES IDX 75 55 59 56 60 57 65 58 61 59 62 60 64 61 66 62 63 63 8 64
REMARK SMILES IDX 9 65 10 66 11 67 12 68 13 69 35 70 14 71 23 72 15 75 22 76
REMARK SMILES IDX 16 77 17 78 21 79 18 81 20 82 19 83 24 84 25 85 34 86 26 87
REMARK SMILES IDX 33 88 27 89 28 90 29 91 30 92 31 93 32 94
REMARK H PARENT 83 25 57 36 35 73 35 74 16 80
REMARK Flexibility Score: inf
ROOT
ATOM      1  C   UNL A   1      35.352  24.052  25.232  1.00  0.00     0.202 C 
ENDROOT
BRANCH   1   2
ATOM      2  O   UNL A   1      35.378  23.071  24.186  1.00  0.00    -0.374 OA
BRANCH   2   3
ATOM      3  C   UNL A   1      36.675  22.569  23.857  1.00  0.00     0.202 C 
BRANCH   3   4
ATOM      4  C   UNL A   1      37.069  21.203  24.434  1.00  0.00     0.261 C 
BRANCH   4   5
ATOM      5  O   UNL A   1      37.606  21.352  25.761  1.00  0.00    -0.460 OA
BRANCH   5   6
ATOM      6  C   UNL A   1      38.906  21.453  26.129  1.00  0.00     0.338 C 
ATOM      7  O   UNL A   1      39.615  20.452  26.104  1.00  0.00    -0.246 OA
BRANCH   6   8
ATOM      8  C   UNL A   1      39.526  22.749  26.521  1.00  0.00     0.060 A 
ATOM      9  C   UNL A   1      39.027  23.996  26.155  1.00  0.00     0.016 A 
ATOM     10  C   UNL A   1      40.664  22.712  27.344  1.00  0.00     0.016 A 
ATOM     11  C   UNL A   1      39.671  25.164  26.481  1.00  0.00     0.010 A 
ATOM     12  C   UNL A   1      41.300  23.896  27.733  1.00  0.00     0.010 A 
ATOM     13  C   UNL A   1      40.810  25.121  27.270  1.00  0.00    -0.014 A 
BRANCH  13  14
ATOM     14  C   UNL A   1      41.507  26.402  27.417  1.00  0.00     0.031 A 
ATOM     15  C   UNL A   1      40.914  27.411  28.346  1.00  0.00     0.074 A 
ATOM     16  C   UNL A   1      42.765  26.503  26.949  1.00  0.00     0.049 A 
ATOM     17  N   UNL A   1      41.373  28.577  28.699  1.00  0.00    -0.248 NA
ATOM     18  C   UNL A   1      39.643  27.037  28.996  1.00  0.00     0.031 C 
ATOM     19  C   UNL A   1      43.474  25.452  26.208  1.00  0.00     0.029 A 
ATOM     20  N   UNL A   1      43.696  27.490  27.096  1.00  0.00    -0.354 N 
ATOM     21  C   UNL A   1      40.426  29.099  29.570  1.00  0.00     0.074 A 
ATOM     22  C   UNL A   1      39.378  28.116  29.714  1.00  0.00     0.031 C 
ATOM     23  C   UNL A   1      44.745  25.834  26.014  1.00  0.00     0.029 A 
ATOM     24  C   UNL A   1      44.910  27.185  26.533  1.00  0.00     0.049 A 
ATOM     25  H   UNL A   1      43.514  28.339  27.561  1.00  0.00     0.167 HD
ATOM     26  C   UNL A   1      40.437  30.308  30.173  1.00  0.00     0.037 A 
ATOM     27  C   UNL A   1      46.016  27.943  26.426  1.00  0.00     0.037 A 
ATOM     28  C   UNL A   1      41.512  31.247  30.008  1.00  0.00     0.049 A 
ATOM     29  C   UNL A   1      45.956  29.326  27.010  1.00  0.00     0.074 A 
ATOM     30  C   UNL A   1      41.617  32.542  30.475  1.00  0.00     0.029 A 
ATOM     31  N   UNL A   1      42.684  30.970  29.312  1.00  0.00    -0.354 N 
ATOM     32  N   UNL A   1      45.005  29.877  27.728  1.00  0.00    -0.248 NA
ATOM     33  C   UNL A   1      47.100  30.203  26.744  1.00  0.00     0.031 C 
ATOM     34  C   UNL A   1      42.835  33.064  30.022  1.00  0.00     0.029 A 
ATOM     35  C   UNL A   1      43.511  32.076  29.318  1.00  0.00     0.049 A 
ATOM     36  H   UNL A   1      42.893  30.111  28.878  1.00  0.00     0.167 HD
ATOM     37  C   UNL A   1      45.439  31.162  28.015  1.00  0.00     0.074 A 
ATOM     38  C   UNL A   1      46.751  31.296  27.407  1.00  0.00     0.031 C 
ATOM     39  C   UNL A   1      44.815  32.148  28.705  1.00  0.00     0.037 A 
BRANCH  26  40
ATOM     40  C   UNL A   1      39.208  30.690  30.942  1.00  0.00     0.057 A 
ATOM     41  C   UNL A   1      38.129  31.365  30.357  1.00  0.00     0.134 A 
ATOM     42  C   UNL A   1      39.143  30.440  32.318  1.00  0.00     0.134 A 
ATOM     43  F   UNL A   1      38.145  31.673  29.050  1.00  0.00    -0.206 F 
ATOM     44  C   UNL A   1      37.044  31.805  31.121  1.00  0.00     0.040 A 
ATOM     45  C   UNL A   1      38.055  30.853  33.087  1.00  0.00     0.040 A 
ATOM     46  F   UNL A   1      40.150  29.812  32.943  1.00  0.00    -0.206 F 
ATOM     47  C   UNL A   1      37.005  31.547  32.490  1.00  0.00     0.006 A 
ENDBRANCH  26  40
BRANCH  27  48
ATOM     48  C   UNL A   1      47.209  27.446  25.694  1.00  0.00     0.057 A 
ATOM     49  C   UNL A   1      47.339  27.599  24.310  1.00  0.00     0.134 A 
ATOM     50  C   UNL A   1      48.250  26.786  26.364  1.00  0.00     0.134 A 
ATOM     51  F   UNL A   1      46.372  28.204  23.604  1.00  0.00    -0.206 F 
ATOM     52  C   UNL A   1      48.449  27.105  23.618  1.00  0.00     0.040 A 
ATOM     53  C   UNL A   1      49.379  26.314  25.691  1.00  0.00     0.040 A 
ATOM     54  F   UNL A   1      48.193  26.601  27.691  1.00  0.00    -0.206 F 
ATOM     55  C   UNL A   1      49.475  26.466  24.311  1.00  0.00     0.006 A 
ENDBRANCH  27  48
BRANCH  39  56
ATOM     56  C   UNL A   1      45.572  33.430  28.865  1.00  0.00     0.057 A 
ATOM     57  C   UNL A   1      45.439  34.483  27.953  1.00  0.00     0.134 A 
ATOM     58  C   UNL A   1      46.416  33.617  29.965  1.00  0.00     0.134 A 
ATOM     59  F   UNL A   1      44.655  34.353  26.871  1.00  0.00    -0.206 F 
ATOM     60  C   UNL A   1      46.140  35.677  28.120  1.00  0.00     0.040 A 
ATOM     61  C   UNL A   1      47.100  34.815  30.157  1.00  0.00     0.040 A 
ATOM     62  F   UNL A   1      46.577  32.645  30.876  1.00  0.00    -0.206 F 
ATOM     63  C   UNL A   1      46.967  35.847  29.230  1.00  0.00     0.006 A 
ENDBRANCH  39  56
ENDBRANCH  13  14
ENDBRANCH   6   8
ENDBRANCH   5   6
ENDBRANCH   4   5
ENDBRANCH   3   4
ENDBRANCH   2   3
ENDBRANCH   1   2
BRANCH   1  64
ATOM     64  C   UNL A   1      34.107  23.883  26.101  1.00  0.00     0.261 C 
BRANCH  64  65
ATOM     65  O   UNL A   1      33.576  25.188  26.389  1.00  0.00    -0.459 OA
BRANCH  65  66
ATOM     66  C   UNL A   1      32.250  25.355  26.146  1.00  0.00     0.365 C 
ATOM     67  O   UNL A   1      31.351  24.941  26.872  1.00  0.00    -0.245 OA
BRANCH  66  68
ATOM     68  C   UNL A   1      31.978  26.105  24.833  1.00  0.00     0.298 C 
ATOM     69  C   UNL A   1      30.572  26.760  24.780  1.00  0.00     0.115 C 
ATOM     70  N   UNL A   1      33.166  26.897  24.431  1.00  0.00    -0.323 N 
ATOM     71  C   UNL A   1      30.551  27.952  23.920  1.00  0.00    -0.006 A 
ATOM     72  C   UNL A   1      33.032  28.353  24.335  1.00  0.00     0.262 C 
ATOM     73  H   UNL A   1      33.457  26.560  23.513  1.00  0.00     0.347 HD
ATOM     74  H   UNL A   1      33.832  26.755  25.191  1.00  0.00     0.347 HD
ATOM     75  C   UNL A   1      31.705  28.662  23.713  1.00  0.00     0.083 A 
ATOM     76  C   UNL A   1      29.488  28.597  23.247  1.00  0.00     0.003 A 
ATOM     77  N   UNL A   1      31.407  29.692  22.863  1.00  0.00    -0.353 N 
ATOM     78  C   UNL A   1      30.051  29.696  22.595  1.00  0.00     0.046 A 
ATOM     79  C   UNL A   1      28.103  28.365  23.138  1.00  0.00     0.010 A 
ATOM     80  H   UNL A   1      32.059  30.333  22.497  1.00  0.00     0.166 HD
ATOM     81  C   UNL A   1      29.281  30.583  21.834  1.00  0.00     0.026 A 
ATOM     82  C   UNL A   1      27.323  29.243  22.380  1.00  0.00     0.001 A 
ATOM     83  C   UNL A   1      27.906  30.334  21.740  1.00  0.00     0.002 A 
BRANCH  72  84
ATOM     84  C   UNL A   1      33.316  29.103  25.642  1.00  0.00     0.016 A 
ATOM     85  C   UNL A   1      32.452  30.098  26.132  1.00  0.00     0.014 A 
ATOM     86  C   UNL A   1      34.542  28.937  26.311  1.00  0.00     0.014 A 
ATOM     87  C   UNL A   1      32.825  30.928  27.192  1.00  0.00     0.047 A 
ATOM     88  C   UNL A   1      34.908  29.759  27.390  1.00  0.00     0.047 A 
ATOM     89  C   UNL A   1      34.066  30.785  27.811  1.00  0.00     0.129 A 
BRANCH  89  90
ATOM     90  O   UNL A   1      34.324  31.711  28.778  1.00  0.00    -0.406 OA
BRANCH  90  91
ATOM     91  C   UNL A   1      34.798  32.981  28.366  1.00  0.00     0.573 C 
ATOM     92  F   UNL A   1      33.866  33.626  27.634  1.00  0.00    -0.132 F 
ATOM     93  F   UNL A   1      35.154  33.745  29.421  1.00  0.00    -0.132 F 
ATOM     94  F   UNL A   1      35.893  32.803  27.593  1.00  0.00    -0.132 F 
ENDBRANCH  90  91
ENDBRANCH  89  90
ENDBRANCH  72  84
ENDBRANCH  66  68
ENDBRANCH  65  66
ENDBRANCH  64  65
ENDBRANCH   1  64
TORSDOF 17
ENDMDL
MODEL 2
REMARK VINA RESULT:     -12.0      0.389      6.028
REMARK SMILES O=C(OCCOCCOC(=O)[C@H]1Cc2c([nH]c3ccccc23)[C@@H](c2ccc(OC(F)(F)F)cc2)[NH2+]1)c1ccc(-c2c3nc(c(-c4c(F)cccc4F)c4ccc([nH]4)c(-c4c(F)cccc4F)c4nc(c(-c5c(F)cccc5F)c5ccc2[nH]5)C=C4)C=C3)cc1
REMARK SMILES IDX 7 1 6 2 5 3 4 4 3 5 2 6 1 7 36 8 37 9 89 10 38 11 88 12
REMARK SMILES IDX 39 13 40 14 41 15 82 16 42 17 87 18 81 19 83 20 43 21 86 22
REMARK SMILES IDX 80 23 79 24 44 26 70 27 53 28 69 29 54 30 57 31 68 32 84 33
REMARK SMILES IDX 55 34 56 35 67 37 85 38 58 39 45 40 46 41 51 42 47 43 48 44
REMARK SMILES IDX 50 45 52 46 49 47 71 48 72 49 77 50 73 51 74 52 76 53 78 54
REMARK SMILES IDX 75 55 59 56 60 57 65 58 61 59 62 60 64 61 66 62 63 63 8 64
REMARK SMILES IDX 9 65 10 66 11 67 12 68 13 69 35 70 14 71 23 72 15 75 22 76
REMARK SMILES IDX 16 77 17 78 21 79 18 81 20 82 19 83 24 84 25 85 34 86 26 87
REMARK SMILES IDX 33 88 27 89 28 90 29 91 30 92 31 93 32 94
REMARK H PARENT 83 25 57 36 35 73 35 74 16 80
REMARK Flexibility Score: inf
ROOT
ATOM      1  C   UNL A   1      35.008  23.664  25.036  1.00  0.00     0.202 C 
ENDROOT
BRANCH   1   2
ATOM      2  O   UNL A   1      35.319  22.374  24.493  1.00  0.00    -0.374 OA
BRANCH   2   3
ATOM      3  C   UNL A   1      36.662  22.219  24.027  1.00  0.00     0.202 C 
BRANCH   3   4
ATOM      4  C   UNL A   1      37.403  20.937  24.431  1.00  0.00     0.261 C 
BRANCH   4   5
ATOM      5  O   UNL A   1      37.942  21.064  25.759  1.00  0.00    -0.460 OA
BRANCH   5   6
ATOM      6  C   UNL A   1      39.242  21.165  26.126  1.00  0.00     0.338 C 
ATOM      7  O   UNL A   1      39.990  20.207  25.956  1.00  0.00    -0.246 OA
BRANCH   6   8
ATOM      8  C   UNL A   1      39.818  22.419  26.690  1.00  0.00     0.060 A 
ATOM      9  C   UNL A   1      39.346  23.695  26.395  1.00  0.00     0.016 A 
ATOM     10  C   UNL A   1      40.877  22.304  27.604  1.00  0.00     0.016 A 
ATOM     11  C   UNL A   1      39.951  24.827  26.883  1.00  0.00     0.010 A 
ATOM     12  C   UNL A   1      41.469  23.446  28.155  1.00  0.00     0.010 A 
ATOM     13  C   UNL A   1      41.016  24.709  27.763  1.00  0.00    -0.014 A 
BRANCH  13  14
ATOM     14  C   UNL A   1      41.689  25.970  28.089  1.00  0.00     0.031 A 
ATOM     15  C   UNL A   1      42.989  26.257  27.409  1.00  0.00     0.074 A 
ATOM     16  C   UNL A   1      40.991  26.918  28.740  1.00  0.00     0.049 A 
ATOM     17  N   UNL A   1      43.735  27.322  27.472  1.00  0.00    -0.248 NA
ATOM     18  C   UNL A   1      43.502  25.211  26.505  1.00  0.00     0.031 C 
ATOM     19  C   UNL A   1      39.622  26.756  29.246  1.00  0.00     0.029 A 
ATOM     20  N   UNL A   1      41.294  28.220  29.016  1.00  0.00    -0.354 N 
ATOM     21  C   UNL A   1      44.829  27.056  26.659  1.00  0.00     0.074 A 
ATOM     22  C   UNL A   1      44.641  25.741  26.093  1.00  0.00     0.031 C 
ATOM     23  C   UNL A   1      39.188  27.933  29.721  1.00  0.00     0.029 A 
ATOM     24  C   UNL A   1      40.275  28.898  29.637  1.00  0.00     0.049 A 
ATOM     25  H   UNL A   1      42.159  28.632  28.791  1.00  0.00     0.167 HD
ATOM     26  C   UNL A   1      45.900  27.848  26.434  1.00  0.00     0.037 A 
ATOM     27  C   UNL A   1      40.253  30.156  30.113  1.00  0.00     0.037 A 
ATOM     28  C   UNL A   1      46.033  29.156  27.012  1.00  0.00     0.049 A 
ATOM     29  C   UNL A   1      41.503  30.973  29.945  1.00  0.00     0.074 A 
ATOM     30  C   UNL A   1      47.101  30.030  26.953  1.00  0.00     0.029 A 
ATOM     31  N   UNL A   1      45.040  29.778  27.760  1.00  0.00    -0.354 N 
ATOM     32  N   UNL A   1      42.598  30.677  29.284  1.00  0.00    -0.248 NA
ATOM     33  C   UNL A   1      41.531  32.278  30.611  1.00  0.00     0.031 C 
ATOM     34  C   UNL A   1      46.769  31.163  27.704  1.00  0.00     0.029 A 
ATOM     35  C   UNL A   1      45.476  31.017  28.188  1.00  0.00     0.049 A 
ATOM     36  H   UNL A   1      44.157  29.391  27.958  1.00  0.00     0.167 HD
ATOM     37  C   UNL A   1      43.444  31.764  29.440  1.00  0.00     0.074 A 
ATOM     38  C   UNL A   1      42.721  32.734  30.243  1.00  0.00     0.031 C 
ATOM     39  C   UNL A   1      44.705  31.948  28.977  1.00  0.00     0.037 A 
BRANCH  26  40
ATOM     40  C   UNL A   1      47.022  27.252  25.637  1.00  0.00     0.057 A 
ATOM     41  C   UNL A   1      48.045  26.494  26.221  1.00  0.00     0.134 A 
ATOM     42  C   UNL A   1      47.115  27.513  24.265  1.00  0.00     0.134 A 
ATOM     43  F   UNL A   1      48.039  26.241  27.539  1.00  0.00    -0.206 F 
ATOM     44  C   UNL A   1      49.136  26.043  25.472  1.00  0.00     0.040 A 
ATOM     45  C   UNL A   1      48.187  27.049  23.502  1.00  0.00     0.040 A 
ATOM     46  F   UNL A   1      46.178  28.247  23.647  1.00  0.00    -0.206 F 
ATOM     47  C   UNL A   1      49.208  26.321  24.107  1.00  0.00     0.006 A 
ENDBRANCH  26  40
BRANCH  27  48
ATOM     48  C   UNL A   1      39.064  30.674  30.837  1.00  0.00     0.057 A 
ATOM     49  C   UNL A   1      38.898  30.479  32.211  1.00  0.00     0.134 A 
ATOM     50  C   UNL A   1      38.048  31.369  30.162  1.00  0.00     0.134 A 
ATOM     51  F   UNL A   1      39.820  29.806  32.915  1.00  0.00    -0.206 F 
ATOM     52  C   UNL A   1      37.763  30.941  32.886  1.00  0.00     0.040 A 
ATOM     53  C   UNL A   1      36.925  31.862  30.828  1.00  0.00     0.040 A 
ATOM     54  F   UNL A   1      38.139  31.591  28.843  1.00  0.00    -0.206 F 
ATOM     55  C   UNL A   1      36.776  31.640  32.194  1.00  0.00     0.006 A 
ENDBRANCH  27  48
BRANCH  39  56
ATOM     56  C   UNL A   1      45.347  33.261  29.299  1.00  0.00     0.057 A 
ATOM     57  C   UNL A   1      45.185  34.382  28.476  1.00  0.00     0.134 A 
ATOM     58  C   UNL A   1      46.108  33.407  30.465  1.00  0.00     0.134 A 
ATOM     59  F   UNL A   1      44.480  34.295  27.338  1.00  0.00    -0.206 F 
ATOM     60  C   UNL A   1      45.778  35.604  28.793  1.00  0.00     0.040 A 
ATOM     61  C   UNL A   1      46.682  34.630  30.806  1.00  0.00     0.040 A 
ATOM     62  F   UNL A   1      46.291  32.369  31.295  1.00  0.00    -0.206 F 
ATOM     63  C   UNL A   1      46.523  35.731  29.966  1.00  0.00     0.006 A 
ENDBRANCH  39  56
ENDBRANCH  13  14
ENDBRANCH   6   8
ENDBRANCH   5   6
ENDBRANCH   4   5
ENDBRANCH   3   4
ENDBRANCH   2   3
ENDBRANCH   1   2
BRANCH   1  64
ATOM     64  C   UNL A   1      33.746  23.600  25.895  1.00  0.00     0.261 C 
BRANCH  64  65
ATOM     65  O   UNL A   1      33.392  24.940  26.280  1.00  0.00    -0.459 OA
BRANCH  65  66
ATOM     66  C   UNL A   1      32.087  25.279  26.112  1.00  0.00     0.365 C 
ATOM     67  O   UNL A   1      31.187  24.998  26.897  1.00  0.00    -0.245 OA
BRANCH  66  68
ATOM     68  C   UNL A   1      31.838  26.042  24.802  1.00  0.00     0.298 C 
ATOM     69  C   UNL A   1      30.452  26.739  24.752  1.00  0.00     0.115 C 
ATOM     70  N   UNL A   1      33.049  26.801  24.404  1.00  0.00    -0.323 N 
ATOM     71  C   UNL A   1      30.466  27.935  23.897  1.00  0.00    -0.006 A 
ATOM     72  C   UNL A   1      32.958  28.261  24.314  1.00  0.00     0.262 C 
ATOM     73  H   UNL A   1      33.330  26.460  23.485  1.00  0.00     0.347 HD
ATOM     74  H   UNL A   1      33.710  26.637  25.163  1.00  0.00     0.347 HD
ATOM     75  C   UNL A   1      31.641  28.612  23.694  1.00  0.00     0.083 A 
ATOM     76  C   UNL A   1      29.423  28.614  23.227  1.00  0.00     0.003 A 
ATOM     77  N   UNL A   1      31.373  29.654  22.848  1.00  0.00    -0.353 N 
ATOM     78  C   UNL A   1      30.017  29.699  22.580  1.00  0.00     0.046 A 
ATOM     79  C   UNL A   1      28.031  28.423  23.117  1.00  0.00     0.010 A 
ATOM     80  H   UNL A   1      32.044  30.278  22.486  1.00  0.00     0.166 HD
ATOM     81  C   UNL A   1      29.274  30.611  21.823  1.00  0.00     0.026 A 
ATOM     82  C   UNL A   1      27.278  29.327  22.362  1.00  0.00     0.001 A 
ATOM     83  C   UNL A   1      27.893  30.403  21.727  1.00  0.00     0.002 A 
BRANCH  72  84
ATOM     84  C   UNL A   1      33.263  28.997  25.625  1.00  0.00     0.016 A 
ATOM     85  C   UNL A   1      32.363  29.918  26.188  1.00  0.00     0.014 A 
ATOM     86  C   UNL A   1      34.532  28.898  26.223  1.00  0.00     0.014 A 
ATOM     87  C   UNL A   1      32.738  30.746  27.250  1.00  0.00     0.047 A 
ATOM     88  C   UNL A   1      34.902  29.717  27.303  1.00  0.00     0.047 A 
ATOM     89  C   UNL A   1      34.018  30.672  27.797  1.00  0.00     0.129 A 
BRANCH  89  90
ATOM     90  O   UNL A   1      34.267  31.590  28.775  1.00  0.00    -0.406 OA
BRANCH  90  91
ATOM     91  C   UNL A   1      34.573  32.914  28.375  1.00  0.00     0.573 C 
ATOM     92  F   UNL A   1      34.714  33.718  29.450  1.00  0.00    -0.132 F 
ATOM     93  F   UNL A   1      35.696  32.961  27.625  1.00  0.00    -0.132 F 
ATOM     94  F   UNL A   1      33.552  33.387  27.625  1.00  0.00    -0.132 F 
ENDBRANCH  90  91
ENDBRANCH  89  90
ENDBRANCH  72  84
ENDBRANCH  66  68
ENDBRANCH  65  66
ENDBRANCH  64  65
ENDBRANCH   1  64
TORSDOF 17
ENDMDL
MODEL 3
REMARK VINA RESULT:     -11.9      2.543      3.600
REMARK SMILES O=C(OCCOCCOC(=O)[C@H]1Cc2c([nH]c3ccccc23)[C@@H](c2ccc(OC(F)(F)F)cc2)[NH2+]1)c1ccc(-c2c3nc(c(-c4c(F)cccc4F)c4ccc([nH]4)c(-c4c(F)cccc4F)c4nc(c(-c5c(F)cccc5F)c5ccc2[nH]5)C=C4)C=C3)cc1
REMARK SMILES IDX 7 1 6 2 5 3 4 4 3 5 2 6 1 7 36 8 37 9 89 10 38 11 88 12
REMARK SMILES IDX 39 13 40 14 41 15 82 16 42 17 87 18 81 19 83 20 43 21 86 22
REMARK SMILES IDX 80 23 79 24 44 26 70 27 53 28 69 29 54 30 57 31 68 32 84 33
REMARK SMILES IDX 55 34 56 35 67 37 85 38 58 39 45 40 46 41 51 42 47 43 48 44
REMARK SMILES IDX 50 45 52 46 49 47 71 48 72 49 77 50 73 51 74 52 76 53 78 54
REMARK SMILES IDX 75 55 59 56 60 57 65 58 61 59 62 60 64 61 66 62 63 63 8 64
REMARK SMILES IDX 9 65 10 66 11 67 12 68 13 69 35 70 14 71 23 72 15 75 22 76
REMARK SMILES IDX 16 77 17 78 21 79 18 81 20 82 19 83 24 84 25 85 34 86 26 87
REMARK SMILES IDX 33 88 27 89 28 90 29 91 30 92 31 93 32 94
REMARK H PARENT 83 25 57 36 35 73 35 74 16 80
REMARK Flexibility Score: inf
ROOT
ATOM      1  C   UNL A   1      34.467  23.173  23.510  1.00  0.00     0.202 C 
ENDROOT
BRANCH   1   2
ATOM      2  O   UNL A   1      33.933  22.001  24.141  1.00  0.00    -0.374 OA
BRANCH   2   3
ATOM      3  C   UNL A   1      34.896  21.170  24.793  1.00  0.00     0.202 C 
BRANCH   3   4
ATOM      4  C   UNL A   1      36.378  21.505  24.575  1.00  0.00     0.261 C 
BRANCH   4   5
ATOM      5  O   UNL A   1      37.116  21.348  25.799  1.00  0.00    -0.460 OA
BRANCH   5   6
ATOM      6  C   UNL A   1      38.453  21.455  25.988  1.00  0.00     0.338 C 
ATOM      7  O   UNL A   1      39.171  20.489  25.750  1.00  0.00    -0.246 OA
BRANCH   6   8
ATOM      8  C   UNL A   1      39.099  22.723  26.431  1.00  0.00     0.060 A 
ATOM      9  C   UNL A   1      38.616  23.992  26.126  1.00  0.00     0.016 A 
ATOM     10  C   UNL A   1      40.244  22.631  27.238  1.00  0.00     0.016 A 
ATOM     11  C   UNL A   1      39.282  25.134  26.496  1.00  0.00     0.010 A 
ATOM     12  C   UNL A   1      40.903  23.787  27.672  1.00  0.00     0.010 A 
ATOM     13  C   UNL A   1      40.428  25.038  27.269  1.00  0.00    -0.014 A 
BRANCH  13  14
ATOM     14  C   UNL A   1      41.147  26.301  27.466  1.00  0.00     0.031 A 
ATOM     15  C   UNL A   1      40.547  27.302  28.399  1.00  0.00     0.074 A 
ATOM     16  C   UNL A   1      42.420  26.384  27.039  1.00  0.00     0.049 A 
ATOM     17  N   UNL A   1      41.018  28.451  28.791  1.00  0.00    -0.248 NA
ATOM     18  C   UNL A   1      39.249  26.943  29.001  1.00  0.00     0.031 C 
ATOM     19  C   UNL A   1      43.130  25.335  26.297  1.00  0.00     0.029 A 
ATOM     20  N   UNL A   1      43.366  27.348  27.236  1.00  0.00    -0.354 N 
ATOM     21  C   UNL A   1      40.056  28.974  29.644  1.00  0.00     0.074 A 
ATOM     22  C   UNL A   1      38.984  28.011  29.734  1.00  0.00     0.031 C 
ATOM     23  C   UNL A   1      44.413  25.693  26.150  1.00  0.00     0.029 A 
ATOM     24  C   UNL A   1      44.591  27.029  26.704  1.00  0.00     0.049 A 
ATOM     25  H   UNL A   1      43.188  28.191  27.714  1.00  0.00     0.167 HD
ATOM     26  C   UNL A   1      40.074  30.170  30.273  1.00  0.00     0.037 A 
ATOM     27  C   UNL A   1      45.715  27.765  26.647  1.00  0.00     0.037 A 
ATOM     28  C   UNL A   1      41.173  31.088  30.161  1.00  0.00     0.049 A 
ATOM     29  C   UNL A   1      45.666  29.136  27.258  1.00  0.00     0.074 A 
ATOM     30  C   UNL A   1      41.290  32.371  30.659  1.00  0.00     0.029 A 
ATOM     31  N   UNL A   1      42.360  30.801  29.495  1.00  0.00    -0.354 N 
ATOM     32  N   UNL A   1      44.706  29.692  27.960  1.00  0.00    -0.248 NA
ATOM     33  C   UNL A   1      46.836  29.993  27.046  1.00  0.00     0.031 C 
ATOM     34  C   UNL A   1      42.533  32.875  30.256  1.00  0.00     0.029 A 
ATOM     35  C   UNL A   1      43.209  31.889  29.551  1.00  0.00     0.049 A 
ATOM     36  H   UNL A   1      42.564  29.947  29.049  1.00  0.00     0.167 HD
ATOM     37  C   UNL A   1      45.157  30.961  28.287  1.00  0.00     0.074 A 
ATOM     38  C   UNL A   1      46.490  31.080  27.722  1.00  0.00     0.031 C 
ATOM     39  C   UNL A   1      44.533  31.946  28.979  1.00  0.00     0.037 A 
BRANCH  26  40
ATOM     40  C   UNL A   1      38.830  30.562  31.012  1.00  0.00     0.057 A 
ATOM     41  C   UNL A   1      37.771  31.246  30.402  1.00  0.00     0.134 A 
ATOM     42  C   UNL A   1      38.730  30.312  32.386  1.00  0.00     0.134 A 
ATOM     43  F   UNL A   1      37.821  31.553  29.096  1.00  0.00    -0.206 F 
ATOM     44  C   UNL A   1      36.672  31.694  31.140  1.00  0.00     0.040 A 
ATOM     45  C   UNL A   1      37.627  30.734  33.129  1.00  0.00     0.040 A 
ATOM     46  F   UNL A   1      39.717  29.676  33.036  1.00  0.00    -0.206 F 
ATOM     47  C   UNL A   1      36.598  31.437  32.508  1.00  0.00     0.006 A 
ENDBRANCH  26  40
BRANCH  27  48
ATOM     48  C   UNL A   1      46.920  27.258  25.940  1.00  0.00     0.057 A 
ATOM     49  C   UNL A   1      47.912  26.534  26.607  1.00  0.00     0.134 A 
ATOM     50  C   UNL A   1      47.116  27.502  24.572  1.00  0.00     0.134 A 
ATOM     51  F   UNL A   1      47.798  26.280  27.919  1.00  0.00    -0.206 F 
ATOM     52  C   UNL A   1      49.060  26.082  25.948  1.00  0.00     0.040 A 
ATOM     53  C   UNL A   1      48.242  27.032  23.894  1.00  0.00     0.040 A 
ATOM     54  F   UNL A   1      46.207  28.192  23.868  1.00  0.00    -0.206 F 
ATOM     55  C   UNL A   1      49.223  26.326  24.585  1.00  0.00     0.006 A 
ENDBRANCH  27  48
BRANCH  39  56
ATOM     56  C   UNL A   1      45.311  33.207  29.190  1.00  0.00     0.057 A 
ATOM     57  C   UNL A   1      46.167  33.370  30.285  1.00  0.00     0.134 A 
ATOM     58  C   UNL A   1      45.223  34.253  28.264  1.00  0.00     0.134 A 
ATOM     59  F   UNL A   1      46.278  32.407  31.213  1.00  0.00    -0.206 F 
ATOM     60  C   UNL A   1      46.896  34.546  30.464  1.00  0.00     0.040 A 
ATOM     61  C   UNL A   1      45.968  35.420  28.417  1.00  0.00     0.040 A 
ATOM     62  F   UNL A   1      44.425  34.148  27.190  1.00  0.00    -0.206 F 
ATOM     63  C   UNL A   1      46.803  35.571  29.523  1.00  0.00     0.006 A 
ENDBRANCH  39  56
ENDBRANCH  13  14
ENDBRANCH   6   8
ENDBRANCH   5   6
ENDBRANCH   4   5
ENDBRANCH   3   4
ENDBRANCH   2   3
ENDBRANCH   1   2
BRANCH   1  64
ATOM     64  C   UNL A   1      33.346  24.030  22.923  1.00  0.00     0.261 C 
BRANCH  64  65
ATOM     65  O   UNL A   1      33.837  25.372  22.764  1.00  0.00    -0.459 OA
BRANCH  65  66
ATOM     66  C   UNL A   1      33.314  26.075  21.726  1.00  0.00     0.365 C 
ATOM     67  O   UNL A   1      33.153  25.629  20.594  1.00  0.00    -0.245 OA
BRANCH  66  68
ATOM     68  C   UNL A   1      32.960  27.520  22.108  1.00  0.00     0.298 C 
ATOM     69  C   UNL A   1      31.475  27.880  21.840  1.00  0.00     0.115 C 
ATOM     70  N   UNL A   1      33.573  27.879  23.411  1.00  0.00    -0.323 N 
ATOM     71  C   UNL A   1      30.985  28.922  22.754  1.00  0.00    -0.006 A 
ATOM     72  C   UNL A   1      32.686  28.236  24.522  1.00  0.00     0.262 C 
ATOM     73  H   UNL A   1      34.186  28.677  23.246  1.00  0.00     0.347 HD
ATOM     74  H   UNL A   1      34.029  27.020  23.719  1.00  0.00     0.347 HD
ATOM     75  C   UNL A   1      31.574  29.081  23.982  1.00  0.00     0.083 A 
ATOM     76  C   UNL A   1      29.914  29.836  22.637  1.00  0.00     0.003 A 
ATOM     77  N   UNL A   1      30.947  30.126  24.605  1.00  0.00    -0.353 N 
ATOM     78  C   UNL A   1      29.904  30.579  23.819  1.00  0.00     0.046 A 
ATOM     79  C   UNL A   1      28.942  30.098  21.650  1.00  0.00     0.010 A 
ATOM     80  H   UNL A   1      31.201  30.498  25.481  1.00  0.00     0.166 HD
ATOM     81  C   UNL A   1      28.956  31.578  24.062  1.00  0.00     0.026 A 
ATOM     82  C   UNL A   1      27.990  31.095  21.880  1.00  0.00     0.001 A 
ATOM     83  C   UNL A   1      27.999  31.821  23.069  1.00  0.00     0.002 A 
BRANCH  72  84
ATOM     84  C   UNL A   1      32.230  27.047  25.375  1.00  0.00     0.016 A 
ATOM     85  C   UNL A   1      33.140  26.113  25.898  1.00  0.00     0.014 A 
ATOM     86  C   UNL A   1      30.862  26.756  25.525  1.00  0.00     0.014 A 
ATOM     87  C   UNL A   1      32.706  24.918  26.479  1.00  0.00     0.047 A 
ATOM     88  C   UNL A   1      30.425  25.564  26.126  1.00  0.00     0.047 A 
ATOM     89  C   UNL A   1      31.347  24.621  26.572  1.00  0.00     0.129 A 
BRANCH  89  90
ATOM     90  O   UNL A   1      31.074  23.390  27.091  1.00  0.00    -0.406 OA
BRANCH  90  91
ATOM     91  C   UNL A   1      30.729  22.355  26.188  1.00  0.00     0.573 C 
ATOM     92  F   UNL A   1      29.526  21.828  26.501  1.00  0.00    -0.132 F 
ATOM     93  F   UNL A   1      30.712  22.793  24.910  1.00  0.00    -0.132 F 
ATOM     94  F   UNL A   1      31.655  21.374  26.280  1.00  0.00    -0.132 F 
ENDBRANCH  90  91
ENDBRANCH  89  90
ENDBRANCH  72  84
ENDBRANCH  66  68
ENDBRANCH  65  66
ENDBRANCH  64  65
ENDBRANCH   1  64
TORSDOF 17
ENDMDL
