MODEL 1
REMARK VINA RESULT:     -10.7      0.000      0.000
REMARK SMILES [NH3+][C@H]1C=C[C@@H](C(=O)N2CCC(CC(=O)OCCOCCOC(=O)c3ccc(-c4c5nc(c(-c6c(F)cccc6F)c6ccc([nH]6)c(-c6c(F)cccc6F)c6nc(c(-c7c(F)cccc7F)c7ccc4[nH]7)C=C6)C=C5)cc3)CC2)C1
REMARK SMILES IDX 17 1 16 2 15 3 13 4 14 5 12 6 11 7 6 8 7 9 8 10 9 11 79 12
REMARK SMILES IDX 10 13 78 14 5 15 2 16 3 17 80 18 4 19 1 20 18 24 19 25 20 26
REMARK SMILES IDX 21 27 22 28 23 29 24 30 25 31 77 32 26 33 76 34 27 35 28 36
REMARK SMILES IDX 29 37 70 38 30 39 75 40 69 41 71 42 31 43 74 44 68 45 67 46
REMARK SMILES IDX 32 48 58 49 41 50 57 51 42 52 45 53 56 54 72 55 43 56 44 57
REMARK SMILES IDX 55 59 73 60 46 61 33 62 34 63 39 64 35 65 36 66 38 67 40 68
REMARK SMILES IDX 37 69 59 70 60 71 65 72 61 73 62 74 64 75 66 76 63 77 47 78
REMARK SMILES IDX 48 79 53 80 49 81 50 82 52 83 54 84 51 85
REMARK H PARENT 1 21 1 22 1 23 71 47 45 58
REMARK Flexibility Score: inf
ROOT
ATOM      1  C   UNL A   1      33.420  30.461  26.871  1.00  0.00     0.202 C 
ENDROOT
BRANCH   1   2
ATOM      2  C   UNL A   1      34.027  29.239  27.563  1.00  0.00     0.261 C 
BRANCH   2   3
ATOM      3  O   UNL A   1      33.839  28.054  26.764  1.00  0.00    -0.463 OA
BRANCH   3   4
ATOM      4  C   UNL A   1      32.641  27.430  26.875  1.00  0.00     0.306 C 
ATOM      5  O   UNL A   1      31.913  27.482  27.859  1.00  0.00    -0.252 OA
BRANCH   4   6
ATOM      6  C   UNL A   1      32.300  26.593  25.659  1.00  0.00     0.126 C 
BRANCH   6   7
ATOM      7  C   UNL A   1      31.909  27.330  24.360  1.00  0.00     0.003 C 
ATOM      8  C   UNL A   1      28.478  28.833  23.055  1.00  0.00     0.229 C 
ATOM      9  O   UNL A   1      27.828  27.879  23.499  1.00  0.00    -0.274 OA
ATOM     10  N   UNL A   1      29.840  28.702  22.814  1.00  0.00    -0.342 N 
ATOM     11  C   UNL A   1      30.322  27.398  22.379  1.00  0.00     0.120 C 
ATOM     12  C   UNL A   1      30.845  29.498  23.500  1.00  0.00     0.120 C 
ATOM     13  C   UNL A   1      30.844  26.567  23.550  1.00  0.00     0.026 C 
ATOM     14  C   UNL A   1      31.388  28.741  24.715  1.00  0.00     0.026 C 
BRANCH   8  15
ATOM     15  C   UNL A   1      27.723  30.068  22.523  1.00  0.00     0.107 C 
ATOM     16  C   UNL A   1      27.946  32.511  22.301  1.00  0.00     0.205 C 
ATOM     17  C   UNL A   1      28.402  31.800  21.076  1.00  0.00     0.033 C 
ATOM     18  C   UNL A   1      27.683  31.379  23.312  1.00  0.00     0.087 C 
ATOM     19  C   UNL A   1      28.275  30.476  21.186  1.00  0.00    -0.012 C 
BRANCH  16  20
ATOM     20  N   UNL A   1      28.955  33.453  22.752  1.00  0.00    -0.352 N 
ATOM     21  H   UNL A   1      28.502  34.238  23.220  1.00  0.00     0.345 HD
ATOM     22  H   UNL A   1      29.482  33.795  21.949  1.00  0.00     0.345 HD
ATOM     23  H   UNL A   1      29.588  32.989  23.402  1.00  0.00     0.345 HD
ENDBRANCH  16  20
ENDBRANCH   8  15
ENDBRANCH   6   7
ENDBRANCH   4   6
ENDBRANCH   3   4
ENDBRANCH   2   3
ENDBRANCH   1   2
BRANCH   1  24
ATOM     24  O   UNL A   1      32.111  30.828  27.310  1.00  0.00    -0.374 OA
BRANCH  24  25
ATOM     25  C   UNL A   1      31.527  31.980  26.705  1.00  0.00     0.202 C 
BRANCH  25  26
ATOM     26  C   UNL A   1      32.338  33.275  26.826  1.00  0.00     0.261 C 
BRANCH  26  27
ATOM     27  O   UNL A   1      32.224  33.866  28.135  1.00  0.00    -0.460 OA
BRANCH  27  28
ATOM     28  C   UNL A   1      33.308  34.575  28.530  1.00  0.00     0.338 C 
ATOM     29  O   UNL A   1      33.366  35.778  28.753  1.00  0.00    -0.246 OA
BRANCH  28  30
ATOM     30  C   UNL A   1      34.430  33.669  28.832  1.00  0.00     0.060 A 
ATOM     31  C   UNL A   1      34.155  32.534  29.605  1.00  0.00     0.016 A 
ATOM     32  C   UNL A   1      35.739  33.956  28.436  1.00  0.00     0.016 A 
ATOM     33  C   UNL A   1      35.193  31.707  30.031  1.00  0.00     0.010 A 
ATOM     34  C   UNL A   1      36.781  33.129  28.872  1.00  0.00     0.010 A 
ATOM     35  C   UNL A   1      36.517  32.023  29.699  1.00  0.00    -0.014 A 
BRANCH  35  36
ATOM     36  C   UNL A   1      37.631  31.283  30.339  1.00  0.00     0.031 A 
ATOM     37  C   UNL A   1      37.979  31.588  31.771  1.00  0.00     0.074 A 
ATOM     38  C   UNL A   1      38.318  30.345  29.665  1.00  0.00     0.049 A 
ATOM     39  N   UNL A   1      38.956  31.120  32.506  1.00  0.00    -0.248 NA
ATOM     40  C   UNL A   1      37.111  32.552  32.466  1.00  0.00     0.031 C 
ATOM     41  C   UNL A   1      38.053  29.930  28.288  1.00  0.00     0.029 A 
ATOM     42  N   UNL A   1      39.393  29.581  30.047  1.00  0.00    -0.354 N 
ATOM     43  C   UNL A   1      38.830  31.743  33.741  1.00  0.00     0.074 A 
ATOM     44  C   UNL A   1      37.694  32.634  33.654  1.00  0.00     0.031 C 
ATOM     45  C   UNL A   1      38.959  29.002  27.932  1.00  0.00     0.029 A 
ATOM     46  C   UNL A   1      39.885  28.784  29.043  1.00  0.00     0.049 A 
ATOM     47  H   UNL A   1      39.775  29.604  30.954  1.00  0.00     0.167 HD
ATOM     48  C   UNL A   1      39.591  31.583  34.850  1.00  0.00     0.037 A 
ATOM     49  C   UNL A   1      40.977  27.995  29.014  1.00  0.00     0.037 A 
ATOM     50  C   UNL A   1      40.711  30.685  34.941  1.00  0.00     0.049 A 
ATOM     51  C   UNL A   1      41.843  27.879  30.241  1.00  0.00     0.074 A 
ATOM     52  C   UNL A   1      41.518  30.425  36.035  1.00  0.00     0.029 A 
ATOM     53  N   UNL A   1      41.186  29.906  33.898  1.00  0.00    -0.354 N 
ATOM     54  N   UNL A   1      41.696  28.447  31.413  1.00  0.00    -0.248 NA
ATOM     55  C   UNL A   1      43.028  27.014  30.139  1.00  0.00     0.031 C 
ATOM     56  C   UNL A   1      42.511  29.524  35.640  1.00  0.00     0.029 A 
ATOM     57  C   UNL A   1      42.293  29.188  34.314  1.00  0.00     0.049 A 
ATOM     58  H   UNL A   1      40.794  29.869  32.995  1.00  0.00     0.167 HD
ATOM     59  C   UNL A   1      42.749  27.988  32.194  1.00  0.00     0.074 A 
ATOM     60  C   UNL A   1      43.525  27.089  31.366  1.00  0.00     0.031 C 
ATOM     61  C   UNL A   1      43.046  28.284  33.483  1.00  0.00     0.037 A 
BRANCH  48  62
ATOM     62  C   UNL A   1      39.256  32.417  36.048  1.00  0.00     0.057 A 
ATOM     63  C   UNL A   1      39.799  33.694  36.239  1.00  0.00     0.134 A 
ATOM     64  C   UNL A   1      38.338  31.955  37.000  1.00  0.00     0.134 A 
ATOM     65  F   UNL A   1      40.693  34.189  35.370  1.00  0.00    -0.206 F 
ATOM     66  C   UNL A   1      39.452  34.476  37.342  1.00  0.00     0.040 A 
ATOM     67  C   UNL A   1      37.965  32.735  38.095  1.00  0.00     0.040 A 
ATOM     68  F   UNL A   1      37.778  30.742  36.873  1.00  0.00    -0.206 F 
ATOM     69  C   UNL A   1      38.526  33.999  38.270  1.00  0.00     0.006 A 
ENDBRANCH  48  62
BRANCH  49  70
ATOM     70  C   UNL A   1      41.336  27.272  27.768  1.00  0.00     0.057 A 
ATOM     71  C   UNL A   1      42.089  27.885  26.762  1.00  0.00     0.134 A 
ATOM     72  C   UNL A   1      40.911  25.956  27.546  1.00  0.00     0.134 A 
ATOM     73  F   UNL A   1      42.504  29.153  26.905  1.00  0.00    -0.206 F 
ATOM     74  C   UNL A   1      42.394  27.223  25.570  1.00  0.00     0.040 A 
ATOM     75  C   UNL A   1      41.229  25.274  26.371  1.00  0.00     0.040 A 
ATOM     76  F   UNL A   1      40.184  25.314  28.472  1.00  0.00    -0.206 F 
ATOM     77  C   UNL A   1      41.966  25.911  25.376  1.00  0.00     0.006 A 
ENDBRANCH  49  70
BRANCH  61  78
ATOM     78  C   UNL A   1      44.234  27.602  34.097  1.00  0.00     0.057 A 
ATOM     79  C   UNL A   1      45.496  28.206  34.130  1.00  0.00     0.134 A 
ATOM     80  C   UNL A   1      44.094  26.356  34.721  1.00  0.00     0.134 A 
ATOM     81  F   UNL A   1      45.697  29.394  33.541  1.00  0.00    -0.206 F 
ATOM     82  C   UNL A   1      46.582  27.588  34.753  1.00  0.00     0.040 A 
ATOM     83  C   UNL A   1      45.166  25.740  35.366  1.00  0.00     0.040 A 
ATOM     84  F   UNL A   1      42.907  25.729  34.732  1.00  0.00    -0.206 F 
ATOM     85  C   UNL A   1      46.416  26.355  35.381  1.00  0.00     0.006 A 
ENDBRANCH  61  78
ENDBRANCH  35  36
ENDBRANCH  28  30
ENDBRANCH  27  28
ENDBRANCH  26  27
ENDBRANCH  25  26
ENDBRANCH  24  25
ENDBRANCH   1  24
TORSDOF 17
ENDMDL
MODEL 2
REMARK VINA RESULT:     -10.7      0.502      6.274
REMARK SMILES [NH3+][C@H]1C=C[C@@H](C(=O)N2CCC(CC(=O)OCCOCCOC(=O)c3ccc(-c4c5nc(c(-c6c(F)cccc6F)c6ccc([nH]6)c(-c6c(F)cccc6F)c6nc(c(-c7c(F)cccc7F)c7ccc4[nH]7)C=C6)C=C5)cc3)CC2)C1
REMARK SMILES IDX 17 1 16 2 15 3 13 4 14 5 12 6 11 7 6 8 7 9 8 10 9 11 79 12
REMARK SMILES IDX 10 13 78 14 5 15 2 16 3 17 80 18 4 19 1 20 18 24 19 25 20 26
REMARK SMILES IDX 21 27 22 28 23 29 24 30 25 31 77 32 26 33 76 34 27 35 28 36
REMARK SMILES IDX 29 37 70 38 30 39 75 40 69 41 71 42 31 43 74 44 68 45 67 46
REMARK SMILES IDX 32 48 58 49 41 50 57 51 42 52 45 53 56 54 72 55 43 56 44 57
REMARK SMILES IDX 55 59 73 60 46 61 33 62 34 63 39 64 35 65 36 66 38 67 40 68
REMARK SMILES IDX 37 69 59 70 60 71 65 72 61 73 62 74 64 75 66 76 63 77 47 78
REMARK SMILES IDX 48 79 53 80 49 81 50 82 52 83 54 84 51 85
REMARK H PARENT 1 21 1 22 1 23 71 47 45 58
REMARK Flexibility Score: inf
ROOT
ATOM      1  C   UNL A   1      33.470  30.449  26.937  1.00  0.00     0.202 C 
ENDROOT
BRANCH   1   2
ATOM      2  C   UNL A   1      34.038  29.192  27.599  1.00  0.00     0.261 C 
BRANCH   2   3
ATOM      3  O   UNL A   1      33.848  28.040  26.754  1.00  0.00    -0.463 OA
BRANCH   3   4
ATOM      4  C   UNL A   1      32.655  27.404  26.854  1.00  0.00     0.306 C 
ATOM      5  O   UNL A   1      31.920  27.444  27.832  1.00  0.00    -0.252 OA
BRANCH   4   6
ATOM      6  C   UNL A   1      32.331  26.570  25.631  1.00  0.00     0.126 C 
BRANCH   6   7
ATOM      7  C   UNL A   1      31.929  27.308  24.336  1.00  0.00     0.003 C 
ATOM      8  C   UNL A   1      28.470  28.748  23.033  1.00  0.00     0.229 C 
ATOM      9  O   UNL A   1      27.840  27.777  23.467  1.00  0.00    -0.274 OA
ATOM     10  N   UNL A   1      29.836  28.648  22.795  1.00  0.00    -0.342 N 
ATOM     11  C   UNL A   1      30.346  27.358  22.351  1.00  0.00     0.120 C 
ATOM     12  C   UNL A   1      30.821  29.460  23.490  1.00  0.00     0.120 C 
ATOM     13  C   UNL A   1      30.883  26.529  23.517  1.00  0.00     0.026 C 
ATOM     14  C   UNL A   1      31.377  28.704  24.701  1.00  0.00     0.026 C 
BRANCH   8  15
ATOM     15  C   UNL A   1      27.692  29.972  22.508  1.00  0.00     0.107 C 
ATOM     16  C   UNL A   1      27.850  32.423  22.332  1.00  0.00     0.205 C 
ATOM     17  C   UNL A   1      28.347  31.746  21.104  1.00  0.00     0.033 C 
ATOM     18  C   UNL A   1      27.601  31.267  23.318  1.00  0.00     0.087 C 
ATOM     19  C   UNL A   1      28.255  30.417  21.188  1.00  0.00    -0.012 C 
BRANCH  16  20
ATOM     20  N   UNL A   1      28.825  33.385  22.816  1.00  0.00    -0.352 N 
ATOM     21  H   UNL A   1      29.415  32.944  23.521  1.00  0.00     0.345 HD
ATOM     22  H   UNL A   1      28.339  34.181  23.230  1.00  0.00     0.345 HD
ATOM     23  H   UNL A   1      29.402  33.704  22.040  1.00  0.00     0.345 HD
ENDBRANCH  16  20
ENDBRANCH   8  15
ENDBRANCH   6   7
ENDBRANCH   4   6
ENDBRANCH   3   4
ENDBRANCH   2   3
ENDBRANCH   1   2
BRANCH   1  24
ATOM     24  O   UNL A   1      32.114  30.757  27.264  1.00  0.00    -0.374 OA
BRANCH  24  25
ATOM     25  C   UNL A   1      31.559  31.931  26.676  1.00  0.00     0.202 C 
BRANCH  25  26
ATOM     26  C   UNL A   1      32.371  33.217  26.868  1.00  0.00     0.261 C 
BRANCH  26  27
ATOM     27  O   UNL A   1      32.172  33.794  28.173  1.00  0.00    -0.460 OA
BRANCH  27  28
ATOM     28  C   UNL A   1      33.157  34.631  28.576  1.00  0.00     0.338 C 
ATOM     29  O   UNL A   1      33.074  35.839  28.761  1.00  0.00    -0.246 OA
BRANCH  28  30
ATOM     30  C   UNL A   1      34.363  33.866  28.939  1.00  0.00     0.060 A 
ATOM     31  C   UNL A   1      34.186  32.712  29.714  1.00  0.00     0.016 A 
ATOM     32  C   UNL A   1      35.646  34.301  28.599  1.00  0.00     0.016 A 
ATOM     33  C   UNL A   1      35.293  32.016  30.196  1.00  0.00     0.010 A 
ATOM     34  C   UNL A   1      36.756  33.605  29.092  1.00  0.00     0.010 A 
ATOM     35  C   UNL A   1      36.585  32.482  29.921  1.00  0.00    -0.014 A 
BRANCH  35  36
ATOM     36  C   UNL A   1      37.748  31.884  30.620  1.00  0.00     0.031 A 
ATOM     37  C   UNL A   1      38.544  30.814  29.924  1.00  0.00     0.074 A 
ATOM     38  C   UNL A   1      38.101  32.293  31.851  1.00  0.00     0.049 A 
ATOM     39  N   UNL A   1      39.549  30.104  30.371  1.00  0.00    -0.248 NA
ATOM     40  C   UNL A   1      38.153  30.501  28.541  1.00  0.00     0.031 C 
ATOM     41  C   UNL A   1      37.436  33.347  32.615  1.00  0.00     0.029 A 
ATOM     42  N   UNL A   1      39.102  31.854  32.682  1.00  0.00    -0.354 N 
ATOM     43  C   UNL A   1      39.898  29.251  29.332  1.00  0.00     0.074 A 
ATOM     44  C   UNL A   1      38.990  29.519  28.238  1.00  0.00     0.031 C 
ATOM     45  C   UNL A   1      38.033  33.457  33.814  1.00  0.00     0.029 A 
ATOM     46  C   UNL A   1      39.098  32.460  33.914  1.00  0.00     0.049 A 
ATOM     47  H   UNL A   1      39.759  31.169  32.420  1.00  0.00     0.167 HD
ATOM     48  C   UNL A   1      40.890  28.330  29.291  1.00  0.00     0.037 A 
ATOM     49  C   UNL A   1      39.847  32.215  35.007  1.00  0.00     0.037 A 
ATOM     50  C   UNL A   1      41.804  28.075  30.374  1.00  0.00     0.049 A 
ATOM     51  C   UNL A   1      40.904  31.144  34.959  1.00  0.00     0.074 A 
ATOM     52  C   UNL A   1      42.866  27.189  30.412  1.00  0.00     0.029 A 
ATOM     53  N   UNL A   1      41.757  28.700  31.610  1.00  0.00    -0.354 N 
ATOM     54  N   UNL A   1      41.248  30.367  33.961  1.00  0.00    -0.248 NA
ATOM     55  C   UNL A   1      41.676  30.915  36.190  1.00  0.00     0.031 C 
ATOM     56  C   UNL A   1      43.434  27.244  31.688  1.00  0.00     0.029 A 
ATOM     57  C   UNL A   1      42.754  28.198  32.428  1.00  0.00     0.049 A 
ATOM     58  H   UNL A   1      41.112  29.397  31.868  1.00  0.00     0.167 HD
ATOM     59  C   UNL A   1      42.291  29.579  34.433  1.00  0.00     0.074 A 
ATOM     60  C   UNL A   1      42.530  29.976  35.804  1.00  0.00     0.031 C 
ATOM     61  C   UNL A   1      42.990  28.614  33.786  1.00  0.00     0.037 A 
BRANCH  48  62
ATOM     62  C   UNL A   1      41.025  27.508  28.046  1.00  0.00     0.057 A 
ATOM     63  C   UNL A   1      40.350  26.293  27.883  1.00  0.00     0.134 A 
ATOM     64  C   UNL A   1      41.805  27.966  26.975  1.00  0.00     0.134 A 
ATOM     65  F   UNL A   1      39.598  25.794  28.876  1.00  0.00    -0.206 F 
ATOM     66  C   UNL A   1      40.457  25.553  26.703  1.00  0.00     0.040 A 
ATOM     67  C   UNL A   1      41.901  27.248  25.783  1.00  0.00     0.040 A 
ATOM     68  F   UNL A   1      42.473  29.125  27.067  1.00  0.00    -0.206 F 
ATOM     69  C   UNL A   1      41.228  26.035  25.646  1.00  0.00     0.006 A 
ENDBRANCH  48  62
BRANCH  49  70
ATOM     70  C   UNL A   1      39.604  32.976  36.258  1.00  0.00     0.057 A 
ATOM     71  C   UNL A   1      40.320  34.142  36.553  1.00  0.00     0.134 A 
ATOM     72  C   UNL A   1      38.665  32.540  37.201  1.00  0.00     0.134 A 
ATOM     73  F   UNL A   1      41.251  34.596  35.701  1.00  0.00    -0.206 F 
ATOM     74  C   UNL A   1      40.124  34.838  37.748  1.00  0.00     0.040 A 
ATOM     75  C   UNL A   1      38.441  33.239  38.388  1.00  0.00     0.040 A 
ATOM     76  F   UNL A   1      37.948  31.429  36.978  1.00  0.00    -0.206 F 
ATOM     77  C   UNL A   1      39.177  34.388  38.667  1.00  0.00     0.006 A 
ENDBRANCH  49  70
BRANCH  61  78
ATOM     78  C   UNL A   1      44.106  27.946  34.534  1.00  0.00     0.057 A 
ATOM     79  C   UNL A   1      43.908  26.762  35.254  1.00  0.00     0.134 A 
ATOM     80  C   UNL A   1      45.409  28.459  34.475  1.00  0.00     0.134 A 
ATOM     81  F   UNL A   1      42.683  26.226  35.357  1.00  0.00    -0.206 F 
ATOM     82  C   UNL A   1      44.965  26.117  35.899  1.00  0.00     0.040 A 
ATOM     83  C   UNL A   1      46.476  27.811  35.096  1.00  0.00     0.040 A 
ATOM     84  F   UNL A   1      45.666  29.586  33.792  1.00  0.00    -0.206 F 
ATOM     85  C   UNL A   1      46.255  26.637  35.813  1.00  0.00     0.006 A 
ENDBRANCH  61  78
ENDBRANCH  35  36
ENDBRANCH  28  30
ENDBRANCH  27  28
ENDBRANCH  26  27
ENDBRANCH  25  26
ENDBRANCH  24  25
ENDBRANCH   1  24
TORSDOF 17
ENDMDL
MODEL 3
REMARK VINA RESULT:     -10.6      3.706      8.595
REMARK SMILES [NH3+][C@H]1C=C[C@@H](C(=O)N2CCC(CC(=O)OCCOCCOC(=O)c3ccc(-c4c5nc(c(-c6c(F)cccc6F)c6ccc([nH]6)c(-c6c(F)cccc6F)c6nc(c(-c7c(F)cccc7F)c7ccc4[nH]7)C=C6)C=C5)cc3)CC2)C1
REMARK SMILES IDX 17 1 16 2 15 3 13 4 14 5 12 6 11 7 6 8 7 9 8 10 9 11 79 12
REMARK SMILES IDX 10 13 78 14 5 15 2 16 3 17 80 18 4 19 1 20 18 24 19 25 20 26
REMARK SMILES IDX 21 27 22 28 23 29 24 30 25 31 77 32 26 33 76 34 27 35 28 36
REMARK SMILES IDX 29 37 70 38 30 39 75 40 69 41 71 42 31 43 74 44 68 45 67 46
REMARK SMILES IDX 32 48 58 49 41 50 57 51 42 52 45 53 56 54 72 55 43 56 44 57
REMARK SMILES IDX 55 59 73 60 46 61 33 62 34 63 39 64 35 65 36 66 38 67 40 68
REMARK SMILES IDX 37 69 59 70 60 71 65 72 61 73 62 74 64 75 66 76 63 77 47 78
REMARK SMILES IDX 48 79 53 80 49 81 50 82 52 83 54 84 51 85
REMARK H PARENT 1 21 1 22 1 23 71 47 45 58
REMARK Flexibility Score: inf
ROOT
ATOM      1  C   UNL A   1      41.273  20.815  27.543  1.00  0.00     0.202 C 
ENDROOT
BRANCH   1   2
ATOM      2  C   UNL A   1      40.371  21.418  26.464  1.00  0.00     0.261 C 
BRANCH   2   3
ATOM      3  O   UNL A   1      39.366  22.266  27.054  1.00  0.00    -0.463 OA
BRANCH   3   4
ATOM      4  C   UNL A   1      38.769  23.163  26.231  1.00  0.00     0.306 C 
ATOM      5  O   UNL A   1      38.980  24.369  26.238  1.00  0.00    -0.252 OA
BRANCH   4   6
ATOM      6  C   UNL A   1      37.745  22.526  25.313  1.00  0.00     0.126 C 
BRANCH   6   7
ATOM      7  C   UNL A   1      36.612  23.417  24.763  1.00  0.00     0.003 C 
ATOM      8  C   UNL A   1      32.689  22.901  24.481  1.00  0.00     0.229 C 
ATOM      9  O   UNL A   1      32.813  21.713  24.163  1.00  0.00    -0.274 OA
ATOM     10  N   UNL A   1      33.746  23.787  24.310  1.00  0.00    -0.342 N 
ATOM     11  C   UNL A   1      34.633  23.561  23.178  1.00  0.00     0.120 C 
ATOM     12  C   UNL A   1      34.376  24.489  25.417  1.00  0.00     0.120 C 
ATOM     13  C   UNL A   1      35.874  22.765  23.579  1.00  0.00     0.026 C 
ATOM     14  C   UNL A   1      35.611  23.723  25.901  1.00  0.00     0.026 C 
BRANCH   8  15
ATOM     15  C   UNL A   1      31.283  23.445  24.810  1.00  0.00     0.107 C 
ATOM     16  C   UNL A   1      30.163  25.348  25.901  1.00  0.00     0.205 C 
ATOM     17  C   UNL A   1      30.305  25.555  24.434  1.00  0.00     0.033 C 
ATOM     18  C   UNL A   1      30.967  24.064  26.174  1.00  0.00     0.087 C 
ATOM     19  C   UNL A   1      30.903  24.523  23.835  1.00  0.00    -0.012 C 
BRANCH  16  20
ATOM     20  N   UNL A   1      30.663  26.499  26.631  1.00  0.00    -0.352 N 
ATOM     21  H   UNL A   1      31.510  26.239  27.137  1.00  0.00     0.345 HD
ATOM     22  H   UNL A   1      29.956  26.814  27.295  1.00  0.00     0.345 HD
ATOM     23  H   UNL A   1      30.875  27.251  25.977  1.00  0.00     0.345 HD
ENDBRANCH  16  20
ENDBRANCH   8  15
ENDBRANCH   6   7
ENDBRANCH   4   6
ENDBRANCH   3   4
ENDBRANCH   2   3
ENDBRANCH   1   2
BRANCH   1  24
ATOM     24  O   UNL A   1      42.645  20.657  27.180  1.00  0.00    -0.374 OA
BRANCH  24  25
ATOM     25  C   UNL A   1      42.944  20.622  25.786  1.00  0.00     0.202 C 
BRANCH  25  26
ATOM     26  C   UNL A   1      44.092  21.529  25.331  1.00  0.00     0.261 C 
BRANCH  26  27
ATOM     27  O   UNL A   1      44.260  22.667  26.199  1.00  0.00    -0.460 OA
BRANCH  27  28
ATOM     28  C   UNL A   1      44.145  23.868  25.584  1.00  0.00     0.338 C 
ATOM     29  O   UNL A   1      44.461  24.145  24.433  1.00  0.00    -0.246 OA
BRANCH  28  30
ATOM     30  C   UNL A   1      43.414  24.815  26.443  1.00  0.00     0.060 A 
ATOM     31  C   UNL A   1      43.853  26.146  26.457  1.00  0.00     0.016 A 
ATOM     32  C   UNL A   1      42.371  24.404  27.278  1.00  0.00     0.016 A 
ATOM     33  C   UNL A   1      43.286  27.061  27.342  1.00  0.00     0.010 A 
ATOM     34  C   UNL A   1      41.810  25.323  28.172  1.00  0.00     0.010 A 
ATOM     35  C   UNL A   1      42.289  26.645  28.232  1.00  0.00    -0.014 A 
BRANCH  35  36
ATOM     36  C   UNL A   1      41.853  27.549  29.324  1.00  0.00     0.031 A 
ATOM     37  C   UNL A   1      42.577  27.501  30.642  1.00  0.00     0.074 A 
ATOM     38  C   UNL A   1      40.837  28.411  29.145  1.00  0.00     0.049 A 
ATOM     39  N   UNL A   1      42.323  28.145  31.752  1.00  0.00    -0.248 NA
ATOM     40  C   UNL A   1      43.742  26.605  30.718  1.00  0.00     0.031 C 
ATOM     41  C   UNL A   1      40.082  28.582  27.904  1.00  0.00     0.029 A 
ATOM     42  N   UNL A   1      40.256  29.296  30.019  1.00  0.00    -0.354 N 
ATOM     43  C   UNL A   1      43.283  27.720  32.662  1.00  0.00     0.074 A 
ATOM     44  C   UNL A   1      44.115  26.752  31.981  1.00  0.00     0.031 C 
ATOM     45  C   UNL A   1      39.120  29.499  28.105  1.00  0.00     0.029 A 
ATOM     46  C   UNL A   1      39.170  29.953  29.494  1.00  0.00     0.049 A 
ATOM     47  H   UNL A   1      40.585  29.444  30.935  1.00  0.00     0.167 HD
ATOM     48  C   UNL A   1      43.458  28.105  33.948  1.00  0.00     0.037 A 
ATOM     49  C   UNL A   1      38.299  30.799  30.078  1.00  0.00     0.037 A 
ATOM     50  C   UNL A   1      42.640  29.079  34.621  1.00  0.00     0.049 A 
ATOM     51  C   UNL A   1      38.477  31.166  31.528  1.00  0.00     0.074 A 
ATOM     52  C   UNL A   1      42.764  29.563  35.911  1.00  0.00     0.029 A 
ATOM     53  N   UNL A   1      41.542  29.711  34.059  1.00  0.00    -0.354 N 
ATOM     54  N   UNL A   1      39.408  30.784  32.368  1.00  0.00    -0.248 NA
ATOM     55  C   UNL A   1      37.483  32.081  32.109  1.00  0.00     0.031 C 
ATOM     56  C   UNL A   1      41.712  30.454  36.146  1.00  0.00     0.029 A 
ATOM     57  C   UNL A   1      40.962  30.559  34.987  1.00  0.00     0.049 A 
ATOM     58  H   UNL A   1      41.221  29.577  33.138  1.00  0.00     0.167 HD
ATOM     59  C   UNL A   1      39.128  31.432  33.566  1.00  0.00     0.074 A 
ATOM     60  C   UNL A   1      37.946  32.237  33.343  1.00  0.00     0.031 C 
ATOM     61  C   UNL A   1      39.794  31.366  34.745  1.00  0.00     0.037 A 
BRANCH  48  62
ATOM     62  C   UNL A   1      44.560  27.453  34.725  1.00  0.00     0.057 A 
ATOM     63  C   UNL A   1      44.374  26.241  35.402  1.00  0.00     0.134 A 
ATOM     64  C   UNL A   1      45.840  28.023  34.755  1.00  0.00     0.134 A 
ATOM     65  F   UNL A   1      43.170  25.652  35.423  1.00  0.00    -0.206 F 
ATOM     66  C   UNL A   1      45.420  25.626  36.094  1.00  0.00     0.040 A 
ATOM     67  C   UNL A   1      46.898  27.406  35.423  1.00  0.00     0.040 A 
ATOM     68  F   UNL A   1      46.084  29.180  34.123  1.00  0.00    -0.206 F 
ATOM     69  C   UNL A   1      46.688  26.205  36.099  1.00  0.00     0.006 A 
ENDBRANCH  48  62
BRANCH  49  70
ATOM     70  C   UNL A   1      37.153  31.335  29.302  1.00  0.00     0.057 A 
ATOM     71  C   UNL A   1      36.009  30.566  29.064  1.00  0.00     0.134 A 
ATOM     72  C   UNL A   1      37.187  32.625  28.757  1.00  0.00     0.134 A 
ATOM     73  F   UNL A   1      35.927  29.314  29.538  1.00  0.00    -0.206 F 
ATOM     74  C   UNL A   1      34.946  31.052  28.299  1.00  0.00     0.040 A 
ATOM     75  C   UNL A   1      36.123  33.133  28.011  1.00  0.00     0.040 A 
ATOM     76  F   UNL A   1      38.257  33.412  28.947  1.00  0.00    -0.206 F 
ATOM     77  C   UNL A   1      35.001  32.342  27.774  1.00  0.00     0.006 A 
ENDBRANCH  49  70
BRANCH  61  78
ATOM     78  C   UNL A   1      39.290  32.215  35.875  1.00  0.00     0.057 A 
ATOM     79  C   UNL A   1      39.718  33.535  36.055  1.00  0.00     0.134 A 
ATOM     80  C   UNL A   1      38.314  31.724  36.753  1.00  0.00     0.134 A 
ATOM     81  F   UNL A   1      40.658  34.060  35.255  1.00  0.00    -0.206 F 
ATOM     82  C   UNL A   1      39.201  34.335  37.076  1.00  0.00     0.040 A 
ATOM     83  C   UNL A   1      37.773  32.521  37.761  1.00  0.00     0.040 A 
ATOM     84  F   UNL A   1      37.855  30.469  36.627  1.00  0.00    -0.206 F 
ATOM     85  C   UNL A   1      38.219  33.831  37.927  1.00  0.00     0.006 A 
ENDBRANCH  61  78
ENDBRANCH  35  36
ENDBRANCH  28  30
ENDBRANCH  27  28
ENDBRANCH  26  27
ENDBRANCH  25  26
ENDBRANCH  24  25
ENDBRANCH   1  24
TORSDOF 17
ENDMDL
