MODEL 1
REMARK VINA RESULT:     -11.5      0.000      0.000
REMARK SMILES Cc1ccc(C(=O)NC2(CC(=O)OCCOCCOC(=O)c3ccc(-c4c5nc(c(-c6c(F)cccc6F)c6ccc([nH]6)c(-c6c(F)cccc6F)c6nc(c(-c7c(F)cccc7F)c7ccc4[nH]7)C=C6)C=C5)cc3)CCC2)cc1
REMARK SMILES IDX 15 1 14 2 13 3 11 4 12 5 10 6 9 7 76 8 78 9 77 10 8 11 6 12
REMARK SMILES IDX 7 13 5 15 1 16 2 17 3 18 80 19 4 20 79 21 16 22 17 23 18 24
REMARK SMILES IDX 19 25 20 26 21 27 22 28 23 29 75 30 24 31 74 32 25 33 26 34
REMARK SMILES IDX 27 35 68 36 28 37 73 38 67 39 69 40 29 41 72 42 66 43 65 44
REMARK SMILES IDX 30 46 56 47 39 48 55 49 40 50 43 51 54 52 70 53 41 54 42 55
REMARK SMILES IDX 53 57 71 58 44 59 31 60 32 61 37 62 33 63 34 64 36 65 38 66
REMARK SMILES IDX 35 67 57 68 58 69 63 70 59 71 60 72 62 73 64 74 61 75 45 76
REMARK SMILES IDX 46 77 51 78 47 79 48 80 50 81 52 82 49 83
REMARK H PARENT 8 14 69 45 43 56
REMARK Flexibility Score: inf
ROOT
ATOM      1  C   UNL A   1      32.447  28.987  27.741  1.00  0.00     0.202 C 
ENDROOT
BRANCH   1   2
ATOM      2  C   UNL A   1      31.819  28.013  26.625  1.00  0.00     0.261 C 
BRANCH   2   3
ATOM      3  O   UNL A   1      31.192  26.084  26.716  1.00  0.00    -0.463 OA
BRANCH   3   4
ATOM      4  C   UNL A   1      30.888  24.760  26.091  1.00  0.00     0.308 C 
ATOM      5  O   UNL A   1      29.950  24.070  26.505  1.00  0.00    -0.252 OA
BRANCH   4   6
ATOM      6  C   UNL A   1      31.677  24.265  24.860  1.00  0.00     0.151 C 
BRANCH   6   7
ATOM      7  C   UNL A   1      33.238  24.392  24.755  1.00  0.00     0.051 C 
ATOM      8  C   UNL A   1      33.630  25.807  24.148  1.00  0.00     0.029 C 
ATOM      9  C   UNL A   1      34.222  23.900  23.556  1.00  0.00     0.029 C 
ATOM     10  C   UNL A   1      33.692  25.099  22.775  1.00  0.00     0.005 C 
BRANCH   7  11
ATOM     11  N   UNL A   1      33.893  24.150  26.060  1.00  0.00    -0.346 N 
ATOM     12  C   UNL A   1      34.354  22.947  26.512  1.00  0.00     0.251 C 
ATOM     13  O   UNL A   1      34.802  22.792  27.640  1.00  0.00    -0.269 OA
ATOM     14  H   UNL A   1      34.005  24.926  26.655  1.00  0.00     0.164 HD
BRANCH  12  15
ATOM     15  C   UNL A   1      34.135  21.781  25.650  1.00  0.00     0.039 A 
ATOM     16  C   UNL A   1      34.433  16.902  24.081  1.00  0.00     0.044 C 
ATOM     17  C   UNL A   1      34.163  18.330  24.509  1.00  0.00    -0.051 A 
ATOM     18  C   UNL A   1      35.633  19.293  24.670  1.00  0.00     0.004 A 
ATOM     19  C   UNL A   1      32.666  19.096  24.974  1.00  0.00     0.004 A 
ATOM     20  C   UNL A   1      35.682  20.951  25.291  1.00  0.00     0.014 A 
ATOM     21  C   UNL A   1      32.607  20.827  25.489  1.00  0.00     0.014 A 
ENDBRANCH  12  15
ENDBRANCH   7  11
ENDBRANCH   6   7
ENDBRANCH   4   6
ENDBRANCH   3   4
ENDBRANCH   2   3
ENDBRANCH   1   2
BRANCH   1  22
ATOM     22  O   UNL A   1      33.143  30.050  27.140  1.00  0.00    -0.374 OA
BRANCH  22  23
ATOM     23  C   UNL A   1      34.545  29.973  27.147  1.00  0.00     0.202 C 
BRANCH  23  24
ATOM     24  C   UNL A   1      34.919  31.116  28.063  1.00  0.00     0.261 C 
BRANCH  24  25
ATOM     25  O   UNL A   1      36.348  31.376  27.843  1.00  0.00    -0.460 OA
BRANCH  25  26
ATOM     26  C   UNL A   1      37.223  31.035  28.846  1.00  0.00     0.338 C 
ATOM     27  O   UNL A   1      37.578  31.789  29.741  1.00  0.00    -0.246 OA
BRANCH  26  28
ATOM     28  C   UNL A   1      37.844  29.658  28.622  1.00  0.00     0.060 A 
ATOM     29  C   UNL A   1      37.882  28.677  29.641  1.00  0.00     0.016 A 
ATOM     30  C   UNL A   1      38.675  29.456  27.523  1.00  0.00     0.016 A 
ATOM     31  C   UNL A   1      38.856  27.615  29.640  1.00  0.00     0.010 A 
ATOM     32  C   UNL A   1      39.713  28.500  27.590  1.00  0.00     0.010 A 
ATOM     33  C   UNL A   1      39.907  27.632  28.703  1.00  0.00    -0.014 A 
BRANCH  33  34
ATOM     34  C   UNL A   1      41.314  27.012  28.903  1.00  0.00     0.031 A 
ATOM     35  C   UNL A   1      42.243  28.095  29.243  1.00  0.00     0.074 A 
ATOM     36  C   UNL A   1      41.956  25.786  28.729  1.00  0.00     0.049 A 
ATOM     37  N   UNL A   1      43.201  28.453  28.447  1.00  0.00    -0.248 NA
ATOM     38  C   UNL A   1      41.970  29.020  30.348  1.00  0.00     0.031 C 
ATOM     39  C   UNL A   1      43.211  25.373  29.395  1.00  0.00     0.029 A 
ATOM     40  N   UNL A   1      41.591  24.547  28.141  1.00  0.00    -0.354 N 
ATOM     41  C   UNL A   1      43.827  29.448  29.147  1.00  0.00     0.074 A 
ATOM     42  C   UNL A   1      42.813  29.995  30.025  1.00  0.00     0.031 C 
ATOM     43  C   UNL A   1      43.506  24.078  29.124  1.00  0.00     0.029 A 
ATOM     44  C   UNL A   1      42.558  23.514  28.149  1.00  0.00     0.049 A 
ATOM     45  H   UNL A   1      40.700  24.412  27.744  1.00  0.00     0.167 HD
ATOM     46  C   UNL A   1      45.158  29.376  29.437  1.00  0.00     0.037 A 
ATOM     47  C   UNL A   1      42.839  22.530  27.202  1.00  0.00     0.037 A 
ATOM     48  C   UNL A   1      45.751  28.076  29.063  1.00  0.00     0.049 A 
ATOM     49  C   UNL A   1      44.029  23.111  26.463  1.00  0.00     0.074 A 
ATOM     50  C   UNL A   1      46.269  27.014  29.793  1.00  0.00     0.029 A 
ATOM     51  N   UNL A   1      45.576  27.548  27.783  1.00  0.00    -0.354 N 
ATOM     52  N   UNL A   1      44.846  23.965  27.008  1.00  0.00    -0.248 NA
ATOM     53  C   UNL A   1      44.296  22.921  25.040  1.00  0.00     0.031 C 
ATOM     54  C   UNL A   1      46.556  25.933  28.912  1.00  0.00     0.029 A 
ATOM     55  C   UNL A   1      46.190  26.311  27.636  1.00  0.00     0.049 A 
ATOM     56  H   UNL A   1      45.074  28.001  27.067  1.00  0.00     0.167 HD
ATOM     57  C   UNL A   1      45.529  24.616  26.036  1.00  0.00     0.074 A 
ATOM     58  C   UNL A   1      45.173  23.911  24.815  1.00  0.00     0.031 C 
ATOM     59  C   UNL A   1      46.295  25.708  26.311  1.00  0.00     0.037 A 
BRANCH  46  60
ATOM     60  C   UNL A   1      45.703  30.361  30.458  1.00  0.00     0.057 A 
ATOM     61  C   UNL A   1      45.663  30.125  31.835  1.00  0.00     0.134 A 
ATOM     62  C   UNL A   1      46.244  31.619  30.098  1.00  0.00     0.134 A 
ATOM     63  F   UNL A   1      45.335  28.932  32.339  1.00  0.00    -0.206 F 
ATOM     64  C   UNL A   1      45.975  31.114  32.779  1.00  0.00     0.040 A 
ATOM     65  C   UNL A   1      46.497  32.638  31.024  1.00  0.00     0.040 A 
ATOM     66  F   UNL A   1      46.525  31.914  28.817  1.00  0.00    -0.206 F 
ATOM     67  C   UNL A   1      46.347  32.388  32.378  1.00  0.00     0.006 A 
ENDBRANCH  46  60
BRANCH  47  68
ATOM     68  C   UNL A   1      41.871  21.560  26.471  1.00  0.00     0.057 A 
ATOM     69  C   UNL A   1      42.258  20.239  26.135  1.00  0.00     0.134 A 
ATOM     70  C   UNL A   1      40.509  21.808  26.211  1.00  0.00     0.134 A 
ATOM     71  F   UNL A   1      43.537  19.856  26.262  1.00  0.00    -0.206 F 
ATOM     72  C   UNL A   1      41.312  19.196  25.878  1.00  0.00     0.040 A 
ATOM     73  C   UNL A   1      39.553  20.778  26.048  1.00  0.00     0.040 A 
ATOM     74  F   UNL A   1      40.015  23.052  26.275  1.00  0.00    -0.206 F 
ATOM     75  C   UNL A   1      39.946  19.452  25.967  1.00  0.00     0.006 A 
ENDBRANCH  47  68
BRANCH  59  76
ATOM     76  C   UNL A   1      47.248  26.270  25.304  1.00  0.00     0.057 A 
ATOM     77  C   UNL A   1      48.618  25.966  25.319  1.00  0.00     0.134 A 
ATOM     78  C   UNL A   1      46.859  27.248  24.372  1.00  0.00     0.134 A 
ATOM     79  F   UNL A   1      49.166  25.223  26.292  1.00  0.00    -0.206 F 
ATOM     80  C   UNL A   1      49.501  26.461  24.361  1.00  0.00     0.040 A 
ATOM     81  C   UNL A   1      47.744  27.801  23.453  1.00  0.00     0.040 A 
ATOM     82  F   UNL A   1      45.613  27.733  24.310  1.00  0.00    -0.206 F 
ATOM     83  C   UNL A   1      49.062  27.377  23.417  1.00  0.00     0.006 A 
ENDBRANCH  59  76
ENDBRANCH  33  34
ENDBRANCH  26  28
ENDBRANCH  25  26
ENDBRANCH  24  25
ENDBRANCH  23  24
ENDBRANCH  22  23
ENDBRANCH   1  22
TORSDOF 17
ENDMDL
MODEL 2
REMARK VINA RESULT:     -11.2      3.108      8.065
REMARK SMILES Cc1ccc(C(=O)NC2(CC(=O)OCCOCCOC(=O)c3ccc(-c4c5nc(c(-c6c(F)cccc6F)c6ccc([nH]6)c(-c6c(F)cccc6F)c6nc(c(-c7c(F)cccc7F)c7ccc4[nH]7)C=C6)C=C5)cc3)CCC2)cc1
REMARK SMILES IDX 15 1 14 2 13 3 11 4 12 5 10 6 9 7 76 8 78 9 77 10 8 11 6 12
REMARK SMILES IDX 7 13 5 15 1 16 2 17 3 18 80 19 4 20 79 21 16 22 17 23 18 24
REMARK SMILES IDX 19 25 20 26 21 27 22 28 23 29 75 30 24 31 74 32 25 33 26 34
REMARK SMILES IDX 27 35 68 36 28 37 73 38 67 39 69 40 29 41 72 42 66 43 65 44
REMARK SMILES IDX 30 46 56 47 39 48 55 49 40 50 43 51 54 52 70 53 41 54 42 55
REMARK SMILES IDX 53 57 71 58 44 59 31 60 32 61 37 62 33 63 34 64 36 65 38 66
REMARK SMILES IDX 35 67 57 68 58 69 63 70 59 71 60 72 62 73 64 74 61 75 45 76
REMARK SMILES IDX 46 77 51 78 47 79 48 80 50 81 52 82 49 83
REMARK H PARENT 8 14 69 45 43 56
REMARK Flexibility Score: inf
ROOT
ATOM      1  C   UNL A   1      31.672  28.158  27.555  1.00  0.00     0.202 C 
ENDROOT
BRANCH   1   2
ATOM      2  C   UNL A   1      31.126  27.036  26.540  1.00  0.00     0.261 C 
BRANCH   2   3
ATOM      3  O   UNL A   1      31.085  25.010  26.662  1.00  0.00    -0.463 OA
BRANCH   3   4
ATOM      4  C   UNL A   1      31.743  23.668  26.622  1.00  0.00     0.308 C 
ATOM      5  O   UNL A   1      31.748  22.941  27.622  1.00  0.00    -0.252 OA
BRANCH   4   6
ATOM      6  C   UNL A   1      32.348  23.120  25.313  1.00  0.00     0.151 C 
BRANCH   6   7
ATOM      7  C   UNL A   1      33.754  23.576  24.782  1.00  0.00     0.051 C 
ATOM      8  C   UNL A   1      34.898  22.693  25.443  1.00  0.00     0.029 C 
ATOM      9  C   UNL A   1      34.717  24.764  25.338  1.00  0.00     0.029 C 
ATOM     10  C   UNL A   1      35.036  23.820  26.492  1.00  0.00     0.005 C 
BRANCH   7  11
ATOM     11  N   UNL A   1      33.815  23.543  23.304  1.00  0.00    -0.346 N 
ATOM     12  C   UNL A   1      33.202  24.423  22.459  1.00  0.00     0.251 C 
ATOM     13  O   UNL A   1      33.213  24.288  21.242  1.00  0.00    -0.269 OA
ATOM     14  H   UNL A   1      34.344  22.821  22.894  1.00  0.00     0.164 HD
BRANCH  12  15
ATOM     15  C   UNL A   1      32.367  25.463  23.068  1.00  0.00     0.039 A 
ATOM     16  C   UNL A   1      29.901  29.945  23.484  1.00  0.00     0.044 C 
ATOM     17  C   UNL A   1      30.470  28.544  23.417  1.00  0.00    -0.051 A 
ATOM     18  C   UNL A   1      32.229  28.518  23.272  1.00  0.00     0.004 A 
ATOM     19  C   UNL A   1      29.652  27.005  23.336  1.00  0.00     0.004 A 
ATOM     20  C   UNL A   1      33.193  27.053  23.026  1.00  0.00     0.014 A 
ATOM     21  C   UNL A   1      30.565  25.450  23.222  1.00  0.00     0.014 A 
ENDBRANCH  12  15
ENDBRANCH   7  11
ENDBRANCH   6   7
ENDBRANCH   4   6
ENDBRANCH   3   4
ENDBRANCH   2   3
ENDBRANCH   1   2
BRANCH   1  22
ATOM     22  O   UNL A   1      31.892  29.373  26.884  1.00  0.00    -0.374 OA
BRANCH  22  23
ATOM     23  C   UNL A   1      33.227  29.777  26.727  1.00  0.00     0.202 C 
BRANCH  23  24
ATOM     24  C   UNL A   1      33.299  30.989  27.628  1.00  0.00     0.261 C 
BRANCH  24  25
ATOM     25  O   UNL A   1      34.691  31.455  27.590  1.00  0.00    -0.460 OA
BRANCH  25  26
ATOM     26  C   UNL A   1      35.430  31.359  28.744  1.00  0.00     0.338 C 
ATOM     27  O   UNL A   1      35.410  32.181  29.650  1.00  0.00    -0.246 OA
BRANCH  26  28
ATOM     28  C   UNL A   1      36.419  30.197  28.698  1.00  0.00     0.060 A 
ATOM     29  C   UNL A   1      36.682  29.389  29.830  1.00  0.00     0.016 A 
ATOM     30  C   UNL A   1      37.322  30.112  27.641  1.00  0.00     0.016 A 
ATOM     31  C   UNL A   1      37.911  28.651  29.970  1.00  0.00     0.010 A 
ATOM     32  C   UNL A   1      38.581  29.501  27.837  1.00  0.00     0.010 A 
ATOM     33  C   UNL A   1      38.958  28.856  29.050  1.00  0.00    -0.014 A 
BRANCH  33  34
ATOM     34  C   UNL A   1      40.471  28.685  29.341  1.00  0.00     0.031 A 
ATOM     35  C   UNL A   1      40.917  27.442  28.703  1.00  0.00     0.074 A 
ATOM     36  C   UNL A   1      41.466  29.280  30.117  1.00  0.00     0.049 A 
ATOM     37  N   UNL A   1      41.308  26.417  29.393  1.00  0.00    -0.248 NA
ATOM     38  C   UNL A   1      40.674  27.181  27.280  1.00  0.00     0.031 C 
ATOM     39  C   UNL A   1      42.922  29.163  29.881  1.00  0.00     0.029 A 
ATOM     40  N   UNL A   1      41.477  30.279  31.123  1.00  0.00    -0.354 N 
ATOM     41  C   UNL A   1      41.656  25.511  28.429  1.00  0.00     0.074 A 
ATOM     42  C   UNL A   1      40.868  25.866  27.266  1.00  0.00     0.031 C 
ATOM     43  C   UNL A   1      43.621  29.963  30.723  1.00  0.00     0.029 A 
ATOM     44  C   UNL A   1      42.727  30.607  31.701  1.00  0.00     0.049 A 
ATOM     45  H   UNL A   1      40.648  30.728  31.409  1.00  0.00     0.167 HD
ATOM     46  C   UNL A   1      42.907  24.968  28.392  1.00  0.00     0.037 A 
ATOM     47  C   UNL A   1      43.055  30.959  33.009  1.00  0.00     0.037 A 
ATOM     48  C   UNL A   1      43.824  25.586  29.370  1.00  0.00     0.049 A 
ATOM     49  C   UNL A   1      43.567  29.653  33.586  1.00  0.00     0.074 A 
ATOM     50  C   UNL A   1      44.950  26.389  29.253  1.00  0.00     0.029 A 
ATOM     51  N   UNL A   1      43.464  25.708  30.714  1.00  0.00    -0.354 N 
ATOM     52  N   UNL A   1      44.083  28.714  32.848  1.00  0.00    -0.248 NA
ATOM     53  C   UNL A   1      43.392  29.233  34.973  1.00  0.00     0.031 C 
ATOM     54  C   UNL A   1      45.347  26.836  30.546  1.00  0.00     0.029 A 
ATOM     55  C   UNL A   1      44.449  26.334  31.467  1.00  0.00     0.049 A 
ATOM     56  H   UNL A   1      42.610  25.387  31.084  1.00  0.00     0.167 HD
ATOM     57  C   UNL A   1      44.060  27.544  33.529  1.00  0.00     0.074 A 
ATOM     58  C   UNL A   1      43.642  27.919  34.871  1.00  0.00     0.031 C 
ATOM     59  C   UNL A   1      44.343  26.358  32.922  1.00  0.00     0.037 A 
BRANCH  46  60
ATOM     60  C   UNL A   1      43.300  24.210  27.134  1.00  0.00     0.057 A 
ATOM     61  C   UNL A   1      43.896  24.828  26.032  1.00  0.00     0.134 A 
ATOM     62  C   UNL A   1      43.043  22.828  26.959  1.00  0.00     0.134 A 
ATOM     63  F   UNL A   1      44.353  26.082  26.085  1.00  0.00    -0.206 F 
ATOM     64  C   UNL A   1      44.070  24.174  24.803  1.00  0.00     0.040 A 
ATOM     65  C   UNL A   1      43.147  22.180  25.723  1.00  0.00     0.040 A 
ATOM     66  F   UNL A   1      42.651  22.058  27.989  1.00  0.00    -0.206 F 
ATOM     67  C   UNL A   1      43.653  22.863  24.629  1.00  0.00     0.006 A 
ENDBRANCH  46  60
BRANCH  47  68
ATOM     68  C   UNL A   1      42.397  32.013  33.941  1.00  0.00     0.057 A 
ATOM     69  C   UNL A   1      43.094  33.175  34.356  1.00  0.00     0.134 A 
ATOM     70  C   UNL A   1      41.046  32.022  34.336  1.00  0.00     0.134 A 
ATOM     71  F   UNL A   1      44.408  33.298  34.115  1.00  0.00    -0.206 F 
ATOM     72  C   UNL A   1      42.428  34.352  34.824  1.00  0.00     0.040 A 
ATOM     73  C   UNL A   1      40.358  33.201  34.711  1.00  0.00     0.040 A 
ATOM     74  F   UNL A   1      40.288  30.924  34.211  1.00  0.00    -0.206 F 
ATOM     75  C   UNL A   1      41.037  34.397  34.874  1.00  0.00     0.006 A 
ENDBRANCH  47  68
BRANCH  59  76
ATOM     76  C   UNL A   1      44.572  25.108  33.711  1.00  0.00     0.057 A 
ATOM     77  C   UNL A   1      45.804  24.437  33.710  1.00  0.00     0.134 A 
ATOM     78  C   UNL A   1      43.530  24.450  34.388  1.00  0.00     0.134 A 
ATOM     79  F   UNL A   1      46.821  24.829  32.928  1.00  0.00    -0.206 F 
ATOM     80  C   UNL A   1      46.030  23.292  34.472  1.00  0.00     0.040 A 
ATOM     81  C   UNL A   1      43.725  23.270  35.098  1.00  0.00     0.040 A 
ATOM     82  F   UNL A   1      42.268  24.899  34.385  1.00  0.00    -0.206 F 
ATOM     83  C   UNL A   1      44.989  22.709  35.177  1.00  0.00     0.006 A 
ENDBRANCH  59  76
ENDBRANCH  33  34
ENDBRANCH  26  28
ENDBRANCH  25  26
ENDBRANCH  24  25
ENDBRANCH  23  24
ENDBRANCH  22  23
ENDBRANCH   1  22
TORSDOF 17
ENDMDL
MODEL 3
REMARK VINA RESULT:     -11.2      3.874      8.628
REMARK SMILES Cc1ccc(C(=O)NC2(CC(=O)OCCOCCOC(=O)c3ccc(-c4c5nc(c(-c6c(F)cccc6F)c6ccc([nH]6)c(-c6c(F)cccc6F)c6nc(c(-c7c(F)cccc7F)c7ccc4[nH]7)C=C6)C=C5)cc3)CCC2)cc1
REMARK SMILES IDX 15 1 14 2 13 3 11 4 12 5 10 6 9 7 76 8 78 9 77 10 8 11 6 12
REMARK SMILES IDX 7 13 5 15 1 16 2 17 3 18 80 19 4 20 79 21 16 22 17 23 18 24
REMARK SMILES IDX 19 25 20 26 21 27 22 28 23 29 75 30 24 31 74 32 25 33 26 34
REMARK SMILES IDX 27 35 68 36 28 37 73 38 67 39 69 40 29 41 72 42 66 43 65 44
REMARK SMILES IDX 30 46 56 47 39 48 55 49 40 50 43 51 54 52 70 53 41 54 42 55
REMARK SMILES IDX 53 57 71 58 44 59 31 60 32 61 37 62 33 63 34 64 36 65 38 66
REMARK SMILES IDX 35 67 57 68 58 69 63 70 59 71 60 72 62 73 64 74 61 75 45 76
REMARK SMILES IDX 46 77 51 78 47 79 48 80 50 81 52 82 49 83
REMARK H PARENT 8 14 69 45 43 56
REMARK Flexibility Score: inf
ROOT
ATOM      1  C   UNL A   1      31.796  33.014  26.488  1.00  0.00     0.202 C 
ENDROOT
BRANCH   1   2
ATOM      2  C   UNL A   1      31.747  31.406  26.518  1.00  0.00     0.261 C 
BRANCH   2   3
ATOM      3  O   UNL A   1      32.573  30.008  25.299  1.00  0.00    -0.463 OA
BRANCH   3   4
ATOM      4  C   UNL A   1      32.485  28.964  24.233  1.00  0.00     0.308 C 
ATOM      5  O   UNL A   1      33.028  29.138  23.137  1.00  0.00    -0.252 OA
BRANCH   4   6
ATOM      6  C   UNL A   1      31.797  27.609  24.505  1.00  0.00     0.151 C 
BRANCH   6   7
ATOM      7  C   UNL A   1      30.935  26.872  23.419  1.00  0.00     0.051 C 
ATOM      8  C   UNL A   1      29.541  27.613  23.236  1.00  0.00     0.029 C 
ATOM      9  C   UNL A   1      29.934  25.602  23.602  1.00  0.00     0.029 C 
ATOM     10  C   UNL A   1      28.968  26.592  24.245  1.00  0.00     0.005 C 
BRANCH   7  11
ATOM     11  N   UNL A   1      31.665  26.744  22.139  1.00  0.00    -0.346 N 
ATOM     12  C   UNL A   1      32.633  25.823  21.859  1.00  0.00     0.251 C 
ATOM     13  O   UNL A   1      33.267  25.826  20.812  1.00  0.00    -0.269 OA
ATOM     14  H   UNL A   1      31.431  27.380  21.424  1.00  0.00     0.164 HD
BRANCH  12  15
ATOM     15  C   UNL A   1      33.021  24.913  22.942  1.00  0.00     0.039 A 
ATOM     16  C   UNL A   1      35.083  20.770  25.163  1.00  0.00     0.044 C 
ATOM     17  C   UNL A   1      34.564  22.092  24.637  1.00  0.00    -0.051 A 
ATOM     18  C   UNL A   1      33.231  21.905  23.494  1.00  0.00     0.004 A 
ATOM     19  C   UNL A   1      35.159  23.711  24.893  1.00  0.00     0.004 A 
ATOM     20  C   UNL A   1      32.496  23.236  22.587  1.00  0.00     0.014 A 
ATOM     21  C   UNL A   1      34.379  25.143  24.113  1.00  0.00     0.014 A 
ENDBRANCH  12  15
ENDBRANCH   7  11
ENDBRANCH   6   7
ENDBRANCH   4   6
ENDBRANCH   3   4
ENDBRANCH   2   3
ENDBRANCH   1   2
BRANCH   1  22
ATOM     22  O   UNL A   1      32.157  33.525  27.747  1.00  0.00    -0.374 OA
BRANCH  22  23
ATOM     23  C   UNL A   1      33.484  33.955  27.899  1.00  0.00     0.202 C 
BRANCH  23  24
ATOM     24  C   UNL A   1      33.432  34.681  29.224  1.00  0.00     0.261 C 
BRANCH  24  25
ATOM     25  O   UNL A   1      34.654  34.312  29.950  1.00  0.00    -0.460 OA
BRANCH  25  26
ATOM     26  C   UNL A   1      34.694  33.078  30.552  1.00  0.00     0.338 C 
ATOM     27  O   UNL A   1      34.029  32.763  31.529  1.00  0.00    -0.246 OA
BRANCH  26  28
ATOM     28  C   UNL A   1      35.795  32.192  29.974  1.00  0.00     0.060 A 
ATOM     29  C   UNL A   1      36.012  30.870  30.430  1.00  0.00     0.016 A 
ATOM     30  C   UNL A   1      36.814  32.774  29.224  1.00  0.00     0.016 A 
ATOM     31  C   UNL A   1      37.287  30.214  30.287  1.00  0.00     0.010 A 
ATOM     32  C   UNL A   1      38.099  32.187  29.204  1.00  0.00     0.010 A 
ATOM     33  C   UNL A   1      38.403  30.947  29.838  1.00  0.00    -0.014 A 
BRANCH  33  34
ATOM     34  C   UNL A   1      39.884  30.658  30.192  1.00  0.00     0.031 A 
ATOM     35  C   UNL A   1      40.288  29.437  29.489  1.00  0.00     0.074 A 
ATOM     36  C   UNL A   1      40.868  31.131  31.060  1.00  0.00     0.049 A 
ATOM     37  N   UNL A   1      40.576  28.342  30.120  1.00  0.00    -0.248 NA
ATOM     38  C   UNL A   1      40.109  29.293  28.040  1.00  0.00     0.031 C 
ATOM     39  C   UNL A   1      42.325  30.936  30.892  1.00  0.00     0.029 A 
ATOM     40  N   UNL A   1      40.884  32.055  32.136  1.00  0.00    -0.354 N 
ATOM     41  C   UNL A   1      40.922  27.486  29.112  1.00  0.00     0.074 A 
ATOM     42  C   UNL A   1      40.223  27.972  27.940  1.00  0.00     0.031 C 
ATOM     43  C   UNL A   1      43.023  31.629  31.825  1.00  0.00     0.029 A 
ATOM     44  C   UNL A   1      42.118  32.260  32.800  1.00  0.00     0.049 A 
ATOM     45  H   UNL A   1      40.069  32.536  32.411  1.00  0.00     0.167 HD
ATOM     46  C   UNL A   1      42.137  26.866  29.099  1.00  0.00     0.037 A 
ATOM     47  C   UNL A   1      42.393  32.497  34.146  1.00  0.00     0.037 A 
ATOM     48  C   UNL A   1      43.034  27.353  30.166  1.00  0.00     0.049 A 
ATOM     49  C   UNL A   1      42.792  31.123  34.650  1.00  0.00     0.074 A 
ATOM     50  C   UNL A   1      44.212  28.088  30.166  1.00  0.00     0.029 A 
ATOM     51  N   UNL A   1      42.608  27.404  31.495  1.00  0.00    -0.354 N 
ATOM     52  N   UNL A   1      43.290  30.207  33.873  1.00  0.00    -0.248 NA
ATOM     53  C   UNL A   1      42.514  30.619  35.992  1.00  0.00     0.031 C 
ATOM     54  C   UNL A   1      44.563  28.417  31.507  1.00  0.00     0.029 A 
ATOM     55  C   UNL A   1      43.586  27.910  32.341  1.00  0.00     0.049 A 
ATOM     56  H   UNL A   1      41.717  27.114  31.796  1.00  0.00     0.167 HD
ATOM     57  C   UNL A   1      43.157  28.996  34.464  1.00  0.00     0.074 A 
ATOM     58  C   UNL A   1      42.688  29.302  35.807  1.00  0.00     0.031 C 
ATOM     59  C   UNL A   1      43.400  27.839  33.787  1.00  0.00     0.037 A 
BRANCH  46  60
ATOM     60  C   UNL A   1      42.553  26.174  27.811  1.00  0.00     0.057 A 
ATOM     61  C   UNL A   1      43.201  26.840  26.768  1.00  0.00     0.134 A 
ATOM     62  C   UNL A   1      42.266  24.813  27.544  1.00  0.00     0.134 A 
ATOM     63  F   UNL A   1      43.688  28.076  26.912  1.00  0.00    -0.206 F 
ATOM     64  C   UNL A   1      43.399  26.257  25.508  1.00  0.00     0.040 A 
ATOM     65  C   UNL A   1      42.396  24.238  26.275  1.00  0.00     0.040 A 
ATOM     66  F   UNL A   1      41.821  23.994  28.513  1.00  0.00    -0.206 F 
ATOM     67  C   UNL A   1      42.955  24.971  25.242  1.00  0.00     0.006 A 
ENDBRANCH  46  60
BRANCH  47  68
ATOM     68  C   UNL A   1      41.749  33.523  35.118  1.00  0.00     0.057 A 
ATOM     69  C   UNL A   1      42.452  34.675  35.552  1.00  0.00     0.134 A 
ATOM     70  C   UNL A   1      40.405  33.519  35.536  1.00  0.00     0.134 A 
ATOM     71  F   UNL A   1      43.761  34.808  35.291  1.00  0.00    -0.206 F 
ATOM     72  C   UNL A   1      41.792  35.838  36.064  1.00  0.00     0.040 A 
ATOM     73  C   UNL A   1      39.722  34.685  35.955  1.00  0.00     0.040 A 
ATOM     74  F   UNL A   1      39.647  32.423  35.394  1.00  0.00    -0.206 F 
ATOM     75  C   UNL A   1      40.402  35.878  36.139  1.00  0.00     0.006 A 
ENDBRANCH  47  68
BRANCH  59  76
ATOM     76  C   UNL A   1      43.508  26.525  34.493  1.00  0.00     0.057 A 
ATOM     77  C   UNL A   1      42.381  25.821  34.943  1.00  0.00     0.134 A 
ATOM     78  C   UNL A   1      44.748  25.984  34.876  1.00  0.00     0.134 A 
ATOM     79  F   UNL A   1      41.144  26.331  34.843  1.00  0.00    -0.206 F 
ATOM     80  C   UNL A   1      42.479  24.580  35.569  1.00  0.00     0.040 A 
ATOM     81  C   UNL A   1      44.859  24.778  35.562  1.00  0.00     0.040 A 
ATOM     82  F   UNL A   1      45.913  26.595  34.628  1.00  0.00    -0.206 F 
ATOM     83  C   UNL A   1      43.723  24.050  35.873  1.00  0.00     0.006 A 
ENDBRANCH  59  76
ENDBRANCH  33  34
ENDBRANCH  26  28
ENDBRANCH  25  26
ENDBRANCH  24  25
ENDBRANCH  23  24
ENDBRANCH  22  23
ENDBRANCH   1  22
TORSDOF 17
ENDMDL
