MODEL 1
REMARK VINA RESULT:     -13.6      0.000      0.000
REMARK SMILES O=C(OCCOCCOC(=O)c1ccc(-c2c3nc(c(-c4c(F)cccc4F)c4ccc([nH]4)c(-c4c(F)cccc4F)c4nc(c(-c5c(F)cccc5F)c5ccc2[nH]5)C=C4)C=C3)cc1)C1=Cc2cc(Cl)cc(-c3ccccc3)c2O[C@@H]1C(F)(F)F
REMARK SMILES IDX 7 1 6 2 5 3 4 4 3 5 2 6 1 7 66 8 67 9 82 10 68 11 81 12
REMARK SMILES IDX 69 13 80 14 70 15 73 16 71 17 72 18 83 19 84 20 85 21 86 22
REMARK SMILES IDX 74 23 75 24 79 25 76 26 78 27 77 28 8 29 9 30 10 31 11 32
REMARK SMILES IDX 12 33 13 34 65 35 14 36 64 37 15 38 16 39 17 40 58 41 18 42
REMARK SMILES IDX 63 43 57 44 59 45 19 46 62 47 56 48 55 49 20 51 46 52 29 53
REMARK SMILES IDX 45 54 30 55 33 56 44 57 60 58 31 59 32 60 43 62 61 63 34 64
REMARK SMILES IDX 21 65 22 66 27 67 23 68 24 69 26 70 28 71 25 72 47 73 48 74
REMARK SMILES IDX 53 75 49 76 50 77 52 78 54 79 51 80 35 81 36 82 41 83 37 84
REMARK SMILES IDX 38 85 40 86 42 87 39 88
REMARK H PARENT 59 50 33 61
REMARK Flexibility Score: inf
ROOT
ATOM      1  C   UNL A   1      35.764  20.519  24.993  1.00  0.00     0.202 C 
ENDROOT
BRANCH   1   2
ATOM      2  O   UNL A   1      34.534  19.826  24.649  1.00  0.00    -0.374 OA
BRANCH   2   3
ATOM      3  C   UNL A   1      32.997  20.302  24.304  1.00  0.00     0.202 C 
BRANCH   3   4
ATOM      4  C   UNL A   1      31.632  21.561  25.438  1.00  0.00     0.261 C 
BRANCH   4   5
ATOM      5  O   UNL A   1      30.921  22.855  24.898  1.00  0.00    -0.460 OA
BRANCH   5   6
ATOM      6  C   UNL A   1      31.039  23.911  25.711  1.00  0.00     0.338 C 
ATOM      7  O   UNL A   1      30.420  24.227  26.695  1.00  0.00    -0.246 OA
BRANCH   6   8
ATOM      8  C   UNL A   1      31.913  24.637  24.830  1.00  0.00     0.087 C 
ATOM      9  C   UNL A   1      31.137  25.506  23.943  1.00  0.00     0.027 C 
ATOM     10  C   UNL A   1      33.176  25.250  26.161  1.00  0.00     0.316 C 
ATOM     11  C   UNL A   1      31.118  27.302  24.086  1.00  0.00     0.019 A 
ATOM     12  O   UNL A   1      33.131  27.195  26.350  1.00  0.00    -0.475 OA
ATOM     13  C   UNL A   1      30.197  27.919  23.283  1.00  0.00     0.032 A 
ATOM     14  C   UNL A   1      31.996  28.197  25.317  1.00  0.00     0.135 A 
ATOM     15  C   UNL A   1      30.010  29.267  23.550  1.00  0.00     0.042 A 
ATOM     16  C   UNL A   1      31.784  29.592  25.458  1.00  0.00     0.026 A 
ATOM     17  Cl  UNL A   1      28.838  30.115  22.597  1.00  0.00    -0.084 Cl
ATOM     18  C   UNL A   1      30.724  30.012  24.562  1.00  0.00     0.033 A 
BRANCH  10  19
ATOM     19  C   UNL A   1      34.301  24.165  25.744  1.00  0.00     0.430 C 
ATOM     20  F   UNL A   1      35.574  24.589  25.839  1.00  0.00    -0.167 F 
ATOM     21  F   UNL A   1      34.238  23.141  26.655  1.00  0.00    -0.167 F 
ATOM     22  F   UNL A   1      34.115  23.546  24.555  1.00  0.00    -0.167 F 
ENDBRANCH  10  19
BRANCH  16  23
ATOM     23  C   UNL A   1      32.377  30.825  26.320  1.00  0.00    -0.015 A 
ATOM     24  C   UNL A   1      33.983  30.282  26.971  1.00  0.00     0.009 A 
ATOM     25  C   UNL A   1      31.797  32.696  26.875  1.00  0.00     0.009 A 
ATOM     26  C   UNL A   1      34.914  31.369  28.015  1.00  0.00     0.001 A 
ATOM     27  C   UNL A   1      32.883  33.708  27.887  1.00  0.00     0.001 A 
ATOM     28  C   UNL A   1      34.386  33.010  28.444  1.00  0.00     0.000 A 
ENDBRANCH  16  23
ENDBRANCH   6   8
ENDBRANCH   5   6
ENDBRANCH   4   5
ENDBRANCH   3   4
ENDBRANCH   2   3
ENDBRANCH   1   2
BRANCH   1  29
ATOM     29  C   UNL A   1      37.062  19.710  24.962  1.00  0.00     0.261 C 
BRANCH  29  30
ATOM     30  O   UNL A   1      38.173  20.567  24.961  1.00  0.00    -0.460 OA
BRANCH  30  31
ATOM     31  C   UNL A   1      39.224  20.035  25.606  1.00  0.00     0.338 C 
ATOM     32  O   UNL A   1      39.689  18.918  25.526  1.00  0.00    -0.246 OA
BRANCH  31  33
ATOM     33  C   UNL A   1      39.682  21.109  26.469  1.00  0.00     0.060 A 
ATOM     34  C   UNL A   1      39.082  22.725  26.048  1.00  0.00     0.016 A 
ATOM     35  C   UNL A   1      41.053  20.800  27.549  1.00  0.00     0.016 A 
ATOM     36  C   UNL A   1      39.836  24.197  26.629  1.00  0.00     0.010 A 
ATOM     37  C   UNL A   1      41.929  22.226  28.196  1.00  0.00     0.010 A 
ATOM     38  C   UNL A   1      41.286  24.091  27.695  1.00  0.00    -0.014 A 
BRANCH  38  39
ATOM     39  C   UNL A   1      41.757  25.661  27.791  1.00  0.00     0.031 A 
ATOM     40  C   UNL A   1      43.089  26.150  27.191  1.00  0.00     0.074 A 
ATOM     41  C   UNL A   1      40.977  26.651  28.286  1.00  0.00     0.049 A 
ATOM     42  N   UNL A   1      43.801  27.224  27.473  1.00  0.00    -0.248 NA
ATOM     43  C   UNL A   1      43.712  25.314  26.159  1.00  0.00     0.031 C 
ATOM     44  C   UNL A   1      39.588  26.530  28.700  1.00  0.00     0.029 A 
ATOM     45  N   UNL A   1      41.284  27.965  28.592  1.00  0.00    -0.354 N 
ATOM     46  C   UNL A   1      44.988  27.111  26.745  1.00  0.00     0.074 A 
ATOM     47  C   UNL A   1      44.929  25.831  26.076  1.00  0.00     0.031 C 
ATOM     48  C   UNL A   1      39.208  27.639  29.349  1.00  0.00     0.029 A 
ATOM     49  C   UNL A   1      40.315  28.585  29.351  1.00  0.00     0.049 A 
ATOM     50  H   UNL A   1      42.110  28.412  28.298  1.00  0.00     0.167 HD
ATOM     51  C   UNL A   1      46.011  27.996  26.580  1.00  0.00     0.037 A 
ATOM     52  C   UNL A   1      40.297  29.766  30.000  1.00  0.00     0.037 A 
ATOM     53  C   UNL A   1      46.004  29.358  27.061  1.00  0.00     0.049 A 
ATOM     54  C   UNL A   1      41.432  30.734  29.838  1.00  0.00     0.074 A 
ATOM     55  C   UNL A   1      46.944  30.355  26.847  1.00  0.00     0.029 A 
ATOM     56  N   UNL A   1      44.983  29.936  27.796  1.00  0.00    -0.354 N 
ATOM     57  N   UNL A   1      42.566  30.581  29.204  1.00  0.00    -0.248 NA
ATOM     58  C   UNL A   1      41.249  32.068  30.430  1.00  0.00     0.031 C 
ATOM     59  C   UNL A   1      46.508  31.525  27.478  1.00  0.00     0.029 A 
ATOM     60  C   UNL A   1      45.271  31.271  28.043  1.00  0.00     0.049 A 
ATOM     61  H   UNL A   1      44.171  29.468  28.100  1.00  0.00     0.167 HD
ATOM     62  C   UNL A   1      43.203  31.815  29.267  1.00  0.00     0.074 A 
ATOM     63  C   UNL A   1      42.326  32.705  29.994  1.00  0.00     0.031 C 
ATOM     64  C   UNL A   1      44.404  32.174  28.754  1.00  0.00     0.037 A 
BRANCH  51  65
ATOM     65  C   UNL A   1      47.228  27.551  25.797  1.00  0.00     0.057 A 
ATOM     66  C   UNL A   1      48.349  26.973  26.409  1.00  0.00     0.134 A 
ATOM     67  C   UNL A   1      47.250  27.644  24.396  1.00  0.00     0.134 A 
ATOM     68  F   UNL A   1      48.399  26.832  27.743  1.00  0.00    -0.206 F 
ATOM     69  C   UNL A   1      49.463  26.563  25.671  1.00  0.00     0.040 A 
ATOM     70  C   UNL A   1      48.339  27.194  23.643  1.00  0.00     0.040 A 
ATOM     71  F   UNL A   1      46.203  28.150  23.728  1.00  0.00    -0.206 F 
ATOM     72  C   UNL A   1      49.457  26.665  24.283  1.00  0.00     0.006 A 
ENDBRANCH  51  65
BRANCH  52  73
ATOM     73  C   UNL A   1      39.127  30.124  30.844  1.00  0.00     0.057 A 
ATOM     74  C   UNL A   1      38.063  30.873  30.329  1.00  0.00     0.134 A 
ATOM     75  C   UNL A   1      39.059  29.744  32.191  1.00  0.00     0.134 A 
ATOM     76  F   UNL A   1      38.082  31.278  29.050  1.00  0.00    -0.206 F 
ATOM     77  C   UNL A   1      36.991  31.267  31.130  1.00  0.00     0.040 A 
ATOM     78  C   UNL A   1      37.978  30.109  32.997  1.00  0.00     0.040 A 
ATOM     79  F   UNL A   1      40.038  29.013  32.742  1.00  0.00    -0.206 F 
ATOM     80  C   UNL A   1      36.945  30.882  32.468  1.00  0.00     0.006 A 
ENDBRANCH  52  73
BRANCH  64  81
ATOM     81  C   UNL A   1      44.819  33.612  28.906  1.00  0.00     0.057 A 
ATOM     82  C   UNL A   1      45.541  34.067  30.018  1.00  0.00     0.134 A 
ATOM     83  C   UNL A   1      44.480  34.560  27.932  1.00  0.00     0.134 A 
ATOM     84  F   UNL A   1      45.887  33.217  30.996  1.00  0.00    -0.206 F 
ATOM     85  C   UNL A   1      45.870  35.415  30.177  1.00  0.00     0.040 A 
ATOM     86  C   UNL A   1      44.834  35.904  28.061  1.00  0.00     0.040 A 
ATOM     87  F   UNL A   1      43.797  34.198  26.834  1.00  0.00    -0.206 F 
ATOM     88  C   UNL A   1      45.520  36.338  29.193  1.00  0.00     0.006 A 
ENDBRANCH  64  81
ENDBRANCH  38  39
ENDBRANCH  31  33
ENDBRANCH  30  31
ENDBRANCH  29  30
ENDBRANCH   1  29
TORSDOF 16
ENDMDL
MODEL 2
REMARK VINA RESULT:     -13.5      4.095      6.633
REMARK SMILES O=C(OCCOCCOC(=O)c1ccc(-c2c3nc(c(-c4c(F)cccc4F)c4ccc([nH]4)c(-c4c(F)cccc4F)c4nc(c(-c5c(F)cccc5F)c5ccc2[nH]5)C=C4)C=C3)cc1)C1=Cc2cc(Cl)cc(-c3ccccc3)c2O[C@@H]1C(F)(F)F
REMARK SMILES IDX 7 1 6 2 5 3 4 4 3 5 2 6 1 7 66 8 67 9 82 10 68 11 81 12
REMARK SMILES IDX 69 13 80 14 70 15 73 16 71 17 72 18 83 19 84 20 85 21 86 22
REMARK SMILES IDX 74 23 75 24 79 25 76 26 78 27 77 28 8 29 9 30 10 31 11 32
REMARK SMILES IDX 12 33 13 34 65 35 14 36 64 37 15 38 16 39 17 40 58 41 18 42
REMARK SMILES IDX 63 43 57 44 59 45 19 46 62 47 56 48 55 49 20 51 46 52 29 53
REMARK SMILES IDX 45 54 30 55 33 56 44 57 60 58 31 59 32 60 43 62 61 63 34 64
REMARK SMILES IDX 21 65 22 66 27 67 23 68 24 69 26 70 28 71 25 72 47 73 48 74
REMARK SMILES IDX 53 75 49 76 50 77 52 78 54 79 51 80 35 81 36 82 41 83 37 84
REMARK SMILES IDX 38 85 40 86 42 87 39 88
REMARK H PARENT 59 50 33 61
REMARK Flexibility Score: inf
ROOT
ATOM      1  C   UNL A   1      40.274  20.874  26.445  1.00  0.00     0.202 C 
ENDROOT
BRANCH   1   2
ATOM      2  O   UNL A   1      39.181  21.754  26.070  1.00  0.00    -0.374 OA
BRANCH   2   3
ATOM      3  C   UNL A   1      37.777  21.562  25.232  1.00  0.00     0.202 C 
BRANCH   3   4
ATOM      4  C   UNL A   1      36.666  22.983  24.015  1.00  0.00     0.261 C 
BRANCH   4   5
ATOM      5  O   UNL A   1      35.545  23.952  24.538  1.00  0.00    -0.460 OA
BRANCH   5   6
ATOM      6  C   UNL A   1      34.547  24.138  23.666  1.00  0.00     0.338 C 
ATOM      7  O   UNL A   1      34.558  24.304  22.473  1.00  0.00    -0.246 OA
BRANCH   6   8
ATOM      8  C   UNL A   1      33.552  24.373  24.677  1.00  0.00     0.087 C 
ATOM      9  C   UNL A   1      34.015  25.391  25.622  1.00  0.00     0.027 C 
ATOM     10  C   UNL A   1      32.025  24.557  23.503  1.00  0.00     0.316 C 
ATOM     11  C   UNL A   1      33.322  27.052  25.704  1.00  0.00     0.019 A 
ATOM     12  O   UNL A   1      31.294  26.368  23.558  1.00  0.00    -0.475 OA
ATOM     13  C   UNL A   1      34.007  27.906  26.526  1.00  0.00     0.032 A 
ATOM     14  C   UNL A   1      32.048  27.637  24.644  1.00  0.00     0.135 A 
ATOM     15  C   UNL A   1      33.630  29.235  26.420  1.00  0.00     0.042 A 
ATOM     16  C   UNL A   1      31.689  29.008  24.667  1.00  0.00     0.026 A 
ATOM     17  Cl  UNL A   1      34.470  30.386  27.407  1.00  0.00    -0.084 Cl
ATOM     18  C   UNL A   1      32.586  29.728  25.550  1.00  0.00     0.033 A 
BRANCH  10  19
ATOM     19  C   UNL A   1      31.455  23.081  23.843  1.00  0.00     0.430 C 
ATOM     20  F   UNL A   1      31.060  22.894  25.114  1.00  0.00    -0.167 F 
ATOM     21  F   UNL A   1      30.299  22.916  23.123  1.00  0.00    -0.167 F 
ATOM     22  F   UNL A   1      32.228  22.043  23.447  1.00  0.00    -0.167 F 
ENDBRANCH  10  19
BRANCH  16  23
ATOM     23  C   UNL A   1      30.581  29.980  24.000  1.00  0.00    -0.015 A 
ATOM     24  C   UNL A   1      30.278  29.352  22.324  1.00  0.00     0.009 A 
ATOM     25  C   UNL A   1      29.544  31.657  24.507  1.00  0.00     0.009 A 
ATOM     26  C   UNL A   1      29.142  30.205  21.265  1.00  0.00     0.001 A 
ATOM     27  C   UNL A   1      28.375  32.373  23.345  1.00  0.00     0.001 A 
ATOM     28  C   UNL A   1      28.230  31.646  21.761  1.00  0.00     0.000 A 
ENDBRANCH  16  23
ENDBRANCH   6   8
ENDBRANCH   5   6
ENDBRANCH   4   5
ENDBRANCH   3   4
ENDBRANCH   2   3
ENDBRANCH   1   2
BRANCH   1  29
ATOM     29  C   UNL A   1      41.696  21.337  26.122  1.00  0.00     0.261 C 
BRANCH  29  30
ATOM     30  O   UNL A   1      41.989  22.529  26.804  1.00  0.00    -0.460 OA
BRANCH  30  31
ATOM     31  C   UNL A   1      42.307  23.528  25.964  1.00  0.00     0.338 C 
ATOM     32  O   UNL A   1      43.034  23.514  24.994  1.00  0.00    -0.246 OA
BRANCH  31  33
ATOM     33  C   UNL A   1      41.594  24.673  26.502  1.00  0.00     0.060 A 
ATOM     34  C   UNL A   1      42.617  26.028  27.016  1.00  0.00     0.016 A 
ATOM     35  C   UNL A   1      39.895  24.470  26.962  1.00  0.00     0.016 A 
ATOM     36  C   UNL A   1      42.049  27.289  28.092  1.00  0.00     0.010 A 
ATOM     37  C   UNL A   1      39.195  25.685  28.082  1.00  0.00     0.010 A 
ATOM     38  C   UNL A   1      40.361  27.226  28.721  1.00  0.00    -0.014 A 
BRANCH  38  39
ATOM     39  C   UNL A   1      40.360  28.441  29.825  1.00  0.00     0.031 A 
ATOM     40  C   UNL A   1      41.318  28.447  31.032  1.00  0.00     0.074 A 
ATOM     41  C   UNL A   1      39.619  29.568  29.702  1.00  0.00     0.049 A 
ATOM     42  N   UNL A   1      41.231  29.088  32.180  1.00  0.00    -0.248 NA
ATOM     43  C   UNL A   1      42.518  27.607  30.944  1.00  0.00     0.031 C 
ATOM     44  C   UNL A   1      38.808  29.947  28.557  1.00  0.00     0.029 A 
ATOM     45  N   UNL A   1      39.377  30.584  30.610  1.00  0.00    -0.354 N 
ATOM     46  C   UNL A   1      42.287  28.628  32.970  1.00  0.00     0.074 A 
ATOM     47  C   UNL A   1      42.949  27.601  32.197  1.00  0.00     0.031 C 
ATOM     48  C   UNL A   1      38.038  30.998  28.871  1.00  0.00     0.029 A 
ATOM     49  C   UNL A   1      38.340  31.410  30.234  1.00  0.00     0.049 A 
ATOM     50  H   UNL A   1      39.893  30.705  31.440  1.00  0.00     0.167 HD
ATOM     51  C   UNL A   1      42.725  29.045  34.191  1.00  0.00     0.037 A 
ATOM     52  C   UNL A   1      37.678  32.382  30.893  1.00  0.00     0.037 A 
ATOM     53  C   UNL A   1      42.219  30.202  34.893  1.00  0.00     0.049 A 
ATOM     54  C   UNL A   1      38.143  32.829  32.247  1.00  0.00     0.074 A 
ATOM     55  C   UNL A   1      42.675  30.762  36.077  1.00  0.00     0.029 A 
ATOM     56  N   UNL A   1      41.190  31.015  34.448  1.00  0.00    -0.354 N 
ATOM     57  N   UNL A   1      39.096  32.339  32.999  1.00  0.00    -0.248 NA
ATOM     58  C   UNL A   1      37.480  34.013  32.814  1.00  0.00     0.031 C 
ATOM     59  C   UNL A   1      41.903  31.892  36.365  1.00  0.00     0.029 A 
ATOM     60  C   UNL A   1      40.999  32.067  35.332  1.00  0.00     0.049 A 
ATOM     61  H   UNL A   1      40.671  30.869  33.624  1.00  0.00     0.167 HD
ATOM     62  C   UNL A   1      39.188  33.190  34.094  1.00  0.00     0.074 A 
ATOM     63  C   UNL A   1      38.201  34.229  33.905  1.00  0.00     0.031 C 
ATOM     64  C   UNL A   1      40.029  33.116  35.154  1.00  0.00     0.037 A 
BRANCH  51  65
ATOM     65  C   UNL A   1      43.854  28.282  34.850  1.00  0.00     0.057 A 
ATOM     66  C   UNL A   1      45.198  28.654  34.713  1.00  0.00     0.134 A 
ATOM     67  C   UNL A   1      43.582  27.193  35.695  1.00  0.00     0.134 A 
ATOM     68  F   UNL A   1      45.540  29.695  33.938  1.00  0.00    -0.206 F 
ATOM     69  C   UNL A   1      46.228  27.942  35.333  1.00  0.00     0.040 A 
ATOM     70  C   UNL A   1      44.601  26.502  36.359  1.00  0.00     0.040 A 
ATOM     71  F   UNL A   1      42.320  26.795  35.913  1.00  0.00    -0.206 F 
ATOM     72  C   UNL A   1      45.930  26.867  36.166  1.00  0.00     0.006 A 
ENDBRANCH  51  65
BRANCH  52  73
ATOM     73  C   UNL A   1      36.507  33.037  30.253  1.00  0.00     0.057 A 
ATOM     74  C   UNL A   1      35.200  32.623  30.535  1.00  0.00     0.134 A 
ATOM     75  C   UNL A   1      36.671  34.076  29.328  1.00  0.00     0.134 A 
ATOM     76  F   UNL A   1      34.984  31.622  31.401  1.00  0.00    -0.206 F 
ATOM     77  C   UNL A   1      34.099  33.190  29.893  1.00  0.00     0.040 A 
ATOM     78  C   UNL A   1      35.576  34.671  28.699  1.00  0.00     0.040 A 
ATOM     79  F   UNL A   1      37.896  34.530  29.025  1.00  0.00    -0.206 F 
ATOM     80  C   UNL A   1      34.285  34.219  28.973  1.00  0.00     0.006 A 
ENDBRANCH  52  73
BRANCH  64  81
ATOM     81  C   UNL A   1      39.962  34.225  36.168  1.00  0.00     0.057 A 
ATOM     82  C   UNL A   1      40.706  35.406  36.032  1.00  0.00     0.134 A 
ATOM     83  C   UNL A   1      39.151  34.107  37.304  1.00  0.00     0.134 A 
ATOM     84  F   UNL A   1      41.514  35.581  34.975  1.00  0.00    -0.206 F 
ATOM     85  C   UNL A   1      40.681  36.404  37.008  1.00  0.00     0.040 A 
ATOM     86  C   UNL A   1      39.089  35.113  38.269  1.00  0.00     0.040 A 
ATOM     87  F   UNL A   1      38.402  33.010  37.498  1.00  0.00    -0.206 F 
ATOM     88  C   UNL A   1      39.867  36.261  38.130  1.00  0.00     0.006 A 
ENDBRANCH  64  81
ENDBRANCH  38  39
ENDBRANCH  31  33
ENDBRANCH  30  31
ENDBRANCH  29  30
ENDBRANCH   1  29
TORSDOF 16
ENDMDL
MODEL 3
REMARK VINA RESULT:     -13.3      2.840      8.836
REMARK SMILES O=C(OCCOCCOC(=O)c1ccc(-c2c3nc(c(-c4c(F)cccc4F)c4ccc([nH]4)c(-c4c(F)cccc4F)c4nc(c(-c5c(F)cccc5F)c5ccc2[nH]5)C=C4)C=C3)cc1)C1=Cc2cc(Cl)cc(-c3ccccc3)c2O[C@@H]1C(F)(F)F
REMARK SMILES IDX 7 1 6 2 5 3 4 4 3 5 2 6 1 7 66 8 67 9 82 10 68 11 81 12
REMARK SMILES IDX 69 13 80 14 70 15 73 16 71 17 72 18 83 19 84 20 85 21 86 22
REMARK SMILES IDX 74 23 75 24 79 25 76 26 78 27 77 28 8 29 9 30 10 31 11 32
REMARK SMILES IDX 12 33 13 34 65 35 14 36 64 37 15 38 16 39 17 40 58 41 18 42
REMARK SMILES IDX 63 43 57 44 59 45 19 46 62 47 56 48 55 49 20 51 46 52 29 53
REMARK SMILES IDX 45 54 30 55 33 56 44 57 60 58 31 59 32 60 43 62 61 63 34 64
REMARK SMILES IDX 21 65 22 66 27 67 23 68 24 69 26 70 28 71 25 72 47 73 48 74
REMARK SMILES IDX 53 75 49 76 50 77 52 78 54 79 51 80 35 81 36 82 41 83 37 84
REMARK SMILES IDX 38 85 40 86 42 87 39 88
REMARK H PARENT 59 50 33 61
REMARK Flexibility Score: inf
ROOT
ATOM      1  C   UNL A   1      33.707  32.953  27.996  1.00  0.00     0.202 C 
ENDROOT
BRANCH   1   2
ATOM      2  O   UNL A   1      33.605  31.536  27.690  1.00  0.00    -0.374 OA
BRANCH   2   3
ATOM      3  C   UNL A   1      32.398  30.552  27.157  1.00  0.00     0.202 C 
BRANCH   3   4
ATOM      4  C   UNL A   1      32.244  28.382  27.189  1.00  0.00     0.261 C 
BRANCH   4   5
ATOM      5  O   UNL A   1      32.777  27.412  26.073  1.00  0.00    -0.460 OA
BRANCH   5   6
ATOM      6  C   UNL A   1      32.265  26.178  26.145  1.00  0.00     0.338 C 
ATOM      7  O   UNL A   1      31.735  25.591  27.053  1.00  0.00    -0.246 OA
BRANCH   6   8
ATOM      8  C   UNL A   1      32.844  25.741  24.903  1.00  0.00     0.087 C 
ATOM      9  C   UNL A   1      34.288  25.557  25.050  1.00  0.00     0.027 C 
ATOM     10  C   UNL A   1      31.577  24.333  24.506  1.00  0.00     0.316 C 
ATOM     11  C   UNL A   1      35.084  23.941  25.054  1.00  0.00     0.019 A 
ATOM     12  O   UNL A   1      32.426  22.573  24.549  1.00  0.00    -0.475 OA
ATOM     13  C   UNL A   1      36.413  23.970  25.381  1.00  0.00     0.032 A 
ATOM     14  C   UNL A   1      34.216  22.419  24.917  1.00  0.00     0.135 A 
ATOM     15  C   UNL A   1      36.977  22.726  25.615  1.00  0.00     0.042 A 
ATOM     16  C   UNL A   1      34.907  21.196  25.104  1.00  0.00     0.026 A 
ATOM     17  Cl  UNL A   1      38.650  22.678  26.064  1.00  0.00    -0.084 Cl
ATOM     18  C   UNL A   1      36.272  21.469  25.509  1.00  0.00     0.033 A 
BRANCH  10  19
ATOM     19  C   UNL A   1      30.802  25.203  23.384  1.00  0.00     0.430 C 
ATOM     20  F   UNL A   1      31.557  25.611  22.348  1.00  0.00    -0.167 F 
ATOM     21  F   UNL A   1      29.876  24.378  22.798  1.00  0.00    -0.167 F 
ATOM     22  F   UNL A   1      30.062  26.238  23.844  1.00  0.00    -0.167 F 
ENDBRANCH  10  19
BRANCH  16  23
ATOM     23  C   UNL A   1      34.609  19.609  24.996  1.00  0.00    -0.015 A 
ATOM     24  C   UNL A   1      32.850  19.381  25.383  1.00  0.00     0.009 A 
ATOM     25  C   UNL A   1      35.650  17.901  24.615  1.00  0.00     0.009 A 
ATOM     26  C   UNL A   1      32.168  17.746  25.410  1.00  0.00     0.001 A 
ATOM     27  C   UNL A   1      34.803  16.317  24.615  1.00  0.00     0.001 A 
ATOM     28  C   UNL A   1      33.105  16.284  25.035  1.00  0.00     0.000 A 
ENDBRANCH  16  23
ENDBRANCH   6   8
ENDBRANCH   5   6
ENDBRANCH   4   5
ENDBRANCH   3   4
ENDBRANCH   2   3
ENDBRANCH   1   2
BRANCH   1  29
ATOM     29  C   UNL A   1      34.249  33.341  29.372  1.00  0.00     0.261 C 
BRANCH  29  30
ATOM     30  O   UNL A   1      35.538  32.816  29.555  1.00  0.00    -0.460 OA
BRANCH  30  31
ATOM     31  C   UNL A   1      35.586  31.931  30.564  1.00  0.00     0.338 C 
ATOM     32  O   UNL A   1      35.042  31.970  31.648  1.00  0.00    -0.246 OA
BRANCH  31  33
ATOM     33  C   UNL A   1      36.479  30.896  30.076  1.00  0.00     0.060 A 
ATOM     34  C   UNL A   1      37.898  30.579  31.094  1.00  0.00     0.016 A 
ATOM     35  C   UNL A   1      36.314  30.360  28.395  1.00  0.00     0.016 A 
ATOM     36  C   UNL A   1      39.318  29.738  30.505  1.00  0.00     0.010 A 
ATOM     37  C   UNL A   1      37.710  29.505  27.661  1.00  0.00     0.010 A 
ATOM     38  C   UNL A   1      39.366  29.166  28.796  1.00  0.00    -0.014 A 
BRANCH  38  39
ATOM     39  C   UNL A   1      40.922  28.661  28.647  1.00  0.00     0.031 A 
ATOM     40  C   UNL A   1      42.108  29.640  28.735  1.00  0.00     0.074 A 
ATOM     41  C   UNL A   1      41.284  27.360  28.557  1.00  0.00     0.049 A 
ATOM     42  N   UNL A   1      43.342  29.518  28.287  1.00  0.00    -0.248 NA
ATOM     43  C   UNL A   1      41.871  30.930  29.391  1.00  0.00     0.031 C 
ATOM     44  C   UNL A   1      40.406  26.208  28.688  1.00  0.00     0.029 A 
ATOM     45  N   UNL A   1      42.508  26.790  28.256  1.00  0.00    -0.354 N 
ATOM     46  C   UNL A   1      43.964  30.750  28.504  1.00  0.00     0.074 A 
ATOM     47  C   UNL A   1      42.948  31.622  29.049  1.00  0.00     0.031 C 
ATOM     48  C   UNL A   1      41.054  25.096  28.315  1.00  0.00     0.029 A 
ATOM     49  C   UNL A   1      42.424  25.445  27.966  1.00  0.00     0.049 A 
ATOM     50  H   UNL A   1      43.355  27.293  28.251  1.00  0.00     0.167 HD
ATOM     51  C   UNL A   1      45.262  31.126  28.337  1.00  0.00     0.037 A 
ATOM     52  C   UNL A   1      43.319  24.573  27.462  1.00  0.00     0.037 A 
ATOM     53  C   UNL A   1      46.340  30.227  27.996  1.00  0.00     0.049 A 
ATOM     54  C   UNL A   1      44.746  24.990  27.256  1.00  0.00     0.074 A 
ATOM     55  C   UNL A   1      47.698  30.497  27.914  1.00  0.00     0.029 A 
ATOM     56  N   UNL A   1      46.197  28.873  27.745  1.00  0.00    -0.354 N 
ATOM     57  N   UNL A   1      45.293  26.170  27.403  1.00  0.00    -0.248 NA
ATOM     58  C   UNL A   1      45.694  23.931  26.877  1.00  0.00     0.031 C 
ATOM     59  C   UNL A   1      48.371  29.316  27.583  1.00  0.00     0.029 A 
ATOM     60  C   UNL A   1      47.438  28.298  27.509  1.00  0.00     0.049 A 
ATOM     61  H   UNL A   1      45.339  28.388  27.736  1.00  0.00     0.167 HD
ATOM     62  C   UNL A   1      46.655  25.983  27.197  1.00  0.00     0.074 A 
ATOM     63  C   UNL A   1      46.850  24.577  26.923  1.00  0.00     0.031 C 
ATOM     64  C   UNL A   1      47.651  26.899  27.245  1.00  0.00     0.037 A 
BRANCH  51  65
ATOM     65  C   UNL A   1      45.627  32.577  28.568  1.00  0.00     0.057 A 
ATOM     66  C   UNL A   1      46.041  33.062  29.817  1.00  0.00     0.134 A 
ATOM     67  C   UNL A   1      45.629  33.492  27.503  1.00  0.00     0.134 A 
ATOM     68  F   UNL A   1      46.085  32.247  30.882  1.00  0.00    -0.206 F 
ATOM     69  C   UNL A   1      46.380  34.404  30.012  1.00  0.00     0.040 A 
ATOM     70  C   UNL A   1      46.011  34.826  27.675  1.00  0.00     0.040 A 
ATOM     71  F   UNL A   1      45.283  33.102  26.266  1.00  0.00    -0.206 F 
ATOM     72  C   UNL A   1      46.374  35.289  28.937  1.00  0.00     0.006 A 
ENDBRANCH  51  65
BRANCH  52  73
ATOM     73  C   UNL A   1      42.897  23.183  27.149  1.00  0.00     0.057 A 
ATOM     74  C   UNL A   1      42.635  22.783  25.834  1.00  0.00     0.134 A 
ATOM     75  C   UNL A   1      42.722  22.231  28.161  1.00  0.00     0.134 A 
ATOM     76  F   UNL A   1      42.770  23.658  24.825  1.00  0.00    -0.206 F 
ATOM     77  C   UNL A   1      42.178  21.499  25.537  1.00  0.00     0.040 A 
ATOM     78  C   UNL A   1      42.291  20.933  27.876  1.00  0.00     0.040 A 
ATOM     79  F   UNL A   1      42.971  22.546  29.441  1.00  0.00    -0.206 F 
ATOM     80  C   UNL A   1      42.007  20.569  26.560  1.00  0.00     0.006 A 
ENDBRANCH  52  73
BRANCH  64  81
ATOM     81  C   UNL A   1      49.058  26.401  27.056  1.00  0.00     0.057 A 
ATOM     82  C   UNL A   1      49.701  26.436  25.810  1.00  0.00     0.134 A 
ATOM     83  C   UNL A   1      49.777  25.866  28.132  1.00  0.00     0.134 A 
ATOM     84  F   UNL A   1      49.067  26.923  24.733  1.00  0.00    -0.206 F 
ATOM     85  C   UNL A   1      50.986  25.918  25.634  1.00  0.00     0.040 A 
ATOM     86  C   UNL A   1      51.076  25.377  27.977  1.00  0.00     0.040 A 
ATOM     87  F   UNL A   1      49.232  25.808  29.357  1.00  0.00    -0.206 F 
ATOM     88  C   UNL A   1      51.679  25.390  26.721  1.00  0.00     0.006 A 
ENDBRANCH  64  81
ENDBRANCH  38  39
ENDBRANCH  31  33
ENDBRANCH  30  31
ENDBRANCH  29  30
ENDBRANCH   1  29
TORSDOF 16
ENDMDL
