MODEL 1
REMARK VINA RESULT:      -8.9      0.000      0.000
REMARK SMILES O=C(OCCOCCOC(=O)c1ccc(-c2ccc(Cl)cc2)cc1F)c1ccc(-c2c3nc(c(-c4c(F)cccc4F)c4ccc([nH]4)c(-c4c(F)cccc4F)c4nc(c(-c5c(F)cccc5F)c5ccc2[nH]5)C=C4)C=C3)cc1
REMARK SMILES IDX 5 1 4 2 3 3 2 4 1 5 26 6 27 7 79 8 28 9 78 10 29 11 30 12
REMARK SMILES IDX 31 13 72 14 32 15 77 16 71 17 73 18 33 19 76 20 70 21 69 22
REMARK SMILES IDX 34 24 60 25 43 26 59 27 44 28 47 29 58 30 74 31 45 32 46 33
REMARK SMILES IDX 57 35 75 36 48 37 35 38 36 39 41 40 37 41 38 42 40 43 42 44
REMARK SMILES IDX 39 45 61 46 62 47 67 48 63 49 64 50 66 51 68 52 65 53 49 54
REMARK SMILES IDX 50 55 55 56 51 57 52 58 54 59 56 60 53 61 6 62 7 63 8 64
REMARK SMILES IDX 9 65 10 66 11 67 12 68 13 69 24 70 14 71 23 72 25 73 15 74
REMARK SMILES IDX 16 75 17 76 22 77 18 78 21 79 19 80 20 81
REMARK H PARENT 73 23 47 34
REMARK Flexibility Score: inf
ROOT
ATOM      1  C   UNL A   1      32.865  36.069  30.781  1.00  0.00     0.202 C 
ENDROOT
BRANCH   1   2
ATOM      2  C   UNL A   1      33.003  36.094  29.256  1.00  0.00     0.261 C 
BRANCH   2   3
ATOM      3  O   UNL A   1      32.528  34.866  28.683  1.00  0.00    -0.460 OA
BRANCH   3   4
ATOM      4  C   UNL A   1      33.237  33.793  28.261  1.00  0.00     0.338 C 
ATOM      5  O   UNL A   1      32.750  33.082  27.383  1.00  0.00    -0.246 OA
BRANCH   4   6
ATOM      6  C   UNL A   1      34.592  33.424  28.779  1.00  0.00     0.060 A 
ATOM      7  C   UNL A   1      35.808  33.793  28.202  1.00  0.00     0.016 A 
ATOM      8  C   UNL A   1      34.634  32.707  29.988  1.00  0.00     0.016 A 
ATOM      9  C   UNL A   1      37.020  33.415  28.753  1.00  0.00     0.010 A 
ATOM     10  C   UNL A   1      35.852  32.343  30.571  1.00  0.00     0.010 A 
ATOM     11  C   UNL A   1      37.047  32.677  29.930  1.00  0.00    -0.014 A 
BRANCH  11  12
ATOM     12  C   UNL A   1      38.352  32.144  30.351  1.00  0.00     0.031 A 
ATOM     13  C   UNL A   1      38.788  30.833  29.776  1.00  0.00     0.074 A 
ATOM     14  C   UNL A   1      39.184  32.922  31.063  1.00  0.00     0.049 A 
ATOM     15  N   UNL A   1      39.905  30.184  29.951  1.00  0.00    -0.248 NA
ATOM     16  C   UNL A   1      37.844  30.175  28.854  1.00  0.00     0.031 C 
ATOM     17  C   UNL A   1      38.875  34.277  31.525  1.00  0.00     0.029 A 
ATOM     18  N   UNL A   1      40.470  32.711  31.474  1.00  0.00    -0.354 N 
ATOM     19  C   UNL A   1      39.792  29.037  29.177  1.00  0.00     0.074 A 
ATOM     20  C   UNL A   1      38.497  29.069  28.539  1.00  0.00     0.031 C 
ATOM     21  C   UNL A   1      39.960  34.789  32.129  1.00  0.00     0.029 A 
ATOM     22  C   UNL A   1      41.011  33.777  32.150  1.00  0.00     0.049 A 
ATOM     23  H   UNL A   1      40.961  31.874  31.304  1.00  0.00     0.167 HD
ATOM     24  C   UNL A   1      40.699  28.047  29.022  1.00  0.00     0.037 A 
ATOM     25  C   UNL A   1      42.216  33.903  32.733  1.00  0.00     0.037 A 
ATOM     26  C   UNL A   1      41.976  28.045  29.681  1.00  0.00     0.049 A 
ATOM     27  C   UNL A   1      43.167  32.742  32.638  1.00  0.00     0.074 A 
ATOM     28  C   UNL A   1      42.943  27.061  29.694  1.00  0.00     0.029 A 
ATOM     29  N   UNL A   1      42.457  29.098  30.450  1.00  0.00    -0.354 N 
ATOM     30  N   UNL A   1      43.020  31.609  31.991  1.00  0.00    -0.248 NA
ATOM     31  C   UNL A   1      44.440  32.864  33.359  1.00  0.00     0.031 C 
ATOM     32  C   UNL A   1      43.993  27.502  30.505  1.00  0.00     0.029 A 
ATOM     33  C   UNL A   1      43.705  28.785  30.952  1.00  0.00     0.049 A 
ATOM     34  H   UNL A   1      41.978  29.944  30.614  1.00  0.00     0.167 HD
ATOM     35  C   UNL A   1      44.184  30.888  32.210  1.00  0.00     0.074 A 
ATOM     36  C   UNL A   1      45.033  31.719  33.043  1.00  0.00     0.031 C 
ATOM     37  C   UNL A   1      44.521  29.651  31.769  1.00  0.00     0.037 A 
BRANCH  24  38
ATOM     38  C   UNL A   1      40.294  26.879  28.174  1.00  0.00     0.057 A 
ATOM     39  C   UNL A   1      40.823  26.723  26.887  1.00  0.00     0.134 A 
ATOM     40  C   UNL A   1      39.422  25.885  28.638  1.00  0.00     0.134 A 
ATOM     41  F   UNL A   1      41.674  27.631  26.385  1.00  0.00    -0.206 F 
ATOM     42  C   UNL A   1      40.502  25.621  26.092  1.00  0.00     0.040 A 
ATOM     43  C   UNL A   1      39.112  24.766  27.862  1.00  0.00     0.040 A 
ATOM     44  F   UNL A   1      38.906  25.956  29.874  1.00  0.00    -0.206 F 
ATOM     45  C   UNL A   1      39.651  24.633  26.583  1.00  0.00     0.006 A 
ENDBRANCH  24  38
BRANCH  25  46
ATOM     46  C   UNL A   1      42.560  35.152  33.461  1.00  0.00     0.057 A 
ATOM     47  C   UNL A   1      42.280  35.295  34.827  1.00  0.00     0.134 A 
ATOM     48  C   UNL A   1      43.137  36.246  32.808  1.00  0.00     0.134 A 
ATOM     49  F   UNL A   1      41.727  34.285  35.514  1.00  0.00    -0.206 F 
ATOM     50  C   UNL A   1      42.533  36.487  35.508  1.00  0.00     0.040 A 
ATOM     51  C   UNL A   1      43.418  37.437  33.483  1.00  0.00     0.040 A 
ATOM     52  F   UNL A   1      43.446  36.169  31.505  1.00  0.00    -0.206 F 
ATOM     53  C   UNL A   1      43.105  37.563  34.836  1.00  0.00     0.006 A 
ENDBRANCH  25  46
BRANCH  37  54
ATOM     54  C   UNL A   1      45.877  29.135  32.147  1.00  0.00     0.057 A 
ATOM     55  C   UNL A   1      46.104  28.626  33.432  1.00  0.00     0.134 A 
ATOM     56  C   UNL A   1      46.969  29.232  31.279  1.00  0.00     0.134 A 
ATOM     57  F   UNL A   1      45.097  28.522  34.312  1.00  0.00    -0.206 F 
ATOM     58  C   UNL A   1      47.380  28.247  33.847  1.00  0.00     0.040 A 
ATOM     59  C   UNL A   1      48.246  28.831  31.674  1.00  0.00     0.040 A 
ATOM     60  F   UNL A   1      46.810  29.704  30.033  1.00  0.00    -0.206 F 
ATOM     61  C   UNL A   1      48.455  28.347  32.965  1.00  0.00     0.006 A 
ENDBRANCH  37  54
ENDBRANCH  11  12
ENDBRANCH   4   6
ENDBRANCH   3   4
ENDBRANCH   2   3
ENDBRANCH   1   2
BRANCH   1  62
ATOM     62  O   UNL A   1      34.090  35.833  31.477  1.00  0.00    -0.374 OA
BRANCH  62  63
ATOM     63  C   UNL A   1      33.995  35.768  32.906  1.00  0.00     0.202 C 
BRANCH  63  64
ATOM     64  C   UNL A   1      34.383  34.371  33.386  1.00  0.00     0.261 C 
BRANCH  64  65
ATOM     65  O   UNL A   1      35.791  34.375  33.649  1.00  0.00    -0.460 OA
BRANCH  65  66
ATOM     66  C   UNL A   1      36.152  33.825  34.832  1.00  0.00     0.341 C 
ATOM     67  O   UNL A   1      35.583  33.930  35.909  1.00  0.00    -0.246 OA
BRANCH  66  68
ATOM     68  C   UNL A   1      37.240  32.868  34.589  1.00  0.00     0.095 A 
ATOM     69  C   UNL A   1      36.967  31.732  33.815  1.00  0.00     0.019 A 
ATOM     70  C   UNL A   1      38.517  33.073  35.096  1.00  0.00     0.138 A 
ATOM     71  C   UNL A   1      37.969  30.785  33.592  1.00  0.00     0.010 A 
ATOM     72  C   UNL A   1      39.511  32.127  34.886  1.00  0.00     0.049 A 
ATOM     73  F   UNL A   1      38.809  34.144  35.849  1.00  0.00    -0.206 F 
ATOM     74  C   UNL A   1      39.235  30.951  34.170  1.00  0.00    -0.015 A 
BRANCH  74  75
ATOM     75  C   UNL A   1      40.192  29.846  34.207  1.00  0.00    -0.018 A 
ATOM     76  C   UNL A   1      40.050  28.821  33.252  1.00  0.00     0.010 A 
ATOM     77  C   UNL A   1      41.239  29.768  35.132  1.00  0.00     0.010 A 
ATOM     78  C   UNL A   1      40.922  27.737  33.226  1.00  0.00     0.021 A 
ATOM     79  C   UNL A   1      42.115  28.676  35.108  1.00  0.00     0.021 A 
ATOM     80  C   UNL A   1      41.951  27.668  34.158  1.00  0.00     0.041 A 
ATOM     81  Cl  UNL A   1      43.024  26.325  34.131  1.00  0.00    -0.084 Cl
ENDBRANCH  74  75
ENDBRANCH  66  68
ENDBRANCH  65  66
ENDBRANCH  64  65
ENDBRANCH  63  64
ENDBRANCH  62  63
ENDBRANCH   1  62
TORSDOF 15
ENDMDL
MODEL 2
REMARK VINA RESULT:      -8.8      5.474     11.323
REMARK SMILES O=C(OCCOCCOC(=O)c1ccc(-c2ccc(Cl)cc2)cc1F)c1ccc(-c2c3nc(c(-c4c(F)cccc4F)c4ccc([nH]4)c(-c4c(F)cccc4F)c4nc(c(-c5c(F)cccc5F)c5ccc2[nH]5)C=C4)C=C3)cc1
REMARK SMILES IDX 5 1 4 2 3 3 2 4 1 5 26 6 27 7 79 8 28 9 78 10 29 11 30 12
REMARK SMILES IDX 31 13 72 14 32 15 77 16 71 17 73 18 33 19 76 20 70 21 69 22
REMARK SMILES IDX 34 24 60 25 43 26 59 27 44 28 47 29 58 30 74 31 45 32 46 33
REMARK SMILES IDX 57 35 75 36 48 37 35 38 36 39 41 40 37 41 38 42 40 43 42 44
REMARK SMILES IDX 39 45 61 46 62 47 67 48 63 49 64 50 66 51 68 52 65 53 49 54
REMARK SMILES IDX 50 55 55 56 51 57 52 58 54 59 56 60 53 61 6 62 7 63 8 64
REMARK SMILES IDX 9 65 10 66 11 67 12 68 13 69 24 70 14 71 23 72 25 73 15 74
REMARK SMILES IDX 16 75 17 76 22 77 18 78 21 79 19 80 20 81
REMARK H PARENT 73 23 47 34
REMARK Flexibility Score: inf
ROOT
ATOM      1  C   UNL A   1      45.968  22.209  25.210  1.00  0.00     0.202 C 
ENDROOT
BRANCH   1   2
ATOM      2  C   UNL A   1      45.986  23.403  24.250  1.00  0.00     0.261 C 
BRANCH   2   3
ATOM      3  O   UNL A   1      45.121  24.448  24.723  1.00  0.00    -0.460 OA
BRANCH   3   4
ATOM      4  C   UNL A   1      43.821  24.374  25.092  1.00  0.00     0.338 C 
ATOM      5  O   UNL A   1      43.111  23.527  24.554  1.00  0.00    -0.246 OA
BRANCH   4   6
ATOM      6  C   UNL A   1      43.191  25.247  26.132  1.00  0.00     0.060 A 
ATOM      7  C   UNL A   1      43.484  26.594  26.344  1.00  0.00     0.016 A 
ATOM      8  C   UNL A   1      42.168  24.671  26.907  1.00  0.00     0.016 A 
ATOM      9  C   UNL A   1      42.846  27.333  27.326  1.00  0.00     0.010 A 
ATOM     10  C   UNL A   1      41.495  25.414  27.883  1.00  0.00     0.010 A 
ATOM     11  C   UNL A   1      41.861  26.743  28.108  1.00  0.00    -0.014 A 
BRANCH  11  12
ATOM     12  C   UNL A   1      41.367  27.520  29.254  1.00  0.00     0.031 A 
ATOM     13  C   UNL A   1      42.182  27.509  30.508  1.00  0.00     0.074 A 
ATOM     14  C   UNL A   1      40.330  28.359  29.084  1.00  0.00     0.049 A 
ATOM     15  N   UNL A   1      41.987  28.147  31.628  1.00  0.00    -0.248 NA
ATOM     16  C   UNL A   1      43.405  26.685  30.487  1.00  0.00     0.031 C 
ATOM     17  C   UNL A   1      39.586  28.531  27.835  1.00  0.00     0.029 A 
ATOM     18  N   UNL A   1      39.762  29.259  29.942  1.00  0.00    -0.354 N 
ATOM     19  C   UNL A   1      43.047  27.791  32.449  1.00  0.00     0.074 A 
ATOM     20  C   UNL A   1      43.880  26.872  31.708  1.00  0.00     0.031 C 
ATOM     21  C   UNL A   1      38.677  29.506  28.000  1.00  0.00     0.029 A 
ATOM     22  C   UNL A   1      38.737  29.979  29.379  1.00  0.00     0.049 A 
ATOM     23  H   UNL A   1      40.058  29.379  30.874  1.00  0.00     0.167 HD
ATOM     24  C   UNL A   1      43.294  28.199  33.713  1.00  0.00     0.037 A 
ATOM     25  C   UNL A   1      37.930  30.902  29.932  1.00  0.00     0.037 A 
ATOM     26  C   UNL A   1      42.436  29.108  34.422  1.00  0.00     0.049 A 
ATOM     27  C   UNL A   1      38.158  31.260  31.375  1.00  0.00     0.074 A 
ATOM     28  C   UNL A   1      42.511  29.523  35.737  1.00  0.00     0.029 A 
ATOM     29  N   UNL A   1      41.337  29.744  33.857  1.00  0.00    -0.354 N 
ATOM     30  N   UNL A   1      39.101  30.842  32.187  1.00  0.00    -0.248 NA
ATOM     31  C   UNL A   1      37.209  32.199  31.985  1.00  0.00     0.031 C 
ATOM     32  C   UNL A   1      41.433  30.379  35.979  1.00  0.00     0.029 A 
ATOM     33  C   UNL A   1      40.718  30.543  34.799  1.00  0.00     0.049 A 
ATOM     34  H   UNL A   1      41.043  29.641  32.923  1.00  0.00     0.167 HD
ATOM     35  C   UNL A   1      38.874  31.478  33.399  1.00  0.00     0.074 A 
ATOM     36  C   UNL A   1      37.707  32.319  33.210  1.00  0.00     0.031 C 
ATOM     37  C   UNL A   1      39.562  31.374  34.562  1.00  0.00     0.037 A 
BRANCH  24  38
ATOM     38  C   UNL A   1      44.484  27.603  34.401  1.00  0.00     0.057 A 
ATOM     39  C   UNL A   1      45.714  28.273  34.395  1.00  0.00     0.134 A 
ATOM     40  C   UNL A   1      44.411  26.396  35.110  1.00  0.00     0.134 A 
ATOM     41  F   UNL A   1      45.850  29.440  33.746  1.00  0.00    -0.206 F 
ATOM     42  C   UNL A   1      46.827  27.767  35.067  1.00  0.00     0.040 A 
ATOM     43  C   UNL A   1      45.512  25.891  35.807  1.00  0.00     0.040 A 
ATOM     44  F   UNL A   1      43.255  25.721  35.185  1.00  0.00    -0.206 F 
ATOM     45  C   UNL A   1      46.726  26.576  35.784  1.00  0.00     0.006 A 
ENDBRANCH  24  38
BRANCH  25  46
ATOM     46  C   UNL A   1      36.843  31.515  29.126  1.00  0.00     0.057 A 
ATOM     47  C   UNL A   1      36.920  32.847  28.699  1.00  0.00     0.134 A 
ATOM     48  C   UNL A   1      35.684  30.803  28.798  1.00  0.00     0.134 A 
ATOM     49  F   UNL A   1      38.003  33.587  28.980  1.00  0.00    -0.206 F 
ATOM     50  C   UNL A   1      35.875  33.458  28.002  1.00  0.00     0.040 A 
ATOM     51  C   UNL A   1      34.641  31.394  28.080  1.00  0.00     0.040 A 
ATOM     52  F   UNL A   1      35.554  29.519  29.162  1.00  0.00    -0.206 F 
ATOM     53  C   UNL A   1      34.731  32.729  27.689  1.00  0.00     0.006 A 
ENDBRANCH  25  46
BRANCH  37  54
ATOM     54  C   UNL A   1      39.094  32.216  35.711  1.00  0.00     0.057 A 
ATOM     55  C   UNL A   1      39.563  33.528  35.860  1.00  0.00     0.134 A 
ATOM     56  C   UNL A   1      38.264  31.700  36.711  1.00  0.00     0.134 A 
ATOM     57  F   UNL A   1      40.373  34.071  34.940  1.00  0.00    -0.206 F 
ATOM     58  C   UNL A   1      39.234  34.292  36.979  1.00  0.00     0.040 A 
ATOM     59  C   UNL A   1      37.906  32.465  37.822  1.00  0.00     0.040 A 
ATOM     60  F   UNL A   1      37.778  30.453  36.617  1.00  0.00    -0.206 F 
ATOM     61  C   UNL A   1      38.401  33.761  37.963  1.00  0.00     0.006 A 
ENDBRANCH  37  54
ENDBRANCH  11  12
ENDBRANCH   4   6
ENDBRANCH   3   4
ENDBRANCH   2   3
ENDBRANCH   1   2
BRANCH   1  62
ATOM     62  O   UNL A   1      45.520  20.988  24.617  1.00  0.00    -0.374 OA
BRANCH  62  63
ATOM     63  C   UNL A   1      46.306  19.826  24.912  1.00  0.00     0.202 C 
BRANCH  63  64
ATOM     64  C   UNL A   1      45.389  18.660  25.275  1.00  0.00     0.261 C 
BRANCH  64  65
ATOM     65  O   UNL A   1      44.036  19.117  25.166  1.00  0.00    -0.460 OA
BRANCH  65  66
ATOM     66  C   UNL A   1      43.182  18.595  26.076  1.00  0.00     0.341 C 
ATOM     67  O   UNL A   1      43.402  17.703  26.881  1.00  0.00    -0.246 OA
BRANCH  66  68
ATOM     68  C   UNL A   1      41.975  19.432  26.116  1.00  0.00     0.095 A 
ATOM     69  C   UNL A   1      40.751  18.853  25.757  1.00  0.00     0.019 A 
ATOM     70  C   UNL A   1      42.025  20.764  26.507  1.00  0.00     0.138 A 
ATOM     71  C   UNL A   1      39.590  19.628  25.751  1.00  0.00     0.010 A 
ATOM     72  C   UNL A   1      40.874  21.540  26.489  1.00  0.00     0.049 A 
ATOM     73  F   UNL A   1      43.182  21.352  26.845  1.00  0.00    -0.206 F 
ATOM     74  C   UNL A   1      39.652  20.992  26.067  1.00  0.00    -0.015 A 
BRANCH  74  75
ATOM     75  C   UNL A   1      38.527  21.880  25.778  1.00  0.00    -0.018 A 
ATOM     76  C   UNL A   1      38.536  23.164  26.355  1.00  0.00     0.010 A 
ATOM     77  C   UNL A   1      37.458  21.518  24.951  1.00  0.00     0.010 A 
ATOM     78  C   UNL A   1      37.500  24.062  26.125  1.00  0.00     0.021 A 
ATOM     79  C   UNL A   1      36.413  22.420  24.721  1.00  0.00     0.021 A 
ATOM     80  C   UNL A   1      36.438  23.685  25.310  1.00  0.00     0.041 A 
ATOM     81  Cl  UNL A   1      35.153  24.793  25.032  1.00  0.00    -0.084 Cl
ENDBRANCH  74  75
ENDBRANCH  66  68
ENDBRANCH  65  66
ENDBRANCH  64  65
ENDBRANCH  63  64
ENDBRANCH  62  63
ENDBRANCH   1  62
TORSDOF 15
ENDMDL
MODEL 3
REMARK VINA RESULT:      -8.7      5.245     11.138
REMARK SMILES O=C(OCCOCCOC(=O)c1ccc(-c2ccc(Cl)cc2)cc1F)c1ccc(-c2c3nc(c(-c4c(F)cccc4F)c4ccc([nH]4)c(-c4c(F)cccc4F)c4nc(c(-c5c(F)cccc5F)c5ccc2[nH]5)C=C4)C=C3)cc1
REMARK SMILES IDX 5 1 4 2 3 3 2 4 1 5 26 6 27 7 79 8 28 9 78 10 29 11 30 12
REMARK SMILES IDX 31 13 72 14 32 15 77 16 71 17 73 18 33 19 76 20 70 21 69 22
REMARK SMILES IDX 34 24 60 25 43 26 59 27 44 28 47 29 58 30 74 31 45 32 46 33
REMARK SMILES IDX 57 35 75 36 48 37 35 38 36 39 41 40 37 41 38 42 40 43 42 44
REMARK SMILES IDX 39 45 61 46 62 47 67 48 63 49 64 50 66 51 68 52 65 53 49 54
REMARK SMILES IDX 50 55 55 56 51 57 52 58 54 59 56 60 53 61 6 62 7 63 8 64
REMARK SMILES IDX 9 65 10 66 11 67 12 68 13 69 24 70 14 71 23 72 25 73 15 74
REMARK SMILES IDX 16 75 17 76 22 77 18 78 21 79 19 80 20 81
REMARK H PARENT 73 23 47 34
REMARK Flexibility Score: inf
ROOT
ATOM      1  C   UNL A   1      45.170  21.386  24.547  1.00  0.00     0.202 C 
ENDROOT
BRANCH   1   2
ATOM      2  C   UNL A   1      44.450  22.526  23.819  1.00  0.00     0.261 C 
BRANCH   2   3
ATOM      3  O   UNL A   1      43.838  23.422  24.760  1.00  0.00    -0.460 OA
BRANCH   3   4
ATOM      4  C   UNL A   1      44.251  24.647  25.160  1.00  0.00     0.338 C 
ATOM      5  O   UNL A   1      45.249  25.128  24.626  1.00  0.00    -0.246 OA
BRANCH   4   6
ATOM      6  C   UNL A   1      43.558  25.471  26.200  1.00  0.00     0.060 A 
ATOM      7  C   UNL A   1      43.728  26.843  26.392  1.00  0.00     0.016 A 
ATOM      8  C   UNL A   1      42.605  24.813  26.998  1.00  0.00     0.016 A 
ATOM      9  C   UNL A   1      43.039  27.532  27.375  1.00  0.00     0.010 A 
ATOM     10  C   UNL A   1      41.881  25.502  27.976  1.00  0.00     0.010 A 
ATOM     11  C   UNL A   1      42.124  26.862  28.180  1.00  0.00    -0.014 A 
BRANCH  11  12
ATOM     12  C   UNL A   1      41.578  27.606  29.325  1.00  0.00     0.031 A 
ATOM     13  C   UNL A   1      42.368  27.610  30.595  1.00  0.00     0.074 A 
ATOM     14  C   UNL A   1      40.513  28.406  29.144  1.00  0.00     0.049 A 
ATOM     15  N   UNL A   1      42.125  28.226  31.718  1.00  0.00    -0.248 NA
ATOM     16  C   UNL A   1      43.622  26.835  30.589  1.00  0.00     0.031 C 
ATOM     17  C   UNL A   1      39.787  28.564  27.882  1.00  0.00     0.029 A 
ATOM     18  N   UNL A   1      39.893  29.272  30.001  1.00  0.00    -0.354 N 
ATOM     19  C   UNL A   1      43.182  27.900  32.556  1.00  0.00     0.074 A 
ATOM     20  C   UNL A   1      44.065  27.024  31.821  1.00  0.00     0.031 C 
ATOM     21  C   UNL A   1      38.838  29.501  28.041  1.00  0.00     0.029 A 
ATOM     22  C   UNL A   1      38.852  29.959  29.426  1.00  0.00     0.049 A 
ATOM     23  H   UNL A   1      40.165  29.391  30.940  1.00  0.00     0.167 HD
ATOM     24  C   UNL A   1      43.388  28.302  33.830  1.00  0.00     0.037 A 
ATOM     25  C   UNL A   1      37.998  30.842  29.973  1.00  0.00     0.037 A 
ATOM     26  C   UNL A   1      42.481  29.168  34.532  1.00  0.00     0.049 A 
ATOM     27  C   UNL A   1      38.183  31.190  31.424  1.00  0.00     0.074 A 
ATOM     28  C   UNL A   1      42.514  29.569  35.853  1.00  0.00     0.029 A 
ATOM     29  N   UNL A   1      41.370  29.768  33.953  1.00  0.00    -0.354 N 
ATOM     30  N   UNL A   1      39.126  30.799  32.250  1.00  0.00    -0.248 NA
ATOM     31  C   UNL A   1      37.186  32.084  32.027  1.00  0.00     0.031 C 
ATOM     32  C   UNL A   1      41.398  30.379  36.083  1.00  0.00     0.029 A 
ATOM     33  C   UNL A   1      40.701  30.530  34.891  1.00  0.00     0.049 A 
ATOM     34  H   UNL A   1      41.098  29.665  33.011  1.00  0.00     0.167 HD
ATOM     35  C   UNL A   1      38.850  31.410  33.465  1.00  0.00     0.074 A 
ATOM     36  C   UNL A   1      37.655  32.208  33.263  1.00  0.00     0.031 C 
ATOM     37  C   UNL A   1      39.519  31.319  34.641  1.00  0.00     0.037 A 
BRANCH  24  38
ATOM     38  C   UNL A   1      44.587  27.744  34.535  1.00  0.00     0.057 A 
ATOM     39  C   UNL A   1      44.512  26.506  35.185  1.00  0.00     0.134 A 
ATOM     40  C   UNL A   1      45.826  28.400  34.537  1.00  0.00     0.134 A 
ATOM     41  F   UNL A   1      43.360  25.819  35.211  1.00  0.00    -0.206 F 
ATOM     42  C   UNL A   1      45.623  25.939  35.810  1.00  0.00     0.040 A 
ATOM     43  C   UNL A   1      46.952  27.832  35.138  1.00  0.00     0.040 A 
ATOM     44  F   UNL A   1      45.975  29.573  33.904  1.00  0.00    -0.206 F 
ATOM     45  C   UNL A   1      46.851  26.598  35.780  1.00  0.00     0.006 A 
ENDBRANCH  24  38
BRANCH  25  46
ATOM     46  C   UNL A   1      36.904  31.422  29.153  1.00  0.00     0.057 A 
ATOM     47  C   UNL A   1      36.955  32.751  28.711  1.00  0.00     0.134 A 
ATOM     48  C   UNL A   1      35.763  30.682  28.824  1.00  0.00     0.134 A 
ATOM     49  F   UNL A   1      38.019  33.518  28.992  1.00  0.00    -0.206 F 
ATOM     50  C   UNL A   1      35.903  33.331  28.001  1.00  0.00     0.040 A 
ATOM     51  C   UNL A   1      34.713  31.242  28.091  1.00  0.00     0.040 A 
ATOM     52  F   UNL A   1      35.659  29.399  29.200  1.00  0.00    -0.206 F 
ATOM     53  C   UNL A   1      34.777  32.575  27.687  1.00  0.00     0.006 A 
ENDBRANCH  25  46
BRANCH  37  54
ATOM     54  C   UNL A   1      38.995  32.127  35.790  1.00  0.00     0.057 A 
ATOM     55  C   UNL A   1      39.389  33.461  35.950  1.00  0.00     0.134 A 
ATOM     56  C   UNL A   1      38.186  31.560  36.780  1.00  0.00     0.134 A 
ATOM     57  F   UNL A   1      40.175  34.054  35.039  1.00  0.00    -0.206 F 
ATOM     58  C   UNL A   1      39.009  34.200  37.070  1.00  0.00     0.040 A 
ATOM     59  C   UNL A   1      37.778  32.297  37.892  1.00  0.00     0.040 A 
ATOM     60  F   UNL A   1      37.770  30.289  36.676  1.00  0.00    -0.206 F 
ATOM     61  C   UNL A   1      38.199  33.618  38.043  1.00  0.00     0.006 A 
ENDBRANCH  37  54
ENDBRANCH  11  12
ENDBRANCH   4   6
ENDBRANCH   3   4
ENDBRANCH   2   3
ENDBRANCH   1   2
BRANCH   1  62
ATOM     62  O   UNL A   1      44.410  20.791  25.600  1.00  0.00    -0.374 OA
BRANCH  62  63
ATOM     63  C   UNL A   1      43.502  19.753  25.207  1.00  0.00     0.202 C 
BRANCH  63  64
ATOM     64  C   UNL A   1      42.289  19.749  26.134  1.00  0.00     0.261 C 
BRANCH  64  65
ATOM     65  O   UNL A   1      41.697  21.052  26.086  1.00  0.00    -0.460 OA
BRANCH  65  66
ATOM     66  C   UNL A   1      40.760  21.289  27.033  1.00  0.00     0.341 C 
ATOM     67  O   UNL A   1      40.907  21.283  28.246  1.00  0.00    -0.246 OA
BRANCH  66  68
ATOM     68  C   UNL A   1      39.547  21.789  26.373  1.00  0.00     0.095 A 
ATOM     69  C   UNL A   1      39.191  23.132  26.562  1.00  0.00     0.019 A 
ATOM     70  C   UNL A   1      38.764  20.970  25.570  1.00  0.00     0.138 A 
ATOM     71  C   UNL A   1      38.026  23.632  25.978  1.00  0.00     0.010 A 
ATOM     72  C   UNL A   1      37.599  21.461  24.998  1.00  0.00     0.049 A 
ATOM     73  F   UNL A   1      39.070  19.678  25.378  1.00  0.00    -0.206 F 
ATOM     74  C   UNL A   1      37.193  22.785  25.232  1.00  0.00    -0.015 A 
BRANCH  74  75
ATOM     75  C   UNL A   1      35.838  23.197  24.872  1.00  0.00    -0.018 A 
ATOM     76  C   UNL A   1      35.030  22.273  24.183  1.00  0.00     0.010 A 
ATOM     77  C   UNL A   1      35.308  24.454  25.188  1.00  0.00     0.010 A 
ATOM     78  C   UNL A   1      33.730  22.595  23.806  1.00  0.00     0.021 A 
ATOM     79  C   UNL A   1      34.001  24.779  24.807  1.00  0.00     0.021 A 
ATOM     80  C   UNL A   1      33.221  23.850  24.118  1.00  0.00     0.041 A 
ATOM     81  Cl  UNL A   1      31.617  24.252  23.646  1.00  0.00    -0.084 Cl
ENDBRANCH  74  75
ENDBRANCH  66  68
ENDBRANCH  65  66
ENDBRANCH  64  65
ENDBRANCH  63  64
ENDBRANCH  62  63
ENDBRANCH   1  62
TORSDOF 15
ENDMDL
