MODEL 1
REMARK VINA RESULT:     -10.7      0.000      0.000
REMARK SMILES CCc1nc(NCC2CC2)nc(OCC(=O)OCCOCCOC(=O)c2ccc(-c3c4nc(c(-c5c(F)cccc5F)c5ccc([nH]5)c(-c5c(F)cccc5F)c5nc(c(-c6c(F)cccc6F)c6ccc3[nH]6)C=C5)C=C4)cc2)c1C
REMARK SMILES IDX 18 1 17 2 15 3 16 4 14 5 13 6 12 7 3 8 4 9 80 10 5 11 81 12
REMARK SMILES IDX 11 13 2 14 1 15 6 16 7 18 8 19 9 20 10 21 19 22 20 23 21 24
REMARK SMILES IDX 22 25 23 26 24 27 25 28 26 29 27 30 79 31 28 32 78 33 29 34
REMARK SMILES IDX 30 35 31 36 72 37 32 38 77 39 71 40 73 41 33 42 76 43 70 44
REMARK SMILES IDX 69 45 34 47 60 48 43 49 59 50 44 51 47 52 58 53 74 54 45 55
REMARK SMILES IDX 46 56 57 58 75 59 48 60 35 61 36 62 41 63 37 64 38 65 40 66
REMARK SMILES IDX 42 67 39 68 61 69 62 70 67 71 63 72 64 73 66 74 68 75 65 76
REMARK SMILES IDX 49 77 50 78 55 79 51 80 52 81 54 82 56 83 53 84
REMARK H PARENT 6 17 73 46 47 57
REMARK Flexibility Score: inf
ROOT
ATOM      1  C   UNL A   1      43.043  18.535  26.127  1.00  0.00     0.261 C 
ENDROOT
BRANCH   1   2
ATOM      2  O   UNL A   1      41.780  19.017  25.607  1.00  0.00    -0.461 OA
BRANCH   2   3
ATOM      3  C   UNL A   1      41.109  19.894  26.406  1.00  0.00     0.344 C 
ATOM      4  O   UNL A   1      41.555  20.378  27.441  1.00  0.00    -0.248 OA
BRANCH   3   5
ATOM      5  C   UNL A   1      39.682  20.170  25.929  1.00  0.00     0.353 C 
BRANCH   5   6
ATOM      6  O   UNL A   1      39.180  21.440  25.627  1.00  0.00    -0.465 OA
BRANCH   6   7
ATOM      7  C   UNL A   1      37.892  21.846  25.676  1.00  0.00     0.221 A 
ATOM      8  C   UNL A   1      35.970  23.191  25.668  1.00  0.00     0.052 A 
ATOM      9  N   UNL A   1      35.213  22.121  25.364  1.00  0.00    -0.218 NA
ATOM     10  C   UNL A   1      37.347  23.097  25.929  1.00  0.00     0.033 A 
ATOM     11  C   UNL A   1      35.806  20.941  25.229  1.00  0.00     0.226 A 
ATOM     12  C   UNL A   1      38.062  24.327  26.390  1.00  0.00     0.052 C 
ATOM     13  N   UNL A   1      37.119  20.782  25.358  1.00  0.00    -0.177 NA
BRANCH   8  14
ATOM     14  C   UNL A   1      35.273  24.533  25.506  1.00  0.00     0.053 C 
ATOM     15  C   UNL A   1      33.763  24.500  25.756  1.00  0.00     0.011 C 
ENDBRANCH   8  14
BRANCH  11  16
ATOM     16  N   UNL A   1      35.078  19.851  24.847  1.00  0.00    -0.354 N 
ATOM     17  H   UNL A   1      35.526  19.132  24.345  1.00  0.00     0.163 HD
BRANCH  16  18
ATOM     18  C   UNL A   1      33.681  19.719  25.151  1.00  0.00     0.119 C 
BRANCH  18  19
ATOM     19  C   UNL A   1      33.119  18.546  24.401  1.00  0.00     0.008 C 
ATOM     20  C   UNL A   1      33.738  17.179  24.564  1.00  0.00     0.006 C 
ATOM     21  C   UNL A   1      32.371  17.452  25.125  1.00  0.00     0.006 C 
ENDBRANCH  18  19
ENDBRANCH  16  18
ENDBRANCH  11  16
ENDBRANCH   6   7
ENDBRANCH   5   6
ENDBRANCH   3   5
ENDBRANCH   2   3
ENDBRANCH   1   2
BRANCH   1  22
ATOM     22  C   UNL A   1      44.226  18.813  25.194  1.00  0.00     0.202 C 
BRANCH  22  23
ATOM     23  O   UNL A   1      44.185  20.009  24.414  1.00  0.00    -0.374 OA
BRANCH  23  24
ATOM     24  C   UNL A   1      44.325  21.244  25.101  1.00  0.00     0.202 C 
BRANCH  24  25
ATOM     25  C   UNL A   1      44.470  22.519  24.266  1.00  0.00     0.261 C 
BRANCH  25  26
ATOM     26  O   UNL A   1      43.705  23.613  24.735  1.00  0.00    -0.460 OA
BRANCH  26  27
ATOM     27  C   UNL A   1      44.455  24.669  25.106  1.00  0.00     0.338 C 
ATOM     28  O   UNL A   1      45.533  25.030  24.676  1.00  0.00    -0.246 OA
BRANCH  27  29
ATOM     29  C   UNL A   1      43.642  25.442  26.040  1.00  0.00     0.060 A 
ATOM     30  C   UNL A   1      43.994  26.778  26.227  1.00  0.00     0.016 A 
ATOM     31  C   UNL A   1      42.556  24.859  26.699  1.00  0.00     0.016 A 
ATOM     32  C   UNL A   1      43.291  27.534  27.146  1.00  0.00     0.010 A 
ATOM     33  C   UNL A   1      41.848  25.619  27.620  1.00  0.00     0.010 A 
ATOM     34  C   UNL A   1      42.252  26.940  27.876  1.00  0.00    -0.014 A 
BRANCH  34  35
ATOM     35  C   UNL A   1      41.723  27.663  29.042  1.00  0.00     0.031 A 
ATOM     36  C   UNL A   1      42.441  27.513  30.349  1.00  0.00     0.074 A 
ATOM     37  C   UNL A   1      40.670  28.481  28.897  1.00  0.00     0.049 A 
ATOM     38  N   UNL A   1      42.204  28.092  31.495  1.00  0.00    -0.248 NA
ATOM     39  C   UNL A   1      43.582  26.582  30.367  1.00  0.00     0.031 C 
ATOM     40  C   UNL A   1      39.932  28.688  27.652  1.00  0.00     0.029 A 
ATOM     41  N   UNL A   1      40.046  29.289  29.804  1.00  0.00    -0.354 N 
ATOM     42  C   UNL A   1      43.163  27.595  32.367  1.00  0.00     0.074 A 
ATOM     43  C   UNL A   1      43.957  26.636  31.635  1.00  0.00     0.031 C 
ATOM     44  C   UNL A   1      38.945  29.570  27.876  1.00  0.00     0.029 A 
ATOM     45  C   UNL A   1      38.974  29.966  29.282  1.00  0.00     0.049 A 
ATOM     46  H   UNL A   1      40.338  29.379  30.740  1.00  0.00     0.167 HD
ATOM     47  C   UNL A   1      43.366  27.926  33.663  1.00  0.00     0.037 A 
ATOM     48  C   UNL A   1      38.110  30.799  29.887  1.00  0.00     0.037 A 
ATOM     49  C   UNL A   1      42.551  28.879  34.369  1.00  0.00     0.049 A 
ATOM     50  C   UNL A   1      38.331  31.127  31.338  1.00  0.00     0.074 A 
ATOM     51  C   UNL A   1      42.662  29.314  35.676  1.00  0.00     0.029 A 
ATOM     52  N   UNL A   1      41.458  29.535  33.815  1.00  0.00    -0.354 N 
ATOM     53  N   UNL A   1      39.265  30.688  32.150  1.00  0.00    -0.248 NA
ATOM     54  C   UNL A   1      37.392  32.071  31.953  1.00  0.00     0.031 C 
ATOM     55  C   UNL A   1      41.603  30.194  35.929  1.00  0.00     0.029 A 
ATOM     56  C   UNL A   1      40.867  30.352  34.763  1.00  0.00     0.049 A 
ATOM     57  H   UNL A   1      41.150  29.435  32.886  1.00  0.00     0.167 HD
ATOM     58  C   UNL A   1      39.038  31.314  33.368  1.00  0.00     0.074 A 
ATOM     59  C   UNL A   1      37.888  32.177  33.178  1.00  0.00     0.031 C 
ATOM     60  C   UNL A   1      39.714  31.190  34.538  1.00  0.00     0.037 A 
BRANCH  47  61
ATOM     61  C   UNL A   1      44.477  27.221  34.386  1.00  0.00     0.057 A 
ATOM     62  C   UNL A   1      44.293  25.978  35.007  1.00  0.00     0.134 A 
ATOM     63  C   UNL A   1      45.745  27.808  34.486  1.00  0.00     0.134 A 
ATOM     64  F   UNL A   1      43.099  25.368  34.969  1.00  0.00    -0.206 F 
ATOM     65  C   UNL A   1      45.317  25.362  35.731  1.00  0.00     0.040 A 
ATOM     66  C   UNL A   1      46.785  27.189  35.182  1.00  0.00     0.040 A 
ATOM     67  F   UNL A   1      45.991  28.998  33.918  1.00  0.00    -0.206 F 
ATOM     68  C   UNL A   1      46.569  25.968  35.816  1.00  0.00     0.006 A 
ENDBRANCH  47  61
BRANCH  48  69
ATOM     69  C   UNL A   1      36.976  31.363  29.115  1.00  0.00     0.057 A 
ATOM     70  C   UNL A   1      35.829  30.613  28.841  1.00  0.00     0.134 A 
ATOM     71  C   UNL A   1      37.001  32.691  28.667  1.00  0.00     0.134 A 
ATOM     72  F   UNL A   1      35.749  29.333  29.233  1.00  0.00    -0.206 F 
ATOM     73  C   UNL A   1      34.748  31.158  28.144  1.00  0.00     0.040 A 
ATOM     74  C   UNL A   1      35.919  33.256  27.990  1.00  0.00     0.040 A 
ATOM     75  F   UNL A   1      38.067  33.467  28.907  1.00  0.00    -0.206 F 
ATOM     76  C   UNL A   1      34.789  32.486  27.723  1.00  0.00     0.006 A 
ENDBRANCH  48  69
BRANCH  60  77
ATOM     77  C   UNL A   1      39.231  32.021  35.690  1.00  0.00     0.057 A 
ATOM     78  C   UNL A   1      39.641  33.348  35.865  1.00  0.00     0.134 A 
ATOM     79  C   UNL A   1      38.314  31.497  36.609  1.00  0.00     0.134 A 
ATOM     80  F   UNL A   1      40.526  33.904  35.024  1.00  0.00    -0.206 F 
ATOM     81  C   UNL A   1      39.174  34.118  36.931  1.00  0.00     0.040 A 
ATOM     82  C   UNL A   1      37.818  32.265  37.662  1.00  0.00     0.040 A 
ATOM     83  F   UNL A   1      37.874  30.235  36.489  1.00  0.00    -0.206 F 
ATOM     84  C   UNL A   1      38.254  33.578  37.829  1.00  0.00     0.006 A 
ENDBRANCH  60  77
ENDBRANCH  34  35
ENDBRANCH  27  29
ENDBRANCH  26  27
ENDBRANCH  25  26
ENDBRANCH  24  25
ENDBRANCH  23  24
ENDBRANCH  22  23
ENDBRANCH   1  22
TORSDOF 20
ENDMDL
MODEL 2
REMARK VINA RESULT:     -10.0      1.080      1.926
REMARK SMILES CCc1nc(NCC2CC2)nc(OCC(=O)OCCOCCOC(=O)c2ccc(-c3c4nc(c(-c5c(F)cccc5F)c5ccc([nH]5)c(-c5c(F)cccc5F)c5nc(c(-c6c(F)cccc6F)c6ccc3[nH]6)C=C5)C=C4)cc2)c1C
REMARK SMILES IDX 18 1 17 2 15 3 16 4 14 5 13 6 12 7 3 8 4 9 80 10 5 11 81 12
REMARK SMILES IDX 11 13 2 14 1 15 6 16 7 18 8 19 9 20 10 21 19 22 20 23 21 24
REMARK SMILES IDX 22 25 23 26 24 27 25 28 26 29 27 30 79 31 28 32 78 33 29 34
REMARK SMILES IDX 30 35 31 36 72 37 32 38 77 39 71 40 73 41 33 42 76 43 70 44
REMARK SMILES IDX 69 45 34 47 60 48 43 49 59 50 44 51 47 52 58 53 74 54 45 55
REMARK SMILES IDX 46 56 57 58 75 59 48 60 35 61 36 62 41 63 37 64 38 65 40 66
REMARK SMILES IDX 42 67 39 68 61 69 62 70 67 71 63 72 64 73 66 74 68 75 65 76
REMARK SMILES IDX 49 77 50 78 55 79 51 80 52 81 54 82 56 83 53 84
REMARK H PARENT 6 17 73 46 47 57
REMARK Flexibility Score: inf
ROOT
ATOM      1  C   UNL A   1      40.411  20.999  26.857  1.00  0.00     0.261 C 
ENDROOT
BRANCH   1   2
ATOM      2  O   UNL A   1      39.533  21.374  25.770  1.00  0.00    -0.461 OA
BRANCH   2   3
ATOM      3  C   UNL A   1      38.613  22.336  26.060  1.00  0.00     0.344 C 
ATOM      4  O   UNL A   1      38.836  23.336  26.734  1.00  0.00    -0.248 OA
BRANCH   3   5
ATOM      5  C   UNL A   1      37.217  22.014  25.523  1.00  0.00     0.353 C 
BRANCH   5   6
ATOM      6  O   UNL A   1      36.204  22.960  25.333  1.00  0.00    -0.465 OA
BRANCH   6   7
ATOM      7  C   UNL A   1      34.879  22.797  25.543  1.00  0.00     0.221 A 
ATOM      8  C   UNL A   1      32.553  23.101  25.492  1.00  0.00     0.052 A 
ATOM      9  N   UNL A   1      32.370  21.814  25.839  1.00  0.00    -0.218 NA
ATOM     10  C   UNL A   1      33.826  23.690  25.409  1.00  0.00     0.033 A 
ATOM     11  C   UNL A   1      33.438  21.050  26.036  1.00  0.00     0.226 A 
ATOM     12  C   UNL A   1      33.905  25.161  25.148  1.00  0.00     0.052 C 
ATOM     13  N   UNL A   1      34.678  21.502  25.879  1.00  0.00    -0.177 NA
BRANCH   8  14
ATOM     14  C   UNL A   1      31.304  23.812  24.995  1.00  0.00     0.053 C 
ATOM     15  C   UNL A   1      31.005  23.608  23.508  1.00  0.00     0.011 C 
ENDBRANCH   8  14
BRANCH  11  16
ATOM     16  N   UNL A   1      33.286  19.723  26.315  1.00  0.00    -0.354 N 
ATOM     17  H   UNL A   1      33.576  19.385  27.193  1.00  0.00     0.163 HD
BRANCH  16  18
ATOM     18  C   UNL A   1      32.719  18.802  25.369  1.00  0.00     0.119 C 
BRANCH  18  19
ATOM     19  C   UNL A   1      33.683  18.597  24.237  1.00  0.00     0.008 C 
ATOM     20  C   UNL A   1      34.695  17.478  24.299  1.00  0.00     0.006 C 
ATOM     21  C   UNL A   1      33.557  17.403  23.320  1.00  0.00     0.006 C 
ENDBRANCH  18  19
ENDBRANCH  16  18
ENDBRANCH  11  16
ENDBRANCH   6   7
ENDBRANCH   5   6
ENDBRANCH   3   5
ENDBRANCH   2   3
ENDBRANCH   1   2
BRANCH   1  22
ATOM     22  C   UNL A   1      41.823  21.579  26.721  1.00  0.00     0.202 C 
BRANCH  22  23
ATOM     23  O   UNL A   1      42.548  21.281  25.526  1.00  0.00    -0.374 OA
BRANCH  23  24
ATOM     24  C   UNL A   1      43.138  22.369  24.830  1.00  0.00     0.202 C 
BRANCH  24  25
ATOM     25  C   UNL A   1      44.625  22.649  25.064  1.00  0.00     0.261 C 
BRANCH  25  26
ATOM     26  O   UNL A   1      44.888  23.596  26.082  1.00  0.00    -0.460 OA
BRANCH  26  27
ATOM     27  C   UNL A   1      44.900  24.868  25.638  1.00  0.00     0.338 C 
ATOM     28  O   UNL A   1      45.401  25.320  24.627  1.00  0.00    -0.246 OA
BRANCH  27  29
ATOM     29  C   UNL A   1      44.027  25.622  26.531  1.00  0.00     0.060 A 
ATOM     30  C   UNL A   1      44.297  26.983  26.677  1.00  0.00     0.016 A 
ATOM     31  C   UNL A   1      42.966  24.999  27.194  1.00  0.00     0.016 A 
ATOM     32  C   UNL A   1      43.535  27.727  27.559  1.00  0.00     0.010 A 
ATOM     33  C   UNL A   1      42.199  25.747  28.078  1.00  0.00     0.010 A 
ATOM     34  C   UNL A   1      42.520  27.098  28.293  1.00  0.00    -0.014 A 
BRANCH  34  35
ATOM     35  C   UNL A   1      41.930  27.828  29.425  1.00  0.00     0.031 A 
ATOM     36  C   UNL A   1      42.607  27.728  30.758  1.00  0.00     0.074 A 
ATOM     37  C   UNL A   1      40.858  28.609  29.227  1.00  0.00     0.049 A 
ATOM     38  N   UNL A   1      42.313  28.322  31.882  1.00  0.00    -0.248 NA
ATOM     39  C   UNL A   1      43.775  26.834  30.834  1.00  0.00     0.031 C 
ATOM     40  C   UNL A   1      40.156  28.767  27.953  1.00  0.00     0.029 A 
ATOM     41  N   UNL A   1      40.178  29.416  30.095  1.00  0.00    -0.354 N 
ATOM     42  C   UNL A   1      43.257  27.874  32.797  1.00  0.00     0.074 A 
ATOM     43  C   UNL A   1      44.105  26.926  32.112  1.00  0.00     0.031 C 
ATOM     44  C   UNL A   1      39.135  29.622  28.125  1.00  0.00     0.029 A 
ATOM     45  C   UNL A   1      39.104  30.047  29.522  1.00  0.00     0.049 A 
ATOM     46  H   UNL A   1      40.435  29.534  31.038  1.00  0.00     0.167 HD
ATOM     47  C   UNL A   1      43.405  28.238  34.091  1.00  0.00     0.037 A 
ATOM     48  C   UNL A   1      38.195  30.865  30.080  1.00  0.00     0.037 A 
ATOM     49  C   UNL A   1      42.538  29.179  34.749  1.00  0.00     0.049 A 
ATOM     50  C   UNL A   1      38.356  31.230  31.530  1.00  0.00     0.074 A 
ATOM     51  C   UNL A   1      42.591  29.644  36.048  1.00  0.00     0.029 A 
ATOM     52  N   UNL A   1      41.445  29.789  34.144  1.00  0.00    -0.354 N 
ATOM     53  N   UNL A   1      39.275  30.837  32.382  1.00  0.00    -0.248 NA
ATOM     54  C   UNL A   1      37.368  32.156  32.092  1.00  0.00     0.031 C 
ATOM     55  C   UNL A   1      41.498  30.495  36.247  1.00  0.00     0.029 A 
ATOM     56  C   UNL A   1      40.797  30.606  35.054  1.00  0.00     0.049 A 
ATOM     57  H   UNL A   1      41.172  29.660  33.208  1.00  0.00     0.167 HD
ATOM     58  C   UNL A   1      38.987  31.481  33.578  1.00  0.00     0.074 A 
ATOM     59  C   UNL A   1      37.818  32.303  33.331  1.00  0.00     0.031 C 
ATOM     60  C   UNL A   1      39.627  31.403  34.772  1.00  0.00     0.037 A 
BRANCH  47  61
ATOM     61  C   UNL A   1      44.512  27.583  34.865  1.00  0.00     0.057 A 
ATOM     62  C   UNL A   1      44.323  26.389  35.575  1.00  0.00     0.134 A 
ATOM     63  C   UNL A   1      45.782  28.172  34.926  1.00  0.00     0.134 A 
ATOM     64  F   UNL A   1      43.126  25.782  35.579  1.00  0.00    -0.206 F 
ATOM     65  C   UNL A   1      45.344  25.824  36.343  1.00  0.00     0.040 A 
ATOM     66  C   UNL A   1      46.818  27.602  35.667  1.00  0.00     0.040 A 
ATOM     67  F   UNL A   1      46.034  29.316  34.274  1.00  0.00    -0.206 F 
ATOM     68  C   UNL A   1      46.598  26.430  36.388  1.00  0.00     0.006 A 
ENDBRANCH  47  61
BRANCH  48  69
ATOM     69  C   UNL A   1      37.071  31.377  29.259  1.00  0.00     0.057 A 
ATOM     70  C   UNL A   1      35.947  30.593  28.983  1.00  0.00     0.134 A 
ATOM     71  C   UNL A   1      37.081  32.688  28.763  1.00  0.00     0.134 A 
ATOM     72  F   UNL A   1      35.882  29.328  29.420  1.00  0.00    -0.206 F 
ATOM     73  C   UNL A   1      34.874  31.090  28.238  1.00  0.00     0.040 A 
ATOM     74  C   UNL A   1      36.007  33.205  28.038  1.00  0.00     0.040 A 
ATOM     75  F   UNL A   1      38.125  33.494  29.002  1.00  0.00    -0.206 F 
ATOM     76  C   UNL A   1      34.901  32.403  27.770  1.00  0.00     0.006 A 
ENDBRANCH  48  69
BRANCH  60  77
ATOM     77  C   UNL A   1      39.080  32.241  35.889  1.00  0.00     0.057 A 
ATOM     78  C   UNL A   1      38.198  31.717  36.842  1.00  0.00     0.134 A 
ATOM     79  C   UNL A   1      39.472  33.578  36.033  1.00  0.00     0.134 A 
ATOM     80  F   UNL A   1      37.777  30.446  36.753  1.00  0.00    -0.206 F 
ATOM     81  C   UNL A   1      37.707  32.500  37.887  1.00  0.00     0.040 A 
ATOM     82  C   UNL A   1      39.010  34.363  37.088  1.00  0.00     0.040 A 
ATOM     83  F   UNL A   1      40.323  34.137  35.158  1.00  0.00    -0.206 F 
ATOM     84  C   UNL A   1      38.119  33.827  38.015  1.00  0.00     0.006 A 
ENDBRANCH  60  77
ENDBRANCH  34  35
ENDBRANCH  27  29
ENDBRANCH  26  27
ENDBRANCH  25  26
ENDBRANCH  24  25
ENDBRANCH  23  24
ENDBRANCH  22  23
ENDBRANCH   1  22
TORSDOF 20
ENDMDL
MODEL 3
REMARK VINA RESULT:      -9.9      1.133      2.967
REMARK SMILES CCc1nc(NCC2CC2)nc(OCC(=O)OCCOCCOC(=O)c2ccc(-c3c4nc(c(-c5c(F)cccc5F)c5ccc([nH]5)c(-c5c(F)cccc5F)c5nc(c(-c6c(F)cccc6F)c6ccc3[nH]6)C=C5)C=C4)cc2)c1C
REMARK SMILES IDX 18 1 17 2 15 3 16 4 14 5 13 6 12 7 3 8 4 9 80 10 5 11 81 12
REMARK SMILES IDX 11 13 2 14 1 15 6 16 7 18 8 19 9 20 10 21 19 22 20 23 21 24
REMARK SMILES IDX 22 25 23 26 24 27 25 28 26 29 27 30 79 31 28 32 78 33 29 34
REMARK SMILES IDX 30 35 31 36 72 37 32 38 77 39 71 40 73 41 33 42 76 43 70 44
REMARK SMILES IDX 69 45 34 47 60 48 43 49 59 50 44 51 47 52 58 53 74 54 45 55
REMARK SMILES IDX 46 56 57 58 75 59 48 60 35 61 36 62 41 63 37 64 38 65 40 66
REMARK SMILES IDX 42 67 39 68 61 69 62 70 67 71 63 72 64 73 66 74 68 75 65 76
REMARK SMILES IDX 49 77 50 78 55 79 51 80 52 81 54 82 56 83 53 84
REMARK H PARENT 6 17 73 46 47 57
REMARK Flexibility Score: inf
ROOT
ATOM      1  C   UNL A   1      40.353  22.458  26.689  1.00  0.00     0.261 C 
ENDROOT
BRANCH   1   2
ATOM      2  O   UNL A   1      39.128  21.828  26.243  1.00  0.00    -0.461 OA
BRANCH   2   3
ATOM      3  C   UNL A   1      38.123  22.678  25.889  1.00  0.00     0.344 C 
ATOM      4  O   UNL A   1      38.072  23.865  26.193  1.00  0.00    -0.248 OA
BRANCH   3   5
ATOM      5  C   UNL A   1      36.993  21.986  25.125  1.00  0.00     0.353 C 
BRANCH   5   6
ATOM      6  O   UNL A   1      36.044  21.140  25.710  1.00  0.00    -0.465 OA
BRANCH   6   7
ATOM      7  C   UNL A   1      34.903  20.679  25.154  1.00  0.00     0.221 A 
ATOM      8  C   UNL A   1      33.205  19.251  24.391  1.00  0.00     0.052 A 
ATOM      9  N   UNL A   1      32.335  20.277  24.382  1.00  0.00    -0.218 NA
ATOM     10  C   UNL A   1      34.566  19.413  24.695  1.00  0.00     0.033 A 
ATOM     11  C   UNL A   1      32.765  21.478  24.751  1.00  0.00     0.226 A 
ATOM     12  C   UNL A   1      35.468  18.230  24.542  1.00  0.00     0.052 C 
ATOM     13  N   UNL A   1      34.013  21.698  25.150  1.00  0.00    -0.177 NA
BRANCH   8  14
ATOM     14  C   UNL A   1      32.570  17.876  24.254  1.00  0.00     0.053 C 
ATOM     15  C   UNL A   1      32.398  17.119  25.573  1.00  0.00     0.011 C 
ENDBRANCH   8  14
BRANCH  11  16
ATOM     16  N   UNL A   1      31.890  22.523  24.825  1.00  0.00    -0.354 N 
ATOM     17  H   UNL A   1      31.943  23.237  24.148  1.00  0.00     0.163 HD
BRANCH  16  18
ATOM     18  C   UNL A   1      30.897  22.618  25.858  1.00  0.00     0.119 C 
BRANCH  18  19
ATOM     19  C   UNL A   1      31.088  23.902  26.613  1.00  0.00     0.008 C 
ATOM     20  C   UNL A   1      32.108  24.910  26.142  1.00  0.00     0.006 C 
ATOM     21  C   UNL A   1      30.642  25.219  26.025  1.00  0.00     0.006 C 
ENDBRANCH  18  19
ENDBRANCH  16  18
ENDBRANCH  11  16
ENDBRANCH   6   7
ENDBRANCH   5   6
ENDBRANCH   3   5
ENDBRANCH   2   3
ENDBRANCH   1   2
BRANCH   1  22
ATOM     22  C   UNL A   1      41.571  21.531  26.612  1.00  0.00     0.202 C 
BRANCH  22  23
ATOM     23  O   UNL A   1      42.342  21.551  25.409  1.00  0.00    -0.374 OA
BRANCH  23  24
ATOM     24  C   UNL A   1      43.755  21.600  25.538  1.00  0.00     0.202 C 
BRANCH  24  25
ATOM     25  C   UNL A   1      44.511  22.678  24.756  1.00  0.00     0.261 C 
BRANCH  25  26
ATOM     26  O   UNL A   1      43.837  23.918  24.671  1.00  0.00    -0.460 OA
BRANCH  26  27
ATOM     27  C   UNL A   1      44.572  24.958  25.112  1.00  0.00     0.338 C 
ATOM     28  O   UNL A   1      45.663  25.338  24.735  1.00  0.00    -0.246 OA
BRANCH  27  29
ATOM     29  C   UNL A   1      43.727  25.688  26.052  1.00  0.00     0.060 A 
ATOM     30  C   UNL A   1      43.991  27.049  26.212  1.00  0.00     0.016 A 
ATOM     31  C   UNL A   1      42.698  25.043  26.743  1.00  0.00     0.016 A 
ATOM     32  C   UNL A   1      43.257  27.769  27.135  1.00  0.00     0.010 A 
ATOM     33  C   UNL A   1      41.959  25.768  27.669  1.00  0.00     0.010 A 
ATOM     34  C   UNL A   1      42.276  27.117  27.896  1.00  0.00    -0.014 A 
BRANCH  34  35
ATOM     35  C   UNL A   1      41.723  27.822  29.062  1.00  0.00     0.031 A 
ATOM     36  C   UNL A   1      42.434  27.678  30.374  1.00  0.00     0.074 A 
ATOM     37  C   UNL A   1      40.654  28.619  28.914  1.00  0.00     0.049 A 
ATOM     38  N   UNL A   1      42.175  28.244  31.521  1.00  0.00    -0.248 NA
ATOM     39  C   UNL A   1      43.594  26.771  30.395  1.00  0.00     0.031 C 
ATOM     40  C   UNL A   1      39.922  28.818  27.664  1.00  0.00     0.029 A 
ATOM     41  N   UNL A   1      40.006  29.408  29.821  1.00  0.00    -0.354 N 
ATOM     42  C   UNL A   1      43.137  27.762  32.398  1.00  0.00     0.074 A 
ATOM     43  C   UNL A   1      43.958  26.825  31.666  1.00  0.00     0.031 C 
ATOM     44  C   UNL A   1      38.915  29.678  27.887  1.00  0.00     0.029 A 
ATOM     45  C   UNL A   1      38.924  30.065  29.295  1.00  0.00     0.049 A 
ATOM     46  H   UNL A   1      40.289  29.497  30.760  1.00  0.00     0.167 HD
ATOM     47  C   UNL A   1      43.323  28.089  33.698  1.00  0.00     0.037 A 
ATOM     48  C   UNL A   1      38.039  30.876  29.899  1.00  0.00     0.037 A 
ATOM     49  C   UNL A   1      42.484  29.019  34.404  1.00  0.00     0.049 A 
ATOM     50  C   UNL A   1      38.241  31.199  31.353  1.00  0.00     0.074 A 
ATOM     51  C   UNL A   1      42.575  29.448  35.714  1.00  0.00     0.029 A 
ATOM     52  N   UNL A   1      41.382  29.657  33.845  1.00  0.00    -0.354 N 
ATOM     53  N   UNL A   1      39.178  30.774  32.170  1.00  0.00    -0.248 NA
ATOM     54  C   UNL A   1      37.278  32.119  31.966  1.00  0.00     0.031 C 
ATOM     55  C   UNL A   1      41.496  30.304  35.964  1.00  0.00     0.029 A 
ATOM     56  C   UNL A   1      40.766  30.455  34.793  1.00  0.00     0.049 A 
ATOM     57  H   UNL A   1      41.083  29.557  32.913  1.00  0.00     0.167 HD
ATOM     58  C   UNL A   1      38.928  31.387  33.390  1.00  0.00     0.074 A 
ATOM     59  C   UNL A   1      37.761  32.227  33.196  1.00  0.00     0.031 C 
ATOM     60  C   UNL A   1      39.598  31.270  34.564  1.00  0.00     0.037 A 
BRANCH  47  61
ATOM     61  C   UNL A   1      44.443  27.402  34.425  1.00  0.00     0.057 A 
ATOM     62  C   UNL A   1      45.734  27.946  34.494  1.00  0.00     0.134 A 
ATOM     63  C   UNL A   1      44.236  26.162  35.042  1.00  0.00     0.134 A 
ATOM     64  F   UNL A   1      46.009  29.120  33.905  1.00  0.00    -0.206 F 
ATOM     65  C   UNL A   1      46.782  27.267  35.118  1.00  0.00     0.040 A 
ATOM     66  C   UNL A   1      45.269  25.487  35.694  1.00  0.00     0.040 A 
ATOM     67  F   UNL A   1      43.027  25.581  35.014  1.00  0.00    -0.206 F 
ATOM     68  C   UNL A   1      46.549  26.034  35.724  1.00  0.00     0.006 A 
ENDBRANCH  47  61
BRANCH  48  69
ATOM     69  C   UNL A   1      36.899  31.422  29.121  1.00  0.00     0.057 A 
ATOM     70  C   UNL A   1      35.776  30.645  28.822  1.00  0.00     0.134 A 
ATOM     71  C   UNL A   1      36.894  32.756  28.693  1.00  0.00     0.134 A 
ATOM     72  F   UNL A   1      35.725  29.358  29.195  1.00  0.00    -0.206 F 
ATOM     73  C   UNL A   1      34.689  31.172  28.120  1.00  0.00     0.040 A 
ATOM     74  C   UNL A   1      35.806  33.302  28.012  1.00  0.00     0.040 A 
ATOM     75  F   UNL A   1      37.936  33.556  28.957  1.00  0.00    -0.206 F 
ATOM     76  C   UNL A   1      34.700  32.507  27.719  1.00  0.00     0.006 A 
ENDBRANCH  48  69
BRANCH  60  77
ATOM     77  C   UNL A   1      39.088  32.083  35.717  1.00  0.00     0.057 A 
ATOM     78  C   UNL A   1      38.250  31.532  36.695  1.00  0.00     0.134 A 
ATOM     79  C   UNL A   1      39.474  33.420  35.871  1.00  0.00     0.134 A 
ATOM     80  F   UNL A   1      37.836  30.260  36.599  1.00  0.00    -0.206 F 
ATOM     81  C   UNL A   1      37.794  32.292  37.773  1.00  0.00     0.040 A 
ATOM     82  C   UNL A   1      39.049  34.181  36.958  1.00  0.00     0.040 A 
ATOM     83  F   UNL A   1      40.285  34.002  34.973  1.00  0.00    -0.206 F 
ATOM     84  C   UNL A   1      38.200  33.619  37.910  1.00  0.00     0.006 A 
ENDBRANCH  60  77
ENDBRANCH  34  35
ENDBRANCH  27  29
ENDBRANCH  26  27
ENDBRANCH  25  26
ENDBRANCH  24  25
ENDBRANCH  23  24
ENDBRANCH  22  23
ENDBRANCH   1  22
TORSDOF 20
ENDMDL
