MODEL 1
REMARK VINA RESULT:      -9.4      0.000      0.000
REMARK SMILES C[C@H]1CC[C@@](CCOCCO)(C(=O)OCCOCCOC(=O)c2ccc(-c3c4nc(c(-c5c(F)cccc5F)c5ccc([nH]5)c(-c5c(F)cccc5F)c5nc(c(-c6c(F)cccc6F)c6ccc3[nH]6)C=C5)C=C4)cc2)C1
REMARK SMILES IDX 15 1 14 2 12 3 13 4 5 5 1 6 2 7 3 8 77 9 4 10 6 11 7 12 8 13
REMARK SMILES IDX 9 14 10 15 11 16 16 18 17 19 18 20 19 21 20 22 21 23 22 24
REMARK SMILES IDX 23 25 24 26 76 27 25 28 75 29 26 30 27 31 28 32 69 33 29 34
REMARK SMILES IDX 74 35 68 36 70 37 30 38 73 39 67 40 66 41 31 43 57 44 40 45
REMARK SMILES IDX 56 46 41 47 44 48 55 49 71 50 42 51 43 52 54 54 72 55 45 56
REMARK SMILES IDX 32 57 33 58 38 59 34 60 35 61 37 62 39 63 36 64 58 65 59 66
REMARK SMILES IDX 64 67 60 68 61 69 63 70 65 71 62 72 46 73 47 74 52 75 48 76
REMARK SMILES IDX 49 77 51 78 53 79 50 80
REMARK H PARENT 11 17 70 42 44 53
REMARK Flexibility Score: inf
ROOT
ATOM      1  C   UNL A   1      33.844  28.679  26.893  1.00  0.00     0.261 C 
ENDROOT
BRANCH   1   2
ATOM      2  O   UNL A   1      33.364  27.569  26.106  1.00  0.00    -0.463 OA
BRANCH   2   3
ATOM      3  C   UNL A   1      33.066  27.806  24.806  1.00  0.00     0.312 C 
ATOM      4  O   UNL A   1      33.893  28.224  24.005  1.00  0.00    -0.252 OA
BRANCH   3   5
ATOM      5  C   UNL A   1      31.590  27.463  24.461  1.00  0.00     0.070 C 
ATOM      6  C   UNL A   1      30.781  23.833  23.456  1.00  0.00     0.007 C 
ATOM      7  C   UNL A   1      30.541  25.278  23.875  1.00  0.00    -0.013 C 
ATOM      8  C   UNL A   1      30.517  25.413  25.384  1.00  0.00     0.004 C 
ATOM      9  C   UNL A   1      31.658  26.243  23.472  1.00  0.00     0.022 C 
ATOM     10  C   UNL A   1      30.698  26.902  25.604  1.00  0.00     0.019 C 
BRANCH   5  11
ATOM     11  C   UNL A   1      30.943  28.715  23.795  1.00  0.00     0.047 C 
BRANCH  11  12
ATOM     12  C   UNL A   1      30.477  28.671  22.314  1.00  0.00     0.161 C 
BRANCH  12  13
ATOM     13  O   UNL A   1      29.174  29.124  21.970  1.00  0.00    -0.379 OA
BRANCH  13  14
ATOM     14  C   UNL A   1      28.892  30.522  21.983  1.00  0.00     0.188 C 
BRANCH  14  15
ATOM     15  C   UNL A   1      28.345  31.138  23.270  1.00  0.00     0.184 C 
BRANCH  15  16
ATOM     16  O   UNL A   1      27.566  32.304  23.056  1.00  0.00    -0.394 OA
ATOM     17  H   UNL A   1      27.103  32.539  23.875  1.00  0.00     0.210 HD
ENDBRANCH  15  16
ENDBRANCH  14  15
ENDBRANCH  13  14
ENDBRANCH  12  13
ENDBRANCH  11  12
ENDBRANCH   5  11
ENDBRANCH   3   5
ENDBRANCH   2   3
ENDBRANCH   1   2
BRANCH   1  18
ATOM     18  C   UNL A   1      32.696  29.648  27.204  1.00  0.00     0.202 C 
BRANCH  18  19
ATOM     19  O   UNL A   1      32.905  30.993  26.763  1.00  0.00    -0.374 OA
BRANCH  19  20
ATOM     20  C   UNL A   1      31.767  31.849  26.827  1.00  0.00     0.202 C 
BRANCH  20  21
ATOM     21  C   UNL A   1      32.073  33.346  26.889  1.00  0.00     0.261 C 
BRANCH  21  22
ATOM     22  O   UNL A   1      32.253  33.784  28.248  1.00  0.00    -0.460 OA
BRANCH  22  23
ATOM     23  C   UNL A   1      33.372  34.520  28.451  1.00  0.00     0.338 C 
ATOM     24  O   UNL A   1      33.458  35.730  28.528  1.00  0.00    -0.246 OA
BRANCH  23  25
ATOM     25  C   UNL A   1      34.511  33.624  28.727  1.00  0.00     0.060 A 
ATOM     26  C   UNL A   1      34.252  32.461  29.461  1.00  0.00     0.016 A 
ATOM     27  C   UNL A   1      35.814  33.943  28.341  1.00  0.00     0.016 A 
ATOM     28  C   UNL A   1      35.305  31.644  29.867  1.00  0.00     0.010 A 
ATOM     29  C   UNL A   1      36.868  33.110  28.732  1.00  0.00     0.010 A 
ATOM     30  C   UNL A   1      36.624  31.985  29.540  1.00  0.00    -0.014 A 
BRANCH  30  31
ATOM     31  C   UNL A   1      37.750  31.255  30.173  1.00  0.00     0.031 A 
ATOM     32  C   UNL A   1      38.064  31.505  31.623  1.00  0.00     0.074 A 
ATOM     33  C   UNL A   1      38.477  30.362  29.477  1.00  0.00     0.049 A 
ATOM     34  N   UNL A   1      39.019  31.005  32.367  1.00  0.00    -0.248 NA
ATOM     35  C   UNL A   1      37.189  32.456  32.326  1.00  0.00     0.031 C 
ATOM     36  C   UNL A   1      38.266  30.013  28.075  1.00  0.00     0.029 A 
ATOM     37  N   UNL A   1      39.550  29.596  29.861  1.00  0.00    -0.354 N 
ATOM     38  C   UNL A   1      38.871  31.595  33.616  1.00  0.00     0.074 A 
ATOM     39  C   UNL A   1      37.762  32.519  33.517  1.00  0.00     0.031 C 
ATOM     40  C   UNL A   1      39.189  29.108  27.710  1.00  0.00     0.029 A 
ATOM     41  C   UNL A   1      40.076  28.843  28.842  1.00  0.00     0.049 A 
ATOM     42  H   UNL A   1      39.905  29.589  30.779  1.00  0.00     0.167 HD
ATOM     43  C   UNL A   1      39.586  31.381  34.747  1.00  0.00     0.037 A 
ATOM     44  C   UNL A   1      41.165  28.050  28.817  1.00  0.00     0.037 A 
ATOM     45  C   UNL A   1      40.685  30.456  34.845  1.00  0.00     0.049 A 
ATOM     46  C   UNL A   1      41.979  27.859  30.067  1.00  0.00     0.074 A 
ATOM     47  C   UNL A   1      41.439  30.130  35.959  1.00  0.00     0.029 A 
ATOM     48  N   UNL A   1      41.198  29.722  33.786  1.00  0.00    -0.354 N 
ATOM     49  N   UNL A   1      41.803  28.383  31.257  1.00  0.00    -0.248 NA
ATOM     50  C   UNL A   1      43.141  26.963  29.975  1.00  0.00     0.031 C 
ATOM     51  C   UNL A   1      42.453  29.254  35.558  1.00  0.00     0.029 A 
ATOM     52  C   UNL A   1      42.288  28.976  34.211  1.00  0.00     0.049 A 
ATOM     53  H   UNL A   1      40.842  29.728  32.869  1.00  0.00     0.167 HD
ATOM     54  C   UNL A   1      42.812  27.864  32.059  1.00  0.00     0.074 A 
ATOM     55  C   UNL A   1      43.592  26.975  31.221  1.00  0.00     0.031 C 
ATOM     56  C   UNL A   1      43.065  28.099  33.370  1.00  0.00     0.037 A 
BRANCH  43  57
ATOM     57  C   UNL A   1      39.222  32.198  35.955  1.00  0.00     0.057 A 
ATOM     58  C   UNL A   1      38.323  31.742  36.928  1.00  0.00     0.134 A 
ATOM     59  C   UNL A   1      39.779  33.471  36.141  1.00  0.00     0.134 A 
ATOM     60  F   UNL A   1      37.744  30.538  36.807  1.00  0.00    -0.206 F 
ATOM     61  C   UNL A   1      37.957  32.537  38.015  1.00  0.00     0.040 A 
ATOM     62  C   UNL A   1      39.447  34.261  37.242  1.00  0.00     0.040 A 
ATOM     63  F   UNL A   1      40.654  33.969  35.254  1.00  0.00    -0.206 F 
ATOM     64  C   UNL A   1      38.523  33.800  38.177  1.00  0.00     0.006 A 
ENDBRANCH  43  57
BRANCH  44  65
ATOM     65  C   UNL A   1      41.552  27.391  27.543  1.00  0.00     0.057 A 
ATOM     66  C   UNL A   1      42.340  28.045  26.592  1.00  0.00     0.134 A 
ATOM     67  C   UNL A   1      41.160  26.076  27.264  1.00  0.00     0.134 A 
ATOM     68  F   UNL A   1      42.729  29.313  26.792  1.00  0.00    -0.206 F 
ATOM     69  C   UNL A   1      42.725  27.416  25.406  1.00  0.00     0.040 A 
ATOM     70  C   UNL A   1      41.559  25.426  26.096  1.00  0.00     0.040 A 
ATOM     71  F   UNL A   1      40.405  25.394  28.138  1.00  0.00    -0.206 F 
ATOM     72  C   UNL A   1      42.342  26.098  25.161  1.00  0.00     0.006 A 
ENDBRANCH  44  65
BRANCH  56  73
ATOM     73  C   UNL A   1      44.216  27.365  34.001  1.00  0.00     0.057 A 
ATOM     74  C   UNL A   1      45.495  27.928  34.097  1.00  0.00     0.134 A 
ATOM     75  C   UNL A   1      44.026  26.099  34.573  1.00  0.00     0.134 A 
ATOM     76  F   UNL A   1      45.751  29.132  33.561  1.00  0.00    -0.206 F 
ATOM     77  C   UNL A   1      46.546  27.252  34.720  1.00  0.00     0.040 A 
ATOM     78  C   UNL A   1      45.061  25.427  35.226  1.00  0.00     0.040 A 
ATOM     79  F   UNL A   1      42.824  25.505  34.527  1.00  0.00    -0.206 F 
ATOM     80  C   UNL A   1      46.327  26.002  35.296  1.00  0.00     0.006 A 
ENDBRANCH  56  73
ENDBRANCH  30  31
ENDBRANCH  23  25
ENDBRANCH  22  23
ENDBRANCH  21  22
ENDBRANCH  20  21
ENDBRANCH  19  20
ENDBRANCH  18  19
ENDBRANCH   1  18
TORSDOF 20
ENDMDL
MODEL 2
REMARK VINA RESULT:      -9.1      2.540      7.543
REMARK SMILES C[C@H]1CC[C@@](CCOCCO)(C(=O)OCCOCCOC(=O)c2ccc(-c3c4nc(c(-c5c(F)cccc5F)c5ccc([nH]5)c(-c5c(F)cccc5F)c5nc(c(-c6c(F)cccc6F)c6ccc3[nH]6)C=C5)C=C4)cc2)C1
REMARK SMILES IDX 15 1 14 2 12 3 13 4 5 5 1 6 2 7 3 8 77 9 4 10 6 11 7 12 8 13
REMARK SMILES IDX 9 14 10 15 11 16 16 18 17 19 18 20 19 21 20 22 21 23 22 24
REMARK SMILES IDX 23 25 24 26 76 27 25 28 75 29 26 30 27 31 28 32 69 33 29 34
REMARK SMILES IDX 74 35 68 36 70 37 30 38 73 39 67 40 66 41 31 43 57 44 40 45
REMARK SMILES IDX 56 46 41 47 44 48 55 49 71 50 42 51 43 52 54 54 72 55 45 56
REMARK SMILES IDX 32 57 33 58 38 59 34 60 35 61 37 62 39 63 36 64 58 65 59 66
REMARK SMILES IDX 64 67 60 68 61 69 63 70 65 71 62 72 46 73 47 74 52 75 48 76
REMARK SMILES IDX 49 77 51 78 53 79 50 80
REMARK H PARENT 11 17 70 42 44 53
REMARK Flexibility Score: inf
ROOT
ATOM      1  C   UNL A   1      30.665  25.959  24.939  1.00  0.00     0.261 C 
ENDROOT
BRANCH   1   2
ATOM      2  O   UNL A   1      31.882  25.270  25.295  1.00  0.00    -0.463 OA
BRANCH   2   3
ATOM      3  C   UNL A   1      31.800  24.306  26.243  1.00  0.00     0.312 C 
ATOM      4  O   UNL A   1      31.062  24.398  27.216  1.00  0.00    -0.252 OA
BRANCH   3   5
ATOM      5  C   UNL A   1      32.713  23.087  25.934  1.00  0.00     0.070 C 
ATOM      6  C   UNL A   1      36.513  23.693  25.754  1.00  0.00     0.007 C 
ATOM      7  C   UNL A   1      35.200  22.925  25.824  1.00  0.00    -0.013 C 
ATOM      8  C   UNL A   1      34.783  22.685  27.262  1.00  0.00     0.004 C 
ATOM      9  C   UNL A   1      33.998  23.682  25.251  1.00  0.00     0.022 C 
ATOM     10  C   UNL A   1      33.317  22.317  27.143  1.00  0.00     0.019 C 
BRANCH   5  11
ATOM     11  C   UNL A   1      31.938  22.129  24.978  1.00  0.00     0.047 C 
BRANCH  11  12
ATOM     12  C   UNL A   1      32.154  20.593  25.052  1.00  0.00     0.161 C 
BRANCH  12  13
ATOM     13  O   UNL A   1      33.374  20.029  24.586  1.00  0.00    -0.379 OA
BRANCH  13  14
ATOM     14  C   UNL A   1      33.420  18.645  24.244  1.00  0.00     0.188 C 
BRANCH  14  15
ATOM     15  C   UNL A   1      32.575  17.669  25.062  1.00  0.00     0.184 C 
BRANCH  15  16
ATOM     16  O   UNL A   1      33.285  17.058  26.128  1.00  0.00    -0.394 OA
ATOM     17  H   UNL A   1      34.238  17.176  25.993  1.00  0.00     0.210 HD
ENDBRANCH  15  16
ENDBRANCH  14  15
ENDBRANCH  13  14
ENDBRANCH  12  13
ENDBRANCH  11  12
ENDBRANCH   5  11
ENDBRANCH   3   5
ENDBRANCH   2   3
ENDBRANCH   1   2
BRANCH   1  18
ATOM     18  C   UNL A   1      30.870  27.477  25.013  1.00  0.00     0.202 C 
BRANCH  18  19
ATOM     19  O   UNL A   1      32.200  27.892  25.335  1.00  0.00    -0.374 OA
BRANCH  19  20
ATOM     20  C   UNL A   1      32.547  29.218  24.944  1.00  0.00     0.202 C 
BRANCH  20  21
ATOM     21  C   UNL A   1      31.781  30.335  25.655  1.00  0.00     0.261 C 
BRANCH  21  22
ATOM     22  O   UNL A   1      32.229  30.489  27.014  1.00  0.00    -0.460 OA
BRANCH  22  23
ATOM     23  C   UNL A   1      32.895  31.645  27.252  1.00  0.00     0.338 C 
ATOM     24  O   UNL A   1      32.451  32.775  27.214  1.00  0.00    -0.246 OA
BRANCH  23  25
ATOM     25  C   UNL A   1      34.257  31.343  27.731  1.00  0.00     0.060 A 
ATOM     26  C   UNL A   1      34.571  30.001  27.975  1.00  0.00     0.016 A 
ATOM     27  C   UNL A   1      35.186  32.348  28.002  1.00  0.00     0.016 A 
ATOM     28  C   UNL A   1      35.793  29.665  28.553  1.00  0.00     0.010 A 
ATOM     29  C   UNL A   1      36.421  32.008  28.564  1.00  0.00     0.010 A 
ATOM     30  C   UNL A   1      36.711  30.670  28.888  1.00  0.00    -0.014 A 
BRANCH  30  31
ATOM     31  C   UNL A   1      37.896  30.336  29.717  1.00  0.00     0.031 A 
ATOM     32  C   UNL A   1      38.945  29.413  29.159  1.00  0.00     0.074 A 
ATOM     33  C   UNL A   1      38.053  30.862  30.945  1.00  0.00     0.049 A 
ATOM     34  N   UNL A   1      40.039  28.961  29.719  1.00  0.00    -0.248 NA
ATOM     35  C   UNL A   1      38.723  28.924  27.790  1.00  0.00     0.031 C 
ATOM     36  C   UNL A   1      37.124  31.783  31.594  1.00  0.00     0.029 A 
ATOM     37  N   UNL A   1      39.054  30.682  31.868  1.00  0.00    -0.354 N 
ATOM     38  C   UNL A   1      40.624  28.122  28.779  1.00  0.00     0.074 A 
ATOM     39  C   UNL A   1      39.743  28.095  27.632  1.00  0.00     0.031 C 
ATOM     40  C   UNL A   1      37.591  32.080  32.818  1.00  0.00     0.029 A 
ATOM     41  C   UNL A   1      38.832  31.341  33.050  1.00  0.00     0.049 A 
ATOM     42  H   UNL A   1      39.852  30.132  31.697  1.00  0.00     0.167 HD
ATOM     43  C   UNL A   1      41.794  27.443  28.858  1.00  0.00     0.037 A 
ATOM     44  C   UNL A   1      39.536  31.332  34.199  1.00  0.00     0.037 A 
ATOM     45  C   UNL A   1      42.673  27.476  29.998  1.00  0.00     0.049 A 
ATOM     46  C   UNL A   1      40.808  30.534  34.290  1.00  0.00     0.074 A 
ATOM     47  C   UNL A   1      43.905  26.864  30.154  1.00  0.00     0.029 A 
ATOM     48  N   UNL A   1      42.406  28.145  31.183  1.00  0.00    -0.354 N 
ATOM     49  N   UNL A   1      41.379  29.782  33.379  1.00  0.00    -0.248 NA
ATOM     50  C   UNL A   1      41.537  30.585  35.565  1.00  0.00     0.031 C 
ATOM     51  C   UNL A   1      44.349  27.103  31.458  1.00  0.00     0.029 A 
ATOM     52  C   UNL A   1      43.430  27.925  32.092  1.00  0.00     0.049 A 
ATOM     53  H   UNL A   1      41.608  28.695  31.355  1.00  0.00     0.167 HD
ATOM     54  C   UNL A   1      42.542  29.292  33.960  1.00  0.00     0.074 A 
ATOM     55  C   UNL A   1      42.601  29.840  35.299  1.00  0.00     0.031 C 
ATOM     56  C   UNL A   1      43.479  28.468  33.427  1.00  0.00     0.037 A 
BRANCH  43  57
ATOM     57  C   UNL A   1      42.162  26.572  27.690  1.00  0.00     0.057 A 
ATOM     58  C   UNL A   1      41.930  25.190  27.681  1.00  0.00     0.134 A 
ATOM     59  C   UNL A   1      42.767  27.129  26.555  1.00  0.00     0.134 A 
ATOM     60  F   UNL A   1      41.365  24.589  28.739  1.00  0.00    -0.206 F 
ATOM     61  C   UNL A   1      42.328  24.388  26.609  1.00  0.00     0.040 A 
ATOM     62  C   UNL A   1      43.138  26.343  25.463  1.00  0.00     0.040 A 
ATOM     63  F   UNL A   1      43.011  28.446  26.489  1.00  0.00    -0.206 F 
ATOM     64  C   UNL A   1      42.930  24.966  25.493  1.00  0.00     0.006 A 
ENDBRANCH  43  57
BRANCH  44  65
ATOM     65  C   UNL A   1      39.028  32.099  35.365  1.00  0.00     0.057 A 
ATOM     66  C   UNL A   1      38.253  31.493  36.359  1.00  0.00     0.134 A 
ATOM     67  C   UNL A   1      39.336  33.457  35.524  1.00  0.00     0.134 A 
ATOM     68  F   UNL A   1      37.908  30.201  36.252  1.00  0.00    -0.206 F 
ATOM     69  C   UNL A   1      37.799  32.208  37.468  1.00  0.00     0.040 A 
ATOM     70  C   UNL A   1      38.911  34.178  36.640  1.00  0.00     0.040 A 
ATOM     71  F   UNL A   1      40.078  34.095  34.607  1.00  0.00    -0.206 F 
ATOM     72  C   UNL A   1      38.137  33.553  37.615  1.00  0.00     0.006 A 
ENDBRANCH  44  65
BRANCH  56  73
ATOM     73  C   UNL A   1      44.670  28.124  34.279  1.00  0.00     0.057 A 
ATOM     74  C   UNL A   1      44.708  26.972  35.076  1.00  0.00     0.134 A 
ATOM     75  C   UNL A   1      45.818  28.928  34.254  1.00  0.00     0.134 A 
ATOM     76  F   UNL A   1      43.639  26.164  35.155  1.00  0.00    -0.206 F 
ATOM     77  C   UNL A   1      45.835  26.644  35.832  1.00  0.00     0.040 A 
ATOM     78  C   UNL A   1      46.962  28.593  34.982  1.00  0.00     0.040 A 
ATOM     79  F   UNL A   1      45.855  30.039  33.505  1.00  0.00    -0.206 F 
ATOM     80  C   UNL A   1      46.970  27.451  35.777  1.00  0.00     0.006 A 
ENDBRANCH  56  73
ENDBRANCH  30  31
ENDBRANCH  23  25
ENDBRANCH  22  23
ENDBRANCH  21  22
ENDBRANCH  20  21
ENDBRANCH  19  20
ENDBRANCH  18  19
ENDBRANCH   1  18
TORSDOF 20
ENDMDL
MODEL 3
REMARK VINA RESULT:      -9.0      4.587      9.235
REMARK SMILES C[C@H]1CC[C@@](CCOCCO)(C(=O)OCCOCCOC(=O)c2ccc(-c3c4nc(c(-c5c(F)cccc5F)c5ccc([nH]5)c(-c5c(F)cccc5F)c5nc(c(-c6c(F)cccc6F)c6ccc3[nH]6)C=C5)C=C4)cc2)C1
REMARK SMILES IDX 15 1 14 2 12 3 13 4 5 5 1 6 2 7 3 8 77 9 4 10 6 11 7 12 8 13
REMARK SMILES IDX 9 14 10 15 11 16 16 18 17 19 18 20 19 21 20 22 21 23 22 24
REMARK SMILES IDX 23 25 24 26 76 27 25 28 75 29 26 30 27 31 28 32 69 33 29 34
REMARK SMILES IDX 74 35 68 36 70 37 30 38 73 39 67 40 66 41 31 43 57 44 40 45
REMARK SMILES IDX 56 46 41 47 44 48 55 49 71 50 42 51 43 52 54 54 72 55 45 56
REMARK SMILES IDX 32 57 33 58 38 59 34 60 35 61 37 62 39 63 36 64 58 65 59 66
REMARK SMILES IDX 64 67 60 68 61 69 63 70 65 71 62 72 46 73 47 74 52 75 48 76
REMARK SMILES IDX 49 77 51 78 53 79 50 80
REMARK H PARENT 11 17 70 42 44 53
REMARK Flexibility Score: inf
ROOT
ATOM      1  C   UNL A   1      36.050  23.706  25.418  1.00  0.00     0.261 C 
ENDROOT
BRANCH   1   2
ATOM      2  O   UNL A   1      34.651  23.964  25.178  1.00  0.00    -0.463 OA
BRANCH   2   3
ATOM      3  C   UNL A   1      34.299  24.404  23.945  1.00  0.00     0.312 C 
ATOM      4  O   UNL A   1      34.768  23.932  22.917  1.00  0.00    -0.252 OA
BRANCH   3   5
ATOM      5  C   UNL A   1      33.232  25.533  23.998  1.00  0.00     0.070 C 
ATOM      6  C   UNL A   1      33.764  28.388  26.529  1.00  0.00     0.007 C 
ATOM      7  C   UNL A   1      33.169  27.626  25.352  1.00  0.00    -0.013 C 
ATOM      8  C   UNL A   1      33.921  27.925  24.070  1.00  0.00     0.004 C 
ATOM      9  C   UNL A   1      33.291  26.104  25.461  1.00  0.00     0.022 C 
ATOM     10  C   UNL A   1      33.490  26.805  23.143  1.00  0.00     0.019 C 
BRANCH   5  11
ATOM     11  C   UNL A   1      31.842  24.902  23.677  1.00  0.00     0.047 C 
BRANCH  11  12
ATOM     12  C   UNL A   1      30.980  24.273  24.805  1.00  0.00     0.161 C 
BRANCH  12  13
ATOM     13  O   UNL A   1      30.841  22.859  24.882  1.00  0.00    -0.379 OA
BRANCH  13  14
ATOM     14  C   UNL A   1      31.840  22.093  25.550  1.00  0.00     0.188 C 
BRANCH  14  15
ATOM     15  C   UNL A   1      32.442  20.894  24.818  1.00  0.00     0.184 C 
BRANCH  15  16
ATOM     16  O   UNL A   1      33.621  21.205  24.092  1.00  0.00    -0.394 OA
ATOM     17  H   UNL A   1      34.123  20.392  23.926  1.00  0.00     0.210 HD
ENDBRANCH  15  16
ENDBRANCH  14  15
ENDBRANCH  13  14
ENDBRANCH  12  13
ENDBRANCH  11  12
ENDBRANCH   5  11
ENDBRANCH   3   5
ENDBRANCH   2   3
ENDBRANCH   1   2
BRANCH   1  18
ATOM     18  C   UNL A   1      36.274  22.220  25.724  1.00  0.00     0.202 C 
BRANCH  18  19
ATOM     19  O   UNL A   1      36.746  21.441  24.621  1.00  0.00    -0.374 OA
BRANCH  19  20
ATOM     20  C   UNL A   1      37.702  20.432  24.939  1.00  0.00     0.202 C 
BRANCH  20  21
ATOM     21  C   UNL A   1      39.014  20.936  25.541  1.00  0.00     0.261 C 
BRANCH  21  22
ATOM     22  O   UNL A   1      39.713  19.879  26.224  1.00  0.00    -0.460 OA
BRANCH  22  23
ATOM     23  C   UNL A   1      41.049  19.859  25.997  1.00  0.00     0.338 C 
ATOM     24  O   UNL A   1      41.677  19.043  25.352  1.00  0.00    -0.246 OA
BRANCH  23  25
ATOM     25  C   UNL A   1      41.660  21.091  26.530  1.00  0.00     0.060 A 
ATOM     26  C   UNL A   1      41.551  21.320  27.906  1.00  0.00     0.016 A 
ATOM     27  C   UNL A   1      42.266  22.035  25.700  1.00  0.00     0.016 A 
ATOM     28  C   UNL A   1      41.990  22.526  28.448  1.00  0.00     0.010 A 
ATOM     29  C   UNL A   1      42.725  23.237  26.249  1.00  0.00     0.010 A 
ATOM     30  C   UNL A   1      42.544  23.509  27.617  1.00  0.00    -0.014 A 
BRANCH  30  31
ATOM     31  C   UNL A   1      42.785  24.873  28.151  1.00  0.00     0.031 A 
ATOM     32  C   UNL A   1      44.176  25.261  28.574  1.00  0.00     0.074 A 
ATOM     33  C   UNL A   1      41.785  25.768  28.242  1.00  0.00     0.049 A 
ATOM     34  N   UNL A   1      44.605  26.382  29.097  1.00  0.00    -0.248 NA
ATOM     35  C   UNL A   1      45.220  24.242  28.392  1.00  0.00     0.031 C 
ATOM     36  C   UNL A   1      40.399  25.528  27.850  1.00  0.00     0.029 A 
ATOM     37  N   UNL A   1      41.788  27.060  28.708  1.00  0.00    -0.354 N 
ATOM     38  C   UNL A   1      45.962  26.195  29.324  1.00  0.00     0.074 A 
ATOM     39  C   UNL A   1      46.276  24.842  28.921  1.00  0.00     0.031 C 
ATOM     40  C   UNL A   1      39.679  26.634  28.102  1.00  0.00     0.029 A 
ATOM     41  C   UNL A   1      40.547  27.644  28.707  1.00  0.00     0.049 A 
ATOM     42  H   UNL A   1      42.602  27.521  29.013  1.00  0.00     0.167 HD
ATOM     43  C   UNL A   1      46.871  27.074  29.813  1.00  0.00     0.037 A 
ATOM     44  C   UNL A   1      40.149  28.847  29.164  1.00  0.00     0.037 A 
ATOM     45  C   UNL A   1      46.559  28.423  30.207  1.00  0.00     0.049 A 
ATOM     46  C   UNL A   1      41.159  29.795  29.751  1.00  0.00     0.074 A 
ATOM     47  C   UNL A   1      47.418  29.407  30.667  1.00  0.00     0.029 A 
ATOM     48  N   UNL A   1      45.286  28.974  30.205  1.00  0.00    -0.354 N 
ATOM     49  N   UNL A   1      42.450  29.629  29.917  1.00  0.00    -0.248 NA
ATOM     50  C   UNL A   1      40.660  31.099  30.210  1.00  0.00     0.031 C 
ATOM     51  C   UNL A   1      46.654  30.527  31.010  1.00  0.00     0.029 A 
ATOM     52  C   UNL A   1      45.329  30.270  30.697  1.00  0.00     0.049 A 
ATOM     53  H   UNL A   1      44.471  28.514  29.900  1.00  0.00     0.167 HD
ATOM     54  C   UNL A   1      42.920  30.811  30.475  1.00  0.00     0.074 A 
ATOM     55  C   UNL A   1      41.777  31.691  30.610  1.00  0.00     0.031 C 
ATOM     56  C   UNL A   1      44.186  31.138  30.836  1.00  0.00     0.037 A 
BRANCH  43  57
ATOM     57  C   UNL A   1      48.279  26.580  29.989  1.00  0.00     0.057 A 
ATOM     58  C   UNL A   1      49.262  26.747  29.004  1.00  0.00     0.134 A 
ATOM     59  C   UNL A   1      48.654  25.917  31.165  1.00  0.00     0.134 A 
ATOM     60  F   UNL A   1      48.969  27.362  27.849  1.00  0.00    -0.206 F 
ATOM     61  C   UNL A   1      50.551  26.234  29.163  1.00  0.00     0.040 A 
ATOM     62  C   UNL A   1      49.949  25.430  31.350  1.00  0.00     0.040 A 
ATOM     63  F   UNL A   1      47.769  25.729  32.154  1.00  0.00    -0.206 F 
ATOM     64  C   UNL A   1      50.899  25.576  30.341  1.00  0.00     0.006 A 
ENDBRANCH  43  57
BRANCH  44  65
ATOM     65  C   UNL A   1      38.710  29.209  29.096  1.00  0.00     0.057 A 
ATOM     66  C   UNL A   1      37.881  29.128  30.219  1.00  0.00     0.134 A 
ATOM     67  C   UNL A   1      38.139  29.672  27.903  1.00  0.00     0.134 A 
ATOM     68  F   UNL A   1      38.365  28.671  31.384  1.00  0.00    -0.206 F 
ATOM     69  C   UNL A   1      36.535  29.492  30.160  1.00  0.00     0.040 A 
ATOM     70  C   UNL A   1      36.802  30.064  27.836  1.00  0.00     0.040 A 
ATOM     71  F   UNL A   1      38.882  29.774  26.791  1.00  0.00    -0.206 F 
ATOM     72  C   UNL A   1      35.994  29.972  28.968  1.00  0.00     0.006 A 
ENDBRANCH  44  65
BRANCH  56  73
ATOM     73  C   UNL A   1      44.419  32.517  31.388  1.00  0.00     0.057 A 
ATOM     74  C   UNL A   1      44.655  33.622  30.559  1.00  0.00     0.134 A 
ATOM     75  C   UNL A   1      44.348  32.752  32.769  1.00  0.00     0.134 A 
ATOM     76  F   UNL A   1      44.747  33.467  29.229  1.00  0.00    -0.206 F 
ATOM     77  C   UNL A   1      44.831  34.904  31.084  1.00  0.00     0.040 A 
ATOM     78  C   UNL A   1      44.492  34.035  33.302  1.00  0.00     0.040 A 
ATOM     79  F   UNL A   1      44.114  31.743  33.620  1.00  0.00    -0.206 F 
ATOM     80  C   UNL A   1      44.739  35.114  32.458  1.00  0.00     0.006 A 
ENDBRANCH  56  73
ENDBRANCH  30  31
ENDBRANCH  23  25
ENDBRANCH  22  23
ENDBRANCH  21  22
ENDBRANCH  20  21
ENDBRANCH  19  20
ENDBRANCH  18  19
ENDBRANCH   1  18
TORSDOF 20
ENDMDL
