MODEL 1
REMARK VINA RESULT:     -14.9      0.000      0.000
REMARK SMILES Cc1ccc(C2=NN(C(=O)CCC(=O)OCCOCCOC(=O)c3ccc(-c4c5nc(c(-c6c(F)cccc6F)c6ccc([nH]6)c(-c6c(F)cccc6F)c6nc(c(-c7c(F)cccc7F)c7ccc4[nH]7)C=C6)C=C5)cc3)[C@H](C[C@H]3C=c4cccc(C)c4=NC3=O)C2)cc1
REMARK SMILES IDX 16 1 15 2 13 3 14 4 12 5 11 6 9 7 10 8 8 9 6 10 7 11 92 12
REMARK SMILES IDX 78 13 5 14 1 15 2 16 3 17 94 18 4 19 93 20 79 21 80 22 81 23
REMARK SMILES IDX 90 24 82 25 89 26 91 27 83 28 88 29 84 30 86 31 85 32 87 33
REMARK SMILES IDX 17 34 18 35 19 36 20 37 21 38 22 39 23 40 24 41 25 42 77 43
REMARK SMILES IDX 26 44 76 45 27 46 28 47 29 48 70 49 30 50 75 51 69 52 71 53
REMARK SMILES IDX 31 54 74 55 68 56 67 57 32 59 58 60 41 61 57 62 42 63 45 64
REMARK SMILES IDX 56 65 72 66 43 67 44 68 55 70 73 71 46 72 33 73 34 74 39 75
REMARK SMILES IDX 35 76 36 77 38 78 40 79 37 80 59 81 60 82 65 83 61 84 62 85
REMARK SMILES IDX 64 86 66 87 63 88 47 89 48 90 53 91 49 92 50 93 52 94 54 95
REMARK SMILES IDX 51 96
REMARK H PARENT 71 58 45 69
REMARK Flexibility Score: inf
ROOT
ATOM      1  C   UNL A   1      38.120  22.791  25.547  1.00  0.00     0.261 C 
ENDROOT
BRANCH   1   2
ATOM      2  O   UNL A   1      36.743  22.726  25.858  1.00  0.00    -0.463 OA
BRANCH   2   3
ATOM      3  C   UNL A   1      35.948  22.711  24.773  1.00  0.00     0.306 C 
ATOM      4  O   UNL A   1      35.855  21.787  23.972  1.00  0.00    -0.252 OA
BRANCH   3   5
ATOM      5  C   UNL A   1      35.192  23.994  24.656  1.00  0.00     0.132 C 
BRANCH   5   6
ATOM      6  C   UNL A   1      34.672  24.333  23.268  1.00  0.00     0.114 C 
BRANCH   6   7
ATOM      7  C   UNL A   1      33.830  25.619  23.003  1.00  0.00     0.243 C 
ATOM      8  O   UNL A   1      33.794  25.938  21.800  1.00  0.00    -0.273 OA
BRANCH   7   9
ATOM      9  N   UNL A   1      32.974  26.296  23.935  1.00  0.00    -0.230 N 
ATOM     10  C   UNL A   1      31.516  27.983  23.881  1.00  0.00     0.070 C 
ATOM     11  N   UNL A   1      31.879  26.957  23.198  1.00  0.00    -0.174 NA
ATOM     12  C   UNL A   1      32.273  28.075  25.162  1.00  0.00     0.086 C 
ATOM     13  C   UNL A   1      32.887  26.704  25.729  1.00  0.00     0.118 C 
BRANCH  10  14
ATOM     14  C   UNL A   1      30.703  29.239  23.444  1.00  0.00    -0.002 A 
ATOM     15  C   UNL A   1      27.824  32.112  21.792  1.00  0.00     0.044 C 
ATOM     16  C   UNL A   1      28.817  31.150  22.386  1.00  0.00    -0.051 A 
ATOM     17  C   UNL A   1      29.348  31.264  23.686  1.00  0.00     0.004 A 
ATOM     18  C   UNL A   1      29.278  30.115  21.597  1.00  0.00     0.004 A 
ATOM     19  C   UNL A   1      30.254  30.296  24.230  1.00  0.00     0.010 A 
ATOM     20  C   UNL A   1      30.223  29.227  22.110  1.00  0.00     0.010 A 
ENDBRANCH  10  14
BRANCH  13  21
ATOM     21  C   UNL A   1      32.145  25.426  27.194  1.00  0.00     0.045 C 
BRANCH  21  22
ATOM     22  C   UNL A   1      31.645  23.544  26.897  1.00  0.00     0.106 C 
ATOM     23  C   UNL A   1      30.937  23.009  25.507  1.00  0.00    -0.003 C 
ATOM     24  C   UNL A   1      32.741  22.470  27.230  1.00  0.00     0.253 C 
ATOM     25  C   UNL A   1      31.585  22.267  24.595  1.00  0.00    -0.003 A 
ATOM     26  N   UNL A   1      32.966  21.358  26.398  1.00  0.00    -0.212 NA
ATOM     27  O   UNL A   1      33.414  22.633  28.247  1.00  0.00    -0.272 OA
ATOM     28  C   UNL A   1      31.543  22.424  23.138  1.00  0.00     0.010 A 
ATOM     29  C   UNL A   1      32.477  21.272  25.201  1.00  0.00     0.077 A 
ATOM     30  C   UNL A   1      32.119  21.507  22.347  1.00  0.00     0.001 A 
ATOM     31  C   UNL A   1      32.628  20.082  24.264  1.00  0.00    -0.025 A 
ATOM     32  C   UNL A   1      32.489  20.241  22.929  1.00  0.00     0.005 A 
ATOM     33  C   UNL A   1      32.600  18.728  24.882  1.00  0.00     0.047 C 
ENDBRANCH  21  22
ENDBRANCH  13  21
ENDBRANCH   7   9
ENDBRANCH   6   7
ENDBRANCH   5   6
ENDBRANCH   3   5
ENDBRANCH   2   3
ENDBRANCH   1   2
BRANCH   1  34
ATOM     34  C   UNL A   1      38.814  21.478  25.753  1.00  0.00     0.202 C 
BRANCH  34  35
ATOM     35  O   UNL A   1      39.759  21.365  26.792  1.00  0.00    -0.374 OA
BRANCH  35  36
ATOM     36  C   UNL A   1      40.341  22.417  27.612  1.00  0.00     0.202 C 
BRANCH  36  37
ATOM     37  C   UNL A   1      41.658  23.551  27.277  1.00  0.00     0.261 C 
BRANCH  37  38
ATOM     38  O   UNL A   1      41.845  25.379  26.718  1.00  0.00    -0.460 OA
BRANCH  38  39
ATOM     39  C   UNL A   1      41.453  26.993  27.205  1.00  0.00     0.338 C 
ATOM     40  O   UNL A   1      42.391  27.750  27.243  1.00  0.00    -0.246 OA
BRANCH  39  41
ATOM     41  C   UNL A   1      39.811  27.586  27.878  1.00  0.00     0.060 A 
ATOM     42  C   UNL A   1      39.199  28.810  27.445  1.00  0.00     0.016 A 
ATOM     43  C   UNL A   1      39.274  27.293  29.134  1.00  0.00     0.016 A 
ATOM     44  C   UNL A   1      38.884  29.898  28.397  1.00  0.00     0.010 A 
ATOM     45  C   UNL A   1      38.866  28.319  30.060  1.00  0.00     0.010 A 
ATOM     46  C   UNL A   1      38.918  29.694  29.775  1.00  0.00    -0.014 A 
BRANCH  46  47
ATOM     47  C   UNL A   1      39.099  30.703  30.943  1.00  0.00     0.031 A 
ATOM     48  C   UNL A   1      40.300  30.540  31.897  1.00  0.00     0.074 A 
ATOM     49  C   UNL A   1      38.500  31.959  31.043  1.00  0.00     0.049 A 
ATOM     50  N   UNL A   1      40.611  31.361  32.856  1.00  0.00    -0.248 NA
ATOM     51  C   UNL A   1      41.248  29.426  31.856  1.00  0.00     0.031 C 
ATOM     52  C   UNL A   1      39.192  33.161  31.603  1.00  0.00     0.029 A 
ATOM     53  N   UNL A   1      37.337  32.577  30.517  1.00  0.00    -0.354 N 
ATOM     54  C   UNL A   1      41.895  31.112  33.290  1.00  0.00     0.074 A 
ATOM     55  C   UNL A   1      42.185  29.813  32.737  1.00  0.00     0.031 C 
ATOM     56  C   UNL A   1      38.457  34.268  31.488  1.00  0.00     0.029 A 
ATOM     57  C   UNL A   1      37.129  33.865  31.133  1.00  0.00     0.049 A 
ATOM     58  H   UNL A   1      36.754  32.184  29.827  1.00  0.00     0.167 HD
ATOM     59  C   UNL A   1      42.593  32.061  33.994  1.00  0.00     0.037 A 
ATOM     60  C   UNL A   1      36.033  34.327  31.832  1.00  0.00     0.037 A 
ATOM     61  C   UNL A   1      41.767  33.236  34.312  1.00  0.00     0.049 A 
ATOM     62  C   UNL A   1      36.319  34.451  33.298  1.00  0.00     0.074 A 
ATOM     63  C   UNL A   1      41.753  34.572  33.948  1.00  0.00     0.029 A 
ATOM     64  N   UNL A   1      40.623  33.045  35.067  1.00  0.00    -0.354 N 
ATOM     65  N   UNL A   1      37.479  34.711  33.818  1.00  0.00    -0.248 NA
ATOM     66  C   UNL A   1      35.311  34.034  34.273  1.00  0.00     0.031 C 
ATOM     67  C   UNL A   1      40.538  35.150  34.446  1.00  0.00     0.029 A 
ATOM     68  C   UNL A   1      39.859  34.192  35.179  1.00  0.00     0.049 A 
ATOM     69  H   UNL A   1      40.380  32.185  35.479  1.00  0.00     0.167 HD
ATOM     70  C   UNL A   1      37.459  34.241  35.099  1.00  0.00     0.074 A 
ATOM     71  C   UNL A   1      36.084  33.831  35.340  1.00  0.00     0.031 C 
ATOM     72  C   UNL A   1      38.576  34.097  35.866  1.00  0.00     0.037 A 
BRANCH  59  73
ATOM     73  C   UNL A   1      44.069  32.007  34.397  1.00  0.00     0.057 A 
ATOM     74  C   UNL A   1      44.465  32.252  35.733  1.00  0.00     0.134 A 
ATOM     75  C   UNL A   1      45.151  31.781  33.524  1.00  0.00     0.134 A 
ATOM     76  F   UNL A   1      43.563  32.504  36.693  1.00  0.00    -0.206 F 
ATOM     77  C   UNL A   1      45.807  32.255  36.159  1.00  0.00     0.040 A 
ATOM     78  C   UNL A   1      46.494  31.728  33.946  1.00  0.00     0.040 A 
ATOM     79  F   UNL A   1      44.982  31.656  32.203  1.00  0.00    -0.206 F 
ATOM     80  C   UNL A   1      46.828  31.973  35.268  1.00  0.00     0.006 A 
ENDBRANCH  59  73
BRANCH  60  81
ATOM     81  C   UNL A   1      34.640  33.968  31.416  1.00  0.00     0.057 A 
ATOM     82  C   UNL A   1      34.014  34.995  30.700  1.00  0.00     0.134 A 
ATOM     83  C   UNL A   1      34.570  32.660  30.948  1.00  0.00     0.134 A 
ATOM     84  F   UNL A   1      33.799  36.196  31.250  1.00  0.00    -0.206 F 
ATOM     85  C   UNL A   1      33.941  34.870  29.344  1.00  0.00     0.040 A 
ATOM     86  C   UNL A   1      34.597  32.524  29.593  1.00  0.00     0.040 A 
ATOM     87  F   UNL A   1      35.006  31.631  31.688  1.00  0.00    -0.206 F 
ATOM     88  C   UNL A   1      34.391  33.671  28.832  1.00  0.00     0.006 A 
ENDBRANCH  60  81
BRANCH  72  89
ATOM     89  C   UNL A   1      38.435  33.736  37.319  1.00  0.00     0.057 A 
ATOM     90  C   UNL A   1      38.759  34.653  38.338  1.00  0.00     0.134 A 
ATOM     91  C   UNL A   1      38.041  32.467  37.766  1.00  0.00     0.134 A 
ATOM     92  F   UNL A   1      39.329  35.836  38.060  1.00  0.00    -0.206 F 
ATOM     93  C   UNL A   1      38.520  34.398  39.687  1.00  0.00     0.040 A 
ATOM     94  C   UNL A   1      37.878  32.169  39.120  1.00  0.00     0.040 A 
ATOM     95  F   UNL A   1      37.788  31.458  36.922  1.00  0.00    -0.206 F 
ATOM     96  C   UNL A   1      38.073  33.148  40.082  1.00  0.00     0.006 A 
ENDBRANCH  72  89
ENDBRANCH  46  47
ENDBRANCH  39  41
ENDBRANCH  38  39
ENDBRANCH  37  38
ENDBRANCH  36  37
ENDBRANCH  35  36
ENDBRANCH  34  35
ENDBRANCH   1  34
TORSDOF 20
ENDMDL
MODEL 2
REMARK VINA RESULT:     -14.4      3.014      8.392
REMARK SMILES Cc1ccc(C2=NN(C(=O)CCC(=O)OCCOCCOC(=O)c3ccc(-c4c5nc(c(-c6c(F)cccc6F)c6ccc([nH]6)c(-c6c(F)cccc6F)c6nc(c(-c7c(F)cccc7F)c7ccc4[nH]7)C=C6)C=C5)cc3)[C@H](C[C@H]3C=c4cccc(C)c4=NC3=O)C2)cc1
REMARK SMILES IDX 16 1 15 2 13 3 14 4 12 5 11 6 9 7 10 8 8 9 6 10 7 11 92 12
REMARK SMILES IDX 78 13 5 14 1 15 2 16 3 17 94 18 4 19 93 20 79 21 80 22 81 23
REMARK SMILES IDX 90 24 82 25 89 26 91 27 83 28 88 29 84 30 86 31 85 32 87 33
REMARK SMILES IDX 17 34 18 35 19 36 20 37 21 38 22 39 23 40 24 41 25 42 77 43
REMARK SMILES IDX 26 44 76 45 27 46 28 47 29 48 70 49 30 50 75 51 69 52 71 53
REMARK SMILES IDX 31 54 74 55 68 56 67 57 32 59 58 60 41 61 57 62 42 63 45 64
REMARK SMILES IDX 56 65 72 66 43 67 44 68 55 70 73 71 46 72 33 73 34 74 39 75
REMARK SMILES IDX 35 76 36 77 38 78 40 79 37 80 59 81 60 82 65 83 61 84 62 85
REMARK SMILES IDX 64 86 66 87 63 88 47 89 48 90 53 91 49 92 50 93 52 94 54 95
REMARK SMILES IDX 51 96
REMARK H PARENT 71 58 45 69
REMARK Flexibility Score: inf
ROOT
ATOM      1  C   UNL A   1      30.690  27.441  24.934  1.00  0.00     0.261 C 
ENDROOT
BRANCH   1   2
ATOM      2  O   UNL A   1      31.228  26.165  24.650  1.00  0.00    -0.463 OA
BRANCH   2   3
ATOM      3  C   UNL A   1      30.637  25.170  25.336  1.00  0.00     0.306 C 
ATOM      4  O   UNL A   1      30.181  25.261  26.471  1.00  0.00    -0.252 OA
BRANCH   3   5
ATOM      5  C   UNL A   1      30.621  23.912  24.531  1.00  0.00     0.132 C 
BRANCH   5   6
ATOM      6  C   UNL A   1      31.359  23.966  23.203  1.00  0.00     0.114 C 
BRANCH   6   7
ATOM      7  C   UNL A   1      32.783  23.351  23.035  1.00  0.00     0.243 C 
ATOM      8  O   UNL A   1      33.312  23.638  21.944  1.00  0.00    -0.273 OA
BRANCH   7   9
ATOM      9  N   UNL A   1      33.569  22.707  24.048  1.00  0.00    -0.230 N 
ATOM     10  C   UNL A   1      33.991  20.617  24.701  1.00  0.00     0.070 C 
ATOM     11  N   UNL A   1      33.854  21.319  23.634  1.00  0.00    -0.174 NA
ATOM     12  C   UNL A   1      33.882  21.463  25.924  1.00  0.00     0.086 C 
ATOM     13  C   UNL A   1      34.215  23.024  25.744  1.00  0.00     0.118 C 
BRANCH  10  14
ATOM     14  C   UNL A   1      33.922  19.072  24.899  1.00  0.00    -0.002 A 
ATOM     15  C   UNL A   1      32.761  14.860  25.319  1.00  0.00     0.044 C 
ATOM     16  C   UNL A   1      33.191  16.292  25.162  1.00  0.00    -0.051 A 
ATOM     17  C   UNL A   1      34.324  16.703  24.433  1.00  0.00     0.004 A 
ATOM     18  C   UNL A   1      32.460  17.270  25.808  1.00  0.00     0.004 A 
ATOM     19  C   UNL A   1      34.669  18.083  24.267  1.00  0.00     0.010 A 
ATOM     20  C   UNL A   1      32.855  18.604  25.707  1.00  0.00     0.010 A 
ENDBRANCH  10  14
BRANCH  13  21
ATOM     21  C   UNL A   1      35.970  24.060  26.162  1.00  0.00     0.045 C 
BRANCH  21  22
ATOM     22  C   UNL A   1      37.764  23.530  25.546  1.00  0.00     0.106 C 
ATOM     23  C   UNL A   1      39.153  24.156  26.175  1.00  0.00    -0.003 C 
ATOM     24  C   UNL A   1      38.035  21.988  25.429  1.00  0.00     0.253 C 
ATOM     25  C   UNL A   1      39.972  23.459  26.979  1.00  0.00    -0.003 A 
ATOM     26  N   UNL A   1      39.249  21.415  25.847  1.00  0.00    -0.212 NA
ATOM     27  O   UNL A   1      37.139  21.282  24.965  1.00  0.00    -0.272 OA
ATOM     28  C   UNL A   1      40.621  23.933  28.205  1.00  0.00     0.010 A 
ATOM     29  C   UNL A   1      40.112  22.057  26.570  1.00  0.00     0.077 A 
ATOM     30  C   UNL A   1      41.539  23.170  28.818  1.00  0.00     0.001 A 
ATOM     31  C   UNL A   1      41.469  21.527  27.012  1.00  0.00    -0.025 A 
ATOM     32  C   UNL A   1      42.088  22.051  28.093  1.00  0.00     0.005 A 
ATOM     33  C   UNL A   1      42.210  20.674  26.043  1.00  0.00     0.047 C 
ENDBRANCH  21  22
ENDBRANCH  13  21
ENDBRANCH   7   9
ENDBRANCH   6   7
ENDBRANCH   5   6
ENDBRANCH   3   5
ENDBRANCH   2   3
ENDBRANCH   1   2
BRANCH   1  34
ATOM     34  C   UNL A   1      30.977  28.435  23.848  1.00  0.00     0.202 C 
BRANCH  34  35
ATOM     35  O   UNL A   1      32.264  29.003  23.771  1.00  0.00    -0.374 OA
BRANCH  35  36
ATOM     36  C   UNL A   1      33.522  28.483  24.284  1.00  0.00     0.202 C 
BRANCH  36  37
ATOM     37  C   UNL A   1      34.157  28.408  25.934  1.00  0.00     0.261 C 
BRANCH  37  38
ATOM     38  O   UNL A   1      34.257  29.562  27.466  1.00  0.00    -0.460 OA
BRANCH  38  39
ATOM     39  C   UNL A   1      33.985  31.201  27.949  1.00  0.00     0.338 C 
ATOM     40  O   UNL A   1      33.107  31.766  27.346  1.00  0.00    -0.246 OA
BRANCH  39  41
ATOM     41  C   UNL A   1      35.046  32.210  29.115  1.00  0.00     0.060 A 
ATOM     42  C   UNL A   1      36.154  33.000  28.658  1.00  0.00     0.016 A 
ATOM     43  C   UNL A   1      35.274  31.946  30.468  1.00  0.00     0.016 A 
ATOM     44  C   UNL A   1      37.528  32.767  29.154  1.00  0.00     0.010 A 
ATOM     45  C   UNL A   1      36.599  31.804  31.016  1.00  0.00     0.010 A 
ATOM     46  C   UNL A   1      37.776  31.965  30.267  1.00  0.00    -0.014 A 
BRANCH  46  47
ATOM     47  C   UNL A   1      39.059  31.198  30.695  1.00  0.00     0.031 A 
ATOM     48  C   UNL A   1      39.458  29.918  29.932  1.00  0.00     0.074 A 
ATOM     49  C   UNL A   1      40.100  31.709  31.471  1.00  0.00     0.049 A 
ATOM     50  N   UNL A   1      40.546  29.236  30.136  1.00  0.00    -0.248 NA
ATOM     51  C   UNL A   1      38.655  29.293  28.881  1.00  0.00     0.031 C 
ATOM     52  C   UNL A   1      41.541  31.387  31.233  1.00  0.00     0.029 A 
ATOM     53  N   UNL A   1      40.242  32.745  32.429  1.00  0.00    -0.354 N 
ATOM     54  C   UNL A   1      40.756  28.365  29.087  1.00  0.00     0.074 A 
ATOM     55  C   UNL A   1      39.481  28.341  28.417  1.00  0.00     0.031 C 
ATOM     56  C   UNL A   1      42.354  32.083  32.030  1.00  0.00     0.029 A 
ATOM     57  C   UNL A   1      41.544  32.684  33.048  1.00  0.00     0.049 A 
ATOM     58  H   UNL A   1      39.550  33.413  32.642  1.00  0.00     0.167 HD
ATOM     59  C   UNL A   1      41.999  27.831  28.859  1.00  0.00     0.037 A 
ATOM     60  C   UNL A   1      41.867  32.554  34.383  1.00  0.00     0.037 A 
ATOM     61  C   UNL A   1      42.960  28.191  29.913  1.00  0.00     0.049 A 
ATOM     62  C   UNL A   1      42.426  31.199  34.693  1.00  0.00     0.074 A 
ATOM     63  C   UNL A   1      44.111  28.958  29.992  1.00  0.00     0.029 A 
ATOM     64  N   UNL A   1      42.676  27.813  31.214  1.00  0.00    -0.354 N 
ATOM     65  N   UNL A   1      43.100  30.458  33.868  1.00  0.00    -0.248 NA
ATOM     66  C   UNL A   1      42.021  30.509  35.919  1.00  0.00     0.031 C 
ATOM     67  C   UNL A   1      44.461  29.084  31.378  1.00  0.00     0.029 A 
ATOM     68  C   UNL A   1      43.576  28.329  32.129  1.00  0.00     0.049 A 
ATOM     69  H   UNL A   1      41.915  27.240  31.460  1.00  0.00     0.167 HD
ATOM     70  C   UNL A   1      42.979  29.168  34.299  1.00  0.00     0.074 A 
ATOM     71  C   UNL A   1      42.302  29.249  35.583  1.00  0.00     0.031 C 
ATOM     72  C   UNL A   1      43.328  28.087  33.546  1.00  0.00     0.037 A 
BRANCH  59  73
ATOM     73  C   UNL A   1      42.433  26.992  27.654  1.00  0.00     0.057 A 
ATOM     74  C   UNL A   1      43.353  25.928  27.806  1.00  0.00     0.134 A 
ATOM     75  C   UNL A   1      42.038  27.206  26.319  1.00  0.00     0.134 A 
ATOM     76  F   UNL A   1      43.847  25.598  29.009  1.00  0.00    -0.206 F 
ATOM     77  C   UNL A   1      43.820  25.144  26.734  1.00  0.00     0.040 A 
ATOM     78  C   UNL A   1      42.456  26.396  25.245  1.00  0.00     0.040 A 
ATOM     79  F   UNL A   1      41.272  28.244  25.964  1.00  0.00    -0.206 F 
ATOM     80  C   UNL A   1      43.357  25.365  25.447  1.00  0.00     0.006 A 
ENDBRANCH  59  73
BRANCH  60  81
ATOM     81  C   UNL A   1      41.066  33.244  35.444  1.00  0.00     0.057 A 
ATOM     82  C   UNL A   1      41.511  34.549  35.687  1.00  0.00     0.134 A 
ATOM     83  C   UNL A   1      39.705  32.997  35.296  1.00  0.00     0.134 A 
ATOM     84  F   UNL A   1      42.752  34.790  36.127  1.00  0.00    -0.206 F 
ATOM     85  C   UNL A   1      40.793  35.575  35.148  1.00  0.00     0.040 A 
ATOM     86  C   UNL A   1      39.000  33.978  34.669  1.00  0.00     0.040 A 
ATOM     87  F   UNL A   1      39.227  31.746  35.233  1.00  0.00    -0.206 F 
ATOM     88  C   UNL A   1      39.623  35.214  34.516  1.00  0.00     0.006 A 
ENDBRANCH  60  81
BRANCH  72  89
ATOM     89  C   UNL A   1      43.321  26.718  34.167  1.00  0.00     0.057 A 
ATOM     90  C   UNL A   1      44.504  25.967  34.300  1.00  0.00     0.134 A 
ATOM     91  C   UNL A   1      42.154  26.069  34.594  1.00  0.00     0.134 A 
ATOM     92  F   UNL A   1      45.662  26.382  33.763  1.00  0.00    -0.206 F 
ATOM     93  C   UNL A   1      44.555  24.753  34.984  1.00  0.00     0.040 A 
ATOM     94  C   UNL A   1      42.178  24.814  35.206  1.00  0.00     0.040 A 
ATOM     95  F   UNL A   1      40.938  26.613  34.450  1.00  0.00    -0.206 F 
ATOM     96  C   UNL A   1      43.385  24.173  35.444  1.00  0.00     0.006 A 
ENDBRANCH  72  89
ENDBRANCH  46  47
ENDBRANCH  39  41
ENDBRANCH  38  39
ENDBRANCH  37  38
ENDBRANCH  36  37
ENDBRANCH  35  36
ENDBRANCH  34  35
ENDBRANCH   1  34
TORSDOF 20
ENDMDL
MODEL 3
REMARK VINA RESULT:     -13.3      4.866      9.682
REMARK SMILES Cc1ccc(C2=NN(C(=O)CCC(=O)OCCOCCOC(=O)c3ccc(-c4c5nc(c(-c6c(F)cccc6F)c6ccc([nH]6)c(-c6c(F)cccc6F)c6nc(c(-c7c(F)cccc7F)c7ccc4[nH]7)C=C6)C=C5)cc3)[C@H](C[C@H]3C=c4cccc(C)c4=NC3=O)C2)cc1
REMARK SMILES IDX 16 1 15 2 13 3 14 4 12 5 11 6 9 7 10 8 8 9 6 10 7 11 92 12
REMARK SMILES IDX 78 13 5 14 1 15 2 16 3 17 94 18 4 19 93 20 79 21 80 22 81 23
REMARK SMILES IDX 90 24 82 25 89 26 91 27 83 28 88 29 84 30 86 31 85 32 87 33
REMARK SMILES IDX 17 34 18 35 19 36 20 37 21 38 22 39 23 40 24 41 25 42 77 43
REMARK SMILES IDX 26 44 76 45 27 46 28 47 29 48 70 49 30 50 75 51 69 52 71 53
REMARK SMILES IDX 31 54 74 55 68 56 67 57 32 59 58 60 41 61 57 62 42 63 45 64
REMARK SMILES IDX 56 65 72 66 43 67 44 68 55 70 73 71 46 72 33 73 34 74 39 75
REMARK SMILES IDX 35 76 36 77 38 78 40 79 37 80 59 81 60 82 65 83 61 84 62 85
REMARK SMILES IDX 64 86 66 87 63 88 47 89 48 90 53 91 49 92 50 93 52 94 54 95
REMARK SMILES IDX 51 96
REMARK H PARENT 71 58 45 69
REMARK Flexibility Score: inf
ROOT
ATOM      1  C   UNL A   1      34.355  32.346  27.635  1.00  0.00     0.261 C 
ENDROOT
BRANCH   1   2
ATOM      2  O   UNL A   1      34.219  31.113  28.314  1.00  0.00    -0.463 OA
BRANCH   2   3
ATOM      3  C   UNL A   1      34.686  30.063  27.615  1.00  0.00     0.306 C 
ATOM      4  O   UNL A   1      35.852  29.685  27.594  1.00  0.00    -0.252 OA
BRANCH   3   5
ATOM      5  C   UNL A   1      33.585  29.415  26.840  1.00  0.00     0.132 C 
BRANCH   5   6
ATOM      6  C   UNL A   1      33.281  27.970  27.203  1.00  0.00     0.114 C 
BRANCH   6   7
ATOM      7  C   UNL A   1      33.260  26.844  26.124  1.00  0.00     0.243 C 
ATOM      8  O   UNL A   1      34.283  26.134  26.140  1.00  0.00    -0.273 OA
BRANCH   7   9
ATOM      9  N   UNL A   1      32.143  26.448  25.313  1.00  0.00    -0.230 N 
ATOM     10  C   UNL A   1      30.830  27.389  23.775  1.00  0.00     0.070 C 
ATOM     11  N   UNL A   1      32.063  27.329  24.131  1.00  0.00    -0.174 NA
ATOM     12  C   UNL A   1      29.977  26.511  24.628  1.00  0.00     0.086 C 
ATOM     13  C   UNL A   1      30.716  25.284  25.352  1.00  0.00     0.118 C 
BRANCH  10  14
ATOM     14  C   UNL A   1      30.099  28.425  22.868  1.00  0.00    -0.002 A 
ATOM     15  C   UNL A   1      27.571  31.575  21.149  1.00  0.00     0.044 C 
ATOM     16  C   UNL A   1      28.463  30.503  21.714  1.00  0.00    -0.051 A 
ATOM     17  C   UNL A   1      29.828  30.361  21.396  1.00  0.00     0.004 A 
ATOM     18  C   UNL A   1      27.906  29.567  22.562  1.00  0.00     0.004 A 
ATOM     19  C   UNL A   1      30.654  29.355  21.996  1.00  0.00     0.010 A 
ATOM     20  C   UNL A   1      28.701  28.543  23.075  1.00  0.00     0.010 A 
ENDBRANCH  10  14
BRANCH  13  21
ATOM     21  C   UNL A   1      30.815  23.281  24.794  1.00  0.00     0.045 C 
BRANCH  21  22
ATOM     22  C   UNL A   1      32.418  22.391  24.075  1.00  0.00     0.106 C 
ATOM     23  C   UNL A   1      33.842  23.179  23.809  1.00  0.00    -0.003 C 
ATOM     24  C   UNL A   1      32.828  21.036  24.754  1.00  0.00     0.253 C 
ATOM     25  C   UNL A   1      34.928  23.005  24.577  1.00  0.00    -0.003 A 
ATOM     26  N   UNL A   1      34.170  20.725  25.036  1.00  0.00    -0.212 NA
ATOM     27  O   UNL A   1      31.930  20.246  25.047  1.00  0.00    -0.272 OA
ATOM     28  C   UNL A   1      35.830  24.046  25.079  1.00  0.00     0.010 A 
ATOM     29  C   UNL A   1      35.116  21.610  24.990  1.00  0.00     0.077 A 
ATOM     30  C   UNL A   1      36.966  23.706  25.706  1.00  0.00     0.001 A 
ATOM     31  C   UNL A   1      36.596  21.340  25.225  1.00  0.00    -0.025 A 
ATOM     32  C   UNL A   1      37.423  22.342  25.596  1.00  0.00     0.005 A 
ATOM     33  C   UNL A   1      37.136  20.048  24.721  1.00  0.00     0.047 C 
ENDBRANCH  21  22
ENDBRANCH  13  21
ENDBRANCH   7   9
ENDBRANCH   6   7
ENDBRANCH   5   6
ENDBRANCH   3   5
ENDBRANCH   2   3
ENDBRANCH   1   2
BRANCH   1  34
ATOM     34  C   UNL A   1      34.719  33.469  28.560  1.00  0.00     0.202 C 
BRANCH  34  35
ATOM     35  O   UNL A   1      34.147  33.500  29.847  1.00  0.00    -0.374 OA
BRANCH  35  36
ATOM     36  C   UNL A   1      34.813  33.588  31.138  1.00  0.00     0.202 C 
BRANCH  36  37
ATOM     37  C   UNL A   1      35.208  32.336  32.325  1.00  0.00     0.261 C 
BRANCH  37  38
ATOM     38  O   UNL A   1      36.711  31.839  33.411  1.00  0.00    -0.460 OA
BRANCH  38  39
ATOM     39  C   UNL A   1      38.342  31.271  33.292  1.00  0.00     0.338 C 
ATOM     40  O   UNL A   1      38.556  30.228  33.858  1.00  0.00    -0.246 OA
BRANCH  39  41
ATOM     41  C   UNL A   1      39.801  32.211  32.591  1.00  0.00     0.060 A 
ATOM     42  C   UNL A   1      39.778  32.805  31.285  1.00  0.00     0.016 A 
ATOM     43  C   UNL A   1      41.145  32.023  32.921  1.00  0.00     0.016 A 
ATOM     44  C   UNL A   1      40.757  32.425  30.243  1.00  0.00     0.010 A 
ATOM     45  C   UNL A   1      42.154  31.743  31.930  1.00  0.00     0.010 A 
ATOM     46  C   UNL A   1      41.897  31.684  30.550  1.00  0.00    -0.014 A 
BRANCH  46  47
ATOM     47  C   UNL A   1      42.790  30.783  29.651  1.00  0.00     0.031 A 
ATOM     48  C   UNL A   1      42.619  29.252  29.716  1.00  0.00     0.074 A 
ATOM     49  C   UNL A   1      43.503  31.197  28.525  1.00  0.00     0.049 A 
ATOM     50  N   UNL A   1      43.241  28.397  28.959  1.00  0.00    -0.248 NA
ATOM     51  C   UNL A   1      41.737  28.554  30.652  1.00  0.00     0.031 C 
ATOM     52  C   UNL A   1      43.653  30.365  27.292  1.00  0.00     0.029 A 
ATOM     53  N   UNL A   1      44.036  32.423  28.052  1.00  0.00    -0.354 N 
ATOM     54  C   UNL A   1      42.628  27.165  29.042  1.00  0.00     0.074 A 
ATOM     55  C   UNL A   1      41.797  27.286  30.212  1.00  0.00     0.031 C 
ATOM     56  C   UNL A   1      44.279  31.019  26.312  1.00  0.00     0.029 A 
ATOM     57  C   UNL A   1      44.855  32.199  26.885  1.00  0.00     0.049 A 
ATOM     58  H   UNL A   1      43.871  33.304  28.461  1.00  0.00     0.167 HD
ATOM     59  C   UNL A   1      42.829  26.216  28.070  1.00  0.00     0.037 A 
ATOM     60  C   UNL A   1      46.182  32.514  26.681  1.00  0.00     0.037 A 
ATOM     61  C   UNL A   1      43.835  26.637  27.084  1.00  0.00     0.049 A 
ATOM     62  C   UNL A   1      47.050  31.293  26.665  1.00  0.00     0.074 A 
ATOM     63  C   UNL A   1      43.837  26.960  25.737  1.00  0.00     0.029 A 
ATOM     64  N   UNL A   1      45.114  26.920  27.534  1.00  0.00    -0.354 N 
ATOM     65  N   UNL A   1      46.678  30.112  26.276  1.00  0.00    -0.248 NA
ATOM     66  C   UNL A   1      48.350  31.315  27.338  1.00  0.00     0.031 C 
ATOM     67  C   UNL A   1      45.124  27.506  25.417  1.00  0.00     0.029 A 
ATOM     68  C   UNL A   1      45.927  27.438  26.543  1.00  0.00     0.049 A 
ATOM     69  H   UNL A   1      45.411  26.768  28.460  1.00  0.00     0.167 HD
ATOM     70  C   UNL A   1      47.512  29.212  26.874  1.00  0.00     0.074 A 
ATOM     71  C   UNL A   1      48.542  30.008  27.523  1.00  0.00     0.031 C 
ATOM     72  C   UNL A   1      47.269  27.872  26.914  1.00  0.00     0.037 A 
BRANCH  59  73
ATOM     73  C   UNL A   1      42.100  24.878  27.927  1.00  0.00     0.057 A 
ATOM     74  C   UNL A   1      42.813  23.656  27.979  1.00  0.00     0.134 A 
ATOM     75  C   UNL A   1      40.723  24.714  27.679  1.00  0.00     0.134 A 
ATOM     76  F   UNL A   1      44.137  23.629  28.189  1.00  0.00    -0.206 F 
ATOM     77  C   UNL A   1      42.208  22.395  27.816  1.00  0.00     0.040 A 
ATOM     78  C   UNL A   1      40.097  23.458  27.567  1.00  0.00     0.040 A 
ATOM     79  F   UNL A   1      39.911  25.757  27.472  1.00  0.00    -0.206 F 
ATOM     80  C   UNL A   1      40.840  22.290  27.627  1.00  0.00     0.006 A 
ENDBRANCH  59  73
BRANCH  60  81
ATOM     81  C   UNL A   1      46.768  33.785  27.215  1.00  0.00     0.057 A 
ATOM     82  C   UNL A   1      46.733  34.826  26.280  1.00  0.00     0.134 A 
ATOM     83  C   UNL A   1      46.361  34.023  28.524  1.00  0.00     0.134 A 
ATOM     84  F   UNL A   1      47.382  34.734  25.112  1.00  0.00    -0.206 F 
ATOM     85  C   UNL A   1      45.762  35.773  26.420  1.00  0.00     0.040 A 
ATOM     86  C   UNL A   1      45.325  34.894  28.663  1.00  0.00     0.040 A 
ATOM     87  F   UNL A   1      46.540  33.106  29.486  1.00  0.00    -0.206 F 
ATOM     88  C   UNL A   1      44.988  35.667  27.555  1.00  0.00     0.006 A 
ENDBRANCH  60  81
BRANCH  72  89
ATOM     89  C   UNL A   1      48.327  26.943  27.441  1.00  0.00     0.057 A 
ATOM     90  C   UNL A   1      48.394  26.606  28.807  1.00  0.00     0.134 A 
ATOM     91  C   UNL A   1      49.348  26.402  26.646  1.00  0.00     0.134 A 
ATOM     92  F   UNL A   1      47.602  27.199  29.714  1.00  0.00    -0.206 F 
ATOM     93  C   UNL A   1      49.278  25.652  29.308  1.00  0.00     0.040 A 
ATOM     94  C   UNL A   1      50.294  25.508  27.151  1.00  0.00     0.040 A 
ATOM     95  F   UNL A   1      49.477  26.700  25.347  1.00  0.00    -0.206 F 
ATOM     96  C   UNL A   1      50.233  25.095  28.474  1.00  0.00     0.006 A 
ENDBRANCH  72  89
ENDBRANCH  46  47
ENDBRANCH  39  41
ENDBRANCH  38  39
ENDBRANCH  37  38
ENDBRANCH  36  37
ENDBRANCH  35  36
ENDBRANCH  34  35
ENDBRANCH   1  34
TORSDOF 20
ENDMDL
