MODEL 1
REMARK VINA RESULT:     -11.4      0.000      0.000
REMARK SMILES Cc1nc(-c2ccccn2)cc(N2CCC[C@H](C(=O)OCCOCCOC(=O)c3ccc(-c4c5nc(c(-c6c(F)cccc6F)c6ccc([nH]6)c(-c6c(F)cccc6F)c6nc(c(-c7c(F)cccc7F)c7ccc4[nH]7)C=C6)C=C5)cc3)C2)n1
REMARK SMILES IDX 23 1 22 2 21 3 20 4 18 5 19 6 17 7 13 8 14 9 83 10 15 11
REMARK SMILES IDX 16 12 12 13 1 14 2 15 3 16 84 17 4 18 11 19 5 20 6 21 10 22
REMARK SMILES IDX 7 23 9 24 8 25 24 26 25 27 26 28 27 29 28 30 29 31 30 32
REMARK SMILES IDX 82 33 31 34 81 35 32 36 33 37 34 38 75 39 35 40 80 41 74 42
REMARK SMILES IDX 76 43 36 44 79 45 73 46 72 47 37 49 63 50 46 51 62 52 47 53
REMARK SMILES IDX 50 54 61 55 77 56 48 57 49 58 60 60 78 61 51 62 38 63 39 64
REMARK SMILES IDX 44 65 40 66 41 67 43 68 45 69 42 70 64 71 65 72 70 73 66 74
REMARK SMILES IDX 67 75 69 76 71 77 68 78 52 79 53 80 58 81 54 82 55 83 57 84
REMARK SMILES IDX 59 85 56 86
REMARK H PARENT 76 48 50 59
REMARK Flexibility Score: inf
ROOT
ATOM      1  O   UNL A   1      33.056  29.446  24.725  1.00  0.00    -0.374 OA
ENDROOT
BRANCH   1   2
ATOM      2  C   UNL A   1      33.609  28.158  24.992  1.00  0.00     0.202 C 
BRANCH   2   3
ATOM      3  C   UNL A   1      32.788  27.269  25.928  1.00  0.00     0.261 C 
BRANCH   3   4
ATOM      4  O   UNL A   1      32.685  25.928  25.413  1.00  0.00    -0.463 OA
BRANCH   4   5
ATOM      5  C   UNL A   1      31.466  25.335  25.511  1.00  0.00     0.310 C 
ATOM      6  O   UNL A   1      30.876  25.127  26.566  1.00  0.00    -0.252 OA
BRANCH   5   7
ATOM      7  C   UNL A   1      30.896  24.899  24.172  1.00  0.00     0.118 C 
ATOM      8  N   UNL A   1      32.654  23.431  23.403  1.00  0.00    -0.356 N 
ATOM      9  C   UNL A   1      32.903  24.115  22.147  1.00  0.00     0.118 C 
ATOM     10  C   UNL A   1      31.297  23.445  23.926  1.00  0.00     0.133 C 
ATOM     11  C   UNL A   1      32.586  25.595  22.340  1.00  0.00     0.022 C 
ATOM     12  C   UNL A   1      31.204  25.810  22.968  1.00  0.00     0.019 C 
BRANCH   8  13
ATOM     13  C   UNL A   1      33.551  22.514  23.895  1.00  0.00     0.132 A 
ATOM     14  C   UNL A   1      33.642  18.959  24.731  1.00  0.00     0.090 C 
ATOM     15  C   UNL A   1      34.040  20.396  24.620  1.00  0.00     0.128 A 
ATOM     16  N   UNL A   1      35.269  20.731  25.042  1.00  0.00    -0.231 NA
ATOM     17  N   UNL A   1      33.151  21.250  24.085  1.00  0.00    -0.216 NA
ATOM     18  C   UNL A   1      35.640  22.020  24.885  1.00  0.00     0.094 A 
ATOM     19  C   UNL A   1      34.810  22.936  24.269  1.00  0.00     0.077 A 
BRANCH  18  20
ATOM     20  C   UNL A   1      36.942  22.414  25.462  1.00  0.00     0.089 A 
ATOM     21  C   UNL A   1      37.159  23.699  25.972  1.00  0.00     0.030 A 
ATOM     22  N   UNL A   1      37.919  21.472  25.480  1.00  0.00    -0.255 NA
ATOM     23  C   UNL A   1      38.406  24.027  26.501  1.00  0.00     0.004 A 
ATOM     24  C   UNL A   1      39.113  21.811  26.016  1.00  0.00     0.112 A 
ATOM     25  C   UNL A   1      39.406  23.065  26.520  1.00  0.00     0.020 A 
ENDBRANCH  18  20
ENDBRANCH   8  13
ENDBRANCH   5   7
ENDBRANCH   4   5
ENDBRANCH   3   4
ENDBRANCH   2   3
ENDBRANCH   1   2
BRANCH   1  26
ATOM     26  C   UNL A   1      31.709  29.670  25.135  1.00  0.00     0.202 C 
BRANCH  26  27
ATOM     27  C   UNL A   1      31.484  30.883  26.046  1.00  0.00     0.261 C 
BRANCH  27  28
ATOM     28  O   UNL A   1      32.294  30.843  27.236  1.00  0.00    -0.460 OA
BRANCH  28  29
ATOM     29  C   UNL A   1      33.096  31.919  27.412  1.00  0.00     0.338 C 
ATOM     30  O   UNL A   1      32.767  33.099  27.398  1.00  0.00    -0.246 OA
BRANCH  29  31
ATOM     31  C   UNL A   1      34.462  31.500  27.773  1.00  0.00     0.060 A 
ATOM     32  C   UNL A   1      34.685  30.135  28.001  1.00  0.00     0.016 A 
ATOM     33  C   UNL A   1      35.479  32.431  28.000  1.00  0.00     0.016 A 
ATOM     34  C   UNL A   1      35.909  29.703  28.509  1.00  0.00     0.010 A 
ATOM     35  C   UNL A   1      36.702  31.995  28.521  1.00  0.00     0.010 A 
ATOM     36  C   UNL A   1      36.909  30.636  28.813  1.00  0.00    -0.014 A 
BRANCH  36  37
ATOM     37  C   UNL A   1      38.114  30.199  29.559  1.00  0.00     0.031 A 
ATOM     38  C   UNL A   1      38.285  30.612  30.994  1.00  0.00     0.074 A 
ATOM     39  C   UNL A   1      39.050  29.439  28.966  1.00  0.00     0.049 A 
ATOM     40  N   UNL A   1      39.268  30.355  31.818  1.00  0.00    -0.248 NA
ATOM     41  C   UNL A   1      37.214  31.439  31.570  1.00  0.00     0.031 C 
ATOM     42  C   UNL A   1      39.011  28.998  27.575  1.00  0.00     0.029 A 
ATOM     43  N   UNL A   1      40.217  28.911  29.459  1.00  0.00    -0.354 N 
ATOM     44  C   UNL A   1      38.957  31.022  32.996  1.00  0.00     0.074 A 
ATOM     45  C   UNL A   1      37.690  31.689  32.781  1.00  0.00     0.031 C 
ATOM     46  C   UNL A   1      40.102  28.251  27.331  1.00  0.00     0.029 A 
ATOM     47  C   UNL A   1      40.907  28.154  28.544  1.00  0.00     0.049 A 
ATOM     48  H   UNL A   1      40.529  29.060  30.380  1.00  0.00     0.167 HD
ATOM     49  C   UNL A   1      39.670  31.084  34.146  1.00  0.00     0.037 A 
ATOM     50  C   UNL A   1      42.051  27.456  28.673  1.00  0.00     0.037 A 
ATOM     51  C   UNL A   1      40.925  30.414  34.363  1.00  0.00     0.049 A 
ATOM     52  C   UNL A   1      42.794  27.490  29.982  1.00  0.00     0.074 A 
ATOM     53  C   UNL A   1      41.718  30.415  35.498  1.00  0.00     0.029 A 
ATOM     54  N   UNL A   1      41.573  29.625  33.426  1.00  0.00    -0.354 N 
ATOM     55  N   UNL A   1      42.479  28.107  31.094  1.00  0.00    -0.248 NA
ATOM     56  C   UNL A   1      44.061  26.745  30.045  1.00  0.00     0.031 C 
ATOM     57  C   UNL A   1      42.861  29.653  35.236  1.00  0.00     0.029 A 
ATOM     58  C   UNL A   1      42.760  29.143  33.952  1.00  0.00     0.049 A 
ATOM     59  H   UNL A   1      41.238  29.435  32.519  1.00  0.00     0.167 HD
ATOM     60  C   UNL A   1      43.507  27.831  31.986  1.00  0.00     0.074 A 
ATOM     61  C   UNL A   1      44.437  26.958  31.299  1.00  0.00     0.031 C 
ATOM     62  C   UNL A   1      43.675  28.275  33.256  1.00  0.00     0.037 A 
BRANCH  49  63
ATOM     63  C   UNL A   1      39.125  31.946  35.246  1.00  0.00     0.057 A 
ATOM     64  C   UNL A   1      39.376  33.321  35.305  1.00  0.00     0.134 A 
ATOM     65  C   UNL A   1      38.318  31.390  36.247  1.00  0.00     0.134 A 
ATOM     66  F   UNL A   1      40.155  33.911  34.386  1.00  0.00    -0.206 F 
ATOM     67  C   UNL A   1      38.860  34.112  36.335  1.00  0.00     0.040 A 
ATOM     68  C   UNL A   1      37.778  32.172  37.267  1.00  0.00     0.040 A 
ATOM     69  F   UNL A   1      38.039  30.078  36.246  1.00  0.00    -0.206 F 
ATOM     70  C   UNL A   1      38.053  33.538  37.316  1.00  0.00     0.006 A 
ENDBRANCH  49  63
BRANCH  50  71
ATOM     71  C   UNL A   1      42.548  26.627  27.546  1.00  0.00     0.057 A 
ATOM     72  C   UNL A   1      43.333  27.195  26.535  1.00  0.00     0.134 A 
ATOM     73  C   UNL A   1      42.260  25.261  27.448  1.00  0.00     0.134 A 
ATOM     74  F   UNL A   1      43.629  28.504  26.566  1.00  0.00    -0.206 F 
ATOM     75  C   UNL A   1      43.804  26.441  25.461  1.00  0.00     0.040 A 
ATOM     76  C   UNL A   1      42.749  24.488  26.394  1.00  0.00     0.040 A 
ATOM     77  F   UNL A   1      41.510  24.659  28.382  1.00  0.00    -0.206 F 
ATOM     78  C   UNL A   1      43.518  25.079  25.393  1.00  0.00     0.006 A 
ENDBRANCH  50  71
BRANCH  62  79
ATOM     79  C   UNL A   1      44.907  27.825  33.985  1.00  0.00     0.057 A 
ATOM     80  C   UNL A   1      46.089  28.575  33.961  1.00  0.00     0.134 A 
ATOM     81  C   UNL A   1      44.896  26.657  34.756  1.00  0.00     0.134 A 
ATOM     82  F   UNL A   1      46.166  29.700  33.233  1.00  0.00    -0.206 F 
ATOM     83  C   UNL A   1      47.224  28.170  34.665  1.00  0.00     0.040 A 
ATOM     84  C   UNL A   1      46.017  26.253  35.482  1.00  0.00     0.040 A 
ATOM     85  F   UNL A   1      43.792  25.898  34.829  1.00  0.00    -0.206 F 
ATOM     86  C   UNL A   1      47.188  27.007  35.433  1.00  0.00     0.006 A 
ENDBRANCH  62  79
ENDBRANCH  36  37
ENDBRANCH  29  31
ENDBRANCH  28  29
ENDBRANCH  27  28
ENDBRANCH  26  27
ENDBRANCH   1  26
TORSDOF 16
ENDMDL
MODEL 2
REMARK VINA RESULT:     -11.3      0.469      6.061
REMARK SMILES Cc1nc(-c2ccccn2)cc(N2CCC[C@H](C(=O)OCCOCCOC(=O)c3ccc(-c4c5nc(c(-c6c(F)cccc6F)c6ccc([nH]6)c(-c6c(F)cccc6F)c6nc(c(-c7c(F)cccc7F)c7ccc4[nH]7)C=C6)C=C5)cc3)C2)n1
REMARK SMILES IDX 23 1 22 2 21 3 20 4 18 5 19 6 17 7 13 8 14 9 83 10 15 11
REMARK SMILES IDX 16 12 12 13 1 14 2 15 3 16 84 17 4 18 11 19 5 20 6 21 10 22
REMARK SMILES IDX 7 23 9 24 8 25 24 26 25 27 26 28 27 29 28 30 29 31 30 32
REMARK SMILES IDX 82 33 31 34 81 35 32 36 33 37 34 38 75 39 35 40 80 41 74 42
REMARK SMILES IDX 76 43 36 44 79 45 73 46 72 47 37 49 63 50 46 51 62 52 47 53
REMARK SMILES IDX 50 54 61 55 77 56 48 57 49 58 60 60 78 61 51 62 38 63 39 64
REMARK SMILES IDX 44 65 40 66 41 67 43 68 45 69 42 70 64 71 65 72 70 73 66 74
REMARK SMILES IDX 67 75 69 76 71 77 68 78 52 79 53 80 58 81 54 82 55 83 57 84
REMARK SMILES IDX 59 85 56 86
REMARK H PARENT 76 48 50 59
REMARK Flexibility Score: inf
ROOT
ATOM      1  O   UNL A   1      32.776  28.961  25.090  1.00  0.00    -0.374 OA
ENDROOT
BRANCH   1   2
ATOM      2  C   UNL A   1      32.770  27.582  25.459  1.00  0.00     0.202 C 
BRANCH   2   3
ATOM      3  C   UNL A   1      31.592  27.138  26.328  1.00  0.00     0.261 C 
BRANCH   3   4
ATOM      4  O   UNL A   1      30.650  26.357  25.568  1.00  0.00    -0.463 OA
BRANCH   4   5
ATOM      5  C   UNL A   1      31.042  25.100  25.229  1.00  0.00     0.310 C 
ATOM      6  O   UNL A   1      31.648  24.336  25.974  1.00  0.00    -0.252 OA
BRANCH   5   7
ATOM      7  C   UNL A   1      30.698  24.724  23.798  1.00  0.00     0.118 C 
ATOM      8  N   UNL A   1      32.636  23.409  23.209  1.00  0.00    -0.356 N 
ATOM      9  C   UNL A   1      33.018  24.189  22.046  1.00  0.00     0.118 C 
ATOM     10  C   UNL A   1      31.221  23.314  23.528  1.00  0.00     0.133 C 
ATOM     11  C   UNL A   1      32.584  25.633  22.276  1.00  0.00     0.022 C 
ATOM     12  C   UNL A   1      31.116  25.730  22.708  1.00  0.00     0.019 C 
BRANCH   8  13
ATOM     13  C   UNL A   1      33.511  22.511  23.773  1.00  0.00     0.132 A 
ATOM     14  C   UNL A   1      33.552  18.997  24.770  1.00  0.00     0.090 C 
ATOM     15  C   UNL A   1      33.961  20.426  24.608  1.00  0.00     0.128 A 
ATOM     16  N   UNL A   1      35.177  20.773  25.057  1.00  0.00    -0.231 NA
ATOM     17  N   UNL A   1      33.097  21.258  24.006  1.00  0.00    -0.216 NA
ATOM     18  C   UNL A   1      35.562  22.052  24.855  1.00  0.00     0.094 A 
ATOM     19  C   UNL A   1      34.759  22.944  24.170  1.00  0.00     0.077 A 
BRANCH  18  20
ATOM     20  C   UNL A   1      36.846  22.466  25.457  1.00  0.00     0.089 A 
ATOM     21  C   UNL A   1      37.027  23.747  25.989  1.00  0.00     0.030 A 
ATOM     22  N   UNL A   1      37.842  21.545  25.478  1.00  0.00    -0.255 NA
ATOM     23  C   UNL A   1      38.258  24.095  26.542  1.00  0.00     0.004 A 
ATOM     24  C   UNL A   1      39.020  21.902  26.038  1.00  0.00     0.112 A 
ATOM     25  C   UNL A   1      39.278  23.154  26.564  1.00  0.00     0.020 A 
ENDBRANCH  18  20
ENDBRANCH   8  13
ENDBRANCH   5   7
ENDBRANCH   4   5
ENDBRANCH   3   4
ENDBRANCH   2   3
ENDBRANCH   1   2
BRANCH   1  26
ATOM     26  C   UNL A   1      31.514  29.621  25.030  1.00  0.00     0.202 C 
BRANCH  26  27
ATOM     27  C   UNL A   1      31.391  30.897  25.871  1.00  0.00     0.261 C 
BRANCH  27  28
ATOM     28  O   UNL A   1      32.202  30.861  27.062  1.00  0.00    -0.460 OA
BRANCH  28  29
ATOM     29  C   UNL A   1      32.938  31.975  27.280  1.00  0.00     0.338 C 
ATOM     30  O   UNL A   1      32.552  33.137  27.246  1.00  0.00    -0.246 OA
BRANCH  29  31
ATOM     31  C   UNL A   1      34.301  31.624  27.720  1.00  0.00     0.060 A 
ATOM     32  C   UNL A   1      34.572  30.274  27.981  1.00  0.00     0.016 A 
ATOM     33  C   UNL A   1      35.260  32.603  27.985  1.00  0.00     0.016 A 
ATOM     34  C   UNL A   1      35.786  29.905  28.559  1.00  0.00     0.010 A 
ATOM     35  C   UNL A   1      36.473  32.232  28.577  1.00  0.00     0.010 A 
ATOM     36  C   UNL A   1      36.725  30.887  28.901  1.00  0.00    -0.014 A 
BRANCH  36  37
ATOM     37  C   UNL A   1      37.907  30.516  29.717  1.00  0.00     0.031 A 
ATOM     38  C   UNL A   1      39.010  29.708  29.095  1.00  0.00     0.074 A 
ATOM     39  C   UNL A   1      37.999  30.897  31.002  1.00  0.00     0.049 A 
ATOM     40  N   UNL A   1      40.117  29.264  29.635  1.00  0.00    -0.248 NA
ATOM     41  C   UNL A   1      38.835  29.336  27.683  1.00  0.00     0.031 C 
ATOM     42  C   UNL A   1      36.984  31.658  31.724  1.00  0.00     0.029 A 
ATOM     43  N   UNL A   1      38.991  30.689  31.928  1.00  0.00    -0.354 N 
ATOM     44  C   UNL A   1      40.750  28.526  28.644  1.00  0.00     0.074 A 
ATOM     45  C   UNL A   1      39.907  28.588  27.469  1.00  0.00     0.031 C 
ATOM     46  C   UNL A   1      37.415  31.866  32.980  1.00  0.00     0.029 A 
ATOM     47  C   UNL A   1      38.733  31.263  33.148  1.00  0.00     0.049 A 
ATOM     48  H   UNL A   1      39.809  30.177  31.735  1.00  0.00     0.167 HD
ATOM     49  C   UNL A   1      41.920  27.846  28.714  1.00  0.00     0.037 A 
ATOM     50  C   UNL A   1      39.480  31.307  34.268  1.00  0.00     0.037 A 
ATOM     51  C   UNL A   1      42.763  27.792  29.879  1.00  0.00     0.049 A 
ATOM     52  C   UNL A   1      40.805  30.595  34.300  1.00  0.00     0.074 A 
ATOM     53  C   UNL A   1      43.969  27.132  30.041  1.00  0.00     0.029 A 
ATOM     54  N   UNL A   1      42.486  28.419  31.084  1.00  0.00    -0.354 N 
ATOM     55  N   UNL A   1      41.403  29.918  33.351  1.00  0.00    -0.248 NA
ATOM     56  C   UNL A   1      41.552  30.640  35.567  1.00  0.00     0.031 C 
ATOM     57  C   UNL A   1      44.406  27.333  31.354  1.00  0.00     0.029 A 
ATOM     58  C   UNL A   1      43.494  28.154  31.997  1.00  0.00     0.049 A 
ATOM     59  H   UNL A   1      41.691  28.972  31.264  1.00  0.00     0.167 HD
ATOM     60  C   UNL A   1      42.589  29.453  33.904  1.00  0.00     0.074 A 
ATOM     61  C   UNL A   1      42.646  29.957  35.260  1.00  0.00     0.031 C 
ATOM     62  C   UNL A   1      43.537  28.662  33.344  1.00  0.00     0.037 A 
BRANCH  49  63
ATOM     63  C   UNL A   1      42.334  27.068  27.500  1.00  0.00     0.057 A 
ATOM     64  C   UNL A   1      43.042  27.658  26.446  1.00  0.00     0.134 A 
ATOM     65  C   UNL A   1      42.038  25.703  27.398  1.00  0.00     0.134 A 
ATOM     66  F   UNL A   1      43.342  28.965  26.475  1.00  0.00    -0.206 F 
ATOM     67  C   UNL A   1      43.423  26.920  25.323  1.00  0.00     0.040 A 
ATOM     68  C   UNL A   1      42.433  24.950  26.293  1.00  0.00     0.040 A 
ATOM     69  F   UNL A   1      41.364  25.078  28.375  1.00  0.00    -0.206 F 
ATOM     70  C   UNL A   1      43.123  25.561  25.247  1.00  0.00     0.006 A 
ENDBRANCH  49  63
BRANCH  50  71
ATOM     71  C   UNL A   1      39.013  32.086  35.443  1.00  0.00     0.057 A 
ATOM     72  C   UNL A   1      39.325  33.445  35.566  1.00  0.00     0.134 A 
ATOM     73  C   UNL A   1      38.251  31.504  36.462  1.00  0.00     0.134 A 
ATOM     74  F   UNL A   1      40.068  34.055  34.630  1.00  0.00    -0.206 F 
ATOM     75  C   UNL A   1      38.908  34.196  36.665  1.00  0.00     0.040 A 
ATOM     76  C   UNL A   1      37.800  32.251  37.551  1.00  0.00     0.040 A 
ATOM     77  F   UNL A   1      37.922  30.205  36.404  1.00  0.00    -0.206 F 
ATOM     78  C   UNL A   1      38.135  33.600  37.659  1.00  0.00     0.006 A 
ENDBRANCH  50  71
BRANCH  62  79
ATOM     79  C   UNL A   1      44.718  28.296  34.194  1.00  0.00     0.057 A 
ATOM     80  C   UNL A   1      44.722  27.140  34.984  1.00  0.00     0.134 A 
ATOM     81  C   UNL A   1      45.877  29.079  34.186  1.00  0.00     0.134 A 
ATOM     82  F   UNL A   1      43.638  26.352  35.042  1.00  0.00    -0.206 F 
ATOM     83  C   UNL A   1      45.833  26.785  35.752  1.00  0.00     0.040 A 
ATOM     84  C   UNL A   1      47.002  28.724  34.931  1.00  0.00     0.040 A 
ATOM     85  F   UNL A   1      45.941  30.195  33.443  1.00  0.00    -0.206 F 
ATOM     86  C   UNL A   1      46.980  27.576  35.722  1.00  0.00     0.006 A 
ENDBRANCH  62  79
ENDBRANCH  36  37
ENDBRANCH  29  31
ENDBRANCH  28  29
ENDBRANCH  27  28
ENDBRANCH  26  27
ENDBRANCH   1  26
TORSDOF 16
ENDMDL
MODEL 3
REMARK VINA RESULT:     -11.2      1.562      2.855
REMARK SMILES Cc1nc(-c2ccccn2)cc(N2CCC[C@H](C(=O)OCCOCCOC(=O)c3ccc(-c4c5nc(c(-c6c(F)cccc6F)c6ccc([nH]6)c(-c6c(F)cccc6F)c6nc(c(-c7c(F)cccc7F)c7ccc4[nH]7)C=C6)C=C5)cc3)C2)n1
REMARK SMILES IDX 23 1 22 2 21 3 20 4 18 5 19 6 17 7 13 8 14 9 83 10 15 11
REMARK SMILES IDX 16 12 12 13 1 14 2 15 3 16 84 17 4 18 11 19 5 20 6 21 10 22
REMARK SMILES IDX 7 23 9 24 8 25 24 26 25 27 26 28 27 29 28 30 29 31 30 32
REMARK SMILES IDX 82 33 31 34 81 35 32 36 33 37 34 38 75 39 35 40 80 41 74 42
REMARK SMILES IDX 76 43 36 44 79 45 73 46 72 47 37 49 63 50 46 51 62 52 47 53
REMARK SMILES IDX 50 54 61 55 77 56 48 57 49 58 60 60 78 61 51 62 38 63 39 64
REMARK SMILES IDX 44 65 40 66 41 67 43 68 45 69 42 70 64 71 65 72 70 73 66 74
REMARK SMILES IDX 67 75 69 76 71 77 68 78 52 79 53 80 58 81 54 82 55 83 57 84
REMARK SMILES IDX 59 85 56 86
REMARK H PARENT 76 48 50 59
REMARK Flexibility Score: inf
ROOT
ATOM      1  O   UNL A   1      32.234  30.661  26.517  1.00  0.00    -0.374 OA
ENDROOT
BRANCH   1   2
ATOM      2  C   UNL A   1      32.004  29.672  25.514  1.00  0.00     0.202 C 
BRANCH   2   3
ATOM      3  C   UNL A   1      31.729  28.259  26.032  1.00  0.00     0.261 C 
BRANCH   3   4
ATOM      4  O   UNL A   1      31.827  27.289  24.973  1.00  0.00    -0.463 OA
BRANCH   4   5
ATOM      5  C   UNL A   1      31.090  26.156  25.120  1.00  0.00     0.310 C 
ATOM      6  O   UNL A   1      30.795  25.654  26.200  1.00  0.00    -0.252 OA
BRANCH   5   7
ATOM      7  C   UNL A   1      30.686  25.521  23.800  1.00  0.00     0.118 C 
ATOM      8  N   UNL A   1      31.998  23.494  23.867  1.00  0.00    -0.356 N 
ATOM      9  C   UNL A   1      32.694  23.706  22.612  1.00  0.00     0.118 C 
ATOM     10  C   UNL A   1      30.642  24.005  23.986  1.00  0.00     0.133 C 
ATOM     11  C   UNL A   1      32.835  25.209  22.393  1.00  0.00     0.022 C 
ATOM     12  C   UNL A   1      31.499  25.942  22.562  1.00  0.00     0.019 C 
BRANCH   8  13
ATOM     13  C   UNL A   1      32.440  22.555  24.768  1.00  0.00     0.132 A 
ATOM     14  C   UNL A   1      34.018  22.459  28.061  1.00  0.00     0.090 C 
ATOM     15  C   UNL A   1      33.481  22.019  26.737  1.00  0.00     0.128 A 
ATOM     16  N   UNL A   1      33.484  20.702  26.478  1.00  0.00    -0.231 NA
ATOM     17  N   UNL A   1      33.011  22.965  25.908  1.00  0.00    -0.216 NA
ATOM     18  C   UNL A   1      32.944  20.308  25.304  1.00  0.00     0.094 A 
ATOM     19  C   UNL A   1      32.369  21.217  24.437  1.00  0.00     0.077 A 
BRANCH  18  20
ATOM     20  C   UNL A   1      33.060  18.875  24.964  1.00  0.00     0.089 A 
ATOM     21  C   UNL A   1      33.798  18.440  23.858  1.00  0.00     0.030 A 
ATOM     22  N   UNL A   1      32.421  17.995  25.777  1.00  0.00    -0.255 NA
ATOM     23  C   UNL A   1      33.873  17.078  23.573  1.00  0.00     0.004 A 
ATOM     24  C   UNL A   1      32.527  16.678  25.489  1.00  0.00     0.112 A 
ATOM     25  C   UNL A   1      33.221  16.178  24.403  1.00  0.00     0.020 A 
ENDBRANCH  18  20
ENDBRANCH   8  13
ENDBRANCH   5   7
ENDBRANCH   4   5
ENDBRANCH   3   4
ENDBRANCH   2   3
ENDBRANCH   1   2
BRANCH   1  26
ATOM     26  C   UNL A   1      31.365  31.791  26.524  1.00  0.00     0.202 C 
BRANCH  26  27
ATOM     27  C   UNL A   1      32.045  33.151  26.725  1.00  0.00     0.261 C 
BRANCH  27  28
ATOM     28  O   UNL A   1      32.139  33.528  28.112  1.00  0.00    -0.460 OA
BRANCH  28  29
ATOM     29  C   UNL A   1      33.185  34.333  28.410  1.00  0.00     0.338 C 
ATOM     30  O   UNL A   1      33.164  35.546  28.576  1.00  0.00    -0.246 OA
BRANCH  29  31
ATOM     31  C   UNL A   1      34.400  33.537  28.661  1.00  0.00     0.060 A 
ATOM     32  C   UNL A   1      34.235  32.220  29.111  1.00  0.00     0.016 A 
ATOM     33  C   UNL A   1      35.676  34.100  28.573  1.00  0.00     0.016 A 
ATOM     34  C   UNL A   1      35.341  31.479  29.525  1.00  0.00     0.010 A 
ATOM     35  C   UNL A   1      36.783  33.359  29.001  1.00  0.00     0.010 A 
ATOM     36  C   UNL A   1      36.616  32.060  29.514  1.00  0.00    -0.014 A 
BRANCH  36  37
ATOM     37  C   UNL A   1      37.747  31.354  30.164  1.00  0.00     0.031 A 
ATOM     38  C   UNL A   1      38.024  31.588  31.622  1.00  0.00     0.074 A 
ATOM     39  C   UNL A   1      38.521  30.510  29.462  1.00  0.00     0.049 A 
ATOM     40  N   UNL A   1      38.970  31.089  32.375  1.00  0.00    -0.248 NA
ATOM     41  C   UNL A   1      37.128  32.524  32.318  1.00  0.00     0.031 C 
ATOM     42  C   UNL A   1      38.370  30.220  28.040  1.00  0.00     0.029 A 
ATOM     43  N   UNL A   1      39.592  29.745  29.853  1.00  0.00    -0.354 N 
ATOM     44  C   UNL A   1      38.810  31.679  33.622  1.00  0.00     0.074 A 
ATOM     45  C   UNL A   1      37.672  32.568  33.525  1.00  0.00     0.031 C 
ATOM     46  C   UNL A   1      39.309  29.328  27.680  1.00  0.00     0.029 A 
ATOM     47  C   UNL A   1      40.117  28.977  28.843  1.00  0.00     0.049 A 
ATOM     48  H   UNL A   1      39.950  29.747  30.771  1.00  0.00     0.167 HD
ATOM     49  C   UNL A   1      39.554  31.505  34.741  1.00  0.00     0.037 A 
ATOM     50  C   UNL A   1      41.126  28.085  28.858  1.00  0.00     0.037 A 
ATOM     51  C   UNL A   1      40.680  30.614  34.841  1.00  0.00     0.049 A 
ATOM     52  C   UNL A   1      41.898  27.865  30.130  1.00  0.00     0.074 A 
ATOM     53  C   UNL A   1      41.490  30.368  35.936  1.00  0.00     0.029 A 
ATOM     54  N   UNL A   1      41.156  29.824  33.807  1.00  0.00    -0.354 N 
ATOM     55  N   UNL A   1      41.725  28.413  31.308  1.00  0.00    -0.248 NA
ATOM     56  C   UNL A   1      43.019  26.913  30.070  1.00  0.00     0.031 C 
ATOM     57  C   UNL A   1      42.478  29.454  35.555  1.00  0.00     0.029 A 
ATOM     58  C   UNL A   1      42.256  29.098  34.235  1.00  0.00     0.049 A 
ATOM     59  H   UNL A   1      40.769  29.784  32.902  1.00  0.00     0.167 HD
ATOM     60  C   UNL A   1      42.713  27.879  32.125  1.00  0.00     0.074 A 
ATOM     61  C   UNL A   1      43.459  26.934  31.321  1.00  0.00     0.031 C 
ATOM     62  C   UNL A   1      42.989  28.161  33.422  1.00  0.00     0.037 A 
BRANCH  49  63
ATOM     63  C   UNL A   1      39.194  32.333  35.939  1.00  0.00     0.057 A 
ATOM     64  C   UNL A   1      39.715  33.617  36.137  1.00  0.00     0.134 A 
ATOM     65  C   UNL A   1      38.296  31.844  36.895  1.00  0.00     0.134 A 
ATOM     66  F   UNL A   1      40.593  34.137  35.266  1.00  0.00    -0.206 F 
ATOM     67  C   UNL A   1      39.371  34.378  37.256  1.00  0.00     0.040 A 
ATOM     68  C   UNL A   1      37.926  32.602  38.006  1.00  0.00     0.040 A 
ATOM     69  F   UNL A   1      37.760  30.621  36.763  1.00  0.00    -0.206 F 
ATOM     70  C   UNL A   1      38.468  33.872  38.191  1.00  0.00     0.006 A 
ENDBRANCH  49  63
BRANCH  50  71
ATOM     71  C   UNL A   1      41.443  27.300  27.638  1.00  0.00     0.057 A 
ATOM     72  C   UNL A   1      40.859  26.046  27.427  1.00  0.00     0.134 A 
ATOM     73  C   UNL A   1      42.323  27.775  26.660  1.00  0.00     0.134 A 
ATOM     74  F   UNL A   1      40.019  25.530  28.337  1.00  0.00    -0.206 F 
ATOM     75  C   UNL A   1      41.147  25.284  26.294  1.00  0.00     0.040 A 
ATOM     76  C   UNL A   1      42.598  27.037  25.507  1.00  0.00     0.040 A 
ATOM     77  F   UNL A   1      42.918  28.968  26.806  1.00  0.00    -0.206 F 
ATOM     78  C   UNL A   1      42.015  25.785  25.325  1.00  0.00     0.006 A 
ENDBRANCH  50  71
BRANCH  62  79
ATOM     79  C   UNL A   1      44.143  27.439  34.053  1.00  0.00     0.057 A 
ATOM     80  C   UNL A   1      43.986  26.179  34.643  1.00  0.00     0.134 A 
ATOM     81  C   UNL A   1      45.431  27.987  34.028  1.00  0.00     0.134 A 
ATOM     82  F   UNL A   1      42.775  25.604  34.707  1.00  0.00    -0.206 F 
ATOM     83  C   UNL A   1      45.067  25.497  35.204  1.00  0.00     0.040 A 
ATOM     84  C   UNL A   1      46.523  27.305  34.565  1.00  0.00     0.040 A 
ATOM     85  F   UNL A   1      45.651  29.187  33.469  1.00  0.00    -0.206 F 
ATOM     86  C   UNL A   1      46.342  26.058  35.161  1.00  0.00     0.006 A 
ENDBRANCH  62  79
ENDBRANCH  36  37
ENDBRANCH  29  31
ENDBRANCH  28  29
ENDBRANCH  27  28
ENDBRANCH  26  27
ENDBRANCH   1  26
TORSDOF 16
ENDMDL
