MODEL 1
REMARK VINA RESULT:     -11.7      0.000      0.000
REMARK SMILES C=C[C@@H]1[C@H](O)C[C@H]2[C@]3(CC[C@]4(C)[C@@H]([C@H](C)CCC=C(C)C)CC[C@]24C)C[C@]13CCC(=O)OCCOCCOC(=O)c1ccc(-c2c3nc(c(-c4c(F)cccc4F)c4ccc([nH]4)c(-c4c(F)cccc4F)c4nc(c(-c5c(F)cccc5F)c5ccc2[nH]5)C=C4)C=C3)cc1
REMARK SMILES IDX 33 1 32 2 30 3 31 4 29 5 28 6 27 7 3 8 4 9 6 10 8 11 26 12
REMARK SMILES IDX 7 13 9 14 24 15 10 16 11 17 23 18 25 19 13 20 12 21 22 22
REMARK SMILES IDX 2 23 1 24 5 25 14 27 15 28 16 29 17 30 18 31 19 32 20 33
REMARK SMILES IDX 21 34 34 35 35 36 36 37 37 38 38 39 39 40 40 41 41 42 42 43
REMARK SMILES IDX 94 44 43 45 93 46 44 47 45 48 46 49 87 50 47 51 92 52 86 53
REMARK SMILES IDX 88 54 48 55 91 56 85 57 84 58 49 60 75 61 58 62 74 63 59 64
REMARK SMILES IDX 62 65 73 66 89 67 60 68 61 69 72 71 90 72 63 73 50 74 51 75
REMARK SMILES IDX 56 76 52 77 53 78 55 79 57 80 54 81 76 82 77 83 82 84 78 85
REMARK SMILES IDX 79 86 81 87 83 88 80 89 64 90 65 91 70 92 66 93 67 94 69 95
REMARK SMILES IDX 71 96 68 97
REMARK H PARENT 5 26 88 59 62 70
REMARK Flexibility Score: inf
ROOT
ATOM      1  C   UNL A   1      34.450  32.379  27.666  1.00  0.00     0.261 C 
ENDROOT
BRANCH   1   2
ATOM      2  O   UNL A   1      33.751  31.192  28.100  1.00  0.00    -0.463 OA
BRANCH   2   3
ATOM      3  C   UNL A   1      33.029  30.451  27.229  1.00  0.00     0.305 C 
ATOM      4  O   UNL A   1      31.822  30.542  27.066  1.00  0.00    -0.252 OA
BRANCH   3   5
ATOM      5  C   UNL A   1      33.934  29.522  26.419  1.00  0.00     0.123 C 
BRANCH   5   6
ATOM      6  C   UNL A   1      33.544  28.024  26.373  1.00  0.00     0.020 C 
BRANCH   6   7
ATOM      7  C   UNL A   1      32.591  27.546  25.247  1.00  0.00    -0.014 C 
ATOM      8  C   UNL A   1      32.659  28.320  23.907  1.00  0.00     0.047 C 
ATOM      9  C   UNL A   1      33.438  27.478  22.894  1.00  0.00     0.122 C 
ATOM     10  C   UNL A   1      32.662  26.198  22.648  1.00  0.00     0.037 C 
ATOM     11  C   UNL A   1      32.301  26.007  25.243  1.00  0.00    -0.019 C 
ATOM     12  C   UNL A   1      31.195  26.985  25.506  1.00  0.00     0.016 C 
ATOM     13  C   UNL A   1      32.710  25.331  23.912  1.00  0.00     0.005 C 
ATOM     14  C   UNL A   1      32.473  25.098  26.460  1.00  0.00     0.008 C 
ATOM     15  C   UNL A   1      32.097  23.896  23.709  1.00  0.00    -0.023 C 
ATOM     16  C   UNL A   1      31.776  23.756  26.235  1.00  0.00     0.008 C 
ATOM     17  C   UNL A   1      32.309  23.003  25.001  1.00  0.00    -0.024 C 
ATOM     18  C   UNL A   1      32.952  23.111  22.683  1.00  0.00     0.008 C 
ATOM     19  C   UNL A   1      30.640  24.014  23.229  1.00  0.00     0.012 C 
ATOM     20  C   UNL A   1      33.864  22.843  24.966  1.00  0.00    -0.002 C 
ATOM     21  C   UNL A   1      31.601  21.631  24.897  1.00  0.00     0.012 C 
ATOM     22  C   UNL A   1      34.182  22.627  23.463  1.00  0.00     0.005 C 
BRANCH   8  23
ATOM     23  C   UNL A   1      31.338  28.897  23.450  1.00  0.00    -0.028 C 
ATOM     24  C   UNL A   1      30.600  29.840  24.041  1.00  0.00     0.004 C 
ENDBRANCH   8  23
BRANCH   9  25
ATOM     25  O   UNL A   1      33.700  28.157  21.669  1.00  0.00    -0.392 OA
ATOM     26  H   UNL A   1      33.774  27.509  20.950  1.00  0.00     0.210 HD
ENDBRANCH   9  25
BRANCH  20  27
ATOM     27  C   UNL A   1      34.692  21.925  25.899  1.00  0.00    -0.010 C 
ATOM     28  C   UNL A   1      35.368  22.624  27.076  1.00  0.00     0.008 C 
BRANCH  27  29
ATOM     29  C   UNL A   1      35.799  21.274  25.005  1.00  0.00     0.008 C 
BRANCH  29  30
ATOM     30  C   UNL A   1      35.800  19.751  24.914  1.00  0.00     0.027 C 
BRANCH  30  31
ATOM     31  C   UNL A   1      34.429  19.248  24.577  1.00  0.00    -0.028 C 
ATOM     32  C   UNL A   1      34.066  17.957  24.457  1.00  0.00    -0.080 C 
ATOM     33  C   UNL A   1      32.675  17.591  24.026  1.00  0.00     0.039 C 
ATOM     34  C   UNL A   1      35.000  16.807  24.709  1.00  0.00     0.039 C 
ENDBRANCH  30  31
ENDBRANCH  29  30
ENDBRANCH  27  29
ENDBRANCH  20  27
ENDBRANCH   6   7
ENDBRANCH   5   6
ENDBRANCH   3   5
ENDBRANCH   2   3
ENDBRANCH   1   2
BRANCH   1  35
ATOM     35  C   UNL A   1      34.933  33.252  28.840  1.00  0.00     0.202 C 
BRANCH  35  36
ATOM     36  O   UNL A   1      34.043  33.283  29.962  1.00  0.00    -0.374 OA
BRANCH  36  37
ATOM     37  C   UNL A   1      34.339  34.305  30.910  1.00  0.00     0.202 C 
BRANCH  37  38
ATOM     38  C   UNL A   1      34.411  33.826  32.358  1.00  0.00     0.261 C 
BRANCH  38  39
ATOM     39  O   UNL A   1      34.891  32.469  32.413  1.00  0.00    -0.460 OA
BRANCH  39  40
ATOM     40  C   UNL A   1      36.023  32.293  33.133  1.00  0.00     0.338 C 
ATOM     41  O   UNL A   1      36.199  32.577  34.307  1.00  0.00    -0.246 OA
BRANCH  40  42
ATOM     42  C   UNL A   1      37.034  31.578  32.327  1.00  0.00     0.060 A 
ATOM     43  C   UNL A   1      38.116  31.008  33.010  1.00  0.00     0.016 A 
ATOM     44  C   UNL A   1      36.948  31.468  30.935  1.00  0.00     0.016 A 
ATOM     45  C   UNL A   1      39.138  30.366  32.307  1.00  0.00     0.010 A 
ATOM     46  C   UNL A   1      37.964  30.804  30.232  1.00  0.00     0.010 A 
ATOM     47  C   UNL A   1      39.085  30.275  30.910  1.00  0.00    -0.014 A 
BRANCH  47  48
ATOM     48  C   UNL A   1      40.254  29.759  30.147  1.00  0.00     0.031 A 
ATOM     49  C   UNL A   1      41.373  30.717  29.836  1.00  0.00     0.074 A 
ATOM     50  C   UNL A   1      40.349  28.475  29.742  1.00  0.00     0.049 A 
ATOM     51  N   UNL A   1      42.488  30.508  29.184  1.00  0.00    -0.248 NA
ATOM     52  C   UNL A   1      41.224  32.093  30.342  1.00  0.00     0.031 C 
ATOM     53  C   UNL A   1      39.391  27.413  30.025  1.00  0.00     0.029 A 
ATOM     54  N   UNL A   1      41.305  27.849  28.973  1.00  0.00    -0.354 N 
ATOM     55  C   UNL A   1      43.174  31.714  29.215  1.00  0.00     0.074 A 
ATOM     56  C   UNL A   1      42.330  32.669  29.897  1.00  0.00     0.031 C 
ATOM     57  C   UNL A   1      39.748  26.296  29.369  1.00  0.00     0.029 A 
ATOM     58  C   UNL A   1      40.992  26.548  28.651  1.00  0.00     0.049 A 
ATOM     59  H   UNL A   1      42.135  28.291  28.682  1.00  0.00     0.167 HD
ATOM     60  C   UNL A   1      44.411  31.995  28.747  1.00  0.00     0.037 A 
ATOM     61  C   UNL A   1      41.634  25.652  27.877  1.00  0.00     0.037 A 
ATOM     62  C   UNL A   1      45.263  31.044  28.084  1.00  0.00     0.049 A 
ATOM     63  C   UNL A   1      42.976  26.013  27.302  1.00  0.00     0.074 A 
ATOM     64  C   UNL A   1      46.556  31.223  27.626  1.00  0.00     0.029 A 
ATOM     65  N   UNL A   1      44.902  29.743  27.772  1.00  0.00    -0.354 N 
ATOM     66  N   UNL A   1      43.649  27.131  27.414  1.00  0.00    -0.248 NA
ATOM     67  C   UNL A   1      43.669  24.972  26.527  1.00  0.00     0.031 C 
ATOM     68  C   UNL A   1      46.955  30.051  26.979  1.00  0.00     0.029 A 
ATOM     69  C   UNL A   1      45.934  29.121  27.089  1.00  0.00     0.049 A 
ATOM     70  H   UNL A   1      44.040  29.324  27.999  1.00  0.00     0.167 HD
ATOM     71  C   UNL A   1      44.858  26.915  26.767  1.00  0.00     0.074 A 
ATOM     72  C   UNL A   1      44.831  25.555  26.272  1.00  0.00     0.031 C 
ATOM     73  C   UNL A   1      45.900  27.766  26.606  1.00  0.00     0.037 A 
BRANCH  60  74
ATOM     74  C   UNL A   1      44.924  33.391  28.930  1.00  0.00     0.057 A 
ATOM     75  C   UNL A   1      44.671  34.401  27.992  1.00  0.00     0.134 A 
ATOM     76  C   UNL A   1      45.628  33.742  30.088  1.00  0.00     0.134 A 
ATOM     77  F   UNL A   1      44.018  34.125  26.853  1.00  0.00    -0.206 F 
ATOM     78  C   UNL A   1      45.110  35.710  28.196  1.00  0.00     0.040 A 
ATOM     79  C   UNL A   1      46.047  35.053  30.316  1.00  0.00     0.040 A 
ATOM     80  F   UNL A   1      45.901  32.821  31.024  1.00  0.00    -0.206 F 
ATOM     81  C   UNL A   1      45.791  36.041  29.367  1.00  0.00     0.006 A 
ENDBRANCH  60  74
BRANCH  61  82
ATOM     82  C   UNL A   1      41.036  24.317  27.613  1.00  0.00     0.057 A 
ATOM     83  C   UNL A   1      41.513  23.160  28.241  1.00  0.00     0.134 A 
ATOM     84  C   UNL A   1      40.000  24.160  26.682  1.00  0.00     0.134 A 
ATOM     85  F   UNL A   1      42.518  23.239  29.126  1.00  0.00    -0.206 F 
ATOM     86  C   UNL A   1      41.010  21.895  27.928  1.00  0.00     0.040 A 
ATOM     87  C   UNL A   1      39.469  22.905  26.381  1.00  0.00     0.040 A 
ATOM     88  F   UNL A   1      39.494  25.228  26.047  1.00  0.00    -0.206 F 
ATOM     89  C   UNL A   1      39.983  21.765  26.995  1.00  0.00     0.006 A 
ENDBRANCH  61  82
BRANCH  73  90
ATOM     90  C   UNL A   1      47.115  27.242  25.896  1.00  0.00     0.057 A 
ATOM     91  C   UNL A   1      48.119  26.535  26.569  1.00  0.00     0.134 A 
ATOM     92  C   UNL A   1      47.259  27.412  24.513  1.00  0.00     0.134 A 
ATOM     93  F   UNL A   1      48.047  26.346  27.896  1.00  0.00    -0.206 F 
ATOM     94  C   UNL A   1      49.237  26.040  25.896  1.00  0.00     0.040 A 
ATOM     95  C   UNL A   1      48.356  26.895  23.824  1.00  0.00     0.040 A 
ATOM     96  F   UNL A   1      46.328  28.070  23.806  1.00  0.00    -0.206 F 
ATOM     97  C   UNL A   1      49.354  26.214  24.518  1.00  0.00     0.006 A 
ENDBRANCH  73  90
ENDBRANCH  47  48
ENDBRANCH  40  42
ENDBRANCH  39  40
ENDBRANCH  38  39
ENDBRANCH  37  38
ENDBRANCH  36  37
ENDBRANCH  35  36
ENDBRANCH   1  35
TORSDOF 22
ENDMDL
MODEL 2
REMARK VINA RESULT:     -11.4      3.471      6.160
REMARK SMILES C=C[C@@H]1[C@H](O)C[C@H]2[C@]3(CC[C@]4(C)[C@@H]([C@H](C)CCC=C(C)C)CC[C@]24C)C[C@]13CCC(=O)OCCOCCOC(=O)c1ccc(-c2c3nc(c(-c4c(F)cccc4F)c4ccc([nH]4)c(-c4c(F)cccc4F)c4nc(c(-c5c(F)cccc5F)c5ccc2[nH]5)C=C4)C=C3)cc1
REMARK SMILES IDX 33 1 32 2 30 3 31 4 29 5 28 6 27 7 3 8 4 9 6 10 8 11 26 12
REMARK SMILES IDX 7 13 9 14 24 15 10 16 11 17 23 18 25 19 13 20 12 21 22 22
REMARK SMILES IDX 2 23 1 24 5 25 14 27 15 28 16 29 17 30 18 31 19 32 20 33
REMARK SMILES IDX 21 34 34 35 35 36 36 37 37 38 38 39 39 40 40 41 41 42 42 43
REMARK SMILES IDX 94 44 43 45 93 46 44 47 45 48 46 49 87 50 47 51 92 52 86 53
REMARK SMILES IDX 88 54 48 55 91 56 85 57 84 58 49 60 75 61 58 62 74 63 59 64
REMARK SMILES IDX 62 65 73 66 89 67 60 68 61 69 72 71 90 72 63 73 50 74 51 75
REMARK SMILES IDX 56 76 52 77 53 78 55 79 57 80 54 81 76 82 77 83 82 84 78 85
REMARK SMILES IDX 79 86 81 87 83 88 80 89 64 90 65 91 70 92 66 93 67 94 69 95
REMARK SMILES IDX 71 96 68 97
REMARK H PARENT 5 26 88 59 62 70
REMARK Flexibility Score: inf
ROOT
ATOM      1  C   UNL A   1      29.494  30.007  23.133  1.00  0.00     0.261 C 
ENDROOT
BRANCH   1   2
ATOM      2  O   UNL A   1      29.738  28.912  22.223  1.00  0.00    -0.463 OA
BRANCH   2   3
ATOM      3  C   UNL A   1      29.908  27.650  22.681  1.00  0.00     0.305 C 
ATOM      4  O   UNL A   1      29.208  27.114  23.526  1.00  0.00    -0.252 OA
BRANCH   3   5
ATOM      5  C   UNL A   1      31.055  26.952  21.951  1.00  0.00     0.123 C 
BRANCH   5   6
ATOM      6  C   UNL A   1      31.656  25.694  22.626  1.00  0.00     0.020 C 
BRANCH   6   7
ATOM      7  C   UNL A   1      32.782  25.887  23.674  1.00  0.00    -0.014 C 
ATOM      8  C   UNL A   1      32.468  26.831  24.861  1.00  0.00     0.047 C 
ATOM      9  C   UNL A   1      32.173  25.980  26.098  1.00  0.00     0.122 C 
ATOM     10  C   UNL A   1      33.429  25.203  26.447  1.00  0.00     0.037 C 
ATOM     11  C   UNL A   1      33.693  24.633  23.896  1.00  0.00    -0.019 C 
ATOM     12  C   UNL A   1      34.268  25.895  23.323  1.00  0.00     0.016 C 
ATOM     13  C   UNL A   1      33.682  24.145  25.364  1.00  0.00     0.005 C 
ATOM     14  C   UNL A   1      33.853  23.499  22.884  1.00  0.00     0.008 C 
ATOM     15  C   UNL A   1      34.852  23.156  25.719  1.00  0.00    -0.023 C 
ATOM     16  C   UNL A   1      35.063  22.631  23.233  1.00  0.00     0.008 C 
ATOM     17  C   UNL A   1      34.966  22.004  24.637  1.00  0.00    -0.024 C 
ATOM     18  C   UNL A   1      34.466  22.328  26.970  1.00  0.00     0.008 C 
ATOM     19  C   UNL A   1      36.148  23.948  25.968  1.00  0.00     0.012 C 
ATOM     20  C   UNL A   1      33.628  21.244  24.911  1.00  0.00    -0.002 C 
ATOM     21  C   UNL A   1      36.191  21.088  24.872  1.00  0.00     0.012 C 
ATOM     22  C   UNL A   1      33.513  21.238  26.459  1.00  0.00     0.005 C 
BRANCH   8  23
ATOM     23  C   UNL A   1      33.446  27.973  25.029  1.00  0.00    -0.028 C 
ATOM     24  C   UNL A   1      34.045  28.389  26.147  1.00  0.00     0.004 C 
ENDBRANCH   8  23
BRANCH   9  25
ATOM     25  O   UNL A   1      31.718  26.736  27.217  1.00  0.00    -0.392 OA
ATOM     26  H   UNL A   1      32.482  27.079  27.708  1.00  0.00     0.210 HD
ENDBRANCH   9  25
BRANCH  20  27
ATOM     27  C   UNL A   1      33.214  19.896  24.269  1.00  0.00    -0.010 C 
ATOM     28  C   UNL A   1      32.329  20.005  23.029  1.00  0.00     0.008 C 
BRANCH  27  29
ATOM     29  C   UNL A   1      32.431  19.106  25.370  1.00  0.00     0.008 C 
BRANCH  29  30
ATOM     30  C   UNL A   1      32.235  17.612  25.132  1.00  0.00     0.027 C 
BRANCH  30  31
ATOM     31  C   UNL A   1      33.462  16.853  25.543  1.00  0.00    -0.028 C 
ATOM     32  C   UNL A   1      34.419  16.388  24.719  1.00  0.00    -0.080 C 
ATOM     33  C   UNL A   1      35.554  15.564  25.255  1.00  0.00     0.039 C 
ATOM     34  C   UNL A   1      34.420  16.623  23.235  1.00  0.00     0.039 C 
ENDBRANCH  30  31
ENDBRANCH  29  30
ENDBRANCH  27  29
ENDBRANCH  20  27
ENDBRANCH   6   7
ENDBRANCH   5   6
ENDBRANCH   3   5
ENDBRANCH   2   3
ENDBRANCH   1   2
BRANCH   1  35
ATOM     35  C   UNL A   1      30.551  30.103  24.251  1.00  0.00     0.202 C 
BRANCH  35  36
ATOM     36  O   UNL A   1      30.490  31.306  25.023  1.00  0.00    -0.374 OA
BRANCH  36  37
ATOM     37  C   UNL A   1      31.406  31.343  26.115  1.00  0.00     0.202 C 
BRANCH  37  38
ATOM     38  C   UNL A   1      31.444  32.673  26.865  1.00  0.00     0.261 C 
BRANCH  38  39
ATOM     39  O   UNL A   1      32.764  33.247  26.800  1.00  0.00    -0.460 OA
BRANCH  39  40
ATOM     40  C   UNL A   1      33.214  33.775  27.961  1.00  0.00     0.338 C 
ATOM     41  O   UNL A   1      32.657  34.614  28.652  1.00  0.00    -0.246 OA
BRANCH  40  42
ATOM     42  C   UNL A   1      34.463  33.103  28.377  1.00  0.00     0.060 A 
ATOM     43  C   UNL A   1      34.393  31.735  28.664  1.00  0.00     0.016 A 
ATOM     44  C   UNL A   1      35.680  33.783  28.499  1.00  0.00     0.016 A 
ATOM     45  C   UNL A   1      35.522  31.048  29.117  1.00  0.00     0.010 A 
ATOM     46  C   UNL A   1      36.817  33.088  28.933  1.00  0.00     0.010 A 
ATOM     47  C   UNL A   1      36.740  31.720  29.277  1.00  0.00    -0.014 A 
BRANCH  47  48
ATOM     48  C   UNL A   1      37.891  31.040  29.931  1.00  0.00     0.031 A 
ATOM     49  C   UNL A   1      38.191  31.382  31.367  1.00  0.00     0.074 A 
ATOM     50  C   UNL A   1      38.657  30.130  29.294  1.00  0.00     0.049 A 
ATOM     51  N   UNL A   1      39.138  30.930  32.148  1.00  0.00    -0.248 NA
ATOM     52  C   UNL A   1      37.291  32.352  32.015  1.00  0.00     0.031 C 
ATOM     53  C   UNL A   1      38.454  29.639  27.935  1.00  0.00     0.029 A 
ATOM     54  N   UNL A   1      39.790  29.468  29.709  1.00  0.00    -0.354 N 
ATOM     55  C   UNL A   1      38.940  31.547  33.376  1.00  0.00     0.074 A 
ATOM     56  C   UNL A   1      37.821  32.449  33.225  1.00  0.00     0.031 C 
ATOM     57  C   UNL A   1      39.471  28.831  27.591  1.00  0.00     0.029 A 
ATOM     58  C   UNL A   1      40.380  28.707  28.725  1.00  0.00     0.049 A 
ATOM     59  H   UNL A   1      40.145  29.531  30.625  1.00  0.00     0.167 HD
ATOM     60  C   UNL A   1      39.607  31.354  34.535  1.00  0.00     0.037 A 
ATOM     61  C   UNL A   1      41.516  27.983  28.731  1.00  0.00     0.037 A 
ATOM     62  C   UNL A   1      40.710  30.444  34.695  1.00  0.00     0.049 A 
ATOM     63  C   UNL A   1      42.287  27.844  30.015  1.00  0.00     0.074 A 
ATOM     64  C   UNL A   1      41.412  30.141  35.848  1.00  0.00     0.029 A 
ATOM     65  N   UNL A   1      41.278  29.703  33.671  1.00  0.00    -0.354 N 
ATOM     66  N   UNL A   1      42.035  28.367  31.189  1.00  0.00    -0.248 NA
ATOM     67  C   UNL A   1      43.477  26.981  29.986  1.00  0.00     0.031 C 
ATOM     68  C   UNL A   1      42.447  29.265  35.510  1.00  0.00     0.029 A 
ATOM     69  C   UNL A   1      42.350  28.974  34.159  1.00  0.00     0.049 A 
ATOM     70  H   UNL A   1      40.967  29.697  32.737  1.00  0.00     0.167 HD
ATOM     71  C   UNL A   1      43.003  27.862  32.046  1.00  0.00     0.074 A 
ATOM     72  C   UNL A   1      43.843  26.984  31.259  1.00  0.00     0.031 C 
ATOM     73  C   UNL A   1      43.175  28.100  33.369  1.00  0.00     0.037 A 
BRANCH  60  74
ATOM     74  C   UNL A   1      39.170  32.147  35.730  1.00  0.00     0.057 A 
ATOM     75  C   UNL A   1      38.305  31.616  36.695  1.00  0.00     0.134 A 
ATOM     76  C   UNL A   1      39.670  33.437  35.945  1.00  0.00     0.134 A 
ATOM     77  F   UNL A   1      37.777  30.392  36.537  1.00  0.00    -0.206 F 
ATOM     78  C   UNL A   1      37.944  32.346  37.828  1.00  0.00     0.040 A 
ATOM     79  C   UNL A   1      39.338  34.165  37.088  1.00  0.00     0.040 A 
ATOM     80  F   UNL A   1      40.503  34.001  35.058  1.00  0.00    -0.206 F 
ATOM     81  C   UNL A   1      38.470  33.620  38.032  1.00  0.00     0.006 A 
ENDBRANCH  60  74
BRANCH  61  82
ATOM     82  C   UNL A   1      41.989  27.310  27.492  1.00  0.00     0.057 A 
ATOM     83  C   UNL A   1      42.815  27.963  26.570  1.00  0.00     0.134 A 
ATOM     84  C   UNL A   1      41.580  26.007  27.176  1.00  0.00     0.134 A 
ATOM     85  F   UNL A   1      43.224  29.219  26.804  1.00  0.00    -0.206 F 
ATOM     86  C   UNL A   1      43.188  27.363  25.365  1.00  0.00     0.040 A 
ATOM     87  C   UNL A   1      41.968  25.385  25.988  1.00  0.00     0.040 A 
ATOM     88  F   UNL A   1      40.790  25.323  28.017  1.00  0.00    -0.206 F 
ATOM     89  C   UNL A   1      42.764  26.068  25.072  1.00  0.00     0.006 A 
ENDBRANCH  61  82
BRANCH  73  90
ATOM     90  C   UNL A   1      44.292  27.371  34.061  1.00  0.00     0.057 A 
ATOM     91  C   UNL A   1      44.104  26.115  34.651  1.00  0.00     0.134 A 
ATOM     92  C   UNL A   1      45.581  27.918  34.100  1.00  0.00     0.134 A 
ATOM     93  F   UNL A   1      42.891  25.541  34.658  1.00  0.00    -0.206 F 
ATOM     94  C   UNL A   1      45.152  25.442  35.280  1.00  0.00     0.040 A 
ATOM     95  C   UNL A   1      46.643  27.240  34.697  1.00  0.00     0.040 A 
ATOM     96  F   UNL A   1      45.832  29.113  33.543  1.00  0.00    -0.206 F 
ATOM     97  C   UNL A   1      46.428  26.002  35.297  1.00  0.00     0.006 A 
ENDBRANCH  73  90
ENDBRANCH  47  48
ENDBRANCH  40  42
ENDBRANCH  39  40
ENDBRANCH  38  39
ENDBRANCH  37  38
ENDBRANCH  36  37
ENDBRANCH  35  36
ENDBRANCH   1  35
TORSDOF 22
ENDMDL
MODEL 3
REMARK VINA RESULT:     -11.4      4.215      6.744
REMARK SMILES C=C[C@@H]1[C@H](O)C[C@H]2[C@]3(CC[C@]4(C)[C@@H]([C@H](C)CCC=C(C)C)CC[C@]24C)C[C@]13CCC(=O)OCCOCCOC(=O)c1ccc(-c2c3nc(c(-c4c(F)cccc4F)c4ccc([nH]4)c(-c4c(F)cccc4F)c4nc(c(-c5c(F)cccc5F)c5ccc2[nH]5)C=C4)C=C3)cc1
REMARK SMILES IDX 33 1 32 2 30 3 31 4 29 5 28 6 27 7 3 8 4 9 6 10 8 11 26 12
REMARK SMILES IDX 7 13 9 14 24 15 10 16 11 17 23 18 25 19 13 20 12 21 22 22
REMARK SMILES IDX 2 23 1 24 5 25 14 27 15 28 16 29 17 30 18 31 19 32 20 33
REMARK SMILES IDX 21 34 34 35 35 36 36 37 37 38 38 39 39 40 40 41 41 42 42 43
REMARK SMILES IDX 94 44 43 45 93 46 44 47 45 48 46 49 87 50 47 51 92 52 86 53
REMARK SMILES IDX 88 54 48 55 91 56 85 57 84 58 49 60 75 61 58 62 74 63 59 64
REMARK SMILES IDX 62 65 73 66 89 67 60 68 61 69 72 71 90 72 63 73 50 74 51 75
REMARK SMILES IDX 56 76 52 77 53 78 55 79 57 80 54 81 76 82 77 83 82 84 78 85
REMARK SMILES IDX 79 86 81 87 83 88 80 89 64 90 65 91 70 92 66 93 67 94 69 95
REMARK SMILES IDX 71 96 68 97
REMARK H PARENT 5 26 88 59 62 70
REMARK Flexibility Score: inf
ROOT
ATOM      1  C   UNL A   1      35.509  32.327  28.115  1.00  0.00     0.261 C 
ENDROOT
BRANCH   1   2
ATOM      2  O   UNL A   1      34.502  31.293  28.090  1.00  0.00    -0.463 OA
BRANCH   2   3
ATOM      3  C   UNL A   1      34.786  30.055  27.626  1.00  0.00     0.305 C 
ATOM      4  O   UNL A   1      35.720  29.364  28.005  1.00  0.00    -0.252 OA
BRANCH   3   5
ATOM      5  C   UNL A   1      33.744  29.598  26.606  1.00  0.00     0.123 C 
BRANCH   5   6
ATOM      6  C   UNL A   1      33.422  28.084  26.557  1.00  0.00     0.020 C 
BRANCH   6   7
ATOM      7  C   UNL A   1      32.353  27.590  25.548  1.00  0.00    -0.014 C 
ATOM      8  C   UNL A   1      32.012  28.547  24.379  1.00  0.00     0.047 C 
ATOM      9  C   UNL A   1      32.698  28.035  23.111  1.00  0.00     0.122 C 
ATOM     10  C   UNL A   1      32.118  26.674  22.777  1.00  0.00     0.037 C 
ATOM     11  C   UNL A   1      32.336  26.042  25.317  1.00  0.00    -0.019 C 
ATOM     12  C   UNL A   1      31.157  26.728  25.941  1.00  0.00     0.016 C 
ATOM     13  C   UNL A   1      32.572  25.661  23.836  1.00  0.00     0.005 C 
ATOM     14  C   UNL A   1      32.906  25.021  26.301  1.00  0.00     0.008 C 
ATOM     15  C   UNL A   1      32.184  24.177  23.487  1.00  0.00    -0.023 C 
ATOM     16  C   UNL A   1      32.417  23.613  25.963  1.00  0.00     0.008 C 
ATOM     17  C   UNL A   1      32.805  23.168  24.539  1.00  0.00    -0.024 C 
ATOM     18  C   UNL A   1      32.931  23.737  22.203  1.00  0.00     0.008 C 
ATOM     19  C   UNL A   1      30.661  24.066  23.298  1.00  0.00     0.012 C 
ATOM     20  C   UNL A   1      34.324  23.333  24.206  1.00  0.00    -0.002 C 
ATOM     21  C   UNL A   1      32.335  21.711  24.315  1.00  0.00     0.012 C 
ATOM     22  C   UNL A   1      34.359  23.405  22.656  1.00  0.00     0.005 C 
BRANCH   8  23
ATOM     23  C   UNL A   1      30.546  28.906  24.271  1.00  0.00    -0.028 C 
ATOM     24  C   UNL A   1      29.954  29.698  23.374  1.00  0.00     0.004 C 
ENDBRANCH   8  23
BRANCH   9  25
ATOM     25  O   UNL A   1      32.583  28.922  22.001  1.00  0.00    -0.392 OA
ATOM     26  H   UNL A   1      33.367  29.492  21.960  1.00  0.00     0.210 HD
ENDBRANCH   9  25
BRANCH  20  27
ATOM     27  C   UNL A   1      35.470  22.476  24.799  1.00  0.00    -0.010 C 
ATOM     28  C   UNL A   1      35.158  21.792  26.128  1.00  0.00     0.008 C 
BRANCH  27  29
ATOM     29  C   UNL A   1      36.680  23.445  25.011  1.00  0.00     0.008 C 
BRANCH  29  30
ATOM     30  C   UNL A   1      37.109  23.701  26.452  1.00  0.00     0.027 C 
BRANCH  30  31
ATOM     31  C   UNL A   1      38.548  24.120  26.501  1.00  0.00    -0.028 C 
ATOM     32  C   UNL A   1      39.613  23.297  26.539  1.00  0.00    -0.080 C 
ATOM     33  C   UNL A   1      41.002  23.850  26.676  1.00  0.00     0.039 C 
ATOM     34  C   UNL A   1      39.504  21.799  26.475  1.00  0.00     0.039 C 
ENDBRANCH  30  31
ENDBRANCH  29  30
ENDBRANCH  27  29
ENDBRANCH  20  27
ENDBRANCH   6   7
ENDBRANCH   5   6
ENDBRANCH   3   5
ENDBRANCH   2   3
ENDBRANCH   1   2
BRANCH   1  35
ATOM     35  C   UNL A   1      35.211  33.427  29.154  1.00  0.00     0.202 C 
BRANCH  35  36
ATOM     36  O   UNL A   1      33.827  33.771  29.274  1.00  0.00    -0.374 OA
BRANCH  36  37
ATOM     37  C   UNL A   1      33.495  35.045  28.727  1.00  0.00     0.202 C 
BRANCH  37  38
ATOM     38  C   UNL A   1      32.906  36.032  29.733  1.00  0.00     0.261 C 
BRANCH  38  39
ATOM     39  O   UNL A   1      32.346  35.327  30.857  1.00  0.00    -0.460 OA
BRANCH  39  40
ATOM     40  C   UNL A   1      32.726  35.793  32.069  1.00  0.00     0.338 C 
ATOM     41  O   UNL A   1      32.164  36.644  32.739  1.00  0.00    -0.246 OA
BRANCH  40  42
ATOM     42  C   UNL A   1      33.893  35.033  32.564  1.00  0.00     0.060 A 
ATOM     43  C   UNL A   1      35.151  35.635  32.446  1.00  0.00     0.016 A 
ATOM     44  C   UNL A   1      33.778  33.754  33.122  1.00  0.00     0.016 A 
ATOM     45  C   UNL A   1      36.304  34.952  32.842  1.00  0.00     0.010 A 
ATOM     46  C   UNL A   1      34.934  33.078  33.538  1.00  0.00     0.010 A 
ATOM     47  C   UNL A   1      36.210  33.659  33.372  1.00  0.00    -0.014 A 
BRANCH  47  48
ATOM     48  C   UNL A   1      37.441  32.859  33.621  1.00  0.00     0.031 A 
ATOM     49  C   UNL A   1      38.244  33.165  34.857  1.00  0.00     0.074 A 
ATOM     50  C   UNL A   1      37.848  31.874  32.794  1.00  0.00     0.049 A 
ATOM     51  N   UNL A   1      39.350  32.613  35.287  1.00  0.00    -0.248 NA
ATOM     52  C   UNL A   1      37.722  34.224  35.738  1.00  0.00     0.031 C 
ATOM     53  C   UNL A   1      37.147  31.409  31.602  1.00  0.00     0.029 A 
ATOM     54  N   UNL A   1      38.982  31.094  32.823  1.00  0.00    -0.354 N 
ATOM     55  C   UNL A   1      39.644  33.245  36.487  1.00  0.00     0.074 A 
ATOM     56  C   UNL A   1      38.638  34.262  36.692  1.00  0.00     0.031 C 
ATOM     57  C   UNL A   1      37.899  30.498  30.962  1.00  0.00     0.029 A 
ATOM     58  C   UNL A   1      39.122  30.276  31.725  1.00  0.00     0.049 A 
ATOM     59  H   UNL A   1      39.632  31.117  33.562  1.00  0.00     0.167 HD
ATOM     60  C   UNL A   1      40.644  32.980  37.358  1.00  0.00     0.037 A 
ATOM     61  C   UNL A   1      40.113  29.435  31.371  1.00  0.00     0.037 A 
ATOM     62  C   UNL A   1      41.637  31.958  37.167  1.00  0.00     0.049 A 
ATOM     63  C   UNL A   1      41.256  29.213  32.322  1.00  0.00     0.074 A 
ATOM     64  C   UNL A   1      42.655  31.579  38.024  1.00  0.00     0.029 A 
ATOM     65  N   UNL A   1      41.745  31.163  36.037  1.00  0.00    -0.354 N 
ATOM     66  N   UNL A   1      41.473  29.757  33.493  1.00  0.00    -0.248 NA
ATOM     67  C   UNL A   1      42.272  28.227  31.922  1.00  0.00     0.031 C 
ATOM     68  C   UNL A   1      43.419  30.599  37.385  1.00  0.00     0.029 A 
ATOM     69  C   UNL A   1      42.840  30.322  36.158  1.00  0.00     0.049 A 
ATOM     70  H   UNL A   1      41.136  31.191  35.264  1.00  0.00     0.167 HD
ATOM     71  C   UNL A   1      42.619  29.151  33.989  1.00  0.00     0.074 A 
ATOM     72  C   UNL A   1      43.048  28.189  32.995  1.00  0.00     0.031 C 
ATOM     73  C   UNL A   1      43.254  29.366  35.167  1.00  0.00     0.037 A 
BRANCH  60  74
ATOM     74  C   UNL A   1      40.722  33.814  38.602  1.00  0.00     0.057 A 
ATOM     75  C   UNL A   1      41.535  34.953  38.680  1.00  0.00     0.134 A 
ATOM     76  C   UNL A   1      39.928  33.505  39.712  1.00  0.00     0.134 A 
ATOM     77  F   UNL A   1      42.333  35.292  37.656  1.00  0.00    -0.206 F 
ATOM     78  C   UNL A   1      41.561  35.749  39.825  1.00  0.00     0.040 A 
ATOM     79  C   UNL A   1      39.925  34.310  40.852  1.00  0.00     0.040 A 
ATOM     80  F   UNL A   1      39.128  32.428  39.699  1.00  0.00    -0.206 F 
ATOM     81  C   UNL A   1      40.745  35.434  40.911  1.00  0.00     0.006 A 
ENDBRANCH  60  74
BRANCH  61  82
ATOM     82  C   UNL A   1      40.065  28.717  30.070  1.00  0.00     0.057 A 
ATOM     83  C   UNL A   1      40.709  29.217  28.931  1.00  0.00     0.134 A 
ATOM     84  C   UNL A   1      39.328  27.535  29.922  1.00  0.00     0.134 A 
ATOM     85  F   UNL A   1      41.414  30.356  29.000  1.00  0.00    -0.206 F 
ATOM     86  C   UNL A   1      40.592  28.590  27.688  1.00  0.00     0.040 A 
ATOM     87  C   UNL A   1      39.226  26.883  28.692  1.00  0.00     0.040 A 
ATOM     88  F   UNL A   1      38.689  27.000  30.974  1.00  0.00    -0.206 F 
ATOM     89  C   UNL A   1      39.849  27.418  27.567  1.00  0.00     0.006 A 
ENDBRANCH  61  82
BRANCH  73  90
ATOM     90  C   UNL A   1      44.460  28.522  35.465  1.00  0.00     0.057 A 
ATOM     91  C   UNL A   1      45.754  28.930  35.120  1.00  0.00     0.134 A 
ATOM     92  C   UNL A   1      44.325  27.303  36.142  1.00  0.00     0.134 A 
ATOM     93  F   UNL A   1      45.952  30.082  34.460  1.00  0.00    -0.206 F 
ATOM     94  C   UNL A   1      46.869  28.143  35.414  1.00  0.00     0.040 A 
ATOM     95  C   UNL A   1      45.434  26.523  36.470  1.00  0.00     0.040 A 
ATOM     96  F   UNL A   1      43.114  26.859  36.512  1.00  0.00    -0.206 F 
ATOM     97  C   UNL A   1      46.710  26.939  36.097  1.00  0.00     0.006 A 
ENDBRANCH  73  90
ENDBRANCH  47  48
ENDBRANCH  40  42
ENDBRANCH  39  40
ENDBRANCH  38  39
ENDBRANCH  37  38
ENDBRANCH  36  37
ENDBRANCH  35  36
ENDBRANCH   1  35
TORSDOF 22
ENDMDL
