MODEL 1
REMARK VINA RESULT:     -11.9      0.000      0.000
REMARK SMILES O=C(OCCOCCOC(=O)C1CC[NH+]([C@H]2CC(=O)N(c3ccc4c(c3)OCCO4)C2=O)CC1)c1ccc(-c2c3nc(c(-c4c(F)cccc4F)c4ccc([nH]4)c(-c4c(F)cccc4F)c4nc(c(-c5c(F)cccc5F)c5ccc2[nH]5)C=C4)C=C3)cc1
REMARK SMILES IDX 6 1 5 2 4 3 3 4 2 5 1 6 35 7 36 8 88 9 37 10 87 11 38 12
REMARK SMILES IDX 39 13 40 14 81 15 41 16 86 17 80 18 82 19 42 20 85 21 79 22
REMARK SMILES IDX 78 23 43 25 69 26 52 27 68 28 53 29 56 30 67 31 83 32 54 33
REMARK SMILES IDX 55 34 66 36 84 37 57 38 44 39 45 40 50 41 46 42 47 43 49 44
REMARK SMILES IDX 51 45 48 46 70 47 71 48 76 49 72 50 73 51 75 52 77 53 74 54
REMARK SMILES IDX 58 55 59 56 64 57 60 58 61 59 63 60 65 61 62 62 7 63 8 64
REMARK SMILES IDX 9 65 10 66 11 67 12 68 13 69 34 70 14 71 33 72 15 73 16 75
REMARK SMILES IDX 17 76 31 77 18 78 20 79 32 80 19 81 21 82 22 83 26 84 23 85
REMARK SMILES IDX 25 86 24 87 27 88 30 89 28 90 29 91
REMARK H PARENT 82 24 56 35 15 74
REMARK Flexibility Score: inf
ROOT
ATOM      1  O   UNL A   1      30.464  30.217  24.238  1.00  0.00    -0.374 OA
ENDROOT
BRANCH   1   2
ATOM      2  C   UNL A   1      31.410  30.037  25.288  1.00  0.00     0.202 C 
BRANCH   2   3
ATOM      3  C   UNL A   1      31.501  31.144  26.348  1.00  0.00     0.261 C 
BRANCH   3   4
ATOM      4  O   UNL A   1      32.687  30.980  27.167  1.00  0.00    -0.460 OA
BRANCH   4   5
ATOM      5  C   UNL A   1      33.545  31.955  27.577  1.00  0.00     0.338 C 
ATOM      6  O   UNL A   1      33.197  33.128  27.627  1.00  0.00    -0.246 OA
BRANCH   5   7
ATOM      7  C   UNL A   1      34.904  31.573  28.015  1.00  0.00     0.060 A 
ATOM      8  C   UNL A   1      35.202  30.244  28.253  1.00  0.00     0.016 A 
ATOM      9  C   UNL A   1      35.891  32.530  28.235  1.00  0.00     0.016 A 
ATOM     10  C   UNL A   1      36.278  29.889  29.018  1.00  0.00     0.010 A 
ATOM     11  C   UNL A   1      37.105  32.139  28.817  1.00  0.00     0.010 A 
ATOM     12  C   UNL A   1      37.268  30.824  29.283  1.00  0.00    -0.014 A 
BRANCH  12  13
ATOM     13  C   UNL A   1      38.381  30.381  30.147  1.00  0.00     0.031 A 
ATOM     14  C   UNL A   1      39.529  29.652  29.517  1.00  0.00     0.074 A 
ATOM     15  C   UNL A   1      38.437  30.801  31.427  1.00  0.00     0.049 A 
ATOM     16  N   UNL A   1      40.542  29.063  30.090  1.00  0.00    -0.248 NA
ATOM     17  C   UNL A   1      39.537  29.566  28.046  1.00  0.00     0.031 C 
ATOM     18  C   UNL A   1      37.438  31.655  32.087  1.00  0.00     0.029 A 
ATOM     19  N   UNL A   1      39.401  30.641  32.384  1.00  0.00    -0.354 N 
ATOM     20  C   UNL A   1      41.248  28.455  29.061  1.00  0.00     0.074 A 
ATOM     21  C   UNL A   1      40.570  28.769  27.825  1.00  0.00     0.031 C 
ATOM     22  C   UNL A   1      37.896  32.030  33.288  1.00  0.00     0.029 A 
ATOM     23  C   UNL A   1      39.133  31.316  33.551  1.00  0.00     0.049 A 
ATOM     24  H   UNL A   1      40.209  30.094  32.249  1.00  0.00     0.167 HD
ATOM     25  C   UNL A   1      42.352  27.680  29.163  1.00  0.00     0.037 A 
ATOM     26  C   UNL A   1      39.789  31.305  34.725  1.00  0.00     0.037 A 
ATOM     27  C   UNL A   1      43.024  27.449  30.413  1.00  0.00     0.049 A 
ATOM     28  C   UNL A   1      40.983  30.405  34.828  1.00  0.00     0.074 A 
ATOM     29  C   UNL A   1      44.100  26.628  30.686  1.00  0.00     0.029 A 
ATOM     30  N   UNL A   1      42.682  28.078  31.604  1.00  0.00    -0.354 N 
ATOM     31  N   UNL A   1      41.559  29.689  33.889  1.00  0.00    -0.248 NA
ATOM     32  C   UNL A   1      41.594  30.270  36.153  1.00  0.00     0.031 C 
ATOM     33  C   UNL A   1      44.390  26.739  32.051  1.00  0.00     0.029 A 
ATOM     34  C   UNL A   1      43.524  27.664  32.618  1.00  0.00     0.049 A 
ATOM     35  H   UNL A   1      41.947  28.725  31.711  1.00  0.00     0.167 HD
ATOM     36  C   UNL A   1      42.603  29.022  34.505  1.00  0.00     0.074 A 
ATOM     37  C   UNL A   1      42.597  29.441  35.895  1.00  0.00     0.031 C 
ATOM     38  C   UNL A   1      43.483  28.132  33.982  1.00  0.00     0.037 A 
BRANCH  25  39
ATOM     39  C   UNL A   1      42.801  26.970  27.921  1.00  0.00     0.057 A 
ATOM     40  C   UNL A   1      43.698  27.533  27.004  1.00  0.00     0.134 A 
ATOM     41  C   UNL A   1      42.261  25.715  27.603  1.00  0.00     0.134 A 
ATOM     42  F   UNL A   1      44.224  28.747  27.227  1.00  0.00    -0.206 F 
ATOM     43  C   UNL A   1      44.016  26.891  25.804  1.00  0.00     0.040 A 
ATOM     44  C   UNL A   1      42.590  25.053  26.419  1.00  0.00     0.040 A 
ATOM     45  F   UNL A   1      41.387  25.122  28.430  1.00  0.00    -0.206 F 
ATOM     46  C   UNL A   1      43.462  25.647  25.510  1.00  0.00     0.006 A 
ENDBRANCH  25  39
BRANCH  26  47
ATOM     47  C   UNL A   1      39.284  32.085  35.887  1.00  0.00     0.057 A 
ATOM     48  C   UNL A   1      39.771  33.365  36.173  1.00  0.00     0.134 A 
ATOM     49  C   UNL A   1      38.294  31.575  36.741  1.00  0.00     0.134 A 
ATOM     50  F   UNL A   1      40.732  33.907  35.410  1.00  0.00    -0.206 F 
ATOM     51  C   UNL A   1      39.303  34.103  37.263  1.00  0.00     0.040 A 
ATOM     52  C   UNL A   1      37.793  32.314  37.813  1.00  0.00     0.040 A 
ATOM     53  F   UNL A   1      37.779  30.354  36.530  1.00  0.00    -0.206 F 
ATOM     54  C   UNL A   1      38.303  33.580  38.082  1.00  0.00     0.006 A 
ENDBRANCH  26  47
BRANCH  38  55
ATOM     55  C   UNL A   1      44.529  27.612  34.914  1.00  0.00     0.057 A 
ATOM     56  C   UNL A   1      44.346  26.436  35.649  1.00  0.00     0.134 A 
ATOM     57  C   UNL A   1      45.746  28.290  35.054  1.00  0.00     0.134 A 
ATOM     58  F   UNL A   1      43.191  25.755  35.568  1.00  0.00    -0.206 F 
ATOM     59  C   UNL A   1      45.331  25.962  36.514  1.00  0.00     0.040 A 
ATOM     60  C   UNL A   1      46.748  27.813  35.894  1.00  0.00     0.040 A 
ATOM     61  F   UNL A   1      45.978  29.421  34.369  1.00  0.00    -0.206 F 
ATOM     62  C   UNL A   1      46.539  26.649  36.632  1.00  0.00     0.006 A 
ENDBRANCH  38  55
ENDBRANCH  12  13
ENDBRANCH   5   7
ENDBRANCH   4   5
ENDBRANCH   3   4
ENDBRANCH   2   3
ENDBRANCH   1   2
BRANCH   1  63
ATOM     63  C   UNL A   1      29.971  28.999  23.662  1.00  0.00     0.202 C 
BRANCH  63  64
ATOM     64  C   UNL A   1      30.692  27.802  24.262  1.00  0.00     0.261 C 
BRANCH  64  65
ATOM     65  O   UNL A   1      30.265  26.622  23.561  1.00  0.00    -0.463 OA
BRANCH  65  66
ATOM     66  C   UNL A   1      31.001  26.279  22.475  1.00  0.00     0.309 C 
ATOM     67  O   UNL A   1      31.086  26.935  21.445  1.00  0.00    -0.252 OA
BRANCH  66  68
ATOM     68  C   UNL A   1      31.779  24.991  22.688  1.00  0.00     0.110 C 
ATOM     69  C   UNL A   1      31.111  23.962  23.617  1.00  0.00     0.077 C 
ATOM     70  C   UNL A   1      33.257  25.307  23.001  1.00  0.00     0.077 C 
ATOM     71  C   UNL A   1      31.694  23.913  25.024  1.00  0.00     0.263 C 
ATOM     72  C   UNL A   1      33.737  25.025  24.428  1.00  0.00     0.263 C 
ATOM     73  N   UNL A   1      33.154  23.852  25.058  1.00  0.00    -0.324 N 
ATOM     74  H   UNL A   1      33.435  23.910  26.038  1.00  0.00     0.348 HD
BRANCH  73  75
ATOM     75  C   UNL A   1      33.755  22.538  24.744  1.00  0.00     0.284 C 
ATOM     76  C   UNL A   1      34.403  22.349  23.385  1.00  0.00     0.176 C 
ATOM     77  C   UNL A   1      34.933  22.248  25.684  1.00  0.00     0.292 C 
ATOM     78  C   UNL A   1      35.844  22.664  23.634  1.00  0.00     0.240 C 
ATOM     79  N   UNL A   1      36.095  22.463  24.969  1.00  0.00    -0.245 N 
ATOM     80  O   UNL A   1      34.821  21.963  26.869  1.00  0.00    -0.267 OA
ATOM     81  O   UNL A   1      36.625  22.954  22.738  1.00  0.00    -0.274 OA
BRANCH  79  82
ATOM     82  C   UNL A   1      37.396  22.432  25.512  1.00  0.00     0.056 A 
ATOM     83  C   UNL A   1      37.915  23.567  26.145  1.00  0.00     0.031 A 
ATOM     84  C   UNL A   1      38.154  21.252  25.497  1.00  0.00     0.077 A 
ATOM     85  C   UNL A   1      39.137  23.504  26.819  1.00  0.00     0.052 A 
ATOM     86  C   UNL A   1      39.399  21.206  26.125  1.00  0.00     0.163 A 
ATOM     87  C   UNL A   1      39.881  22.326  26.802  1.00  0.00     0.161 A 
ATOM     88  O   UNL A   1      40.094  20.028  26.029  1.00  0.00    -0.486 OA
ATOM     89  O   UNL A   1      41.068  22.341  27.486  1.00  0.00    -0.486 OA
ATOM     90  C   UNL A   1      41.145  19.953  26.997  1.00  0.00     0.271 C 
ATOM     91  C   UNL A   1      41.915  21.261  27.085  1.00  0.00     0.271 C 
ENDBRANCH  79  82
ENDBRANCH  73  75
ENDBRANCH  66  68
ENDBRANCH  65  66
ENDBRANCH  64  65
ENDBRANCH  63  64
ENDBRANCH   1  63
TORSDOF 16
ENDMDL
MODEL 2
REMARK VINA RESULT:     -11.9      4.238      7.048
REMARK SMILES O=C(OCCOCCOC(=O)C1CC[NH+]([C@H]2CC(=O)N(c3ccc4c(c3)OCCO4)C2=O)CC1)c1ccc(-c2c3nc(c(-c4c(F)cccc4F)c4ccc([nH]4)c(-c4c(F)cccc4F)c4nc(c(-c5c(F)cccc5F)c5ccc2[nH]5)C=C4)C=C3)cc1
REMARK SMILES IDX 6 1 5 2 4 3 3 4 2 5 1 6 35 7 36 8 88 9 37 10 87 11 38 12
REMARK SMILES IDX 39 13 40 14 81 15 41 16 86 17 80 18 82 19 42 20 85 21 79 22
REMARK SMILES IDX 78 23 43 25 69 26 52 27 68 28 53 29 56 30 67 31 83 32 54 33
REMARK SMILES IDX 55 34 66 36 84 37 57 38 44 39 45 40 50 41 46 42 47 43 49 44
REMARK SMILES IDX 51 45 48 46 70 47 71 48 76 49 72 50 73 51 75 52 77 53 74 54
REMARK SMILES IDX 58 55 59 56 64 57 60 58 61 59 63 60 65 61 62 62 7 63 8 64
REMARK SMILES IDX 9 65 10 66 11 67 12 68 13 69 34 70 14 71 33 72 15 73 16 75
REMARK SMILES IDX 17 76 31 77 18 78 20 79 32 80 19 81 21 82 22 83 26 84 23 85
REMARK SMILES IDX 25 86 24 87 27 88 30 89 28 90 29 91
REMARK H PARENT 82 24 56 35 15 74
REMARK Flexibility Score: inf
ROOT
ATOM      1  O   UNL A   1      35.088  32.602  27.637  1.00  0.00    -0.374 OA
ENDROOT
BRANCH   1   2
ATOM      2  C   UNL A   1      35.791  33.194  28.725  1.00  0.00     0.202 C 
BRANCH   2   3
ATOM      3  C   UNL A   1      35.409  32.739  30.140  1.00  0.00     0.261 C 
BRANCH   3   4
ATOM      4  O   UNL A   1      36.526  32.083  30.793  1.00  0.00    -0.460 OA
BRANCH   4   5
ATOM      5  C   UNL A   1      36.679  30.750  31.022  1.00  0.00     0.338 C 
ATOM      6  O   UNL A   1      35.904  30.136  31.744  1.00  0.00    -0.246 OA
BRANCH   5   7
ATOM      7  C   UNL A   1      37.775  30.029  30.342  1.00  0.00     0.060 A 
ATOM      8  C   UNL A   1      38.590  29.177  31.064  1.00  0.00     0.016 A 
ATOM      9  C   UNL A   1      38.037  30.217  28.987  1.00  0.00     0.016 A 
ATOM     10  C   UNL A   1      39.821  28.811  30.592  1.00  0.00     0.010 A 
ATOM     11  C   UNL A   1      39.190  29.651  28.428  1.00  0.00     0.010 A 
ATOM     12  C   UNL A   1      40.128  29.009  29.254  1.00  0.00    -0.014 A 
BRANCH  12  13
ATOM     13  C   UNL A   1      41.487  28.625  28.824  1.00  0.00     0.031 A 
ATOM     14  C   UNL A   1      41.699  27.250  28.268  1.00  0.00     0.074 A 
ATOM     15  C   UNL A   1      42.454  29.562  28.759  1.00  0.00     0.049 A 
ATOM     16  N   UNL A   1      42.815  26.654  27.952  1.00  0.00    -0.248 NA
ATOM     17  C   UNL A   1      40.496  26.428  28.046  1.00  0.00     0.031 C 
ATOM     18  C   UNL A   1      42.295  30.977  29.130  1.00  0.00     0.029 A 
ATOM     19  N   UNL A   1      43.737  29.498  28.289  1.00  0.00    -0.354 N 
ATOM     20  C   UNL A   1      42.458  25.362  27.589  1.00  0.00     0.074 A 
ATOM     21  C   UNL A   1      41.021  25.265  27.694  1.00  0.00     0.031 C 
ATOM     22  C   UNL A   1      43.390  31.658  28.768  1.00  0.00     0.029 A 
ATOM     23  C   UNL A   1      44.386  30.711  28.298  1.00  0.00     0.049 A 
ATOM     24  H   UNL A   1      44.156  28.665  27.975  1.00  0.00     0.167 HD
ATOM     25  C   UNL A   1      43.279  24.349  27.229  1.00  0.00     0.037 A 
ATOM     26  C   UNL A   1      45.666  31.008  28.013  1.00  0.00     0.037 A 
ATOM     27  C   UNL A   1      44.699  24.517  27.082  1.00  0.00     0.049 A 
ATOM     28  C   UNL A   1      46.567  29.862  27.660  1.00  0.00     0.074 A 
ATOM     29  C   UNL A   1      45.665  23.570  26.802  1.00  0.00     0.029 A 
ATOM     30  N   UNL A   1      45.349  25.742  27.179  1.00  0.00    -0.354 N 
ATOM     31  N   UNL A   1      46.259  28.597  27.482  1.00  0.00    -0.248 NA
ATOM     32  C   UNL A   1      47.992  30.166  27.515  1.00  0.00     0.031 C 
ATOM     33  C   UNL A   1      46.904  24.220  26.761  1.00  0.00     0.029 A 
ATOM     34  C   UNL A   1      46.704  25.578  26.969  1.00  0.00     0.049 A 
ATOM     35  H   UNL A   1      44.908  26.601  27.371  1.00  0.00     0.167 HD
ATOM     36  C   UNL A   1      47.451  27.953  27.196  1.00  0.00     0.074 A 
ATOM     37  C   UNL A   1      48.483  28.975  27.200  1.00  0.00     0.031 C 
ATOM     38  C   UNL A   1      47.683  26.637  26.964  1.00  0.00     0.037 A 
BRANCH  25  39
ATOM     39  C   UNL A   1      42.659  22.990  27.089  1.00  0.00     0.057 A 
ATOM     40  C   UNL A   1      42.360  22.416  25.848  1.00  0.00     0.134 A 
ATOM     41  C   UNL A   1      42.290  22.272  28.236  1.00  0.00     0.134 A 
ATOM     42  F   UNL A   1      42.653  23.064  24.710  1.00  0.00    -0.206 F 
ATOM     43  C   UNL A   1      41.687  21.194  25.751  1.00  0.00     0.040 A 
ATOM     44  C   UNL A   1      41.639  21.040  28.152  1.00  0.00     0.040 A 
ATOM     45  F   UNL A   1      42.536  22.768  29.457  1.00  0.00    -0.206 F 
ATOM     46  C   UNL A   1      41.327  20.502  26.906  1.00  0.00     0.006 A 
ENDBRANCH  25  39
BRANCH  26  47
ATOM     47  C   UNL A   1      46.171  32.401  28.139  1.00  0.00     0.057 A 
ATOM     48  C   UNL A   1      46.044  33.321  27.093  1.00  0.00     0.134 A 
ATOM     49  C   UNL A   1      46.790  32.855  29.314  1.00  0.00     0.134 A 
ATOM     50  F   UNL A   1      45.480  32.949  25.933  1.00  0.00    -0.206 F 
ATOM     51  C   UNL A   1      46.517  34.631  27.203  1.00  0.00     0.040 A 
ATOM     52  C   UNL A   1      47.237  34.170  29.451  1.00  0.00     0.040 A 
ATOM     53  F   UNL A   1      46.948  32.031  30.360  1.00  0.00    -0.206 F 
ATOM     54  C   UNL A   1      47.109  35.061  28.390  1.00  0.00     0.006 A 
ENDBRANCH  26  47
BRANCH  38  55
ATOM     55  C   UNL A   1      49.094  26.262  26.646  1.00  0.00     0.057 A 
ATOM     56  C   UNL A   1      49.982  25.819  27.632  1.00  0.00     0.134 A 
ATOM     57  C   UNL A   1      49.557  26.324  25.326  1.00  0.00     0.134 A 
ATOM     58  F   UNL A   1      49.597  25.757  28.917  1.00  0.00    -0.206 F 
ATOM     59  C   UNL A   1      51.295  25.470  27.319  1.00  0.00     0.040 A 
ATOM     60  C   UNL A   1      50.858  25.953  24.997  1.00  0.00     0.040 A 
ATOM     61  F   UNL A   1      48.747  26.736  24.339  1.00  0.00    -0.206 F 
ATOM     62  C   UNL A   1      51.733  25.532  25.996  1.00  0.00     0.006 A 
ENDBRANCH  38  55
ENDBRANCH  12  13
ENDBRANCH   5   7
ENDBRANCH   4   5
ENDBRANCH   3   4
ENDBRANCH   2   3
ENDBRANCH   1   2
BRANCH   1  63
ATOM     63  C   UNL A   1      35.063  31.168  27.649  1.00  0.00     0.202 C 
BRANCH  63  64
ATOM     64  C   UNL A   1      33.627  30.666  27.626  1.00  0.00     0.261 C 
BRANCH  64  65
ATOM     65  O   UNL A   1      33.278  30.364  26.265  1.00  0.00    -0.463 OA
BRANCH  65  66
ATOM     66  C   UNL A   1      31.956  30.410  25.968  1.00  0.00     0.309 C 
ATOM     67  O   UNL A   1      31.239  31.396  26.093  1.00  0.00    -0.252 OA
BRANCH  66  68
ATOM     68  C   UNL A   1      31.445  29.098  25.398  1.00  0.00     0.110 C 
ATOM     69  C   UNL A   1      31.408  27.918  26.386  1.00  0.00     0.077 C 
ATOM     70  C   UNL A   1      32.123  28.807  24.042  1.00  0.00     0.077 C 
ATOM     71  C   UNL A   1      32.551  26.924  26.221  1.00  0.00     0.263 C 
ATOM     72  C   UNL A   1      33.119  27.644  24.002  1.00  0.00     0.263 C 
ATOM     73  N   UNL A   1      32.778  26.506  24.839  1.00  0.00    -0.324 N 
ATOM     74  H   UNL A   1      33.610  25.915  24.835  1.00  0.00     0.348 HD
BRANCH  73  75
ATOM     75  C   UNL A   1      31.818  25.521  24.295  1.00  0.00     0.284 C 
ATOM     76  C   UNL A   1      31.839  25.244  22.802  1.00  0.00     0.176 C 
ATOM     77  C   UNL A   1      32.102  24.124  24.865  1.00  0.00     0.292 C 
ATOM     78  C   UNL A   1      32.740  24.057  22.675  1.00  0.00     0.240 C 
ATOM     79  N   UNL A   1      32.740  23.397  23.880  1.00  0.00    -0.245 N 
ATOM     80  O   UNL A   1      31.864  23.785  26.016  1.00  0.00    -0.267 OA
ATOM     81  O   UNL A   1      33.278  23.741  21.623  1.00  0.00    -0.274 OA
BRANCH  79  82
ATOM     82  C   UNL A   1      33.286  22.108  24.051  1.00  0.00     0.056 A 
ATOM     83  C   UNL A   1      34.642  21.961  24.365  1.00  0.00     0.031 A 
ATOM     84  C   UNL A   1      32.472  20.968  23.990  1.00  0.00     0.077 A 
ATOM     85  C   UNL A   1      35.161  20.705  24.687  1.00  0.00     0.052 A 
ATOM     86  C   UNL A   1      33.004  19.707  24.260  1.00  0.00     0.163 A 
ATOM     87  C   UNL A   1      34.344  19.578  24.627  1.00  0.00     0.161 A 
ATOM     88  O   UNL A   1      32.151  18.640  24.138  1.00  0.00    -0.486 OA
ATOM     89  O   UNL A   1      34.924  18.382  24.958  1.00  0.00    -0.486 OA
ATOM     90  C   UNL A   1      32.667  17.474  24.788  1.00  0.00     0.271 C 
ATOM     91  C   UNL A   1      34.145  17.278  24.490  1.00  0.00     0.271 C 
ENDBRANCH  79  82
ENDBRANCH  73  75
ENDBRANCH  66  68
ENDBRANCH  65  66
ENDBRANCH  64  65
ENDBRANCH  63  64
ENDBRANCH   1  63
TORSDOF 16
ENDMDL
MODEL 3
REMARK VINA RESULT:     -11.8      2.340      8.820
REMARK SMILES O=C(OCCOCCOC(=O)C1CC[NH+]([C@H]2CC(=O)N(c3ccc4c(c3)OCCO4)C2=O)CC1)c1ccc(-c2c3nc(c(-c4c(F)cccc4F)c4ccc([nH]4)c(-c4c(F)cccc4F)c4nc(c(-c5c(F)cccc5F)c5ccc2[nH]5)C=C4)C=C3)cc1
REMARK SMILES IDX 6 1 5 2 4 3 3 4 2 5 1 6 35 7 36 8 88 9 37 10 87 11 38 12
REMARK SMILES IDX 39 13 40 14 81 15 41 16 86 17 80 18 82 19 42 20 85 21 79 22
REMARK SMILES IDX 78 23 43 25 69 26 52 27 68 28 53 29 56 30 67 31 83 32 54 33
REMARK SMILES IDX 55 34 66 36 84 37 57 38 44 39 45 40 50 41 46 42 47 43 49 44
REMARK SMILES IDX 51 45 48 46 70 47 71 48 76 49 72 50 73 51 75 52 77 53 74 54
REMARK SMILES IDX 58 55 59 56 64 57 60 58 61 59 63 60 65 61 62 62 7 63 8 64
REMARK SMILES IDX 9 65 10 66 11 67 12 68 13 69 34 70 14 71 33 72 15 73 16 75
REMARK SMILES IDX 17 76 31 77 18 78 20 79 32 80 19 81 21 82 22 83 26 84 23 85
REMARK SMILES IDX 25 86 24 87 27 88 30 89 28 90 29 91
REMARK H PARENT 82 24 56 35 15 74
REMARK Flexibility Score: inf
ROOT
ATOM      1  O   UNL A   1      41.829  21.249  26.989  1.00  0.00    -0.374 OA
ENDROOT
BRANCH   1   2
ATOM      2  C   UNL A   1      42.366  22.017  25.917  1.00  0.00     0.202 C 
BRANCH   2   3
ATOM      3  C   UNL A   1      42.763  23.468  26.222  1.00  0.00     0.261 C 
BRANCH   3   4
ATOM      4  O   UNL A   1      41.687  24.381  25.886  1.00  0.00    -0.460 OA
BRANCH   4   5
ATOM      5  C   UNL A   1      41.765  25.735  25.762  1.00  0.00     0.338 C 
ATOM      6  O   UNL A   1      42.297  26.254  24.789  1.00  0.00    -0.246 OA
BRANCH   5   7
ATOM      7  C   UNL A   1      41.148  26.585  26.801  1.00  0.00     0.060 A 
ATOM      8  C   UNL A   1      41.314  27.956  26.755  1.00  0.00     0.016 A 
ATOM      9  C   UNL A   1      40.430  26.033  27.858  1.00  0.00     0.016 A 
ATOM     10  C   UNL A   1      41.116  28.728  27.867  1.00  0.00     0.010 A 
ATOM     11  C   UNL A   1      40.016  26.860  28.910  1.00  0.00     0.010 A 
ATOM     12  C   UNL A   1      40.430  28.202  28.952  1.00  0.00    -0.014 A 
BRANCH  12  13
ATOM     13  C   UNL A   1      40.287  29.079  30.132  1.00  0.00     0.031 A 
ATOM     14  C   UNL A   1      39.129  30.028  30.181  1.00  0.00     0.074 A 
ATOM     15  C   UNL A   1      41.074  28.879  31.208  1.00  0.00     0.049 A 
ATOM     16  N   UNL A   1      38.876  30.972  31.045  1.00  0.00    -0.248 NA
ATOM     17  C   UNL A   1      38.122  29.907  29.112  1.00  0.00     0.031 C 
ATOM     18  C   UNL A   1      42.131  27.861  31.312  1.00  0.00     0.029 A 
ATOM     19  N   UNL A   1      41.065  29.457  32.448  1.00  0.00    -0.354 N 
ATOM     20  C   UNL A   1      37.742  31.617  30.570  1.00  0.00     0.074 A 
ATOM     21  C   UNL A   1      37.336  30.942  29.360  1.00  0.00     0.031 C 
ATOM     22  C   UNL A   1      42.582  27.815  32.573  1.00  0.00     0.029 A 
ATOM     23  C   UNL A   1      41.972  28.903  33.319  1.00  0.00     0.049 A 
ATOM     24  H   UNL A   1      40.467  30.200  32.692  1.00  0.00     0.167 HD
ATOM     25  C   UNL A   1      37.125  32.698  31.098  1.00  0.00     0.037 A 
ATOM     26  C   UNL A   1      42.314  29.276  34.565  1.00  0.00     0.037 A 
ATOM     27  C   UNL A   1      37.535  33.295  32.340  1.00  0.00     0.049 A 
ATOM     28  C   UNL A   1      41.648  30.503  35.112  1.00  0.00     0.074 A 
ATOM     29  C   UNL A   1      37.061  34.435  32.959  1.00  0.00     0.029 A 
ATOM     30  N   UNL A   1      38.518  32.764  33.168  1.00  0.00    -0.354 N 
ATOM     31  N   UNL A   1      40.683  31.222  34.584  1.00  0.00    -0.248 NA
ATOM     32  C   UNL A   1      42.141  31.001  36.398  1.00  0.00     0.031 C 
ATOM     33  C   UNL A   1      37.780  34.609  34.148  1.00  0.00     0.029 A 
ATOM     34  C   UNL A   1      38.668  33.552  34.292  1.00  0.00     0.049 A 
ATOM     35  H   UNL A   1      39.032  31.945  32.980  1.00  0.00     0.167 HD
ATOM     36  C   UNL A   1      40.448  32.255  35.475  1.00  0.00     0.074 A 
ATOM     37  C   UNL A   1      41.355  32.052  36.591  1.00  0.00     0.031 C 
ATOM     38  C   UNL A   1      39.575  33.289  35.382  1.00  0.00     0.037 A 
BRANCH  25  39
ATOM     39  C   UNL A   1      36.041  33.332  30.277  1.00  0.00     0.057 A 
ATOM     40  C   UNL A   1      36.299  34.046  29.100  1.00  0.00     0.134 A 
ATOM     41  C   UNL A   1      34.712  33.282  30.721  1.00  0.00     0.134 A 
ATOM     42  F   UNL A   1      37.553  34.164  28.637  1.00  0.00    -0.206 F 
ATOM     43  C   UNL A   1      35.281  34.714  28.413  1.00  0.00     0.040 A 
ATOM     44  C   UNL A   1      33.683  33.925  30.030  1.00  0.00     0.040 A 
ATOM     45  F   UNL A   1      34.395  32.625  31.846  1.00  0.00    -0.206 F 
ATOM     46  C   UNL A   1      33.969  34.653  28.878  1.00  0.00     0.006 A 
ENDBRANCH  25  39
BRANCH  26  47
ATOM     47  C   UNL A   1      43.372  28.549  35.315  1.00  0.00     0.057 A 
ATOM     48  C   UNL A   1      43.054  27.552  36.244  1.00  0.00     0.134 A 
ATOM     49  C   UNL A   1      44.734  28.826  35.119  1.00  0.00     0.134 A 
ATOM     50  F   UNL A   1      41.771  27.249  36.495  1.00  0.00    -0.206 F 
ATOM     51  C   UNL A   1      44.043  26.866  36.954  1.00  0.00     0.040 A 
ATOM     52  C   UNL A   1      45.734  28.126  35.796  1.00  0.00     0.040 A 
ATOM     53  F   UNL A   1      45.116  29.769  34.245  1.00  0.00    -0.206 F 
ATOM     54  C   UNL A   1      45.390  27.147  36.723  1.00  0.00     0.006 A 
ENDBRANCH  26  47
BRANCH  38  55
ATOM     55  C   UNL A   1      39.538  34.227  36.545  1.00  0.00     0.057 A 
ATOM     56  C   UNL A   1      40.224  35.446  36.533  1.00  0.00     0.134 A 
ATOM     57  C   UNL A   1      38.780  33.912  37.678  1.00  0.00     0.134 A 
ATOM     58  F   UNL A   1      40.981  35.792  35.479  1.00  0.00    -0.206 F 
ATOM     59  C   UNL A   1      40.178  36.313  37.624  1.00  0.00     0.040 A 
ATOM     60  C   UNL A   1      38.704  34.781  38.764  1.00  0.00     0.040 A 
ATOM     61  F   UNL A   1      38.097  32.759  37.741  1.00  0.00    -0.206 F 
ATOM     62  C   UNL A   1      39.411  35.982  38.740  1.00  0.00     0.006 A 
ENDBRANCH  38  55
ENDBRANCH  12  13
ENDBRANCH   5   7
ENDBRANCH   4   5
ENDBRANCH   3   4
ENDBRANCH   2   3
ENDBRANCH   1   2
BRANCH   1  63
ATOM     63  C   UNL A   1      40.401  21.309  27.113  1.00  0.00     0.202 C 
BRANCH  63  64
ATOM     64  C   UNL A   1      39.746  21.131  25.752  1.00  0.00     0.261 C 
BRANCH  64  65
ATOM     65  O   UNL A   1      38.322  21.237  25.920  1.00  0.00    -0.463 OA
BRANCH  65  66
ATOM     66  C   UNL A   1      37.796  22.474  25.738  1.00  0.00     0.309 C 
ATOM     67  O   UNL A   1      38.443  23.491  25.522  1.00  0.00    -0.252 OA
BRANCH  66  68
ATOM     68  C   UNL A   1      36.277  22.466  25.774  1.00  0.00     0.110 C 
ATOM     69  C   UNL A   1      35.589  21.972  24.489  1.00  0.00     0.077 C 
ATOM     70  C   UNL A   1      35.751  23.804  26.336  1.00  0.00     0.077 C 
ATOM     71  C   UNL A   1      35.026  23.082  23.610  1.00  0.00     0.263 C 
ATOM     72  C   UNL A   1      35.039  24.736  25.351  1.00  0.00     0.263 C 
ATOM     73  N   UNL A   1      34.234  24.071  24.340  1.00  0.00    -0.324 N 
ATOM     74  H   UNL A   1      33.983  24.805  23.676  1.00  0.00     0.348 HD
BRANCH  73  75
ATOM     75  C   UNL A   1      32.867  23.654  24.719  1.00  0.00     0.284 C 
ATOM     76  C   UNL A   1      32.340  24.069  26.080  1.00  0.00     0.176 C 
ATOM     77  C   UNL A   1      31.831  24.296  23.785  1.00  0.00     0.292 C 
ATOM     78  C   UNL A   1      31.601  25.339  25.801  1.00  0.00     0.240 C 
ATOM     79  N   UNL A   1      31.239  25.334  24.476  1.00  0.00    -0.245 N 
ATOM     80  O   UNL A   1      31.654  23.970  22.620  1.00  0.00    -0.267 OA
ATOM     81  O   UNL A   1      31.325  26.153  26.672  1.00  0.00    -0.274 OA
BRANCH  79  82
ATOM     82  C   UNL A   1      30.327  26.257  23.924  1.00  0.00     0.056 A 
ATOM     83  C   UNL A   1      28.957  26.122  24.179  1.00  0.00     0.031 A 
ATOM     84  C   UNL A   1      30.778  27.359  23.182  1.00  0.00     0.077 A 
ATOM     85  C   UNL A   1      28.062  27.112  23.767  1.00  0.00     0.052 A 
ATOM     86  C   UNL A   1      29.875  28.318  22.725  1.00  0.00     0.163 A 
ATOM     87  C   UNL A   1      28.519  28.204  23.034  1.00  0.00     0.161 A 
ATOM     88  O   UNL A   1      30.392  29.342  21.973  1.00  0.00    -0.486 OA
ATOM     89  O   UNL A   1      27.582  29.132  22.667  1.00  0.00    -0.486 OA
ATOM     90  C   UNL A   1      29.482  30.443  21.882  1.00  0.00     0.271 C 
ATOM     91  C   UNL A   1      28.062  29.972  21.614  1.00  0.00     0.271 C 
ENDBRANCH  79  82
ENDBRANCH  73  75
ENDBRANCH  66  68
ENDBRANCH  65  66
ENDBRANCH  64  65
ENDBRANCH  63  64
ENDBRANCH   1  63
TORSDOF 16
ENDMDL
