MODEL 1
REMARK VINA RESULT:     -11.7      0.000      0.000
REMARK SMILES Cc1cc(NC(=O)c2ccc(Br)cc2N)ccc1C(=O)OCCOCCOC(=O)c1ccc(-c2c3nc(c(-c4c(F)cccc4F)c4ccc([nH]4)c(-c4c(F)cccc4F)c4nc(c(-c5c(F)cccc5F)c5ccc2[nH]5)C=C4)C=C3)cc1
REMARK SMILES IDX 23 1 22 2 21 3 19 4 20 5 18 6 1 7 2 8 3 9 4 10 17 11 16 12
REMARK SMILES IDX 5 13 6 14 7 16 8 17 9 18 14 19 10 20 13 21 11 22 12 23 15 24
REMARK SMILES IDX 24 27 25 28 26 29 27 30 28 31 29 32 30 33 31 34 83 35 32 36
REMARK SMILES IDX 82 37 33 38 34 39 35 40 76 41 36 42 81 43 75 44 77 45 37 46
REMARK SMILES IDX 80 47 74 48 73 49 38 51 64 52 47 53 63 54 48 55 51 56 62 57
REMARK SMILES IDX 78 58 49 59 50 60 61 62 79 63 52 64 39 65 40 66 45 67 41 68
REMARK SMILES IDX 42 69 44 70 46 71 43 72 65 73 66 74 71 75 67 76 68 77 70 78
REMARK SMILES IDX 72 79 69 80 53 81 54 82 59 83 55 84 56 85 58 86 60 87 57 88
REMARK H PARENT 5 15 15 25 15 26 77 50 51 61
REMARK Flexibility Score: inf
ROOT
ATOM      1  C   UNL A   1      34.320  33.439  28.002  1.00  0.00     0.202 C 
ENDROOT
BRANCH   1   2
ATOM      2  C   UNL A   1      34.104  32.033  28.464  1.00  0.00     0.261 C 
BRANCH   2   3
ATOM      3  O   UNL A   1      34.047  31.099  27.383  1.00  0.00    -0.460 OA
BRANCH   3   4
ATOM      4  C   UNL A   1      32.827  30.822  26.879  1.00  0.00     0.338 C 
ATOM      5  O   UNL A   1      31.855  31.547  26.893  1.00  0.00    -0.246 OA
BRANCH   4   6
ATOM      6  C   UNL A   1      32.904  29.483  26.241  1.00  0.00     0.063 A 
ATOM      7  C   UNL A   1      31.404  28.206  27.971  1.00  0.00     0.045 C 
ATOM      8  C   UNL A   1      32.310  28.312  26.768  1.00  0.00    -0.035 A 
ATOM      9  C   UNL A   1      32.424  27.141  26.025  1.00  0.00     0.030 A 
ATOM     10  C   UNL A   1      32.981  27.151  24.752  1.00  0.00     0.041 A 
ATOM     11  C   UNL A   1      33.651  29.427  25.047  1.00  0.00     0.018 A 
ATOM     12  C   UNL A   1      33.704  28.250  24.303  1.00  0.00     0.027 A 
BRANCH  10  13
ATOM     13  N   UNL A   1      32.664  26.131  23.854  1.00  0.00    -0.322 N 
ATOM     14  C   UNL A   1      31.461  25.947  23.187  1.00  0.00     0.257 C 
ATOM     15  H   UNL A   1      33.370  25.469  23.675  1.00  0.00     0.170 HD
ATOM     16  O   UNL A   1      31.226  24.853  22.674  1.00  0.00    -0.269 OA
BRANCH  14  17
ATOM     17  C   UNL A   1      30.444  27.048  23.033  1.00  0.00     0.063 A 
ATOM     18  C   UNL A   1      30.906  28.210  22.384  1.00  0.00     0.017 A 
ATOM     19  C   UNL A   1      29.107  27.003  23.503  1.00  0.00     0.045 A 
ATOM     20  C   UNL A   1      30.076  29.320  22.214  1.00  0.00     0.016 A 
ATOM     21  C   UNL A   1      28.291  28.136  23.325  1.00  0.00     0.042 A 
ATOM     22  C   UNL A   1      28.772  29.279  22.689  1.00  0.00     0.020 A 
ATOM     23  Br  UNL A   1      27.655  30.795  22.517  1.00  0.00    -0.051 Br
BRANCH  19  24
ATOM     24  N   UNL A   1      28.578  25.967  24.273  1.00  0.00    -0.398 N 
ATOM     25  H   UNL A   1      27.779  26.125  24.826  1.00  0.00     0.156 HD
ATOM     26  H   UNL A   1      29.003  25.080  24.263  1.00  0.00     0.156 HD
ENDBRANCH  19  24
ENDBRANCH  14  17
ENDBRANCH  10  13
ENDBRANCH   4   6
ENDBRANCH   3   4
ENDBRANCH   2   3
ENDBRANCH   1   2
BRANCH   1  27
ATOM     27  O   UNL A   1      33.138  34.142  28.349  1.00  0.00    -0.374 OA
BRANCH  27  28
ATOM     28  C   UNL A   1      33.342  35.374  29.013  1.00  0.00     0.202 C 
BRANCH  28  29
ATOM     29  C   UNL A   1      32.901  35.341  30.484  1.00  0.00     0.261 C 
BRANCH  29  30
ATOM     30  O   UNL A   1      33.942  35.912  31.307  1.00  0.00    -0.460 OA
BRANCH  30  31
ATOM     31  C   UNL A   1      34.385  35.160  32.354  1.00  0.00     0.338 C 
ATOM     32  O   UNL A   1      34.452  35.527  33.516  1.00  0.00    -0.246 OA
BRANCH  31  33
ATOM     33  C   UNL A   1      35.073  33.936  31.838  1.00  0.00     0.060 A 
ATOM     34  C   UNL A   1      34.921  32.705  32.510  1.00  0.00     0.016 A 
ATOM     35  C   UNL A   1      36.122  34.103  30.935  1.00  0.00     0.016 A 
ATOM     36  C   UNL A   1      35.912  31.712  32.408  1.00  0.00     0.010 A 
ATOM     37  C   UNL A   1      37.134  33.166  30.912  1.00  0.00     0.010 A 
ATOM     38  C   UNL A   1      37.066  31.987  31.679  1.00  0.00    -0.014 A 
BRANCH  38  39
ATOM     39  C   UNL A   1      38.341  31.257  31.755  1.00  0.00     0.031 A 
ATOM     40  C   UNL A   1      38.525  30.082  30.873  1.00  0.00     0.074 A 
ATOM     41  C   UNL A   1      39.433  31.820  32.338  1.00  0.00     0.049 A 
ATOM     42  N   UNL A   1      39.580  29.351  30.882  1.00  0.00    -0.248 NA
ATOM     43  C   UNL A   1      37.526  29.595  29.921  1.00  0.00     0.031 C 
ATOM     44  C   UNL A   1      40.850  31.595  32.029  1.00  0.00     0.029 A 
ATOM     45  N   UNL A   1      39.500  32.764  33.368  1.00  0.00    -0.354 N 
ATOM     46  C   UNL A   1      39.568  28.571  29.756  1.00  0.00     0.074 A 
ATOM     47  C   UNL A   1      38.216  28.651  29.271  1.00  0.00     0.031 C 
ATOM     48  C   UNL A   1      41.620  32.122  32.997  1.00  0.00     0.029 A 
ATOM     49  C   UNL A   1      40.730  32.617  34.031  1.00  0.00     0.049 A 
ATOM     50  H   UNL A   1      38.802  33.421  33.591  1.00  0.00     0.167 HD
ATOM     51  C   UNL A   1      40.755  28.059  29.329  1.00  0.00     0.037 A 
ATOM     52  C   UNL A   1      40.773  32.369  35.364  1.00  0.00     0.037 A 
ATOM     53  C   UNL A   1      41.798  28.277  30.346  1.00  0.00     0.049 A 
ATOM     54  C   UNL A   1      41.335  30.991  35.530  1.00  0.00     0.074 A 
ATOM     55  C   UNL A   1      42.920  29.084  30.419  1.00  0.00     0.029 A 
ATOM     56  N   UNL A   1      41.569  27.818  31.649  1.00  0.00    -0.354 N 
ATOM     57  N   UNL A   1      41.265  30.100  34.575  1.00  0.00    -0.248 NA
ATOM     58  C   UNL A   1      42.152  30.550  36.655  1.00  0.00     0.031 C 
ATOM     59  C   UNL A   1      43.289  29.191  31.796  1.00  0.00     0.029 A 
ATOM     60  C   UNL A   1      42.423  28.415  32.556  1.00  0.00     0.049 A 
ATOM     61  H   UNL A   1      40.886  27.151  31.887  1.00  0.00     0.167 HD
ATOM     62  C   UNL A   1      42.098  29.070  34.863  1.00  0.00     0.074 A 
ATOM     63  C   UNL A   1      42.582  29.357  36.204  1.00  0.00     0.031 C 
ATOM     64  C   UNL A   1      42.368  28.072  33.978  1.00  0.00     0.037 A 
BRANCH  51  65
ATOM     65  C   UNL A   1      41.023  27.482  27.953  1.00  0.00     0.057 A 
ATOM     66  C   UNL A   1      40.677  26.147  27.667  1.00  0.00     0.134 A 
ATOM     67  C   UNL A   1      41.680  28.140  26.890  1.00  0.00     0.134 A 
ATOM     68  F   UNL A   1      40.082  25.369  28.583  1.00  0.00    -0.206 F 
ATOM     69  C   UNL A   1      40.937  25.532  26.430  1.00  0.00     0.040 A 
ATOM     70  C   UNL A   1      41.901  27.554  25.633  1.00  0.00     0.040 A 
ATOM     71  F   UNL A   1      42.206  29.362  27.015  1.00  0.00    -0.206 F 
ATOM     72  C   UNL A   1      41.533  26.242  25.399  1.00  0.00     0.006 A 
ENDBRANCH  51  65
BRANCH  52  73
ATOM     73  C   UNL A   1      39.680  33.092  36.081  1.00  0.00     0.057 A 
ATOM     74  C   UNL A   1      38.602  32.294  36.534  1.00  0.00     0.134 A 
ATOM     75  C   UNL A   1      39.905  34.283  36.782  1.00  0.00     0.134 A 
ATOM     76  F   UNL A   1      38.335  31.125  35.930  1.00  0.00    -0.206 F 
ATOM     77  C   UNL A   1      37.888  32.588  37.703  1.00  0.00     0.040 A 
ATOM     78  C   UNL A   1      39.195  34.584  37.959  1.00  0.00     0.040 A 
ATOM     79  F   UNL A   1      40.918  35.091  36.443  1.00  0.00    -0.206 F 
ATOM     80  C   UNL A   1      38.217  33.717  38.445  1.00  0.00     0.006 A 
ENDBRANCH  52  73
BRANCH  64  81
ATOM     81  C   UNL A   1      42.644  26.673  34.442  1.00  0.00     0.057 A 
ATOM     82  C   UNL A   1      41.714  25.916  35.176  1.00  0.00     0.134 A 
ATOM     83  C   UNL A   1      43.772  25.967  33.983  1.00  0.00     0.134 A 
ATOM     84  F   UNL A   1      40.535  26.422  35.565  1.00  0.00    -0.206 F 
ATOM     85  C   UNL A   1      41.926  24.575  35.495  1.00  0.00     0.040 A 
ATOM     86  C   UNL A   1      43.960  24.609  34.240  1.00  0.00     0.040 A 
ATOM     87  F   UNL A   1      44.715  26.550  33.230  1.00  0.00    -0.206 F 
ATOM     88  C   UNL A   1      43.046  23.913  35.018  1.00  0.00     0.006 A 
ENDBRANCH  64  81
ENDBRANCH  38  39
ENDBRANCH  31  33
ENDBRANCH  30  31
ENDBRANCH  29  30
ENDBRANCH  28  29
ENDBRANCH  27  28
ENDBRANCH   1  27
TORSDOF 17
ENDMDL
MODEL 2
REMARK VINA RESULT:     -11.6      1.841      2.499
REMARK SMILES Cc1cc(NC(=O)c2ccc(Br)cc2N)ccc1C(=O)OCCOCCOC(=O)c1ccc(-c2c3nc(c(-c4c(F)cccc4F)c4ccc([nH]4)c(-c4c(F)cccc4F)c4nc(c(-c5c(F)cccc5F)c5ccc2[nH]5)C=C4)C=C3)cc1
REMARK SMILES IDX 23 1 22 2 21 3 19 4 20 5 18 6 1 7 2 8 3 9 4 10 17 11 16 12
REMARK SMILES IDX 5 13 6 14 7 16 8 17 9 18 14 19 10 20 13 21 11 22 12 23 15 24
REMARK SMILES IDX 24 27 25 28 26 29 27 30 28 31 29 32 30 33 31 34 83 35 32 36
REMARK SMILES IDX 82 37 33 38 34 39 35 40 76 41 36 42 81 43 75 44 77 45 37 46
REMARK SMILES IDX 80 47 74 48 73 49 38 51 64 52 47 53 63 54 48 55 51 56 62 57
REMARK SMILES IDX 78 58 49 59 50 60 61 62 79 63 52 64 39 65 40 66 45 67 41 68
REMARK SMILES IDX 42 69 44 70 46 71 43 72 65 73 66 74 71 75 67 76 68 77 70 78
REMARK SMILES IDX 72 79 69 80 53 81 54 82 59 83 55 84 56 85 58 86 60 87 57 88
REMARK H PARENT 5 15 15 25 15 26 77 50 51 61
REMARK Flexibility Score: inf
ROOT
ATOM      1  C   UNL A   1      33.562  34.551  28.334  1.00  0.00     0.202 C 
ENDROOT
BRANCH   1   2
ATOM      2  C   UNL A   1      34.846  33.836  28.050  1.00  0.00     0.261 C 
BRANCH   2   3
ATOM      3  O   UNL A   1      34.652  32.623  27.317  1.00  0.00    -0.460 OA
BRANCH   3   4
ATOM      4  C   UNL A   1      34.367  31.517  28.033  1.00  0.00     0.338 C 
ATOM      5  O   UNL A   1      34.556  31.352  29.219  1.00  0.00    -0.246 OA
BRANCH   4   6
ATOM      6  C   UNL A   1      33.715  30.549  27.113  1.00  0.00     0.063 A 
ATOM      7  C   UNL A   1      31.473  31.869  26.780  1.00  0.00     0.045 C 
ATOM      8  C   UNL A   1      32.402  30.691  26.604  1.00  0.00    -0.035 A 
ATOM      9  C   UNL A   1      31.951  29.728  25.708  1.00  0.00     0.030 A 
ATOM     10  C   UNL A   1      32.803  28.741  25.227  1.00  0.00     0.041 A 
ATOM     11  C   UNL A   1      34.491  29.422  26.776  1.00  0.00     0.018 A 
ATOM     12  C   UNL A   1      34.028  28.502  25.838  1.00  0.00     0.027 A 
BRANCH  10  13
ATOM     13  N   UNL A   1      32.510  28.109  24.017  1.00  0.00    -0.322 N 
ATOM     14  C   UNL A   1      32.675  26.765  23.713  1.00  0.00     0.257 C 
ATOM     15  H   UNL A   1      32.147  28.679  23.301  1.00  0.00     0.170 HD
ATOM     16  O   UNL A   1      32.664  26.416  22.533  1.00  0.00    -0.269 OA
BRANCH  14  17
ATOM     17  C   UNL A   1      32.830  25.708  24.776  1.00  0.00     0.063 A 
ATOM     18  C   UNL A   1      34.098  25.098  24.839  1.00  0.00     0.017 A 
ATOM     19  C   UNL A   1      31.813  25.284  25.668  1.00  0.00     0.045 A 
ATOM     20  C   UNL A   1      34.362  24.074  25.752  1.00  0.00     0.016 A 
ATOM     21  C   UNL A   1      32.100  24.247  26.575  1.00  0.00     0.042 A 
ATOM     22  C   UNL A   1      33.359  23.651  26.614  1.00  0.00     0.020 A 
ATOM     23  Br  UNL A   1      33.685  22.228  27.816  1.00  0.00    -0.051 Br
BRANCH  19  24
ATOM     24  N   UNL A   1      30.487  25.715  25.612  1.00  0.00    -0.398 N 
ATOM     25  H   UNL A   1      29.966  25.597  24.785  1.00  0.00     0.156 HD
ATOM     26  H   UNL A   1      30.073  26.138  26.398  1.00  0.00     0.156 HD
ENDBRANCH  19  24
ENDBRANCH  14  17
ENDBRANCH  10  13
ENDBRANCH   4   6
ENDBRANCH   3   4
ENDBRANCH   2   3
ENDBRANCH   1   2
BRANCH   1  27
ATOM     27  O   UNL A   1      33.923  35.701  29.082  1.00  0.00    -0.374 OA
BRANCH  27  28
ATOM     28  C   UNL A   1      32.857  36.342  29.755  1.00  0.00     0.202 C 
BRANCH  28  29
ATOM     29  C   UNL A   1      33.094  36.468  31.267  1.00  0.00     0.261 C 
BRANCH  29  30
ATOM     30  O   UNL A   1      33.360  35.160  31.819  1.00  0.00    -0.460 OA
BRANCH  30  31
ATOM     31  C   UNL A   1      34.546  34.994  32.469  1.00  0.00     0.338 C 
ATOM     32  O   UNL A   1      35.106  35.835  33.154  1.00  0.00    -0.246 OA
BRANCH  31  33
ATOM     33  C   UNL A   1      35.223  33.757  31.970  1.00  0.00     0.060 A 
ATOM     34  C   UNL A   1      35.102  32.549  32.690  1.00  0.00     0.016 A 
ATOM     35  C   UNL A   1      36.238  33.897  31.026  1.00  0.00     0.016 A 
ATOM     36  C   UNL A   1      36.094  31.557  32.586  1.00  0.00     0.010 A 
ATOM     37  C   UNL A   1      37.254  32.965  30.998  1.00  0.00     0.010 A 
ATOM     38  C   UNL A   1      37.220  31.812  31.806  1.00  0.00    -0.014 A 
BRANCH  38  39
ATOM     39  C   UNL A   1      38.502  31.091  31.861  1.00  0.00     0.031 A 
ATOM     40  C   UNL A   1      38.692  29.938  30.951  1.00  0.00     0.074 A 
ATOM     41  C   UNL A   1      39.591  31.649  32.454  1.00  0.00     0.049 A 
ATOM     42  N   UNL A   1      39.753  29.216  30.940  1.00  0.00    -0.248 NA
ATOM     43  C   UNL A   1      37.694  29.466  29.991  1.00  0.00     0.031 C 
ATOM     44  C   UNL A   1      41.008  31.443  32.136  1.00  0.00     0.029 A 
ATOM     45  N   UNL A   1      39.654  32.569  33.506  1.00  0.00    -0.354 N 
ATOM     46  C   UNL A   1      39.743  28.463  29.796  1.00  0.00     0.074 A 
ATOM     47  C   UNL A   1      38.389  28.543  29.317  1.00  0.00     0.031 C 
ATOM     48  C   UNL A   1      41.777  31.953  33.114  1.00  0.00     0.029 A 
ATOM     49  C   UNL A   1      40.887  32.417  34.161  1.00  0.00     0.049 A 
ATOM     50  H   UNL A   1      38.950  33.214  33.747  1.00  0.00     0.167 HD
ATOM     51  C   UNL A   1      40.933  27.971  29.353  1.00  0.00     0.037 A 
ATOM     52  C   UNL A   1      40.936  32.138  35.488  1.00  0.00     0.037 A 
ATOM     53  C   UNL A   1      41.978  28.173  30.372  1.00  0.00     0.049 A 
ATOM     54  C   UNL A   1      41.510  30.761  35.620  1.00  0.00     0.074 A 
ATOM     55  C   UNL A   1      43.094  28.987  30.461  1.00  0.00     0.029 A 
ATOM     56  N   UNL A   1      41.757  27.681  31.664  1.00  0.00    -0.354 N 
ATOM     57  N   UNL A   1      41.444  29.892  34.644  1.00  0.00    -0.248 NA
ATOM     58  C   UNL A   1      42.334  30.299  36.731  1.00  0.00     0.031 C 
ATOM     59  C   UNL A   1      43.466  29.064  31.839  1.00  0.00     0.029 A 
ATOM     60  C   UNL A   1      42.608  28.264  32.583  1.00  0.00     0.049 A 
ATOM     61  H   UNL A   1      41.080  27.003  31.889  1.00  0.00     0.167 HD
ATOM     62  C   UNL A   1      42.286  28.862  34.906  1.00  0.00     0.074 A 
ATOM     63  C   UNL A   1      42.772  29.121  36.251  1.00  0.00     0.031 C 
ATOM     64  C   UNL A   1      42.561  27.887  33.997  1.00  0.00     0.037 A 
BRANCH  51  65
ATOM     65  C   UNL A   1      41.201  27.428  27.963  1.00  0.00     0.057 A 
ATOM     66  C   UNL A   1      41.882  28.216  27.015  1.00  0.00     0.134 A 
ATOM     67  C   UNL A   1      40.760  26.185  27.458  1.00  0.00     0.134 A 
ATOM     68  F   UNL A   1      42.332  29.442  27.321  1.00  0.00    -0.206 F 
ATOM     69  C   UNL A   1      42.124  27.796  25.696  1.00  0.00     0.040 A 
ATOM     70  C   UNL A   1      41.039  25.732  26.159  1.00  0.00     0.040 A 
ATOM     71  F   UNL A   1      39.981  25.357  28.161  1.00  0.00    -0.206 F 
ATOM     72  C   UNL A   1      41.721  26.541  25.268  1.00  0.00     0.006 A 
ENDBRANCH  51  65
BRANCH  52  73
ATOM     73  C   UNL A   1      39.839  32.834  36.226  1.00  0.00     0.057 A 
ATOM     74  C   UNL A   1      38.770  32.017  36.663  1.00  0.00     0.134 A 
ATOM     75  C   UNL A   1      40.057  34.010  36.953  1.00  0.00     0.134 A 
ATOM     76  F   UNL A   1      38.510  30.860  36.032  1.00  0.00    -0.206 F 
ATOM     77  C   UNL A   1      38.057  32.278  37.840  1.00  0.00     0.040 A 
ATOM     78  C   UNL A   1      39.349  34.278  38.139  1.00  0.00     0.040 A 
ATOM     79  F   UNL A   1      41.063  34.835  36.630  1.00  0.00    -0.206 F 
ATOM     80  C   UNL A   1      38.379  33.391  38.607  1.00  0.00     0.006 A 
ENDBRANCH  52  73
BRANCH  64  81
ATOM     81  C   UNL A   1      42.850  26.479  34.427  1.00  0.00     0.057 A 
ATOM     82  C   UNL A   1      41.954  25.720  35.200  1.00  0.00     0.134 A 
ATOM     83  C   UNL A   1      43.945  25.772  33.898  1.00  0.00     0.134 A 
ATOM     84  F   UNL A   1      40.802  26.230  35.658  1.00  0.00    -0.206 F 
ATOM     85  C   UNL A   1      42.171  24.373  35.490  1.00  0.00     0.040 A 
ATOM     86  C   UNL A   1      44.136  24.409  34.127  1.00  0.00     0.040 A 
ATOM     87  F   UNL A   1      44.851  26.357  33.103  1.00  0.00    -0.206 F 
ATOM     88  C   UNL A   1      43.259  23.709  34.943  1.00  0.00     0.006 A 
ENDBRANCH  64  81
ENDBRANCH  38  39
ENDBRANCH  31  33
ENDBRANCH  30  31
ENDBRANCH  29  30
ENDBRANCH  28  29
ENDBRANCH  27  28
ENDBRANCH   1  27
TORSDOF 17
ENDMDL
MODEL 3
REMARK VINA RESULT:     -11.4      1.675      2.373
REMARK SMILES Cc1cc(NC(=O)c2ccc(Br)cc2N)ccc1C(=O)OCCOCCOC(=O)c1ccc(-c2c3nc(c(-c4c(F)cccc4F)c4ccc([nH]4)c(-c4c(F)cccc4F)c4nc(c(-c5c(F)cccc5F)c5ccc2[nH]5)C=C4)C=C3)cc1
REMARK SMILES IDX 23 1 22 2 21 3 19 4 20 5 18 6 1 7 2 8 3 9 4 10 17 11 16 12
REMARK SMILES IDX 5 13 6 14 7 16 8 17 9 18 14 19 10 20 13 21 11 22 12 23 15 24
REMARK SMILES IDX 24 27 25 28 26 29 27 30 28 31 29 32 30 33 31 34 83 35 32 36
REMARK SMILES IDX 82 37 33 38 34 39 35 40 76 41 36 42 81 43 75 44 77 45 37 46
REMARK SMILES IDX 80 47 74 48 73 49 38 51 64 52 47 53 63 54 48 55 51 56 62 57
REMARK SMILES IDX 78 58 49 59 50 60 61 62 79 63 52 64 39 65 40 66 45 67 41 68
REMARK SMILES IDX 42 69 44 70 46 71 43 72 65 73 66 74 71 75 67 76 68 77 70 78
REMARK SMILES IDX 72 79 69 80 53 81 54 82 59 83 55 84 56 85 58 86 60 87 57 88
REMARK H PARENT 5 15 15 25 15 26 77 50 51 61
REMARK Flexibility Score: inf
ROOT
ATOM      1  C   UNL A   1      32.723  32.685  27.509  1.00  0.00     0.202 C 
ENDROOT
BRANCH   1   2
ATOM      2  C   UNL A   1      31.408  32.085  27.120  1.00  0.00     0.261 C 
BRANCH   2   3
ATOM      3  O   UNL A   1      31.510  31.223  25.984  1.00  0.00    -0.460 OA
BRANCH   3   4
ATOM      4  C   UNL A   1      31.756  29.919  26.228  1.00  0.00     0.338 C 
ATOM      5  O   UNL A   1      31.576  29.330  27.272  1.00  0.00    -0.246 OA
BRANCH   4   6
ATOM      6  C   UNL A   1      32.232  29.312  24.958  1.00  0.00     0.063 A 
ATOM      7  C   UNL A   1      34.536  28.437  25.854  1.00  0.00     0.045 C 
ATOM      8  C   UNL A   1      33.497  28.703  24.789  1.00  0.00    -0.035 A 
ATOM      9  C   UNL A   1      33.777  28.130  23.553  1.00  0.00     0.030 A 
ATOM     10  C   UNL A   1      32.802  28.041  22.567  1.00  0.00     0.041 A 
ATOM     11  C   UNL A   1      31.334  29.400  23.876  1.00  0.00     0.018 A 
ATOM     12  C   UNL A   1      31.624  28.773  22.665  1.00  0.00     0.027 A 
BRANCH  10  13
ATOM     13  N   UNL A   1      32.923  27.077  21.565  1.00  0.00    -0.322 N 
ATOM     14  C   UNL A   1      32.927  25.698  21.725  1.00  0.00     0.257 C 
ATOM     15  H   UNL A   1      33.016  27.411  20.643  1.00  0.00     0.170 HD
ATOM     16  O   UNL A   1      33.343  24.993  20.805  1.00  0.00    -0.269 OA
BRANCH  14  17
ATOM     17  C   UNL A   1      32.407  25.026  22.969  1.00  0.00     0.063 A 
ATOM     18  C   UNL A   1      31.005  24.924  23.058  1.00  0.00     0.017 A 
ATOM     19  C   UNL A   1      33.206  24.530  24.030  1.00  0.00     0.045 A 
ATOM     20  C   UNL A   1      30.392  24.359  24.179  1.00  0.00     0.016 A 
ATOM     21  C   UNL A   1      32.567  23.970  25.152  1.00  0.00     0.042 A 
ATOM     22  C   UNL A   1      31.177  23.888  25.223  1.00  0.00     0.020 A 
ATOM     23  Br  UNL A   1      30.360  23.173  26.772  1.00  0.00    -0.051 Br
BRANCH  19  24
ATOM     24  N   UNL A   1      34.589  24.694  24.117  1.00  0.00    -0.398 N 
ATOM     25  H   UNL A   1      35.111  24.902  23.308  1.00  0.00     0.156 HD
ATOM     26  H   UNL A   1      35.042  24.601  24.986  1.00  0.00     0.156 HD
ENDBRANCH  19  24
ENDBRANCH  14  17
ENDBRANCH  10  13
ENDBRANCH   4   6
ENDBRANCH   3   4
ENDBRANCH   2   3
ENDBRANCH   1   2
BRANCH   1  27
ATOM     27  O   UNL A   1      32.435  34.019  27.896  1.00  0.00    -0.374 OA
BRANCH  27  28
ATOM     28  C   UNL A   1      33.538  34.757  28.384  1.00  0.00     0.202 C 
BRANCH  28  29
ATOM     29  C   UNL A   1      33.246  35.456  29.720  1.00  0.00     0.261 C 
BRANCH  29  30
ATOM     30  O   UNL A   1      33.293  34.483  30.787  1.00  0.00    -0.460 OA
BRANCH  30  31
ATOM     31  C   UNL A   1      34.432  34.439  31.534  1.00  0.00     0.338 C 
ATOM     32  O   UNL A   1      34.898  35.367  32.175  1.00  0.00    -0.246 OA
BRANCH  31  33
ATOM     33  C   UNL A   1      35.200  33.198  31.205  1.00  0.00     0.060 A 
ATOM     34  C   UNL A   1      35.149  32.088  32.074  1.00  0.00     0.016 A 
ATOM     35  C   UNL A   1      36.219  33.287  30.259  1.00  0.00     0.016 A 
ATOM     36  C   UNL A   1      36.209  31.163  32.108  1.00  0.00     0.010 A 
ATOM     37  C   UNL A   1      37.297  32.432  30.361  1.00  0.00     0.010 A 
ATOM     38  C   UNL A   1      37.328  31.394  31.311  1.00  0.00    -0.014 A 
BRANCH  38  39
ATOM     39  C   UNL A   1      38.655  30.777  31.470  1.00  0.00     0.031 A 
ATOM     40  C   UNL A   1      38.982  29.603  30.629  1.00  0.00     0.074 A 
ATOM     41  C   UNL A   1      39.663  31.444  32.093  1.00  0.00     0.049 A 
ATOM     42  N   UNL A   1      40.094  28.966  30.710  1.00  0.00    -0.248 NA
ATOM     43  C   UNL A   1      38.079  29.013  29.641  1.00  0.00     0.031 C 
ATOM     44  C   UNL A   1      41.108  31.334  31.862  1.00  0.00     0.029 A 
ATOM     45  N   UNL A   1      39.597  32.411  33.101  1.00  0.00    -0.354 N 
ATOM     46  C   UNL A   1      40.206  28.164  29.605  1.00  0.00     0.074 A 
ATOM     47  C   UNL A   1      38.879  28.118  29.050  1.00  0.00     0.031 C 
ATOM     48  C   UNL A   1      41.779  31.945  32.853  1.00  0.00     0.029 A 
ATOM     49  C   UNL A   1      40.798  32.385  33.828  1.00  0.00     0.049 A 
ATOM     50  H   UNL A   1      38.834  33.011  33.271  1.00  0.00     0.167 HD
ATOM     51  C   UNL A   1      41.453  27.747  29.251  1.00  0.00     0.037 A 
ATOM     52  C   UNL A   1      40.792  32.170  35.167  1.00  0.00     0.037 A 
ATOM     53  C   UNL A   1      42.420  28.074  30.314  1.00  0.00     0.049 A 
ATOM     54  C   UNL A   1      41.459  30.849  35.397  1.00  0.00     0.074 A 
ATOM     55  C   UNL A   1      43.464  28.976  30.422  1.00  0.00     0.029 A 
ATOM     56  N   UNL A   1      42.162  27.625  31.614  1.00  0.00    -0.354 N 
ATOM     57  N   UNL A   1      41.514  29.935  34.462  1.00  0.00    -0.248 NA
ATOM     58  C   UNL A   1      42.250  30.503  36.572  1.00  0.00     0.031 C 
ATOM     59  C   UNL A   1      43.750  29.143  31.813  1.00  0.00     0.029 A 
ATOM     60  C   UNL A   1      42.913  28.312  32.548  1.00  0.00     0.049 A 
ATOM     61  H   UNL A   1      41.526  26.907  31.835  1.00  0.00     0.167 HD
ATOM     62  C   UNL A   1      42.415  28.986  34.818  1.00  0.00     0.074 A 
ATOM     63  C   UNL A   1      42.803  29.341  36.174  1.00  0.00     0.031 C 
ATOM     64  C   UNL A   1      42.814  27.996  33.974  1.00  0.00     0.037 A 
BRANCH  51  65
ATOM     65  C   UNL A   1      41.840  27.165  27.905  1.00  0.00     0.057 A 
ATOM     66  C   UNL A   1      41.988  28.008  26.787  1.00  0.00     0.134 A 
ATOM     67  C   UNL A   1      42.006  25.794  27.611  1.00  0.00     0.134 A 
ATOM     68  F   UNL A   1      41.823  29.335  26.887  1.00  0.00    -0.206 F 
ATOM     69  C   UNL A   1      42.300  27.534  25.501  1.00  0.00     0.040 A 
ATOM     70  C   UNL A   1      42.367  25.311  26.343  1.00  0.00     0.040 A 
ATOM     71  F   UNL A   1      41.771  24.831  28.507  1.00  0.00    -0.206 F 
ATOM     72  C   UNL A   1      42.512  26.182  25.278  1.00  0.00     0.006 A 
ENDBRANCH  51  65
BRANCH  52  73
ATOM     73  C   UNL A   1      39.606  32.811  35.810  1.00  0.00     0.057 A 
ATOM     74  C   UNL A   1      38.604  31.930  36.280  1.00  0.00     0.134 A 
ATOM     75  C   UNL A   1      39.681  34.058  36.444  1.00  0.00     0.134 A 
ATOM     76  F   UNL A   1      38.481  30.706  35.741  1.00  0.00    -0.206 F 
ATOM     77  C   UNL A   1      37.824  32.212  37.409  1.00  0.00     0.040 A 
ATOM     78  C   UNL A   1      38.905  34.348  37.580  1.00  0.00     0.040 A 
ATOM     79  F   UNL A   1      40.615  34.949  36.084  1.00  0.00    -0.206 F 
ATOM     80  C   UNL A   1      38.007  33.410  38.091  1.00  0.00     0.006 A 
ENDBRANCH  52  73
BRANCH  64  81
ATOM     81  C   UNL A   1      43.182  26.635  34.487  1.00  0.00     0.057 A 
ATOM     82  C   UNL A   1      42.230  25.720  34.970  1.00  0.00     0.134 A 
ATOM     83  C   UNL A   1      44.482  26.124  34.314  1.00  0.00     0.134 A 
ATOM     84  F   UNL A   1      40.929  26.029  35.061  1.00  0.00    -0.206 F 
ATOM     85  C   UNL A   1      42.563  24.413  35.327  1.00  0.00     0.040 A 
ATOM     86  C   UNL A   1      44.810  24.800  34.605  1.00  0.00     0.040 A 
ATOM     87  F   UNL A   1      45.477  26.871  33.815  1.00  0.00    -0.206 F 
ATOM     88  C   UNL A   1      43.854  23.945  35.134  1.00  0.00     0.006 A 
ENDBRANCH  64  81
ENDBRANCH  38  39
ENDBRANCH  31  33
ENDBRANCH  30  31
ENDBRANCH  29  30
ENDBRANCH  28  29
ENDBRANCH  27  28
ENDBRANCH   1  27
TORSDOF 17
ENDMDL
