MODEL 1
REMARK VINA RESULT:     -11.8      0.000      0.000
REMARK SMILES NS(=O)(=O)c1ccc(/N=N/c2ccc(O)c(C(=O)OCCOCCOC(=O)c3ccc(-c4c5nc(c(-c6c(F)cccc6F)c6ccc([nH]6)c(-c6c(F)cccc6F)c6nc(c(-c7c(F)cccc7F)c7ccc4[nH]7)C=C6)C=C5)cc3)c2)cc1
REMARK SMILES IDX 21 1 20 2 19 3 17 4 18 5 16 6 11 7 12 8 82 9 13 10 14 11
REMARK SMILES IDX 10 12 9 13 8 14 5 15 6 16 84 17 7 18 83 19 2 20 3 21 4 22
REMARK SMILES IDX 1 23 15 26 22 28 23 29 24 30 25 31 26 32 27 33 28 34 29 35
REMARK SMILES IDX 81 36 30 37 80 38 31 39 32 40 33 41 74 42 34 43 79 44 73 45
REMARK SMILES IDX 75 46 35 47 78 48 72 49 71 50 36 52 62 53 45 54 61 55 46 56
REMARK SMILES IDX 49 57 60 58 76 59 47 60 48 61 59 63 77 64 50 65 37 66 38 67
REMARK SMILES IDX 43 68 39 69 40 70 42 71 44 72 41 73 63 74 64 75 69 76 65 77
REMARK SMILES IDX 66 78 68 79 70 80 67 81 51 82 52 83 57 84 53 85 54 86 56 87
REMARK SMILES IDX 58 88 55 89
REMARK H PARENT 1 24 1 25 15 27 75 51 49 62
REMARK Flexibility Score: inf
ROOT
ATOM      1  C   UNL A   1      45.527  20.485  24.645  1.00  0.00     0.202 C 
ENDROOT
BRANCH   1   2
ATOM      2  C   UNL A   1      44.636  19.278  24.956  1.00  0.00     0.261 C 
BRANCH   2   3
ATOM      3  O   UNL A   1      43.253  19.671  24.992  1.00  0.00    -0.460 OA
BRANCH   3   4
ATOM      4  C   UNL A   1      42.557  19.245  26.071  1.00  0.00     0.342 C 
ATOM      5  O   UNL A   1      42.789  18.259  26.755  1.00  0.00    -0.246 OA
BRANCH   4   6
ATOM      6  C   UNL A   1      41.562  20.259  26.485  1.00  0.00     0.104 A 
ATOM      7  C   UNL A   1      39.470  21.458  26.169  1.00  0.00     0.087 A 
ATOM      8  C   UNL A   1      39.798  22.286  27.251  1.00  0.00     0.034 A 
ATOM      9  C   UNL A   1      40.366  20.452  25.780  1.00  0.00     0.049 A 
ATOM     10  C   UNL A   1      40.991  22.102  27.952  1.00  0.00     0.049 A 
ATOM     11  C   UNL A   1      41.865  21.089  27.573  1.00  0.00     0.130 A 
BRANCH   7  12
ATOM     12  N   UNL A   1      38.272  21.693  25.466  1.00  0.00    -0.151 NA
ATOM     13  N   UNL A   1      37.902  22.876  25.627  1.00  0.00    -0.151 NA
BRANCH  13  14
ATOM     14  C   UNL A   1      36.725  23.184  24.913  1.00  0.00     0.086 A 
ATOM     15  C   UNL A   1      34.400  23.995  23.556  1.00  0.00     0.082 A 
ATOM     16  C   UNL A   1      34.604  24.384  24.881  1.00  0.00     0.024 A 
ATOM     17  C   UNL A   1      35.343  23.203  22.899  1.00  0.00     0.024 A 
ATOM     18  C   UNL A   1      35.762  23.976  25.551  1.00  0.00     0.031 A 
ATOM     19  C   UNL A   1      36.501  22.806  23.578  1.00  0.00     0.031 A 
BRANCH  15  20
ATOM     20  S   UNL A   1      32.950  24.583  22.731  1.00  0.00     0.238 S 
ATOM     21  O   UNL A   1      33.273  24.784  21.338  1.00  0.00    -0.207 OA
ATOM     22  O   UNL A   1      32.344  25.604  23.551  1.00  0.00    -0.207 OA
BRANCH  20  23
ATOM     23  N   UNL A   1      31.886  23.283  22.753  1.00  0.00    -0.225 NA
ATOM     24  H   UNL A   1      31.911  22.838  23.670  1.00  0.00     0.137 HD
ATOM     25  H   UNL A   1      32.158  22.607  22.040  1.00  0.00     0.137 HD
ENDBRANCH  20  23
ENDBRANCH  15  20
ENDBRANCH  13  14
ENDBRANCH   7  12
BRANCH  11  26
ATOM     26  O   UNL A   1      43.023  20.988  28.297  1.00  0.00    -0.507 OA
ATOM     27  H   UNL A   1      43.756  20.521  27.947  1.00  0.00     0.293 HD
ENDBRANCH  11  26
ENDBRANCH   4   6
ENDBRANCH   3   4
ENDBRANCH   2   3
ENDBRANCH   1   2
BRANCH   1  28
ATOM     28  O   UNL A   1      45.836  21.302  25.775  1.00  0.00    -0.374 OA
BRANCH  28  29
ATOM     29  C   UNL A   1      46.303  22.625  25.493  1.00  0.00     0.202 C 
BRANCH  29  30
ATOM     30  C   UNL A   1      45.683  23.279  24.254  1.00  0.00     0.261 C 
BRANCH  30  31
ATOM     31  O   UNL A   1      44.803  24.354  24.631  1.00  0.00    -0.460 OA
BRANCH  31  32
ATOM     32  C   UNL A   1      43.532  23.982  24.916  1.00  0.00     0.338 C 
ATOM     33  O   UNL A   1      42.986  22.932  24.626  1.00  0.00    -0.246 OA
BRANCH  32  34
ATOM     34  C   UNL A   1      42.910  24.979  25.811  1.00  0.00     0.060 A 
ATOM     35  C   UNL A   1      43.736  25.993  26.312  1.00  0.00     0.016 A 
ATOM     36  C   UNL A   1      41.570  24.902  26.200  1.00  0.00     0.016 A 
ATOM     37  C   UNL A   1      43.241  26.903  27.244  1.00  0.00     0.010 A 
ATOM     38  C   UNL A   1      41.076  25.810  27.144  1.00  0.00     0.010 A 
ATOM     39  C   UNL A   1      41.919  26.792  27.695  1.00  0.00    -0.014 A 
BRANCH  39  40
ATOM     40  C   UNL A   1      41.473  27.608  28.850  1.00  0.00     0.031 A 
ATOM     41  C   UNL A   1      42.208  27.484  30.156  1.00  0.00     0.074 A 
ATOM     42  C   UNL A   1      40.458  28.484  28.727  1.00  0.00     0.049 A 
ATOM     43  N   UNL A   1      41.980  28.080  31.297  1.00  0.00    -0.248 NA
ATOM     44  C   UNL A   1      43.361  26.568  30.175  1.00  0.00     0.031 C 
ATOM     45  C   UNL A   1      39.700  28.734  27.503  1.00  0.00     0.029 A 
ATOM     46  N   UNL A   1      39.894  29.325  29.653  1.00  0.00    -0.354 N 
ATOM     47  C   UNL A   1      42.962  27.621  32.166  1.00  0.00     0.074 A 
ATOM     48  C   UNL A   1      43.767  26.670  31.432  1.00  0.00     0.031 C 
ATOM     49  C   UNL A   1      38.761  29.663  27.756  1.00  0.00     0.029 A 
ATOM     50  C   UNL A   1      38.836  30.051  29.162  1.00  0.00     0.049 A 
ATOM     51  H   UNL A   1      40.217  29.402  30.579  1.00  0.00     0.167 HD
ATOM     52  C   UNL A   1      43.182  27.970  33.456  1.00  0.00     0.037 A 
ATOM     53  C   UNL A   1      38.013  30.915  29.787  1.00  0.00     0.037 A 
ATOM     54  C   UNL A   1      42.378  28.907  34.193  1.00  0.00     0.049 A 
ATOM     55  C   UNL A   1      38.222  31.214  31.249  1.00  0.00     0.074 A 
ATOM     56  C   UNL A   1      42.508  29.307  35.512  1.00  0.00     0.029 A 
ATOM     57  N   UNL A   1      41.290  29.591  33.673  1.00  0.00    -0.354 N 
ATOM     58  N   UNL A   1      39.156  30.775  32.059  1.00  0.00    -0.248 NA
ATOM     59  C   UNL A   1      37.262  32.130  31.883  1.00  0.00     0.031 C 
ATOM     60  C   UNL A   1      41.480  30.211  35.799  1.00  0.00     0.029 A 
ATOM     61  C   UNL A   1      40.734  30.403  34.647  1.00  0.00     0.049 A 
ATOM     62  H   UNL A   1      40.964  29.512  32.748  1.00  0.00     0.167 HD
ATOM     63  C   UNL A   1      38.914  31.386  33.283  1.00  0.00     0.074 A 
ATOM     64  C   UNL A   1      37.754  32.233  33.109  1.00  0.00     0.031 C 
ATOM     65  C   UNL A   1      39.593  31.257  34.450  1.00  0.00     0.037 A 
BRANCH  52  66
ATOM     66  C   UNL A   1      44.341  27.327  34.156  1.00  0.00     0.057 A 
ATOM     67  C   UNL A   1      44.233  26.052  34.726  1.00  0.00     0.134 A 
ATOM     68  C   UNL A   1      45.585  27.963  34.222  1.00  0.00     0.134 A 
ATOM     69  F   UNL A   1      43.062  25.395  34.709  1.00  0.00    -0.206 F 
ATOM     70  C   UNL A   1      45.320  25.438  35.350  1.00  0.00     0.040 A 
ATOM     71  C   UNL A   1      46.685  27.351  34.825  1.00  0.00     0.040 A 
ATOM     72  F   UNL A   1      45.754  29.184  33.692  1.00  0.00    -0.206 F 
ATOM     73  C   UNL A   1      46.553  26.086  35.394  1.00  0.00     0.006 A 
ENDBRANCH  52  66
BRANCH  53  74
ATOM     74  C   UNL A   1      36.895  31.556  29.049  1.00  0.00     0.057 A 
ATOM     75  C   UNL A   1      36.979  32.885  28.617  1.00  0.00     0.134 A 
ATOM     76  C   UNL A   1      35.696  30.874  28.811  1.00  0.00     0.134 A 
ATOM     77  F   UNL A   1      38.092  33.598  28.840  1.00  0.00    -0.206 F 
ATOM     78  C   UNL A   1      35.902  33.520  27.996  1.00  0.00     0.040 A 
ATOM     79  C   UNL A   1      34.620  31.490  28.170  1.00  0.00     0.040 A 
ATOM     80  F   UNL A   1      35.552  29.599  29.202  1.00  0.00    -0.206 F 
ATOM     81  C   UNL A   1      34.718  32.821  27.770  1.00  0.00     0.006 A 
ENDBRANCH  53  74
BRANCH  65  82
ATOM     82  C   UNL A   1      39.131  32.088  35.609  1.00  0.00     0.057 A 
ATOM     83  C   UNL A   1      38.267  31.578  36.586  1.00  0.00     0.134 A 
ATOM     84  C   UNL A   1      39.590  33.402  35.770  1.00  0.00     0.134 A 
ATOM     85  F   UNL A   1      37.783  30.332  36.482  1.00  0.00    -0.206 F 
ATOM     86  C   UNL A   1      37.856  32.355  37.671  1.00  0.00     0.040 A 
ATOM     87  C   UNL A   1      39.204  34.179  36.864  1.00  0.00     0.040 A 
ATOM     88  F   UNL A   1      40.426  33.946  34.875  1.00  0.00    -0.206 F 
ATOM     89  C   UNL A   1      38.330  33.657  37.815  1.00  0.00     0.006 A 
ENDBRANCH  65  82
ENDBRANCH  39  40
ENDBRANCH  32  34
ENDBRANCH  31  32
ENDBRANCH  30  31
ENDBRANCH  29  30
ENDBRANCH  28  29
ENDBRANCH   1  28
TORSDOF 19
ENDMDL
MODEL 2
REMARK VINA RESULT:     -11.4      3.863      9.115
REMARK SMILES NS(=O)(=O)c1ccc(/N=N/c2ccc(O)c(C(=O)OCCOCCOC(=O)c3ccc(-c4c5nc(c(-c6c(F)cccc6F)c6ccc([nH]6)c(-c6c(F)cccc6F)c6nc(c(-c7c(F)cccc7F)c7ccc4[nH]7)C=C6)C=C5)cc3)c2)cc1
REMARK SMILES IDX 21 1 20 2 19 3 17 4 18 5 16 6 11 7 12 8 82 9 13 10 14 11
REMARK SMILES IDX 10 12 9 13 8 14 5 15 6 16 84 17 7 18 83 19 2 20 3 21 4 22
REMARK SMILES IDX 1 23 15 26 22 28 23 29 24 30 25 31 26 32 27 33 28 34 29 35
REMARK SMILES IDX 81 36 30 37 80 38 31 39 32 40 33 41 74 42 34 43 79 44 73 45
REMARK SMILES IDX 75 46 35 47 78 48 72 49 71 50 36 52 62 53 45 54 61 55 46 56
REMARK SMILES IDX 49 57 60 58 76 59 47 60 48 61 59 63 77 64 50 65 37 66 38 67
REMARK SMILES IDX 43 68 39 69 40 70 42 71 44 72 41 73 63 74 64 75 69 76 65 77
REMARK SMILES IDX 66 78 68 79 70 80 67 81 51 82 52 83 57 84 53 85 54 86 56 87
REMARK SMILES IDX 58 88 55 89
REMARK H PARENT 1 24 1 25 15 27 75 51 49 62
REMARK Flexibility Score: inf
ROOT
ATOM      1  C   UNL A   1      32.121  30.123  27.256  1.00  0.00     0.202 C 
ENDROOT
BRANCH   1   2
ATOM      2  C   UNL A   1      31.760  28.636  27.183  1.00  0.00     0.261 C 
BRANCH   2   3
ATOM      3  O   UNL A   1      32.948  27.827  27.248  1.00  0.00    -0.460 OA
BRANCH   3   4
ATOM      4  C   UNL A   1      33.924  28.160  26.372  1.00  0.00     0.342 C 
ATOM      5  O   UNL A   1      34.982  28.718  26.626  1.00  0.00    -0.246 OA
BRANCH   4   6
ATOM      6  C   UNL A   1      33.659  27.566  25.043  1.00  0.00     0.104 A 
ATOM      7  C   UNL A   1      33.384  25.651  23.571  1.00  0.00     0.087 A 
ATOM      8  C   UNL A   1      33.290  26.523  22.479  1.00  0.00     0.034 A 
ATOM      9  C   UNL A   1      33.584  26.180  24.855  1.00  0.00     0.049 A 
ATOM     10  C   UNL A   1      33.372  27.904  22.660  1.00  0.00     0.049 A 
ATOM     11  C   UNL A   1      33.549  28.422  23.938  1.00  0.00     0.130 A 
BRANCH   7  12
ATOM     12  N   UNL A   1      33.328  24.262  23.346  1.00  0.00    -0.151 NA
ATOM     13  N   UNL A   1      33.452  23.644  24.424  1.00  0.00    -0.151 NA
BRANCH  13  14
ATOM     14  C   UNL A   1      33.364  22.244  24.268  1.00  0.00     0.086 A 
ATOM     15  C   UNL A   1      33.197  19.440  24.164  1.00  0.00     0.082 A 
ATOM     16  C   UNL A   1      34.147  20.050  24.985  1.00  0.00     0.024 A 
ATOM     17  C   UNL A   1      32.330  20.213  23.391  1.00  0.00     0.024 A 
ATOM     18  C   UNL A   1      34.226  21.446  25.031  1.00  0.00     0.031 A 
ATOM     19  C   UNL A   1      32.414  21.609  23.450  1.00  0.00     0.031 A 
BRANCH  15  20
ATOM     20  S   UNL A   1      33.095  17.673  24.182  1.00  0.00     0.238 S 
ATOM     21  O   UNL A   1      32.075  17.290  25.130  1.00  0.00    -0.207 OA
ATOM     22  O   UNL A   1      34.436  17.142  24.214  1.00  0.00    -0.207 OA
BRANCH  20  23
ATOM     23  N   UNL A   1      32.474  17.263  22.676  1.00  0.00    -0.225 NA
ATOM     24  H   UNL A   1      32.897  17.854  21.960  1.00  0.00     0.137 HD
ATOM     25  H   UNL A   1      31.463  17.401  22.675  1.00  0.00     0.137 HD
ENDBRANCH  20  23
ENDBRANCH  15  20
ENDBRANCH  13  14
ENDBRANCH   7  12
BRANCH  11  26
ATOM     26  O   UNL A   1      33.642  29.785  24.030  1.00  0.00    -0.507 OA
ATOM     27  H   UNL A   1      32.870  30.313  23.967  1.00  0.00     0.293 HD
ENDBRANCH  11  26
ENDBRANCH   4   6
ENDBRANCH   3   4
ENDBRANCH   2   3
ENDBRANCH   1   2
BRANCH   1  28
ATOM     28  O   UNL A   1      31.620  30.910  26.175  1.00  0.00    -0.374 OA
BRANCH  28  29
ATOM     29  C   UNL A   1      31.351  32.286  26.463  1.00  0.00     0.202 C 
BRANCH  29  30
ATOM     30  C   UNL A   1      32.562  33.095  26.940  1.00  0.00     0.261 C 
BRANCH  30  31
ATOM     31  O   UNL A   1      32.203  33.948  28.043  1.00  0.00    -0.460 OA
BRANCH  31  32
ATOM     32  C   UNL A   1      33.213  34.706  28.533  1.00  0.00     0.338 C 
ATOM     33  O   UNL A   1      33.169  35.881  28.849  1.00  0.00    -0.246 OA
BRANCH  32  34
ATOM     34  C   UNL A   1      34.387  33.853  28.812  1.00  0.00     0.060 A 
ATOM     35  C   UNL A   1      34.154  32.639  29.470  1.00  0.00     0.016 A 
ATOM     36  C   UNL A   1      35.689  34.246  28.492  1.00  0.00     0.016 A 
ATOM     37  C   UNL A   1      35.225  31.837  29.858  1.00  0.00     0.010 A 
ATOM     38  C   UNL A   1      36.765  33.443  28.890  1.00  0.00     0.010 A 
ATOM     39  C   UNL A   1      36.538  32.254  29.605  1.00  0.00    -0.014 A 
BRANCH  39  40
ATOM     40  C   UNL A   1      37.668  31.519  30.223  1.00  0.00     0.031 A 
ATOM     41  C   UNL A   1      38.005  31.781  31.665  1.00  0.00     0.074 A 
ATOM     42  C   UNL A   1      38.355  30.594  29.527  1.00  0.00     0.049 A 
ATOM     43  N   UNL A   1      38.959  31.273  32.401  1.00  0.00    -0.248 NA
ATOM     44  C   UNL A   1      37.144  32.743  32.375  1.00  0.00     0.031 C 
ATOM     45  C   UNL A   1      38.094  30.212  28.141  1.00  0.00     0.029 A 
ATOM     46  N   UNL A   1      39.417  29.809  29.900  1.00  0.00    -0.354 N 
ATOM     47  C   UNL A   1      38.810  31.843  33.659  1.00  0.00     0.074 A 
ATOM     48  C   UNL A   1      37.698  32.763  33.579  1.00  0.00     0.031 C 
ATOM     49  C   UNL A   1      38.980  29.268  27.776  1.00  0.00     0.029 A 
ATOM     50  C   UNL A   1      39.885  29.002  28.892  1.00  0.00     0.049 A 
ATOM     51  H   UNL A   1      39.807  29.823  30.804  1.00  0.00     0.167 HD
ATOM     52  C   UNL A   1      39.528  31.611  34.784  1.00  0.00     0.037 A 
ATOM     53  C   UNL A   1      40.935  28.159  28.872  1.00  0.00     0.037 A 
ATOM     54  C   UNL A   1      40.642  30.706  34.865  1.00  0.00     0.049 A 
ATOM     55  C   UNL A   1      41.775  27.992  30.111  1.00  0.00     0.074 A 
ATOM     56  C   UNL A   1      41.448  30.423  35.956  1.00  0.00     0.029 A 
ATOM     57  N   UNL A   1      41.110  29.936  33.812  1.00  0.00    -0.354 N 
ATOM     58  N   UNL A   1      41.624  28.535  31.295  1.00  0.00    -0.248 NA
ATOM     59  C   UNL A   1      42.935  27.092  30.010  1.00  0.00     0.031 C 
ATOM     60  C   UNL A   1      42.422  29.503  35.553  1.00  0.00     0.029 A 
ATOM     61  C   UNL A   1      42.199  29.186  34.223  1.00  0.00     0.049 A 
ATOM     62  H   UNL A   1      40.724  29.924  32.907  1.00  0.00     0.167 HD
ATOM     63  C   UNL A   1      42.644  28.018  32.084  1.00  0.00     0.074 A 
ATOM     64  C   UNL A   1      43.403  27.112  31.250  1.00  0.00     0.031 C 
ATOM     65  C   UNL A   1      42.928  28.271  33.386  1.00  0.00     0.037 A 
BRANCH  52  66
ATOM     66  C   UNL A   1      39.131  32.358  36.021  1.00  0.00     0.057 A 
ATOM     67  C   UNL A   1      38.269  31.794  36.971  1.00  0.00     0.134 A 
ATOM     68  C   UNL A   1      39.647  33.631  36.289  1.00  0.00     0.134 A 
ATOM     69  F   UNL A   1      37.728  30.583  36.764  1.00  0.00    -0.206 F 
ATOM     70  C   UNL A   1      37.924  32.477  38.138  1.00  0.00     0.040 A 
ATOM     71  C   UNL A   1      39.326  34.315  37.463  1.00  0.00     0.040 A 
ATOM     72  F   UNL A   1      40.479  34.225  35.421  1.00  0.00    -0.206 F 
ATOM     73  C   UNL A   1      38.460  33.739  38.390  1.00  0.00     0.006 A 
ENDBRANCH  52  66
BRANCH  53  74
ATOM     74  C   UNL A   1      41.278  27.413  27.634  1.00  0.00     0.057 A 
ATOM     75  C   UNL A   1      40.808  26.112  27.419  1.00  0.00     0.134 A 
ATOM     76  C   UNL A   1      42.128  27.961  26.668  1.00  0.00     0.134 A 
ATOM     77  F   UNL A   1      40.011  25.524  28.323  1.00  0.00    -0.206 F 
ATOM     78  C   UNL A   1      41.191  25.374  26.298  1.00  0.00     0.040 A 
ATOM     79  C   UNL A   1      42.500  27.243  25.530  1.00  0.00     0.040 A 
ATOM     80  F   UNL A   1      42.613  29.203  26.816  1.00  0.00    -0.206 F 
ATOM     81  C   UNL A   1      42.040  25.941  25.348  1.00  0.00     0.006 A 
ENDBRANCH  53  74
BRANCH  65  82
ATOM     82  C   UNL A   1      44.073  27.521  33.998  1.00  0.00     0.057 A 
ATOM     83  C   UNL A   1      43.901  26.262  34.587  1.00  0.00     0.134 A 
ATOM     84  C   UNL A   1      45.369  28.049  33.961  1.00  0.00     0.134 A 
ATOM     85  F   UNL A   1      42.683  25.708  34.664  1.00  0.00    -0.206 F 
ATOM     86  C   UNL A   1      44.977  25.564  35.139  1.00  0.00     0.040 A 
ATOM     87  C   UNL A   1      46.456  27.350  34.489  1.00  0.00     0.040 A 
ATOM     88  F   UNL A   1      45.602  29.246  33.403  1.00  0.00    -0.206 F 
ATOM     89  C   UNL A   1      46.260  26.106  35.085  1.00  0.00     0.006 A 
ENDBRANCH  65  82
ENDBRANCH  39  40
ENDBRANCH  32  34
ENDBRANCH  31  32
ENDBRANCH  30  31
ENDBRANCH  29  30
ENDBRANCH  28  29
ENDBRANCH   1  28
TORSDOF 19
ENDMDL
MODEL 3
REMARK VINA RESULT:     -11.2      2.779      9.262
REMARK SMILES NS(=O)(=O)c1ccc(/N=N/c2ccc(O)c(C(=O)OCCOCCOC(=O)c3ccc(-c4c5nc(c(-c6c(F)cccc6F)c6ccc([nH]6)c(-c6c(F)cccc6F)c6nc(c(-c7c(F)cccc7F)c7ccc4[nH]7)C=C6)C=C5)cc3)c2)cc1
REMARK SMILES IDX 21 1 20 2 19 3 17 4 18 5 16 6 11 7 12 8 82 9 13 10 14 11
REMARK SMILES IDX 10 12 9 13 8 14 5 15 6 16 84 17 7 18 83 19 2 20 3 21 4 22
REMARK SMILES IDX 1 23 15 26 22 28 23 29 24 30 25 31 26 32 27 33 28 34 29 35
REMARK SMILES IDX 81 36 30 37 80 38 31 39 32 40 33 41 74 42 34 43 79 44 73 45
REMARK SMILES IDX 75 46 35 47 78 48 72 49 71 50 36 52 62 53 45 54 61 55 46 56
REMARK SMILES IDX 49 57 60 58 76 59 47 60 48 61 59 63 77 64 50 65 37 66 38 67
REMARK SMILES IDX 43 68 39 69 40 70 42 71 44 72 41 73 63 74 64 75 69 76 65 77
REMARK SMILES IDX 66 78 68 79 70 80 67 81 51 82 52 83 57 84 53 85 54 86 56 87
REMARK SMILES IDX 58 88 55 89
REMARK H PARENT 1 24 1 25 15 27 75 51 49 62
REMARK Flexibility Score: inf
ROOT
ATOM      1  C   UNL A   1      31.908  29.592  27.248  1.00  0.00     0.202 C 
ENDROOT
BRANCH   1   2
ATOM      2  C   UNL A   1      32.440  28.299  26.621  1.00  0.00     0.261 C 
BRANCH   2   3
ATOM      3  O   UNL A   1      31.479  27.756  25.698  1.00  0.00    -0.460 OA
BRANCH   3   4
ATOM      4  C   UNL A   1      31.950  26.798  24.867  1.00  0.00     0.342 C 
ATOM      5  O   UNL A   1      32.373  26.951  23.730  1.00  0.00    -0.246 OA
BRANCH   4   6
ATOM      6  C   UNL A   1      32.103  25.513  25.585  1.00  0.00     0.104 A 
ATOM      7  C   UNL A   1      33.449  23.644  26.365  1.00  0.00     0.087 A 
ATOM      8  C   UNL A   1      32.286  23.022  26.837  1.00  0.00     0.034 A 
ATOM      9  C   UNL A   1      33.350  24.888  25.724  1.00  0.00     0.049 A 
ATOM     10  C   UNL A   1      31.041  23.638  26.694  1.00  0.00     0.049 A 
ATOM     11  C   UNL A   1      30.953  24.880  26.076  1.00  0.00     0.130 A 
BRANCH   7  12
ATOM     12  N   UNL A   1      34.683  22.980  26.499  1.00  0.00    -0.151 NA
ATOM     13  N   UNL A   1      35.407  23.207  25.506  1.00  0.00    -0.151 NA
BRANCH  13  14
ATOM     14  C   UNL A   1      36.677  22.599  25.601  1.00  0.00     0.086 A 
ATOM     15  C   UNL A   1      39.213  21.450  25.989  1.00  0.00     0.082 A 
ATOM     16  C   UNL A   1      38.960  22.747  26.440  1.00  0.00     0.024 A 
ATOM     17  C   UNL A   1      38.215  20.719  25.343  1.00  0.00     0.024 A 
ATOM     18  C   UNL A   1      37.697  23.313  26.243  1.00  0.00     0.031 A 
ATOM     19  C   UNL A   1      36.952  21.295  25.157  1.00  0.00     0.031 A 
BRANCH  15  20
ATOM     20  S   UNL A   1      40.807  20.753  26.312  1.00  0.00     0.238 S 
ATOM     21  O   UNL A   1      41.809  21.728  25.949  1.00  0.00    -0.207 OA
ATOM     22  O   UNL A   1      40.817  19.397  25.819  1.00  0.00    -0.207 OA
BRANCH  20  23
ATOM     23  N   UNL A   1      40.893  20.635  27.986  1.00  0.00    -0.225 NA
ATOM     24  H   UNL A   1      40.649  21.533  28.404  1.00  0.00     0.137 HD
ATOM     25  H   UNL A   1      41.841  20.379  28.261  1.00  0.00     0.137 HD
ENDBRANCH  20  23
ENDBRANCH  15  20
ENDBRANCH  13  14
ENDBRANCH   7  12
BRANCH  11  26
ATOM     26  O   UNL A   1      29.695  25.406  25.955  1.00  0.00    -0.507 OA
ATOM     27  H   UNL A   1      29.389  26.039  26.575  1.00  0.00     0.293 HD
ENDBRANCH  11  26
ENDBRANCH   4   6
ENDBRANCH   3   4
ENDBRANCH   2   3
ENDBRANCH   1   2
BRANCH   1  28
ATOM     28  O   UNL A   1      32.359  30.789  26.614  1.00  0.00    -0.374 OA
BRANCH  28  29
ATOM     29  C   UNL A   1      31.404  31.848  26.504  1.00  0.00     0.202 C 
BRANCH  29  30
ATOM     30  C   UNL A   1      31.982  33.259  26.657  1.00  0.00     0.261 C 
BRANCH  30  31
ATOM     31  O   UNL A   1      32.150  33.595  28.047  1.00  0.00    -0.460 OA
BRANCH  31  32
ATOM     32  C   UNL A   1      33.186  34.424  28.315  1.00  0.00     0.338 C 
ATOM     33  O   UNL A   1      33.149  35.635  28.449  1.00  0.00    -0.246 OA
BRANCH  32  34
ATOM     34  C   UNL A   1      34.397  33.630  28.609  1.00  0.00     0.060 A 
ATOM     35  C   UNL A   1      34.207  32.328  29.089  1.00  0.00     0.016 A 
ATOM     36  C   UNL A   1      35.685  34.154  28.475  1.00  0.00     0.016 A 
ATOM     37  C   UNL A   1      35.301  31.562  29.486  1.00  0.00     0.010 A 
ATOM     38  C   UNL A   1      36.783  33.387  28.882  1.00  0.00     0.010 A 
ATOM     39  C   UNL A   1      36.593  32.102  29.422  1.00  0.00    -0.014 A 
BRANCH  39  40
ATOM     40  C   UNL A   1      37.718  31.378  30.061  1.00  0.00     0.031 A 
ATOM     41  C   UNL A   1      38.025  31.642  31.509  1.00  0.00     0.074 A 
ATOM     42  C   UNL A   1      38.427  30.461  29.377  1.00  0.00     0.049 A 
ATOM     43  N   UNL A   1      38.970  31.142  32.262  1.00  0.00    -0.248 NA
ATOM     44  C   UNL A   1      37.141  32.594  32.204  1.00  0.00     0.031 C 
ATOM     45  C   UNL A   1      38.196  30.078  27.985  1.00  0.00     0.029 A 
ATOM     46  N   UNL A   1      39.490  29.687  29.769  1.00  0.00    -0.354 N 
ATOM     47  C   UNL A   1      38.792  31.710  33.518  1.00  0.00     0.074 A 
ATOM     48  C   UNL A   1      37.671  32.618  33.418  1.00  0.00     0.031 C 
ATOM     49  C   UNL A   1      39.099  29.144  27.636  1.00  0.00     0.029 A 
ATOM     50  C   UNL A   1      39.985  28.885  28.769  1.00  0.00     0.049 A 
ATOM     51  H   UNL A   1      39.862  29.703  30.680  1.00  0.00     0.167 HD
ATOM     52  C   UNL A   1      39.490  31.484  34.656  1.00  0.00     0.037 A 
ATOM     53  C   UNL A   1      41.044  28.054  28.767  1.00  0.00     0.037 A 
ATOM     54  C   UNL A   1      40.612  30.589  34.757  1.00  0.00     0.049 A 
ATOM     55  C   UNL A   1      41.862  27.893  30.022  1.00  0.00     0.074 A 
ATOM     56  C   UNL A   1      41.399  30.313  35.863  1.00  0.00     0.029 A 
ATOM     57  N   UNL A   1      41.107  29.826  33.712  1.00  0.00    -0.354 N 
ATOM     58  N   UNL A   1      41.683  28.433  31.204  1.00  0.00    -0.248 NA
ATOM     59  C   UNL A   1      43.033  27.005  29.942  1.00  0.00     0.031 C 
ATOM     60  C   UNL A   1      42.390  29.404  35.478  1.00  0.00     0.029 A 
ATOM     61  C   UNL A   1      42.196  29.087  34.143  1.00  0.00     0.049 A 
ATOM     62  H   UNL A   1      40.739  29.812  32.800  1.00  0.00     0.167 HD
ATOM     63  C   UNL A   1      42.693  27.926  32.012  1.00  0.00     0.074 A 
ATOM     64  C   UNL A   1      43.477  27.028  31.191  1.00  0.00     0.031 C 
ATOM     65  C   UNL A   1      42.950  28.180  33.318  1.00  0.00     0.037 A 
BRANCH  52  66
ATOM     66  C   UNL A   1      39.062  32.225  35.886  1.00  0.00     0.057 A 
ATOM     67  C   UNL A   1      39.471  33.544  36.124  1.00  0.00     0.134 A 
ATOM     68  C   UNL A   1      38.199  31.637  36.817  1.00  0.00     0.134 A 
ATOM     69  F   UNL A   1      40.311  34.159  35.276  1.00  0.00    -0.206 F 
ATOM     70  C   UNL A   1      39.047  34.246  37.253  1.00  0.00     0.040 A 
ATOM     71  C   UNL A   1      37.751  32.336  37.939  1.00  0.00     0.040 A 
ATOM     72  F   UNL A   1      37.768  30.378  36.645  1.00  0.00    -0.206 F 
ATOM     73  C   UNL A   1      38.177  33.644  38.161  1.00  0.00     0.006 A 
ENDBRANCH  52  66
BRANCH  53  74
ATOM     74  C   UNL A   1      41.417  27.313  27.536  1.00  0.00     0.057 A 
ATOM     75  C   UNL A   1      41.016  25.986  27.338  1.00  0.00     0.134 A 
ATOM     76  C   UNL A   1      42.230  27.894  26.557  1.00  0.00     0.134 A 
ATOM     77  F   UNL A   1      40.259  25.366  28.255  1.00  0.00    -0.206 F 
ATOM     78  C   UNL A   1      41.431  25.256  26.223  1.00  0.00     0.040 A 
ATOM     79  C   UNL A   1      42.633  27.184  25.425  1.00  0.00     0.040 A 
ATOM     80  F   UNL A   1      42.649  29.162  26.688  1.00  0.00    -0.206 F 
ATOM     81  C   UNL A   1      42.241  25.857  25.261  1.00  0.00     0.006 A 
ENDBRANCH  53  74
BRANCH  65  82
ATOM     82  C   UNL A   1      44.090  27.441  33.951  1.00  0.00     0.057 A 
ATOM     83  C   UNL A   1      45.404  27.921  33.896  1.00  0.00     0.134 A 
ATOM     84  C   UNL A   1      43.863  26.254  34.659  1.00  0.00     0.134 A 
ATOM     85  F   UNL A   1      45.689  29.046  33.223  1.00  0.00    -0.206 F 
ATOM     86  C   UNL A   1      46.457  27.234  34.503  1.00  0.00     0.040 A 
ATOM     87  C   UNL A   1      44.903  25.571  35.290  1.00  0.00     0.040 A 
ATOM     88  F   UNL A   1      42.626  25.745  34.757  1.00  0.00    -0.206 F 
ATOM     89  C   UNL A   1      46.206  26.058  35.208  1.00  0.00     0.006 A 
ENDBRANCH  65  82
ENDBRANCH  39  40
ENDBRANCH  32  34
ENDBRANCH  31  32
ENDBRANCH  30  31
ENDBRANCH  29  30
ENDBRANCH  28  29
ENDBRANCH   1  28
TORSDOF 19
ENDMDL
