MODEL 1
REMARK VINA RESULT:      -8.8      0.000      0.000
REMARK SMILES CCc1ccc(C[N@H+]2CC[C@@H](C(=O)OCCOCCOC(=O)c3ccc(-c4c5nc(c(-c6c(F)cccc6F)c6ccc([nH]6)c(-c6c(F)cccc6F)c6nc(c(-c7c(F)cccc7F)c7ccc4[nH]7)C=C6)C=C5)cc3)[C@@H]2C)cc1
REMARK SMILES IDX 16 1 15 2 14 3 12 4 13 5 11 6 8 7 9 8 77 9 10 11 78 12 7 13
REMARK SMILES IDX 6 14 3 15 4 16 80 17 5 18 79 19 2 20 1 21 17 22 18 23 19 24
REMARK SMILES IDX 20 25 21 26 22 27 23 28 24 29 76 30 25 31 75 32 26 33 27 34
REMARK SMILES IDX 28 35 69 36 29 37 74 38 68 39 70 40 30 41 73 42 67 43 66 44
REMARK SMILES IDX 31 46 57 47 40 48 56 49 41 50 44 51 55 52 71 53 42 54 43 55
REMARK SMILES IDX 54 57 72 58 45 59 32 60 33 61 38 62 34 63 35 64 37 65 39 66
REMARK SMILES IDX 36 67 58 68 59 69 64 70 60 71 61 72 63 73 65 74 62 75 46 76
REMARK SMILES IDX 47 77 52 78 48 79 49 80 51 81 53 82 50 83
REMARK H PARENT 8 10 70 45 44 56
REMARK Flexibility Score: inf
ROOT
ATOM      1  C   UNL A   1      33.165  34.716  28.751  1.00  0.00     0.202 C 
ENDROOT
BRANCH   1   2
ATOM      2  C   UNL A   1      33.329  35.236  30.181  1.00  0.00     0.261 C 
BRANCH   2   3
ATOM      3  O   UNL A   1      33.805  34.210  31.071  1.00  0.00    -0.463 OA
BRANCH   3   4
ATOM      4  C   UNL A   1      34.268  34.613  32.281  1.00  0.00     0.315 C 
ATOM      5  O   UNL A   1      33.600  35.210  33.118  1.00  0.00    -0.252 OA
BRANCH   4   6
ATOM      6  C   UNL A   1      35.735  34.305  32.489  1.00  0.00     0.162 C 
ATOM      7  N   UNL A   1      37.202  32.473  33.083  1.00  0.00    -0.328 N 
ATOM      8  C   UNL A   1      37.566  32.987  31.761  1.00  0.00     0.263 C 
ATOM      9  C   UNL A   1      36.082  33.295  33.595  1.00  0.00     0.195 C 
ATOM     10  H   UNL A   1      37.990  32.573  33.723  1.00  0.00     0.348 HD
ATOM     11  C   UNL A   1      36.343  33.709  31.233  1.00  0.00     0.083 C 
ATOM     12  C   UNL A   1      36.529  33.988  34.883  1.00  0.00     0.076 C 
BRANCH   7  13
ATOM     13  C   UNL A   1      36.986  31.013  33.123  1.00  0.00     0.299 C 
BRANCH  13  14
ATOM     14  C   UNL A   1      38.225  30.166  33.320  1.00  0.00     0.006 A 
ATOM     15  C   UNL A   1      40.650  28.736  33.289  1.00  0.00    -0.048 A 
ATOM     16  C   UNL A   1      39.503  28.214  32.691  1.00  0.00     0.004 A 
ATOM     17  C   UNL A   1      40.552  29.939  33.991  1.00  0.00     0.004 A 
ATOM     18  C   UNL A   1      38.297  28.902  32.730  1.00  0.00     0.010 A 
ATOM     19  C   UNL A   1      39.348  30.650  34.006  1.00  0.00     0.010 A 
BRANCH  15  20
ATOM     20  C   UNL A   1      41.923  27.950  33.237  1.00  0.00     0.032 C 
ATOM     21  C   UNL A   1      42.612  27.601  34.538  1.00  0.00     0.009 C 
ENDBRANCH  15  20
ENDBRANCH  13  14
ENDBRANCH   7  13
ENDBRANCH   4   6
ENDBRANCH   3   4
ENDBRANCH   2   3
ENDBRANCH   1   2
BRANCH   1  22
ATOM     22  O   UNL A   1      34.366  34.683  27.982  1.00  0.00    -0.374 OA
BRANCH  22  23
ATOM     23  C   UNL A   1      35.073  33.446  27.979  1.00  0.00     0.202 C 
BRANCH  23  24
ATOM     24  C   UNL A   1      34.227  32.201  28.275  1.00  0.00     0.261 C 
BRANCH  24  25
ATOM     25  O   UNL A   1      34.262  31.228  27.213  1.00  0.00    -0.460 OA
BRANCH  25  26
ATOM     26  C   UNL A   1      34.460  29.946  27.615  1.00  0.00     0.338 C 
ATOM     27  O   UNL A   1      33.664  29.022  27.537  1.00  0.00    -0.246 OA
BRANCH  26  28
ATOM     28  C   UNL A   1      35.858  29.745  28.060  1.00  0.00     0.060 A 
ATOM     29  C   UNL A   1      36.879  29.941  27.121  1.00  0.00     0.016 A 
ATOM     30  C   UNL A   1      36.178  29.339  29.359  1.00  0.00     0.016 A 
ATOM     31  C   UNL A   1      38.214  29.701  27.463  1.00  0.00     0.010 A 
ATOM     32  C   UNL A   1      37.520  29.109  29.703  1.00  0.00     0.010 A 
ATOM     33  C   UNL A   1      38.550  29.262  28.752  1.00  0.00    -0.014 A 
BRANCH  33  34
ATOM     34  C   UNL A   1      39.950  28.862  29.087  1.00  0.00     0.031 A 
ATOM     35  C   UNL A   1      40.846  29.834  29.781  1.00  0.00     0.074 A 
ATOM     36  C   UNL A   1      40.441  27.642  28.793  1.00  0.00     0.049 A 
ATOM     37  N   UNL A   1      42.094  29.681  30.138  1.00  0.00    -0.248 NA
ATOM     38  C   UNL A   1      40.257  31.128  30.154  1.00  0.00     0.031 C 
ATOM     39  C   UNL A   1      39.642  26.570  28.246  1.00  0.00     0.029 A 
ATOM     40  N   UNL A   1      41.691  27.084  28.888  1.00  0.00    -0.354 N 
ATOM     41  C   UNL A   1      42.435  30.846  30.802  1.00  0.00     0.074 A 
ATOM     42  C   UNL A   1      41.282  31.722  30.747  1.00  0.00     0.031 C 
ATOM     43  C   UNL A   1      40.407  25.513  27.949  1.00  0.00     0.029 A 
ATOM     44  C   UNL A   1      41.774  25.826  28.330  1.00  0.00     0.049 A 
ATOM     45  H   UNL A   1      42.454  27.538  29.314  1.00  0.00     0.167 HD
ATOM     46  C   UNL A   1      43.598  31.139  31.427  1.00  0.00     0.037 A 
ATOM     47  C   UNL A   1      42.822  25.002  28.149  1.00  0.00     0.037 A 
ATOM     48  C   UNL A   1      44.744  30.267  31.461  1.00  0.00     0.049 A 
ATOM     49  C   UNL A   1      44.141  25.409  28.726  1.00  0.00     0.074 A 
ATOM     50  C   UNL A   1      45.961  30.473  32.085  1.00  0.00     0.029 A 
ATOM     51  N   UNL A   1      44.825  29.033  30.829  1.00  0.00    -0.354 N 
ATOM     52  N   UNL A   1      44.436  26.495  29.397  1.00  0.00    -0.248 NA
ATOM     53  C   UNL A   1      45.260  24.472  28.566  1.00  0.00     0.031 C 
ATOM     54  C   UNL A   1      46.799  29.396  31.777  1.00  0.00     0.029 A 
ATOM     55  C   UNL A   1      46.087  28.489  31.008  1.00  0.00     0.049 A 
ATOM     56  H   UNL A   1      44.092  28.607  30.327  1.00  0.00     0.167 HD
ATOM     57  C   UNL A   1      45.763  26.362  29.768  1.00  0.00     0.074 A 
ATOM     58  C   UNL A   1      46.212  25.080  29.260  1.00  0.00     0.031 C 
ATOM     59  C   UNL A   1      46.532  27.223  30.476  1.00  0.00     0.037 A 
BRANCH  46  60
ATOM     60  C   UNL A   1      43.684  32.476  32.098  1.00  0.00     0.057 A 
ATOM     61  C   UNL A   1      43.985  33.644  31.385  1.00  0.00     0.134 A 
ATOM     62  C   UNL A   1      43.463  32.595  33.474  1.00  0.00     0.134 A 
ATOM     63  F   UNL A   1      44.230  33.592  30.066  1.00  0.00    -0.206 F 
ATOM     64  C   UNL A   1      44.088  34.881  32.022  1.00  0.00     0.040 A 
ATOM     65  C   UNL A   1      43.536  33.829  34.118  1.00  0.00     0.040 A 
ATOM     66  F   UNL A   1      43.175  31.513  34.214  1.00  0.00    -0.206 F 
ATOM     67  C   UNL A   1      43.856  34.975  33.394  1.00  0.00     0.006 A 
ENDBRANCH  46  60
BRANCH  47  68
ATOM     68  C   UNL A   1      42.657  23.713  27.425  1.00  0.00     0.057 A 
ATOM     69  C   UNL A   1      42.820  23.625  26.039  1.00  0.00     0.134 A 
ATOM     70  C   UNL A   1      42.328  22.535  28.109  1.00  0.00     0.134 A 
ATOM     71  F   UNL A   1      43.124  24.719  25.325  1.00  0.00    -0.206 F 
ATOM     72  C   UNL A   1      42.640  22.420  25.354  1.00  0.00     0.040 A 
ATOM     73  C   UNL A   1      42.166  21.318  27.440  1.00  0.00     0.040 A 
ATOM     74  F   UNL A   1      42.164  22.545  29.440  1.00  0.00    -0.206 F 
ATOM     75  C   UNL A   1      42.315  21.262  26.056  1.00  0.00     0.006 A 
ENDBRANCH  47  68
BRANCH  59  76
ATOM     76  C   UNL A   1      47.947  26.801  30.737  1.00  0.00     0.057 A 
ATOM     77  C   UNL A   1      48.284  25.997  31.832  1.00  0.00     0.134 A 
ATOM     78  C   UNL A   1      48.980  27.190  29.876  1.00  0.00     0.134 A 
ATOM     79  F   UNL A   1      47.342  25.609  32.707  1.00  0.00    -0.206 F 
ATOM     80  C   UNL A   1      49.602  25.615  32.077  1.00  0.00     0.040 A 
ATOM     81  C   UNL A   1      50.297  26.789  30.093  1.00  0.00     0.040 A 
ATOM     82  F   UNL A   1      48.724  27.959  28.805  1.00  0.00    -0.206 F 
ATOM     83  C   UNL A   1      50.612  26.005  31.200  1.00  0.00     0.006 A 
ENDBRANCH  59  76
ENDBRANCH  33  34
ENDBRANCH  26  28
ENDBRANCH  25  26
ENDBRANCH  24  25
ENDBRANCH  23  24
ENDBRANCH  22  23
ENDBRANCH   1  22
TORSDOF 17
ENDMDL
MODEL 2
REMARK VINA RESULT:      -8.8      4.942      9.804
REMARK SMILES CCc1ccc(C[N@H+]2CC[C@@H](C(=O)OCCOCCOC(=O)c3ccc(-c4c5nc(c(-c6c(F)cccc6F)c6ccc([nH]6)c(-c6c(F)cccc6F)c6nc(c(-c7c(F)cccc7F)c7ccc4[nH]7)C=C6)C=C5)cc3)[C@@H]2C)cc1
REMARK SMILES IDX 16 1 15 2 14 3 12 4 13 5 11 6 8 7 9 8 77 9 10 11 78 12 7 13
REMARK SMILES IDX 6 14 3 15 4 16 80 17 5 18 79 19 2 20 1 21 17 22 18 23 19 24
REMARK SMILES IDX 20 25 21 26 22 27 23 28 24 29 76 30 25 31 75 32 26 33 27 34
REMARK SMILES IDX 28 35 69 36 29 37 74 38 68 39 70 40 30 41 73 42 67 43 66 44
REMARK SMILES IDX 31 46 57 47 40 48 56 49 41 50 44 51 55 52 71 53 42 54 43 55
REMARK SMILES IDX 54 57 72 58 45 59 32 60 33 61 38 62 34 63 35 64 37 65 39 66
REMARK SMILES IDX 36 67 58 68 59 69 64 70 60 71 61 72 63 73 65 74 62 75 46 76
REMARK SMILES IDX 47 77 52 78 48 79 49 80 51 81 53 82 50 83
REMARK H PARENT 8 10 70 45 44 56
REMARK Flexibility Score: inf
ROOT
ATOM      1  C   UNL A   1      37.655  23.165  25.754  1.00  0.00     0.202 C 
ENDROOT
BRANCH   1   2
ATOM      2  C   UNL A   1      37.066  23.337  24.352  1.00  0.00     0.261 C 
BRANCH   2   3
ATOM      3  O   UNL A   1      35.722  23.853  24.397  1.00  0.00    -0.463 OA
BRANCH   3   4
ATOM      4  C   UNL A   1      34.768  23.136  23.751  1.00  0.00     0.315 C 
ATOM      5  O   UNL A   1      34.417  23.328  22.593  1.00  0.00    -0.252 OA
BRANCH   4   6
ATOM      6  C   UNL A   1      34.117  22.088  24.629  1.00  0.00     0.162 C 
ATOM      7  N   UNL A   1      32.137  21.737  25.977  1.00  0.00    -0.328 N 
ATOM      8  C   UNL A   1      32.207  20.717  24.928  1.00  0.00     0.263 C 
ATOM      9  C   UNL A   1      33.336  22.597  25.852  1.00  0.00     0.195 C 
ATOM     10  H   UNL A   1      32.157  21.293  26.894  1.00  0.00     0.348 HD
ATOM     11  C   UNL A   1      33.100  21.283  23.843  1.00  0.00     0.083 C 
ATOM     12  C   UNL A   1      34.155  22.489  27.139  1.00  0.00     0.076 C 
BRANCH   7  13
ATOM     13  C   UNL A   1      30.848  22.454  26.036  1.00  0.00     0.299 C 
BRANCH  13  14
ATOM     14  C   UNL A   1      30.822  23.825  25.395  1.00  0.00     0.006 A 
ATOM     15  C   UNL A   1      30.337  26.330  24.204  1.00  0.00    -0.048 A 
ATOM     16  C   UNL A   1      30.395  25.169  23.433  1.00  0.00     0.004 A 
ATOM     17  C   UNL A   1      30.623  26.243  25.568  1.00  0.00     0.004 A 
ATOM     18  C   UNL A   1      30.664  23.936  24.011  1.00  0.00     0.010 A 
ATOM     19  C   UNL A   1      30.862  24.998  26.159  1.00  0.00     0.010 A 
BRANCH  15  20
ATOM     20  C   UNL A   1      30.062  27.640  23.534  1.00  0.00     0.032 C 
ATOM     21  C   UNL A   1      30.734  28.884  24.073  1.00  0.00     0.009 C 
ENDBRANCH  15  20
ENDBRANCH  13  14
ENDBRANCH   7  13
ENDBRANCH   4   6
ENDBRANCH   3   4
ENDBRANCH   2   3
ENDBRANCH   1   2
BRANCH   1  22
ATOM     22  O   UNL A   1      38.478  22.012  25.923  1.00  0.00    -0.374 OA
BRANCH  22  23
ATOM     23  C   UNL A   1      38.041  20.829  25.259  1.00  0.00     0.202 C 
BRANCH  23  24
ATOM     24  C   UNL A   1      38.989  19.628  25.356  1.00  0.00     0.261 C 
BRANCH  24  25
ATOM     25  O   UNL A   1      39.840  19.672  26.519  1.00  0.00    -0.460 OA
BRANCH  25  26
ATOM     26  C   UNL A   1      41.171  19.629  26.257  1.00  0.00     0.338 C 
ATOM     27  O   UNL A   1      41.793  18.700  25.763  1.00  0.00    -0.246 OA
BRANCH  26  28
ATOM     28  C   UNL A   1      41.802  20.943  26.522  1.00  0.00     0.060 A 
ATOM     29  C   UNL A   1      41.934  21.347  27.857  1.00  0.00     0.016 A 
ATOM     30  C   UNL A   1      42.228  21.789  25.494  1.00  0.00     0.016 A 
ATOM     31  C   UNL A   1      42.460  22.606  28.168  1.00  0.00     0.010 A 
ATOM     32  C   UNL A   1      42.766  23.047  25.810  1.00  0.00     0.010 A 
ATOM     33  C   UNL A   1      42.863  23.480  27.149  1.00  0.00    -0.014 A 
BRANCH  33  34
ATOM     34  C   UNL A   1      43.288  24.879  27.459  1.00  0.00     0.031 A 
ATOM     35  C   UNL A   1      42.277  25.863  27.950  1.00  0.00     0.074 A 
ATOM     36  C   UNL A   1      44.563  25.292  27.324  1.00  0.00     0.049 A 
ATOM     37  N   UNL A   1      42.445  27.122  28.254  1.00  0.00    -0.248 NA
ATOM     38  C   UNL A   1      40.911  25.360  28.157  1.00  0.00     0.031 C 
ATOM     39  C   UNL A   1      45.657  24.410  26.989  1.00  0.00     0.029 A 
ATOM     40  N   UNL A   1      45.170  26.517  27.430  1.00  0.00    -0.354 N 
ATOM     41  C   UNL A   1      41.217  27.559  28.717  1.00  0.00     0.074 A 
ATOM     42  C   UNL A   1      40.295  26.447  28.597  1.00  0.00     0.031 C 
ATOM     43  C   UNL A   1      46.787  25.104  26.810  1.00  0.00     0.029 A 
ATOM     44  C   UNL A   1      46.499  26.506  27.062  1.00  0.00     0.049 A 
ATOM     45  H   UNL A   1      44.702  27.327  27.740  1.00  0.00     0.167 HD
ATOM     46  C   UNL A   1      40.901  28.773  29.224  1.00  0.00     0.037 A 
ATOM     47  C   UNL A   1      47.398  27.500  26.947  1.00  0.00     0.037 A 
ATOM     48  C   UNL A   1      41.821  29.876  29.323  1.00  0.00     0.049 A 
ATOM     49  C   UNL A   1      46.985  28.871  27.381  1.00  0.00     0.074 A 
ATOM     50  C   UNL A   1      41.596  31.139  29.840  1.00  0.00     0.029 A 
ATOM     51  N   UNL A   1      43.137  29.858  28.878  1.00  0.00    -0.354 N 
ATOM     52  N   UNL A   1      45.831  29.259  27.865  1.00  0.00    -0.248 NA
ATOM     53  C   UNL A   1      47.997  29.932  27.300  1.00  0.00     0.031 C 
ATOM     54  C   UNL A   1      42.751  31.904  29.649  1.00  0.00     0.029 A 
ATOM     55  C   UNL A   1      43.719  31.102  29.064  1.00  0.00     0.049 A 
ATOM     56  H   UNL A   1      43.590  29.075  28.488  1.00  0.00     0.167 HD
ATOM     57  C   UNL A   1      45.983  30.599  28.176  1.00  0.00     0.074 A 
ATOM     58  C   UNL A   1      47.348  30.954  27.841  1.00  0.00     0.031 C 
ATOM     59  C   UNL A   1      45.072  31.452  28.703  1.00  0.00     0.037 A 
BRANCH  46  60
ATOM     60  C   UNL A   1      39.488  28.964  29.682  1.00  0.00     0.057 A 
ATOM     61  C   UNL A   1      38.484  29.419  28.816  1.00  0.00     0.134 A 
ATOM     62  C   UNL A   1      39.128  28.691  31.006  1.00  0.00     0.134 A 
ATOM     63  F   UNL A   1      38.772  29.720  27.540  1.00  0.00    -0.206 F 
ATOM     64  C   UNL A   1      37.176  29.618  29.258  1.00  0.00     0.040 A 
ATOM     65  C   UNL A   1      37.818  28.860  31.452  1.00  0.00     0.040 A 
ATOM     66  F   UNL A   1      40.044  28.258  31.885  1.00  0.00    -0.206 F 
ATOM     67  C   UNL A   1      36.839  29.332  30.580  1.00  0.00     0.006 A 
ENDBRANCH  46  60
BRANCH  47  68
ATOM     68  C   UNL A   1      48.767  27.228  26.434  1.00  0.00     0.057 A 
ATOM     69  C   UNL A   1      49.828  26.933  27.297  1.00  0.00     0.134 A 
ATOM     70  C   UNL A   1      49.047  27.261  25.061  1.00  0.00     0.134 A 
ATOM     71  F   UNL A   1      49.629  26.897  28.622  1.00  0.00    -0.206 F 
ATOM     72  C   UNL A   1      51.120  26.701  26.818  1.00  0.00     0.040 A 
ATOM     73  C   UNL A   1      50.330  27.011  24.567  1.00  0.00     0.040 A 
ATOM     74  F   UNL A   1      48.075  27.530  24.177  1.00  0.00    -0.206 F 
ATOM     75  C   UNL A   1      51.373  26.737  25.449  1.00  0.00     0.006 A 
ENDBRANCH  47  68
BRANCH  59  76
ATOM     76  C   UNL A   1      45.531  32.859  28.943  1.00  0.00     0.057 A 
ATOM     77  C   UNL A   1      46.183  33.228  30.126  1.00  0.00     0.134 A 
ATOM     78  C   UNL A   1      45.330  33.852  27.977  1.00  0.00     0.134 A 
ATOM     79  F   UNL A   1      46.385  32.327  31.101  1.00  0.00    -0.206 F 
ATOM     80  C   UNL A   1      46.598  34.540  30.350  1.00  0.00     0.040 A 
ATOM     81  C   UNL A   1      45.768  35.160  28.176  1.00  0.00     0.040 A 
ATOM     82  F   UNL A   1      44.713  33.564  26.820  1.00  0.00    -0.206 F 
ATOM     83  C   UNL A   1      46.398  35.509  29.369  1.00  0.00     0.006 A 
ENDBRANCH  59  76
ENDBRANCH  33  34
ENDBRANCH  26  28
ENDBRANCH  25  26
ENDBRANCH  24  25
ENDBRANCH  23  24
ENDBRANCH  22  23
ENDBRANCH   1  22
TORSDOF 17
ENDMDL
MODEL 3
REMARK VINA RESULT:      -8.8      4.407      7.870
REMARK SMILES CCc1ccc(C[N@H+]2CC[C@@H](C(=O)OCCOCCOC(=O)c3ccc(-c4c5nc(c(-c6c(F)cccc6F)c6ccc([nH]6)c(-c6c(F)cccc6F)c6nc(c(-c7c(F)cccc7F)c7ccc4[nH]7)C=C6)C=C5)cc3)[C@@H]2C)cc1
REMARK SMILES IDX 16 1 15 2 14 3 12 4 13 5 11 6 8 7 9 8 77 9 10 11 78 12 7 13
REMARK SMILES IDX 6 14 3 15 4 16 80 17 5 18 79 19 2 20 1 21 17 22 18 23 19 24
REMARK SMILES IDX 20 25 21 26 22 27 23 28 24 29 76 30 25 31 75 32 26 33 27 34
REMARK SMILES IDX 28 35 69 36 29 37 74 38 68 39 70 40 30 41 73 42 67 43 66 44
REMARK SMILES IDX 31 46 57 47 40 48 56 49 41 50 44 51 55 52 71 53 42 54 43 55
REMARK SMILES IDX 54 57 72 58 45 59 32 60 33 61 38 62 34 63 35 64 37 65 39 66
REMARK SMILES IDX 36 67 58 68 59 69 64 70 60 71 61 72 63 73 65 74 62 75 46 76
REMARK SMILES IDX 47 77 52 78 48 79 49 80 51 81 53 82 50 83
REMARK H PARENT 8 10 70 45 44 56
REMARK Flexibility Score: inf
ROOT
ATOM      1  C   UNL A   1      32.688  29.916  25.824  1.00  0.00     0.202 C 
ENDROOT
BRANCH   1   2
ATOM      2  C   UNL A   1      31.408  29.276  25.280  1.00  0.00     0.261 C 
BRANCH   2   3
ATOM      3  O   UNL A   1      31.641  28.588  24.037  1.00  0.00    -0.463 OA
BRANCH   3   4
ATOM      4  C   UNL A   1      31.171  27.318  23.941  1.00  0.00     0.315 C 
ATOM      5  O   UNL A   1      30.030  26.975  24.226  1.00  0.00    -0.252 OA
BRANCH   4   6
ATOM      6  C   UNL A   1      32.226  26.327  23.496  1.00  0.00     0.162 C 
ATOM      7  N   UNL A   1      33.078  24.127  24.034  1.00  0.00    -0.328 N 
ATOM      8  C   UNL A   1      32.610  24.149  22.646  1.00  0.00     0.263 C 
ATOM      9  C   UNL A   1      32.892  25.484  24.595  1.00  0.00     0.195 C 
ATOM     10  H   UNL A   1      34.073  23.904  24.061  1.00  0.00     0.348 HD
ATOM     11  C   UNL A   1      31.637  25.305  22.543  1.00  0.00     0.083 C 
ATOM     12  C   UNL A   1      34.258  26.042  24.996  1.00  0.00     0.076 C 
BRANCH   7  13
ATOM     13  C   UNL A   1      32.518  23.025  24.842  1.00  0.00     0.299 C 
BRANCH  13  14
ATOM     14  C   UNL A   1      33.065  21.645  24.548  1.00  0.00     0.006 A 
ATOM     15  C   UNL A   1      33.968  18.981  24.416  1.00  0.00    -0.048 A 
ATOM     16  C   UNL A   1      34.781  19.989  24.935  1.00  0.00     0.004 A 
ATOM     17  C   UNL A   1      32.732  19.333  23.869  1.00  0.00     0.004 A 
ATOM     18  C   UNL A   1      34.353  21.308  24.975  1.00  0.00     0.010 A 
ATOM     19  C   UNL A   1      32.283  20.655  23.936  1.00  0.00     0.010 A 
BRANCH  15  20
ATOM     20  C   UNL A   1      34.481  17.575  24.377  1.00  0.00     0.032 C 
ATOM     21  C   UNL A   1      34.040  16.675  23.244  1.00  0.00     0.009 C 
ENDBRANCH  15  20
ENDBRANCH  13  14
ENDBRANCH   7  13
ENDBRANCH   4   6
ENDBRANCH   3   4
ENDBRANCH   2   3
ENDBRANCH   1   2
BRANCH   1  22
ATOM     22  O   UNL A   1      32.493  30.819  26.911  1.00  0.00    -0.374 OA
BRANCH  22  23
ATOM     23  C   UNL A   1      31.551  31.866  26.693  1.00  0.00     0.202 C 
BRANCH  23  24
ATOM     24  C   UNL A   1      32.111  33.290  26.794  1.00  0.00     0.261 C 
BRANCH  24  25
ATOM     25  O   UNL A   1      32.176  33.778  28.148  1.00  0.00    -0.460 OA
BRANCH  25  26
ATOM     26  C   UNL A   1      33.234  34.587  28.416  1.00  0.00     0.338 C 
ATOM     27  O   UNL A   1      33.236  35.808  28.437  1.00  0.00    -0.246 OA
BRANCH  26  28
ATOM     28  C   UNL A   1      34.412  33.791  28.832  1.00  0.00     0.060 A 
ATOM     29  C   UNL A   1      34.184  32.526  29.388  1.00  0.00     0.016 A 
ATOM     30  C   UNL A   1      35.718  34.275  28.717  1.00  0.00     0.016 A 
ATOM     31  C   UNL A   1      35.252  31.756  29.861  1.00  0.00     0.010 A 
ATOM     32  C   UNL A   1      36.789  33.495  29.183  1.00  0.00     0.010 A 
ATOM     33  C   UNL A   1      36.566  32.239  29.784  1.00  0.00    -0.014 A 
BRANCH  33  34
ATOM     34  C   UNL A   1      37.697  31.494  30.416  1.00  0.00     0.031 A 
ATOM     35  C   UNL A   1      38.071  31.787  31.832  1.00  0.00     0.074 A 
ATOM     36  C   UNL A   1      38.396  30.550  29.756  1.00  0.00     0.049 A 
ATOM     37  N   UNL A   1      39.029  31.262  32.547  1.00  0.00    -0.248 NA
ATOM     38  C   UNL A   1      37.241  32.768  32.545  1.00  0.00     0.031 C 
ATOM     39  C   UNL A   1      38.053  30.079  28.434  1.00  0.00     0.029 A 
ATOM     40  N   UNL A   1      39.519  29.825  30.065  1.00  0.00    -0.354 N 
ATOM     41  C   UNL A   1      38.904  31.825  33.805  1.00  0.00     0.074 A 
ATOM     42  C   UNL A   1      37.814  32.778  33.740  1.00  0.00     0.031 C 
ATOM     43  C   UNL A   1      38.978  29.226  27.980  1.00  0.00     0.029 A 
ATOM     44  C   UNL A   1      39.982  29.056  29.017  1.00  0.00     0.049 A 
ATOM     45  H   UNL A   1      39.952  29.850  30.949  1.00  0.00     0.167 HD
ATOM     46  C   UNL A   1      39.619  31.545  34.919  1.00  0.00     0.037 A 
ATOM     47  C   UNL A   1      41.080  28.289  28.896  1.00  0.00     0.037 A 
ATOM     48  C   UNL A   1      40.711  30.608  34.968  1.00  0.00     0.049 A 
ATOM     49  C   UNL A   1      41.942  28.102  30.104  1.00  0.00     0.074 A 
ATOM     50  C   UNL A   1      41.484  30.245  36.057  1.00  0.00     0.029 A 
ATOM     51  N   UNL A   1      41.203  29.899  33.879  1.00  0.00    -0.354 N 
ATOM     52  N   UNL A   1      41.781  28.604  31.304  1.00  0.00    -0.248 NA
ATOM     53  C   UNL A   1      43.105  27.218  29.967  1.00  0.00     0.031 C 
ATOM     54  C   UNL A   1      42.481  29.370  35.616  1.00  0.00     0.029 A 
ATOM     55  C   UNL A   1      42.298  29.139  34.261  1.00  0.00     0.049 A 
ATOM     56  H   UNL A   1      40.828  29.932  32.969  1.00  0.00     0.167 HD
ATOM     57  C   UNL A   1      42.801  28.074  32.075  1.00  0.00     0.074 A 
ATOM     58  C   UNL A   1      43.567  27.199  31.209  1.00  0.00     0.031 C 
ATOM     59  C   UNL A   1      43.069  28.290  33.385  1.00  0.00     0.037 A 
BRANCH  46  60
ATOM     60  C   UNL A   1      39.247  32.291  36.163  1.00  0.00     0.057 A 
ATOM     61  C   UNL A   1      38.331  31.775  37.090  1.00  0.00     0.134 A 
ATOM     62  C   UNL A   1      39.813  33.541  36.437  1.00  0.00     0.134 A 
ATOM     63  F   UNL A   1      37.737  30.591  36.873  1.00  0.00    -0.206 F 
ATOM     64  C   UNL A   1      37.972  32.489  38.234  1.00  0.00     0.040 A 
ATOM     65  C   UNL A   1      39.483  34.251  37.591  1.00  0.00     0.040 A 
ATOM     66  F   UNL A   1      40.693  34.091  35.587  1.00  0.00    -0.206 F 
ATOM     67  C   UNL A   1      38.555  33.729  38.489  1.00  0.00     0.006 A 
ENDBRANCH  46  60
BRANCH  47  68
ATOM     68  C   UNL A   1      41.400  27.624  27.604  1.00  0.00     0.057 A 
ATOM     69  C   UNL A   1      41.007  26.308  27.340  1.00  0.00     0.134 A 
ATOM     70  C   UNL A   1      42.114  28.295  26.601  1.00  0.00     0.134 A 
ATOM     71  F   UNL A   1      40.331  25.608  28.263  1.00  0.00    -0.206 F 
ATOM     72  C   UNL A   1      41.329  25.674  26.137  1.00  0.00     0.040 A 
ATOM     73  C   UNL A   1      42.425  27.680  25.385  1.00  0.00     0.040 A 
ATOM     74  F   UNL A   1      42.515  29.560  26.785  1.00  0.00    -0.206 F 
ATOM     75  C   UNL A   1      42.037  26.362  25.155  1.00  0.00     0.006 A 
ENDBRANCH  47  68
BRANCH  59  76
ATOM     76  C   UNL A   1      44.248  27.563  33.958  1.00  0.00     0.057 A 
ATOM     77  C   UNL A   1      44.128  26.275  34.494  1.00  0.00     0.134 A 
ATOM     78  C   UNL A   1      45.519  28.151  33.961  1.00  0.00     0.134 A 
ATOM     79  F   UNL A   1      42.932  25.666  34.540  1.00  0.00    -0.206 F 
ATOM     80  C   UNL A   1      45.225  25.606  35.035  1.00  0.00     0.040 A 
ATOM     81  C   UNL A   1      46.629  27.480  34.471  1.00  0.00     0.040 A 
ATOM     82  F   UNL A   1      45.702  29.382  33.460  1.00  0.00    -0.206 F 
ATOM     83  C   UNL A   1      46.482  26.206  35.017  1.00  0.00     0.006 A 
ENDBRANCH  59  76
ENDBRANCH  33  34
ENDBRANCH  26  28
ENDBRANCH  25  26
ENDBRANCH  24  25
ENDBRANCH  23  24
ENDBRANCH  22  23
ENDBRANCH   1  22
TORSDOF 17
ENDMDL
