MODEL 1
REMARK VINA RESULT:     -10.0      0.000      0.000
REMARK SMILES C[C@@H](C[N@H+](C)[C@H]1CSCC(C)(C)C1)C(=O)OCCOCCOC(=O)c1ccc(-c2c3nc(c(-c4c(F)cccc4F)c4ccc([nH]4)c(-c4c(F)cccc4F)c4nc(c(-c5c(F)cccc5F)c5ccc2[nH]5)C=C4)C=C3)cc1
REMARK SMILES IDX 18 1 17 2 16 3 14 4 15 5 2 6 1 7 3 8 4 9 5 10 6 12 7 13
REMARK SMILES IDX 13 14 8 15 10 16 9 17 11 18 12 19 19 20 20 21 21 22 22 23
REMARK SMILES IDX 23 24 24 25 25 26 26 27 78 28 27 29 77 30 28 31 29 32 30 33
REMARK SMILES IDX 71 34 31 35 76 36 70 37 72 38 32 39 75 40 69 41 68 42 33 44
REMARK SMILES IDX 59 45 42 46 58 47 43 48 46 49 57 50 73 51 44 52 45 53 56 55
REMARK SMILES IDX 74 56 47 57 34 58 35 59 40 60 36 61 37 62 39 63 41 64 38 65
REMARK SMILES IDX 60 66 61 67 66 68 62 69 63 70 65 71 67 72 64 73 48 74 49 75
REMARK SMILES IDX 54 76 50 77 51 78 53 79 55 80 52 81
REMARK H PARENT 4 11 72 43 46 54
REMARK Flexibility Score: inf
ROOT
ATOM      1  C   UNL A   1      33.996  34.688  29.019  1.00  0.00     0.202 C 
ENDROOT
BRANCH   1   2
ATOM      2  C   UNL A   1      33.487  33.726  27.951  1.00  0.00     0.261 C 
BRANCH   2   3
ATOM      3  O   UNL A   1      33.756  32.354  28.307  1.00  0.00    -0.463 OA
BRANCH   3   4
ATOM      4  C   UNL A   1      34.912  31.878  27.778  1.00  0.00     0.314 C 
ATOM      5  O   UNL A   1      35.919  32.557  27.607  1.00  0.00    -0.252 OA
BRANCH   4   6
ATOM      6  C   UNL A   1      34.841  30.438  27.325  1.00  0.00     0.151 C 
ATOM      7  C   UNL A   1      35.821  29.451  27.945  1.00  0.00     0.026 C 
BRANCH   6   8
ATOM      8  C   UNL A   1      33.363  29.999  27.219  1.00  0.00     0.277 C 
BRANCH   8   9
ATOM      9  N   UNL A   1      32.817  29.548  25.927  1.00  0.00    -0.334 N 
ATOM     10  C   UNL A   1      31.630  30.352  25.593  1.00  0.00     0.333 C 
ATOM     11  H   UNL A   1      33.602  29.695  25.291  1.00  0.00     0.348 HD
BRANCH   9  12
ATOM     12  C   UNL A   1      32.520  28.101  25.726  1.00  0.00     0.194 C 
ATOM     13  C   UNL A   1      31.211  28.004  24.929  1.00  0.00     0.134 C 
ATOM     14  C   UNL A   1      33.640  27.192  25.152  1.00  0.00     0.073 C 
ATOM     15  S   UNL A   1      30.547  26.335  24.933  1.00  0.00    -0.155 SA
ATOM     16  C   UNL A   1      33.269  25.684  24.962  1.00  0.00    -0.021 C 
ATOM     17  C   UNL A   1      31.960  25.512  24.164  1.00  0.00     0.076 C 
ATOM     18  C   UNL A   1      33.182  24.967  26.325  1.00  0.00     0.012 C 
ATOM     19  C   UNL A   1      34.387  24.977  24.163  1.00  0.00     0.012 C 
ENDBRANCH   9  12
ENDBRANCH   8   9
ENDBRANCH   6   8
ENDBRANCH   4   6
ENDBRANCH   3   4
ENDBRANCH   2   3
ENDBRANCH   1   2
BRANCH   1  20
ATOM     20  O   UNL A   1      33.149  34.800  30.164  1.00  0.00    -0.374 OA
BRANCH  20  21
ATOM     21  C   UNL A   1      33.791  34.925  31.427  1.00  0.00     0.202 C 
BRANCH  21  22
ATOM     22  C   UNL A   1      34.439  33.648  31.979  1.00  0.00     0.261 C 
BRANCH  22  23
ATOM     23  O   UNL A   1      35.868  33.702  32.139  1.00  0.00    -0.460 OA
BRANCH  23  24
ATOM     24  C   UNL A   1      36.384  32.719  32.915  1.00  0.00     0.338 C 
ATOM     25  O   UNL A   1      36.154  32.530  34.110  1.00  0.00    -0.246 OA
BRANCH  24  26
ATOM     26  C   UNL A   1      37.268  31.817  32.153  1.00  0.00     0.060 A 
ATOM     27  C   UNL A   1      38.190  31.033  32.860  1.00  0.00     0.016 A 
ATOM     28  C   UNL A   1      37.314  31.865  30.758  1.00  0.00     0.016 A 
ATOM     29  C   UNL A   1      39.194  30.337  32.177  1.00  0.00     0.010 A 
ATOM     30  C   UNL A   1      38.326  31.175  30.077  1.00  0.00     0.010 A 
ATOM     31  C   UNL A   1      39.295  30.437  30.784  1.00  0.00    -0.014 A 
BRANCH  31  32
ATOM     32  C   UNL A   1      40.493  29.916  30.073  1.00  0.00     0.031 A 
ATOM     33  C   UNL A   1      41.623  30.857  29.760  1.00  0.00     0.074 A 
ATOM     34  C   UNL A   1      40.588  28.630  29.687  1.00  0.00     0.049 A 
ATOM     35  N   UNL A   1      42.737  30.630  29.111  1.00  0.00    -0.248 NA
ATOM     36  C   UNL A   1      41.484  32.236  30.256  1.00  0.00     0.031 C 
ATOM     37  C   UNL A   1      39.605  27.594  29.969  1.00  0.00     0.029 A 
ATOM     38  N   UNL A   1      41.547  27.983  28.948  1.00  0.00    -0.354 N 
ATOM     39  C   UNL A   1      43.439  31.826  29.136  1.00  0.00     0.074 A 
ATOM     40  C   UNL A   1      42.608  32.791  29.827  1.00  0.00     0.031 C 
ATOM     41  C   UNL A   1      39.965  26.457  29.351  1.00  0.00     0.029 A 
ATOM     42  C   UNL A   1      41.218  26.685  28.639  1.00  0.00     0.049 A 
ATOM     43  H   UNL A   1      42.390  28.408  28.666  1.00  0.00     0.167 HD
ATOM     44  C   UNL A   1      44.672  32.092  28.646  1.00  0.00     0.037 A 
ATOM     45  C   UNL A   1      41.844  25.782  27.861  1.00  0.00     0.037 A 
ATOM     46  C   UNL A   1      45.496  31.145  27.943  1.00  0.00     0.049 A 
ATOM     47  C   UNL A   1      43.163  26.132  27.234  1.00  0.00     0.074 A 
ATOM     48  C   UNL A   1      46.774  31.320  27.440  1.00  0.00     0.029 A 
ATOM     49  N   UNL A   1      45.117  29.850  27.628  1.00  0.00    -0.354 N 
ATOM     50  N   UNL A   1      43.846  27.248  27.317  1.00  0.00    -0.248 NA
ATOM     51  C   UNL A   1      43.810  25.092  26.421  1.00  0.00     0.031 C 
ATOM     52  C   UNL A   1      47.150  30.146  26.779  1.00  0.00     0.029 A 
ATOM     53  C   UNL A   1      46.123  29.225  26.907  1.00  0.00     0.049 A 
ATOM     54  H   UNL A   1      44.260  29.435  27.878  1.00  0.00     0.167 HD
ATOM     55  C   UNL A   1      45.017  27.031  26.604  1.00  0.00     0.074 A 
ATOM     56  C   UNL A   1      44.953  25.679  26.091  1.00  0.00     0.031 C 
ATOM     57  C   UNL A   1      46.056  27.878  26.404  1.00  0.00     0.037 A 
BRANCH  44  58
ATOM     58  C   UNL A   1      45.200  33.481  28.846  1.00  0.00     0.057 A 
ATOM     59  C   UNL A   1      45.009  34.483  27.888  1.00  0.00     0.134 A 
ATOM     60  C   UNL A   1      45.880  33.824  30.020  1.00  0.00     0.134 A 
ATOM     61  F   UNL A   1      44.377  34.213  26.736  1.00  0.00    -0.206 F 
ATOM     62  C   UNL A   1      45.495  35.778  28.081  1.00  0.00     0.040 A 
ATOM     63  C   UNL A   1      46.351  35.121  30.234  1.00  0.00     0.040 A 
ATOM     64  F   UNL A   1      46.092  32.910  30.979  1.00  0.00    -0.206 F 
ATOM     65  C   UNL A   1      46.163  36.100  29.261  1.00  0.00     0.006 A 
ENDBRANCH  44  58
BRANCH  45  66
ATOM     66  C   UNL A   1      41.234  24.450  27.635  1.00  0.00     0.057 A 
ATOM     67  C   UNL A   1      41.698  23.315  28.307  1.00  0.00     0.134 A 
ATOM     68  C   UNL A   1      40.184  24.280  26.724  1.00  0.00     0.134 A 
ATOM     69  F   UNL A   1      42.716  23.413  29.174  1.00  0.00    -0.206 F 
ATOM     70  C   UNL A   1      41.151  22.052  28.071  1.00  0.00     0.040 A 
ATOM     71  C   UNL A   1      39.614  23.027  26.493  1.00  0.00     0.040 A 
ATOM     72  F   UNL A   1      39.698  25.330  26.047  1.00  0.00    -0.206 F 
ATOM     73  C   UNL A   1      40.103  21.908  27.162  1.00  0.00     0.006 A 
ENDBRANCH  45  66
BRANCH  57  74
ATOM     74  C   UNL A   1      47.227  27.356  25.626  1.00  0.00     0.057 A 
ATOM     75  C   UNL A   1      47.342  27.551  24.244  1.00  0.00     0.134 A 
ATOM     76  C   UNL A   1      48.270  26.683  26.275  1.00  0.00     0.134 A 
ATOM     77  F   UNL A   1      46.370  28.174  23.561  1.00  0.00    -0.206 F 
ATOM     78  C   UNL A   1      48.447  27.080  23.533  1.00  0.00     0.040 A 
ATOM     79  C   UNL A   1      49.389  26.228  25.578  1.00  0.00     0.040 A 
ATOM     80  F   UNL A   1      48.224  26.469  27.599  1.00  0.00    -0.206 F 
ATOM     81  C   UNL A   1      49.478  26.423  24.201  1.00  0.00     0.006 A 
ENDBRANCH  57  74
ENDBRANCH  31  32
ENDBRANCH  24  26
ENDBRANCH  23  24
ENDBRANCH  22  23
ENDBRANCH  21  22
ENDBRANCH  20  21
ENDBRANCH   1  20
TORSDOF 17
ENDMDL
MODEL 2
REMARK VINA RESULT:      -9.8      4.106      8.088
REMARK SMILES C[C@@H](C[N@H+](C)[C@H]1CSCC(C)(C)C1)C(=O)OCCOCCOC(=O)c1ccc(-c2c3nc(c(-c4c(F)cccc4F)c4ccc([nH]4)c(-c4c(F)cccc4F)c4nc(c(-c5c(F)cccc5F)c5ccc2[nH]5)C=C4)C=C3)cc1
REMARK SMILES IDX 18 1 17 2 16 3 14 4 15 5 2 6 1 7 3 8 4 9 5 10 6 12 7 13
REMARK SMILES IDX 13 14 8 15 10 16 9 17 11 18 12 19 19 20 20 21 21 22 22 23
REMARK SMILES IDX 23 24 24 25 25 26 26 27 78 28 27 29 77 30 28 31 29 32 30 33
REMARK SMILES IDX 71 34 31 35 76 36 70 37 72 38 32 39 75 40 69 41 68 42 33 44
REMARK SMILES IDX 59 45 42 46 58 47 43 48 46 49 57 50 73 51 44 52 45 53 56 55
REMARK SMILES IDX 74 56 47 57 34 58 35 59 40 60 36 61 37 62 39 63 41 64 38 65
REMARK SMILES IDX 60 66 61 67 66 68 62 69 63 70 65 71 67 72 64 73 48 74 49 75
REMARK SMILES IDX 54 76 50 77 51 78 53 79 55 80 52 81
REMARK H PARENT 4 11 72 43 46 54
REMARK Flexibility Score: inf
ROOT
ATOM      1  C   UNL A   1      32.509  29.860  27.081  1.00  0.00     0.202 C 
ENDROOT
BRANCH   1   2
ATOM      2  C   UNL A   1      32.623  28.444  26.526  1.00  0.00     0.261 C 
BRANCH   2   3
ATOM      3  O   UNL A   1      31.387  28.016  25.916  1.00  0.00    -0.463 OA
BRANCH   3   4
ATOM      4  C   UNL A   1      31.453  27.945  24.562  1.00  0.00     0.314 C 
ATOM      5  O   UNL A   1      32.323  28.486  23.888  1.00  0.00    -0.252 OA
BRANCH   4   6
ATOM      6  C   UNL A   1      30.300  27.207  23.923  1.00  0.00     0.151 C 
ATOM      7  C   UNL A   1      29.269  28.028  23.158  1.00  0.00     0.026 C 
BRANCH   6   8
ATOM      8  C   UNL A   1      30.817  25.914  23.253  1.00  0.00     0.277 C 
BRANCH   8   9
ATOM      9  N   UNL A   1      32.258  25.736  23.004  1.00  0.00    -0.334 N 
ATOM     10  C   UNL A   1      32.486  25.583  21.558  1.00  0.00     0.333 C 
ATOM     11  H   UNL A   1      32.657  26.591  23.392  1.00  0.00     0.348 HD
BRANCH   9  12
ATOM     12  C   UNL A   1      33.001  24.678  23.747  1.00  0.00     0.194 C 
ATOM     13  C   UNL A   1      32.121  23.420  23.766  1.00  0.00     0.134 C 
ATOM     14  C   UNL A   1      34.467  24.379  23.332  1.00  0.00     0.073 C 
ATOM     15  S   UNL A   1      32.727  22.196  24.932  1.00  0.00    -0.155 SA
ATOM     16  C   UNL A   1      35.194  23.259  24.147  1.00  0.00    -0.021 C 
ATOM     17  C   UNL A   1      34.364  21.960  24.205  1.00  0.00     0.076 C 
ATOM     18  C   UNL A   1      35.542  23.754  25.566  1.00  0.00     0.012 C 
ATOM     19  C   UNL A   1      36.535  22.914  23.461  1.00  0.00     0.012 C 
ENDBRANCH   9  12
ENDBRANCH   8   9
ENDBRANCH   6   8
ENDBRANCH   4   6
ENDBRANCH   3   4
ENDBRANCH   2   3
ENDBRANCH   1   2
BRANCH   1  20
ATOM     20  O   UNL A   1      32.130  30.843  26.116  1.00  0.00    -0.374 OA
BRANCH  20  21
ATOM     21  C   UNL A   1      31.250  31.870  26.558  1.00  0.00     0.202 C 
BRANCH  21  22
ATOM     22  C   UNL A   1      31.891  33.240  26.808  1.00  0.00     0.261 C 
BRANCH  22  23
ATOM     23  O   UNL A   1      32.148  33.557  28.188  1.00  0.00    -0.460 OA
BRANCH  23  24
ATOM     24  C   UNL A   1      33.215  34.368  28.389  1.00  0.00     0.338 C 
ATOM     25  O   UNL A   1      33.210  35.599  28.394  1.00  0.00    -0.246 OA
BRANCH  24  26
ATOM     26  C   UNL A   1      34.449  33.605  28.656  1.00  0.00     0.060 A 
ATOM     27  C   UNL A   1      34.332  32.283  29.105  1.00  0.00     0.016 A 
ATOM     28  C   UNL A   1      35.699  34.230  28.635  1.00  0.00     0.016 A 
ATOM     29  C   UNL A   1      35.455  31.598  29.583  1.00  0.00     0.010 A 
ATOM     30  C   UNL A   1      36.820  33.545  29.123  1.00  0.00     0.010 A 
ATOM     31  C   UNL A   1      36.699  32.239  29.636  1.00  0.00    -0.014 A 
BRANCH  31  32
ATOM     32  C   UNL A   1      37.837  31.622  30.368  1.00  0.00     0.031 A 
ATOM     33  C   UNL A   1      38.647  30.553  29.689  1.00  0.00     0.074 A 
ATOM     34  C   UNL A   1      38.154  31.983  31.625  1.00  0.00     0.049 A 
ATOM     35  N   UNL A   1      39.649  29.850  30.154  1.00  0.00    -0.248 NA
ATOM     36  C   UNL A   1      38.287  30.241  28.297  1.00  0.00     0.031 C 
ATOM     37  C   UNL A   1      37.502  33.039  32.386  1.00  0.00     0.029 A 
ATOM     38  N   UNL A   1      39.089  31.479  32.496  1.00  0.00    -0.354 N 
ATOM     39  C   UNL A   1      40.051  29.030  29.110  1.00  0.00     0.074 A 
ATOM     40  C   UNL A   1      39.158  29.289  27.999  1.00  0.00     0.031 C 
ATOM     41  C   UNL A   1      37.996  33.061  33.634  1.00  0.00     0.029 A 
ATOM     42  C   UNL A   1      39.016  32.025  33.755  1.00  0.00     0.049 A 
ATOM     43  H   UNL A   1      39.748  30.791  32.242  1.00  0.00     0.167 HD
ATOM     44  C   UNL A   1      41.083  28.154  29.073  1.00  0.00     0.037 A 
ATOM     45  C   UNL A   1      39.684  31.720  34.883  1.00  0.00     0.037 A 
ATOM     46  C   UNL A   1      41.963  27.878  30.176  1.00  0.00     0.049 A 
ATOM     47  C   UNL A   1      40.753  30.666  34.850  1.00  0.00     0.074 A 
ATOM     48  C   UNL A   1      43.056  27.029  30.216  1.00  0.00     0.029 A 
ATOM     49  N   UNL A   1      41.841  28.431  31.442  1.00  0.00    -0.354 N 
ATOM     50  N   UNL A   1      41.166  29.941  33.838  1.00  0.00    -0.248 NA
ATOM     51  C   UNL A   1      41.466  30.402  36.108  1.00  0.00     0.031 C 
ATOM     52  C   UNL A   1      43.567  27.033  31.519  1.00  0.00     0.029 A 
ATOM     53  C   UNL A   1      42.818  27.917  32.279  1.00  0.00     0.049 A 
ATOM     54  H   UNL A   1      41.161  29.092  31.706  1.00  0.00     0.167 HD
ATOM     55  C   UNL A   1      42.209  29.165  34.327  1.00  0.00     0.074 A 
ATOM     56  C   UNL A   1      42.366  29.506  35.726  1.00  0.00     0.031 C 
ATOM     57  C   UNL A   1      42.974  28.262  33.668  1.00  0.00     0.037 A 
BRANCH  44  58
ATOM     58  C   UNL A   1      41.305  27.418  27.786  1.00  0.00     0.057 A 
ATOM     59  C   UNL A   1      42.121  27.939  26.775  1.00  0.00     0.134 A 
ATOM     60  C   UNL A   1      40.722  26.164  27.570  1.00  0.00     0.134 A 
ATOM     61  F   UNL A   1      42.698  29.142  26.917  1.00  0.00    -0.206 F 
ATOM     62  C   UNL A   1      42.334  27.247  25.581  1.00  0.00     0.040 A 
ATOM     63  C   UNL A   1      40.945  25.453  26.390  1.00  0.00     0.040 A 
ATOM     64  F   UNL A   1      39.934  25.609  28.502  1.00  0.00    -0.206 F 
ATOM     65  C   UNL A   1      41.749  25.997  25.390  1.00  0.00     0.006 A 
ENDBRANCH  44  58
BRANCH  45  66
ATOM     66  C   UNL A   1      39.365  32.428  36.146  1.00  0.00     0.057 A 
ATOM     67  C   UNL A   1      40.017  33.614  36.498  1.00  0.00     0.134 A 
ATOM     68  C   UNL A   1      38.413  31.921  37.040  1.00  0.00     0.134 A 
ATOM     69  F   UNL A   1      40.954  34.134  35.692  1.00  0.00    -0.206 F 
ATOM     70  C   UNL A   1      39.746  34.265  37.703  1.00  0.00     0.040 A 
ATOM     71  C   UNL A   1      38.118  32.572  38.238  1.00  0.00     0.040 A 
ATOM     72  F   UNL A   1      37.757  30.786  36.759  1.00  0.00    -0.206 F 
ATOM     73  C   UNL A   1      38.791  33.745  38.576  1.00  0.00     0.006 A 
ENDBRANCH  45  66
BRANCH  57  74
ATOM     74  C   UNL A   1      44.075  27.600  34.441  1.00  0.00     0.057 A 
ATOM     75  C   UNL A   1      43.899  26.355  35.058  1.00  0.00     0.134 A 
ATOM     76  C   UNL A   1      45.337  28.199  34.536  1.00  0.00     0.134 A 
ATOM     77  F   UNL A   1      42.710  25.736  35.017  1.00  0.00    -0.206 F 
ATOM     78  C   UNL A   1      44.938  25.737  35.757  1.00  0.00     0.040 A 
ATOM     79  C   UNL A   1      46.389  27.580  35.213  1.00  0.00     0.040 A 
ATOM     80  F   UNL A   1      45.572  29.389  33.962  1.00  0.00    -0.206 F 
ATOM     81  C   UNL A   1      46.189  26.347  35.829  1.00  0.00     0.006 A 
ENDBRANCH  57  74
ENDBRANCH  31  32
ENDBRANCH  24  26
ENDBRANCH  23  24
ENDBRANCH  22  23
ENDBRANCH  21  22
ENDBRANCH  20  21
ENDBRANCH   1  20
TORSDOF 17
ENDMDL
MODEL 3
REMARK VINA RESULT:      -9.6      0.916      6.362
REMARK SMILES C[C@@H](C[N@H+](C)[C@H]1CSCC(C)(C)C1)C(=O)OCCOCCOC(=O)c1ccc(-c2c3nc(c(-c4c(F)cccc4F)c4ccc([nH]4)c(-c4c(F)cccc4F)c4nc(c(-c5c(F)cccc5F)c5ccc2[nH]5)C=C4)C=C3)cc1
REMARK SMILES IDX 18 1 17 2 16 3 14 4 15 5 2 6 1 7 3 8 4 9 5 10 6 12 7 13
REMARK SMILES IDX 13 14 8 15 10 16 9 17 11 18 12 19 19 20 20 21 21 22 22 23
REMARK SMILES IDX 23 24 24 25 25 26 26 27 78 28 27 29 77 30 28 31 29 32 30 33
REMARK SMILES IDX 71 34 31 35 76 36 70 37 72 38 32 39 75 40 69 41 68 42 33 44
REMARK SMILES IDX 59 45 42 46 58 47 43 48 46 49 57 50 73 51 44 52 45 53 56 55
REMARK SMILES IDX 74 56 47 57 34 58 35 59 40 60 36 61 37 62 39 63 41 64 38 65
REMARK SMILES IDX 60 66 61 67 66 68 62 69 63 70 65 71 67 72 64 73 48 74 49 75
REMARK SMILES IDX 54 76 50 77 51 78 53 79 55 80 52 81
REMARK H PARENT 4 11 72 43 46 54
REMARK Flexibility Score: inf
ROOT
ATOM      1  C   UNL A   1      35.246  33.505  29.294  1.00  0.00     0.202 C 
ENDROOT
BRANCH   1   2
ATOM      2  C   UNL A   1      35.133  32.661  28.030  1.00  0.00     0.261 C 
BRANCH   2   3
ATOM      3  O   UNL A   1      33.763  32.301  27.756  1.00  0.00    -0.463 OA
BRANCH   3   4
ATOM      4  C   UNL A   1      33.588  30.971  27.548  1.00  0.00     0.314 C 
ATOM      5  O   UNL A   1      34.493  30.144  27.591  1.00  0.00    -0.252 OA
BRANCH   4   6
ATOM      6  C   UNL A   1      32.178  30.584  27.165  1.00  0.00     0.151 C 
ATOM      7  C   UNL A   1      31.400  31.539  26.269  1.00  0.00     0.026 C 
BRANCH   6   8
ATOM      8  C   UNL A   1      32.129  29.080  26.812  1.00  0.00     0.277 C 
BRANCH   8   9
ATOM      9  N   UNL A   1      33.006  28.539  25.760  1.00  0.00    -0.334 N 
ATOM     10  C   UNL A   1      32.820  29.315  24.523  1.00  0.00     0.333 C 
ATOM     11  H   UNL A   1      33.935  28.642  26.171  1.00  0.00     0.348 HD
BRANCH   9  12
ATOM     12  C   UNL A   1      32.962  27.081  25.452  1.00  0.00     0.194 C 
ATOM     13  C   UNL A   1      32.409  26.925  24.028  1.00  0.00     0.134 C 
ATOM     14  C   UNL A   1      34.244  26.238  25.693  1.00  0.00     0.073 C 
ATOM     15  S   UNL A   1      31.960  25.223  23.666  1.00  0.00    -0.155 SA
ATOM     16  C   UNL A   1      34.137  24.715  25.351  1.00  0.00    -0.021 C 
ATOM     17  C   UNL A   1      33.588  24.484  23.929  1.00  0.00     0.076 C 
ATOM     18  C   UNL A   1      33.277  23.979  26.399  1.00  0.00     0.012 C 
ATOM     19  C   UNL A   1      35.542  24.076  25.408  1.00  0.00     0.012 C 
ENDBRANCH   9  12
ENDBRANCH   8   9
ENDBRANCH   6   8
ENDBRANCH   4   6
ENDBRANCH   3   4
ENDBRANCH   2   3
ENDBRANCH   1   2
BRANCH   1  20
ATOM     20  O   UNL A   1      34.164  33.341  30.212  1.00  0.00    -0.374 OA
BRANCH  20  21
ATOM     21  C   UNL A   1      34.228  34.088  31.421  1.00  0.00     0.202 C 
BRANCH  21  22
ATOM     22  C   UNL A   1      34.644  33.305  32.672  1.00  0.00     0.261 C 
BRANCH  22  23
ATOM     23  O   UNL A   1      35.235  32.016  32.424  1.00  0.00    -0.460 OA
BRANCH  23  24
ATOM     24  C   UNL A   1      36.418  31.811  33.051  1.00  0.00     0.338 C 
ATOM     25  O   UNL A   1      36.720  32.173  34.188  1.00  0.00    -0.246 OA
BRANCH  24  26
ATOM     26  C   UNL A   1      37.359  31.036  32.219  1.00  0.00     0.060 A 
ATOM     27  C   UNL A   1      38.519  30.528  32.821  1.00  0.00     0.016 A 
ATOM     28  C   UNL A   1      37.197  30.957  30.834  1.00  0.00     0.016 A 
ATOM     29  C   UNL A   1      39.542  29.986  32.035  1.00  0.00     0.010 A 
ATOM     30  C   UNL A   1      38.227  30.422  30.049  1.00  0.00     0.010 A 
ATOM     31  C   UNL A   1      39.422  29.969  30.640  1.00  0.00    -0.014 A 
BRANCH  31  32
ATOM     32  C   UNL A   1      40.591  29.634  29.784  1.00  0.00     0.031 A 
ATOM     33  C   UNL A   1      40.726  28.237  29.247  1.00  0.00     0.074 A 
ATOM     34  C   UNL A   1      41.541  30.542  29.490  1.00  0.00     0.049 A 
ATOM     35  N   UNL A   1      41.683  27.715  28.522  1.00  0.00    -0.248 NA
ATOM     36  C   UNL A   1      39.629  27.306  29.557  1.00  0.00     0.031 C 
ATOM     37  C   UNL A   1      41.517  31.942  29.888  1.00  0.00     0.029 A 
ATOM     38  N   UNL A   1      42.727  30.412  28.810  1.00  0.00    -0.354 N 
ATOM     39  C   UNL A   1      41.297  26.406  28.273  1.00  0.00     0.074 A 
ATOM     40  C   UNL A   1      40.039  26.197  28.960  1.00  0.00     0.031 C 
ATOM     41  C   UNL A   1      42.665  32.531  29.517  1.00  0.00     0.029 A 
ATOM     42  C   UNL A   1      43.501  31.547  28.838  1.00  0.00     0.049 A 
ATOM     43  H   UNL A   1      42.997  29.585  28.348  1.00  0.00     0.167 HD
ATOM     44  C   UNL A   1      41.924  25.468  27.525  1.00  0.00     0.037 A 
ATOM     45  C   UNL A   1      44.748  31.770  28.381  1.00  0.00     0.037 A 
ATOM     46  C   UNL A   1      43.182  25.661  26.855  1.00  0.00     0.049 A 
ATOM     47  C   UNL A   1      45.474  30.681  27.646  1.00  0.00     0.074 A 
ATOM     48  C   UNL A   1      43.874  24.775  26.047  1.00  0.00     0.029 A 
ATOM     49  N   UNL A   1      43.947  26.815  26.928  1.00  0.00    -0.354 N 
ATOM     50  N   UNL A   1      45.071  29.465  27.364  1.00  0.00    -0.248 NA
ATOM     51  C   UNL A   1      46.819  30.998  27.146  1.00  0.00     0.031 C 
ATOM     52  C   UNL A   1      45.079  25.375  25.670  1.00  0.00     0.029 A 
ATOM     53  C   UNL A   1      45.119  26.651  26.207  1.00  0.00     0.049 A 
ATOM     54  H   UNL A   1      43.694  27.629  27.419  1.00  0.00     0.167 HD
ATOM     55  C   UNL A   1      46.093  28.888  26.622  1.00  0.00     0.074 A 
ATOM     56  C   UNL A   1      47.137  29.885  26.499  1.00  0.00     0.031 C 
ATOM     57  C   UNL A   1      46.152  27.647  26.083  1.00  0.00     0.037 A 
BRANCH  44  58
ATOM     58  C   UNL A   1      41.253  24.133  27.404  1.00  0.00     0.057 A 
ATOM     59  C   UNL A   1      40.159  23.936  26.553  1.00  0.00     0.134 A 
ATOM     60  C   UNL A   1      41.725  23.028  28.123  1.00  0.00     0.134 A 
ATOM     61  F   UNL A   1      39.653  24.959  25.848  1.00  0.00    -0.206 F 
ATOM     62  C   UNL A   1      39.542  22.689  26.437  1.00  0.00     0.040 A 
ATOM     63  C   UNL A   1      41.130  21.772  27.998  1.00  0.00     0.040 A 
ATOM     64  F   UNL A   1      42.773  23.150  28.952  1.00  0.00    -0.206 F 
ATOM     65  C   UNL A   1      40.033  21.601  27.156  1.00  0.00     0.006 A 
ENDBRANCH  44  58
BRANCH  45  66
ATOM     66  C   UNL A   1      45.391  33.089  28.600  1.00  0.00     0.057 A 
ATOM     67  C   UNL A   1      45.304  34.106  27.645  1.00  0.00     0.134 A 
ATOM     68  C   UNL A   1      46.126  33.351  29.762  1.00  0.00     0.134 A 
ATOM     69  F   UNL A   1      44.633  33.904  26.502  1.00  0.00    -0.206 F 
ATOM     70  C   UNL A   1      45.938  35.336  27.830  1.00  0.00     0.040 A 
ATOM     71  C   UNL A   1      46.749  34.582  29.969  1.00  0.00     0.040 A 
ATOM     72  F   UNL A   1      46.248  32.413  30.713  1.00  0.00    -0.206 F 
ATOM     73  C   UNL A   1      46.661  35.577  28.998  1.00  0.00     0.006 A 
ENDBRANCH  45  66
BRANCH  57  74
ATOM     74  C   UNL A   1      47.370  27.304  25.280  1.00  0.00     0.057 A 
ATOM     75  C   UNL A   1      47.473  27.624  23.921  1.00  0.00     0.134 A 
ATOM     76  C   UNL A   1      48.469  26.680  25.884  1.00  0.00     0.134 A 
ATOM     77  F   UNL A   1      46.450  28.208  23.279  1.00  0.00    -0.206 F 
ATOM     78  C   UNL A   1      48.621  27.319  23.187  1.00  0.00     0.040 A 
ATOM     79  C   UNL A   1      49.630  26.391  25.166  1.00  0.00     0.040 A 
ATOM     80  F   UNL A   1      48.437  26.352  27.185  1.00  0.00    -0.206 F 
ATOM     81  C   UNL A   1      49.707  26.708  23.811  1.00  0.00     0.006 A 
ENDBRANCH  57  74
ENDBRANCH  31  32
ENDBRANCH  24  26
ENDBRANCH  23  24
ENDBRANCH  22  23
ENDBRANCH  21  22
ENDBRANCH  20  21
ENDBRANCH   1  20
TORSDOF 17
ENDMDL
