MODEL 1
REMARK VINA RESULT:     -12.0      0.000      0.000
REMARK SMILES [NH3+][C@@H](Cc1cn(-c2nc(Cl)nc(N3CCOCC3)n2)c2ccccc12)C(=O)OCCOCCOC(=O)c1ccc(-c2c3nc(c(-c4c(F)cccc4F)c4ccc([nH]4)c(-c4c(F)cccc4F)c4nc(c(-c5c(F)cccc5F)c5ccc2[nH]5)C=C4)C=C3)cc1
REMARK SMILES IDX 30 1 29 2 28 3 26 4 27 5 2 6 1 7 3 11 4 12 5 13 25 14 6 15
REMARK SMILES IDX 20 16 24 17 21 18 23 19 22 20 7 21 8 22 19 23 9 24 12 25
REMARK SMILES IDX 10 26 11 27 13 28 14 29 18 30 15 31 17 32 16 33 31 34 32 35
REMARK SMILES IDX 33 36 34 37 35 38 36 39 37 40 38 41 90 42 39 43 89 44 40 45
REMARK SMILES IDX 41 46 42 47 83 48 43 49 88 50 82 51 84 52 44 53 87 54 81 55
REMARK SMILES IDX 80 56 45 58 71 59 54 60 70 61 55 62 58 63 69 64 85 65 56 66
REMARK SMILES IDX 57 67 68 69 86 70 59 71 46 72 47 73 52 74 48 75 49 76 51 77
REMARK SMILES IDX 53 78 50 79 72 80 73 81 78 82 74 83 75 84 77 85 79 86 76 87
REMARK SMILES IDX 60 88 61 89 66 90 62 91 63 92 65 93 67 94 64 95
REMARK H PARENT 1 8 1 9 1 10 84 57 58 68
REMARK Flexibility Score: inf
ROOT
ATOM      1  C   UNL A   1      41.313  19.443  26.242  1.00  0.00     0.202 C 
ENDROOT
BRANCH   1   2
ATOM      2  C   UNL A   1      39.867  19.591  25.750  1.00  0.00     0.261 C 
BRANCH   2   3
ATOM      3  O   UNL A   1      39.107  20.535  26.511  1.00  0.00    -0.459 OA
BRANCH   3   4
ATOM      4  C   UNL A   1      39.298  21.842  26.172  1.00  0.00     0.365 C 
ATOM      5  O   UNL A   1      40.382  22.420  26.173  1.00  0.00    -0.245 OA
BRANCH   4   6
ATOM      6  C   UNL A   1      37.991  22.549  25.796  1.00  0.00     0.296 C 
BRANCH   6   7
ATOM      7  N   UNL A   1      38.116  24.026  25.800  1.00  0.00    -0.346 N 
ATOM      8  H   UNL A   1      39.068  24.288  25.541  1.00  0.00     0.345 HD
ATOM      9  H   UNL A   1      37.909  24.382  26.734  1.00  0.00     0.345 HD
ATOM     10  H   UNL A   1      37.459  24.426  25.131  1.00  0.00     0.345 HD
ENDBRANCH   6   7
BRANCH   6  11
ATOM     11  C   UNL A   1      37.399  21.964  24.505  1.00  0.00     0.115 C 
BRANCH  11  12
ATOM     12  C   UNL A   1      35.971  22.325  24.205  1.00  0.00    -0.015 A 
ATOM     13  C   UNL A   1      35.562  23.478  23.561  1.00  0.00     0.099 A 
ATOM     14  C   UNL A   1      34.783  21.559  24.440  1.00  0.00     0.004 A 
ATOM     15  N   UNL A   1      34.183  23.499  23.481  1.00  0.00    -0.285 N 
ATOM     16  C   UNL A   1      33.683  22.340  24.061  1.00  0.00     0.056 A 
ATOM     17  C   UNL A   1      34.536  20.258  24.933  1.00  0.00     0.010 A 
ATOM     18  C   UNL A   1      32.362  21.865  24.189  1.00  0.00     0.027 A 
ATOM     19  C   UNL A   1      33.228  19.789  25.072  1.00  0.00     0.001 A 
ATOM     20  C   UNL A   1      32.155  20.586  24.706  1.00  0.00     0.002 A 
BRANCH  15  21
ATOM     21  C   UNL A   1      33.428  24.504  22.808  1.00  0.00     0.240 A 
ATOM     22  N   UNL A   1      33.318  24.455  21.489  1.00  0.00    -0.181 NA
ATOM     23  N   UNL A   1      32.953  25.491  23.567  1.00  0.00    -0.176 NA
ATOM     24  C   UNL A   1      32.618  25.464  20.991  1.00  0.00     0.228 A 
ATOM     25  C   UNL A   1      32.353  26.492  22.933  1.00  0.00     0.231 A 
ATOM     26  Cl  UNL A   1      32.498  25.490  19.288  1.00  0.00    -0.041 Cl
ATOM     27  N   UNL A   1      32.111  26.507  21.635  1.00  0.00    -0.182 NA
BRANCH  25  28
ATOM     28  N   UNL A   1      32.065  27.581  23.697  1.00  0.00    -0.336 N 
ATOM     29  C   UNL A   1      32.721  27.694  24.995  1.00  0.00     0.148 C 
ATOM     30  C   UNL A   1      31.610  28.828  23.115  1.00  0.00     0.148 C 
ATOM     31  C   UNL A   1      31.766  28.415  25.958  1.00  0.00     0.181 C 
ATOM     32  C   UNL A   1      30.663  29.477  24.144  1.00  0.00     0.181 C 
ATOM     33  O   UNL A   1      31.316  29.672  25.415  1.00  0.00    -0.378 OA
ENDBRANCH  25  28
ENDBRANCH  15  21
ENDBRANCH  11  12
ENDBRANCH   6  11
ENDBRANCH   4   6
ENDBRANCH   3   4
ENDBRANCH   2   3
ENDBRANCH   1   2
BRANCH   1  34
ATOM     34  O   UNL A   1      42.369  19.250  25.310  1.00  0.00    -0.374 OA
BRANCH  34  35
ATOM     35  C   UNL A   1      43.592  18.690  25.798  1.00  0.00     0.202 C 
BRANCH  35  36
ATOM     36  C   UNL A   1      44.894  18.894  24.994  1.00  0.00     0.261 C 
BRANCH  36  37
ATOM     37  O   UNL A   1      45.445  20.208  25.161  1.00  0.00    -0.460 OA
BRANCH  37  38
ATOM     38  C   UNL A   1      44.959  21.146  24.301  1.00  0.00     0.338 C 
ATOM     39  O   UNL A   1      44.722  21.019  23.113  1.00  0.00    -0.246 OA
BRANCH  38  40
ATOM     40  C   UNL A   1      44.366  22.183  25.165  1.00  0.00     0.060 A 
ATOM     41  C   UNL A   1      43.432  23.090  24.656  1.00  0.00     0.016 A 
ATOM     42  C   UNL A   1      45.043  22.430  26.372  1.00  0.00     0.016 A 
ATOM     43  C   UNL A   1      43.239  24.294  25.325  1.00  0.00     0.010 A 
ATOM     44  C   UNL A   1      44.884  23.656  27.006  1.00  0.00     0.010 A 
ATOM     45  C   UNL A   1      44.004  24.599  26.466  1.00  0.00    -0.014 A 
BRANCH  45  46
ATOM     46  C   UNL A   1      43.683  25.817  27.215  1.00  0.00     0.031 A 
ATOM     47  C   UNL A   1      44.651  26.918  26.946  1.00  0.00     0.074 A 
ATOM     48  C   UNL A   1      42.558  26.046  27.926  1.00  0.00     0.049 A 
ATOM     49  N   UNL A   1      45.414  27.541  27.783  1.00  0.00    -0.248 NA
ATOM     50  C   UNL A   1      44.880  27.280  25.536  1.00  0.00     0.031 C 
ATOM     51  C   UNL A   1      41.373  25.195  28.049  1.00  0.00     0.029 A 
ATOM     52  N   UNL A   1      42.199  27.167  28.624  1.00  0.00    -0.354 N 
ATOM     53  C   UNL A   1      46.101  28.491  27.028  1.00  0.00     0.074 A 
ATOM     54  C   UNL A   1      45.852  28.183  25.646  1.00  0.00     0.031 C 
ATOM     55  C   UNL A   1      40.362  25.909  28.598  1.00  0.00     0.029 A 
ATOM     56  C   UNL A   1      40.852  27.228  28.965  1.00  0.00     0.049 A 
ATOM     57  H   UNL A   1      42.842  27.873  28.864  1.00  0.00     0.167 HD
ATOM     58  C   UNL A   1      46.641  29.605  27.591  1.00  0.00     0.037 A 
ATOM     59  C   UNL A   1      40.176  28.297  29.462  1.00  0.00     0.037 A 
ATOM     60  C   UNL A   1      46.802  29.464  29.011  1.00  0.00     0.049 A 
ATOM     61  C   UNL A   1      41.171  29.251  30.001  1.00  0.00     0.074 A 
ATOM     62  C   UNL A   1      47.550  28.661  29.846  1.00  0.00     0.029 A 
ATOM     63  N   UNL A   1      45.879  30.073  29.819  1.00  0.00    -0.354 N 
ATOM     64  N   UNL A   1      41.866  29.052  31.082  1.00  0.00    -0.248 NA
ATOM     65  C   UNL A   1      41.680  30.280  29.109  1.00  0.00     0.031 C 
ATOM     66  C   UNL A   1      46.732  28.456  30.996  1.00  0.00     0.029 A 
ATOM     67  C   UNL A   1      45.561  29.192  30.816  1.00  0.00     0.049 A 
ATOM     68  H   UNL A   1      45.513  30.979  29.704  1.00  0.00     0.167 HD
ATOM     69  C   UNL A   1      43.111  29.588  30.799  1.00  0.00     0.074 A 
ATOM     70  C   UNL A   1      42.903  30.431  29.625  1.00  0.00     0.031 C 
ATOM     71  C   UNL A   1      44.237  29.076  31.376  1.00  0.00     0.037 A 
BRANCH  58  72
ATOM     72  C   UNL A   1      46.646  30.958  26.925  1.00  0.00     0.057 A 
ATOM     73  C   UNL A   1      45.481  31.688  26.610  1.00  0.00     0.134 A 
ATOM     74  C   UNL A   1      47.842  31.700  26.905  1.00  0.00     0.134 A 
ATOM     75  F   UNL A   1      44.259  31.146  26.648  1.00  0.00    -0.206 F 
ATOM     76  C   UNL A   1      45.498  33.059  26.343  1.00  0.00     0.040 A 
ATOM     77  C   UNL A   1      47.861  33.082  26.692  1.00  0.00     0.040 A 
ATOM     78  F   UNL A   1      49.017  31.118  27.188  1.00  0.00    -0.206 F 
ATOM     79  C   UNL A   1      46.684  33.768  26.424  1.00  0.00     0.006 A 
ENDBRANCH  58  72
BRANCH  59  80
ATOM     80  C   UNL A   1      38.754  28.690  29.305  1.00  0.00     0.057 A 
ATOM     81  C   UNL A   1      38.289  29.296  28.126  1.00  0.00     0.134 A 
ATOM     82  C   UNL A   1      37.883  28.745  30.405  1.00  0.00     0.134 A 
ATOM     83  F   UNL A   1      39.068  29.376  27.038  1.00  0.00    -0.206 F 
ATOM     84  C   UNL A   1      37.045  29.931  28.049  1.00  0.00     0.040 A 
ATOM     85  C   UNL A   1      36.636  29.384  30.345  1.00  0.00     0.040 A 
ATOM     86  F   UNL A   1      38.248  28.237  31.592  1.00  0.00    -0.206 F 
ATOM     87  C   UNL A   1      36.218  29.990  29.164  1.00  0.00     0.006 A 
ENDBRANCH  59  80
BRANCH  71  88
ATOM     88  C   UNL A   1      44.055  28.131  32.532  1.00  0.00     0.057 A 
ATOM     89  C   UNL A   1      44.093  28.643  33.833  1.00  0.00     0.134 A 
ATOM     90  C   UNL A   1      43.938  26.739  32.403  1.00  0.00     0.134 A 
ATOM     91  F   UNL A   1      44.263  29.958  34.040  1.00  0.00    -0.206 F 
ATOM     92  C   UNL A   1      43.994  27.815  34.955  1.00  0.00     0.040 A 
ATOM     93  C   UNL A   1      43.800  25.904  33.516  1.00  0.00     0.040 A 
ATOM     94  F   UNL A   1      43.997  26.144  31.204  1.00  0.00    -0.206 F 
ATOM     95  C   UNL A   1      43.831  26.443  34.798  1.00  0.00     0.006 A 
ENDBRANCH  71  88
ENDBRANCH  45  46
ENDBRANCH  38  40
ENDBRANCH  37  38
ENDBRANCH  36  37
ENDBRANCH  35  36
ENDBRANCH  34  35
ENDBRANCH   1  34
TORSDOF 19
ENDMDL
MODEL 2
REMARK VINA RESULT:     -11.7      1.651      2.313
REMARK SMILES [NH3+][C@@H](Cc1cn(-c2nc(Cl)nc(N3CCOCC3)n2)c2ccccc12)C(=O)OCCOCCOC(=O)c1ccc(-c2c3nc(c(-c4c(F)cccc4F)c4ccc([nH]4)c(-c4c(F)cccc4F)c4nc(c(-c5c(F)cccc5F)c5ccc2[nH]5)C=C4)C=C3)cc1
REMARK SMILES IDX 30 1 29 2 28 3 26 4 27 5 2 6 1 7 3 11 4 12 5 13 25 14 6 15
REMARK SMILES IDX 20 16 24 17 21 18 23 19 22 20 7 21 8 22 19 23 9 24 12 25
REMARK SMILES IDX 10 26 11 27 13 28 14 29 18 30 15 31 17 32 16 33 31 34 32 35
REMARK SMILES IDX 33 36 34 37 35 38 36 39 37 40 38 41 90 42 39 43 89 44 40 45
REMARK SMILES IDX 41 46 42 47 83 48 43 49 88 50 82 51 84 52 44 53 87 54 81 55
REMARK SMILES IDX 80 56 45 58 71 59 54 60 70 61 55 62 58 63 69 64 85 65 56 66
REMARK SMILES IDX 57 67 68 69 86 70 59 71 46 72 47 73 52 74 48 75 49 76 51 77
REMARK SMILES IDX 53 78 50 79 72 80 73 81 78 82 74 83 75 84 77 85 79 86 76 87
REMARK SMILES IDX 60 88 61 89 66 90 62 91 63 92 65 93 67 94 64 95
REMARK H PARENT 1 8 1 9 1 10 84 57 58 68
REMARK Flexibility Score: inf
ROOT
ATOM      1  C   UNL A   1      40.458  22.093  26.368  1.00  0.00     0.202 C 
ENDROOT
BRANCH   1   2
ATOM      2  C   UNL A   1      39.080  21.484  26.080  1.00  0.00     0.261 C 
BRANCH   2   3
ATOM      3  O   UNL A   1      38.139  22.434  25.570  1.00  0.00    -0.459 OA
BRANCH   3   4
ATOM      4  C   UNL A   1      36.993  21.899  25.060  1.00  0.00     0.365 C 
ATOM      5  O   UNL A   1      36.561  20.780  25.320  1.00  0.00    -0.245 OA
BRANCH   4   6
ATOM      6  C   UNL A   1      36.285  22.848  24.085  1.00  0.00     0.296 C 
BRANCH   6   7
ATOM      7  N   UNL A   1      37.011  22.996  22.801  1.00  0.00    -0.346 N 
ATOM      8  H   UNL A   1      36.834  22.180  22.215  1.00  0.00     0.345 HD
ATOM      9  H   UNL A   1      38.011  23.074  22.983  1.00  0.00     0.345 HD
ATOM     10  H   UNL A   1      36.686  23.836  22.322  1.00  0.00     0.345 HD
ENDBRANCH   6   7
BRANCH   6  11
ATOM     11  C   UNL A   1      34.801  22.481  23.940  1.00  0.00     0.115 C 
BRANCH  11  12
ATOM     12  C   UNL A   1      33.813  23.496  24.446  1.00  0.00    -0.015 A 
ATOM     13  C   UNL A   1      33.887  24.857  24.221  1.00  0.00     0.099 A 
ATOM     14  C   UNL A   1      32.597  23.279  25.174  1.00  0.00     0.004 A 
ATOM     15  N   UNL A   1      32.836  25.489  24.855  1.00  0.00    -0.285 N 
ATOM     16  C   UNL A   1      32.053  24.532  25.488  1.00  0.00     0.056 A 
ATOM     17  C   UNL A   1      31.895  22.126  25.589  1.00  0.00     0.010 A 
ATOM     18  C   UNL A   1      30.855  24.652  26.220  1.00  0.00     0.027 A 
ATOM     19  C   UNL A   1      30.713  22.242  26.325  1.00  0.00     0.001 A 
ATOM     20  C   UNL A   1      30.203  23.493  26.639  1.00  0.00     0.002 A 
BRANCH  15  21
ATOM     21  C   UNL A   1      32.559  26.885  24.766  1.00  0.00     0.240 A 
ATOM     22  N   UNL A   1      33.146  27.716  25.615  1.00  0.00    -0.181 NA
ATOM     23  N   UNL A   1      31.641  27.248  23.872  1.00  0.00    -0.176 NA
ATOM     24  C   UNL A   1      32.778  28.977  25.442  1.00  0.00     0.228 A 
ATOM     25  C   UNL A   1      31.289  28.530  23.867  1.00  0.00     0.231 A 
ATOM     26  Cl  UNL A   1      33.453  30.086  26.551  1.00  0.00    -0.041 Cl
ATOM     27  N   UNL A   1      31.869  29.458  24.606  1.00  0.00    -0.182 NA
BRANCH  25  28
ATOM     28  N   UNL A   1      30.208  28.838  23.101  1.00  0.00    -0.336 N 
ATOM     29  C   UNL A   1      30.429  29.637  21.901  1.00  0.00     0.148 C 
ATOM     30  C   UNL A   1      29.013  28.016  23.095  1.00  0.00     0.148 C 
ATOM     31  C   UNL A   1      29.186  30.506  21.662  1.00  0.00     0.181 C 
ATOM     32  C   UNL A   1      27.824  28.966  22.851  1.00  0.00     0.181 C 
ATOM     33  O   UNL A   1      27.984  29.711  21.626  1.00  0.00    -0.378 OA
ENDBRANCH  25  28
ENDBRANCH  15  21
ENDBRANCH  11  12
ENDBRANCH   6  11
ENDBRANCH   4   6
ENDBRANCH   3   4
ENDBRANCH   2   3
ENDBRANCH   1   2
BRANCH   1  34
ATOM     34  O   UNL A   1      41.610  21.609  25.691  1.00  0.00    -0.374 OA
BRANCH  34  35
ATOM     35  C   UNL A   1      42.202  20.396  26.166  1.00  0.00     0.202 C 
BRANCH  35  36
ATOM     36  C   UNL A   1      43.475  19.855  25.482  1.00  0.00     0.261 C 
BRANCH  36  37
ATOM     37  O   UNL A   1      44.025  20.777  24.530  1.00  0.00    -0.460 OA
BRANCH  37  38
ATOM     38  C   UNL A   1      45.309  21.158  24.779  1.00  0.00     0.338 C 
ATOM     39  O   UNL A   1      46.332  20.662  24.343  1.00  0.00    -0.246 OA
BRANCH  38  40
ATOM     40  C   UNL A   1      45.204  22.531  25.305  1.00  0.00     0.060 A 
ATOM     41  C   UNL A   1      45.793  22.877  26.524  1.00  0.00     0.016 A 
ATOM     42  C   UNL A   1      44.207  23.331  24.722  1.00  0.00     0.016 A 
ATOM     43  C   UNL A   1      45.317  23.994  27.202  1.00  0.00     0.010 A 
ATOM     44  C   UNL A   1      43.700  24.415  25.429  1.00  0.00     0.010 A 
ATOM     45  C   UNL A   1      44.235  24.728  26.682  1.00  0.00    -0.014 A 
BRANCH  45  46
ATOM     46  C   UNL A   1      43.847  25.969  27.358  1.00  0.00     0.031 A 
ATOM     47  C   UNL A   1      44.788  27.088  27.069  1.00  0.00     0.074 A 
ATOM     48  C   UNL A   1      42.689  26.192  28.016  1.00  0.00     0.049 A 
ATOM     49  N   UNL A   1      45.498  27.777  27.901  1.00  0.00    -0.248 NA
ATOM     50  C   UNL A   1      45.056  27.390  25.653  1.00  0.00     0.031 C 
ATOM     51  C   UNL A   1      41.529  25.309  28.139  1.00  0.00     0.029 A 
ATOM     52  N   UNL A   1      42.269  27.332  28.645  1.00  0.00    -0.354 N 
ATOM     53  C   UNL A   1      46.181  28.712  27.125  1.00  0.00     0.074 A 
ATOM     54  C   UNL A   1      45.994  28.330  25.752  1.00  0.00     0.031 C 
ATOM     55  C   UNL A   1      40.475  26.012  28.617  1.00  0.00     0.029 A 
ATOM     56  C   UNL A   1      40.908  27.363  28.936  1.00  0.00     0.049 A 
ATOM     57  H   UNL A   1      42.878  28.071  28.873  1.00  0.00     0.167 HD
ATOM     58  C   UNL A   1      46.663  29.870  27.651  1.00  0.00     0.037 A 
ATOM     59  C   UNL A   1      40.180  28.432  29.355  1.00  0.00     0.037 A 
ATOM     60  C   UNL A   1      46.776  29.803  29.081  1.00  0.00     0.049 A 
ATOM     61  C   UNL A   1      41.122  29.443  29.881  1.00  0.00     0.074 A 
ATOM     62  C   UNL A   1      47.518  29.067  29.980  1.00  0.00     0.029 A 
ATOM     63  N   UNL A   1      45.805  30.418  29.825  1.00  0.00    -0.354 N 
ATOM     64  N   UNL A   1      41.783  29.321  30.994  1.00  0.00    -0.248 NA
ATOM     65  C   UNL A   1      41.630  30.446  28.959  1.00  0.00     0.031 C 
ATOM     66  C   UNL A   1      46.666  28.889  31.110  1.00  0.00     0.029 A 
ATOM     67  C   UNL A   1      45.479  29.575  30.852  1.00  0.00     0.049 A 
ATOM     68  H   UNL A   1      45.413  31.304  29.653  1.00  0.00     0.167 HD
ATOM     69  C   UNL A   1      43.020  29.885  30.730  1.00  0.00     0.074 A 
ATOM     70  C   UNL A   1      42.827  30.663  29.509  1.00  0.00     0.031 C 
ATOM     71  C   UNL A   1      44.140  29.441  31.371  1.00  0.00     0.037 A 
BRANCH  58  72
ATOM     72  C   UNL A   1      46.649  31.189  26.920  1.00  0.00     0.057 A 
ATOM     73  C   UNL A   1      45.473  31.872  26.546  1.00  0.00     0.134 A 
ATOM     74  C   UNL A   1      47.825  31.960  26.889  1.00  0.00     0.134 A 
ATOM     75  F   UNL A   1      44.264  31.300  26.585  1.00  0.00    -0.206 F 
ATOM     76  C   UNL A   1      45.460  33.229  26.213  1.00  0.00     0.040 A 
ATOM     77  C   UNL A   1      47.814  33.331  26.609  1.00  0.00     0.040 A 
ATOM     78  F   UNL A   1      49.009  31.424  27.224  1.00  0.00    -0.206 F 
ATOM     79  C   UNL A   1      46.626  33.972  26.283  1.00  0.00     0.006 A 
ENDBRANCH  58  72
BRANCH  59  80
ATOM     80  C   UNL A   1      38.752  28.767  29.129  1.00  0.00     0.057 A 
ATOM     81  C   UNL A   1      38.317  29.329  27.917  1.00  0.00     0.134 A 
ATOM     82  C   UNL A   1      37.833  28.813  30.190  1.00  0.00     0.134 A 
ATOM     83  F   UNL A   1      39.138  29.413  26.861  1.00  0.00    -0.206 F 
ATOM     84  C   UNL A   1      37.055  29.915  27.772  1.00  0.00     0.040 A 
ATOM     85  C   UNL A   1      36.568  29.404  30.062  1.00  0.00     0.040 A 
ATOM     86  F   UNL A   1      38.165  28.346  31.402  1.00  0.00    -0.206 F 
ATOM     87  C   UNL A   1      36.179  29.967  28.851  1.00  0.00     0.006 A 
ENDBRANCH  59  80
BRANCH  71  88
ATOM     88  C   UNL A   1      43.946  28.547  32.565  1.00  0.00     0.057 A 
ATOM     89  C   UNL A   1      44.107  29.087  33.845  1.00  0.00     0.134 A 
ATOM     90  C   UNL A   1      43.701  27.167  32.487  1.00  0.00     0.134 A 
ATOM     91  F   UNL A   1      44.403  30.387  33.999  1.00  0.00    -0.206 F 
ATOM     92  C   UNL A   1      44.005  28.301  34.996  1.00  0.00     0.040 A 
ATOM     93  C   UNL A   1      43.558  26.378  33.631  1.00  0.00     0.040 A 
ATOM     94  F   UNL A   1      43.635  26.538  31.305  1.00  0.00    -0.206 F 
ATOM     95  C   UNL A   1      43.713  26.945  34.892  1.00  0.00     0.006 A 
ENDBRANCH  71  88
ENDBRANCH  45  46
ENDBRANCH  38  40
ENDBRANCH  37  38
ENDBRANCH  36  37
ENDBRANCH  35  36
ENDBRANCH  34  35
ENDBRANCH   1  34
TORSDOF 19
ENDMDL
MODEL 3
REMARK VINA RESULT:     -11.6      3.320      4.917
REMARK SMILES [NH3+][C@@H](Cc1cn(-c2nc(Cl)nc(N3CCOCC3)n2)c2ccccc12)C(=O)OCCOCCOC(=O)c1ccc(-c2c3nc(c(-c4c(F)cccc4F)c4ccc([nH]4)c(-c4c(F)cccc4F)c4nc(c(-c5c(F)cccc5F)c5ccc2[nH]5)C=C4)C=C3)cc1
REMARK SMILES IDX 30 1 29 2 28 3 26 4 27 5 2 6 1 7 3 11 4 12 5 13 25 14 6 15
REMARK SMILES IDX 20 16 24 17 21 18 23 19 22 20 7 21 8 22 19 23 9 24 12 25
REMARK SMILES IDX 10 26 11 27 13 28 14 29 18 30 15 31 17 32 16 33 31 34 32 35
REMARK SMILES IDX 33 36 34 37 35 38 36 39 37 40 38 41 90 42 39 43 89 44 40 45
REMARK SMILES IDX 41 46 42 47 83 48 43 49 88 50 82 51 84 52 44 53 87 54 81 55
REMARK SMILES IDX 80 56 45 58 71 59 54 60 70 61 55 62 58 63 69 64 85 65 56 66
REMARK SMILES IDX 57 67 68 69 86 70 59 71 46 72 47 73 52 74 48 75 49 76 51 77
REMARK SMILES IDX 53 78 50 79 72 80 73 81 78 82 74 83 75 84 77 85 79 86 76 87
REMARK SMILES IDX 60 88 61 89 66 90 62 91 63 92 65 93 67 94 64 95
REMARK H PARENT 1 8 1 9 1 10 84 57 58 68
REMARK Flexibility Score: inf
ROOT
ATOM      1  C   UNL A   1      42.596  20.359  26.167  1.00  0.00     0.202 C 
ENDROOT
BRANCH   1   2
ATOM      2  C   UNL A   1      41.173  19.807  26.323  1.00  0.00     0.261 C 
BRANCH   2   3
ATOM      3  O   UNL A   1      40.167  20.823  26.282  1.00  0.00    -0.459 OA
BRANCH   3   4
ATOM      4  C   UNL A   1      38.985  20.446  25.715  1.00  0.00     0.365 C 
ATOM      5  O   UNL A   1      38.695  19.300  25.385  1.00  0.00    -0.245 OA
BRANCH   4   6
ATOM      6  C   UNL A   1      38.031  21.628  25.504  1.00  0.00     0.296 C 
BRANCH   6   7
ATOM      7  N   UNL A   1      38.643  22.930  25.863  1.00  0.00    -0.346 N 
ATOM      8  H   UNL A   1      38.081  23.382  26.584  1.00  0.00     0.345 HD
ATOM      9  H   UNL A   1      38.681  23.527  25.037  1.00  0.00     0.345 HD
ATOM     10  H   UNL A   1      39.588  22.775  26.215  1.00  0.00     0.345 HD
ENDBRANCH   6   7
BRANCH   6  11
ATOM     11  C   UNL A   1      37.400  21.584  24.104  1.00  0.00     0.115 C 
BRANCH  11  12
ATOM     12  C   UNL A   1      35.999  22.117  23.990  1.00  0.00    -0.015 A 
ATOM     13  C   UNL A   1      35.646  23.293  23.357  1.00  0.00     0.099 A 
ATOM     14  C   UNL A   1      34.772  21.515  24.423  1.00  0.00     0.004 A 
ATOM     15  N   UNL A   1      34.283  23.488  23.468  1.00  0.00    -0.285 N 
ATOM     16  C   UNL A   1      33.733  22.419  24.165  1.00  0.00     0.056 A 
ATOM     17  C   UNL A   1      34.442  20.271  25.004  1.00  0.00     0.010 A 
ATOM     18  C   UNL A   1      32.397  22.121  24.497  1.00  0.00     0.027 A 
ATOM     19  C   UNL A   1      33.119  19.976  25.345  1.00  0.00     0.001 A 
ATOM     20  C   UNL A   1      32.111  20.894  25.095  1.00  0.00     0.002 A 
BRANCH  15  21
ATOM     21  C   UNL A   1      33.568  24.562  22.862  1.00  0.00     0.240 A 
ATOM     22  N   UNL A   1      33.275  24.497  21.571  1.00  0.00    -0.181 NA
ATOM     23  N   UNL A   1      33.320  25.617  23.637  1.00  0.00    -0.176 NA
ATOM     24  C   UNL A   1      32.638  25.572  21.131  1.00  0.00     0.228 A 
ATOM     25  C   UNL A   1      32.763  26.670  23.048  1.00  0.00     0.231 A 
ATOM     26  Cl  UNL A   1      32.292  25.573  19.459  1.00  0.00    -0.041 Cl
ATOM     27  N   UNL A   1      32.351  26.683  21.794  1.00  0.00    -0.182 NA
BRANCH  25  28
ATOM     28  N   UNL A   1      32.712  27.803  23.800  1.00  0.00    -0.336 N 
ATOM     29  C   UNL A   1      33.954  28.279  24.399  1.00  0.00     0.148 C 
ATOM     30  C   UNL A   1      31.686  28.808  23.605  1.00  0.00     0.148 C 
ATOM     31  C   UNL A   1      33.618  28.964  25.732  1.00  0.00     0.181 C 
ATOM     32  C   UNL A   1      31.414  29.438  24.986  1.00  0.00     0.181 C 
ATOM     33  O   UNL A   1      32.617  29.987  25.563  1.00  0.00    -0.378 OA
ENDBRANCH  25  28
ENDBRANCH  15  21
ENDBRANCH  11  12
ENDBRANCH   6  11
ENDBRANCH   4   6
ENDBRANCH   3   4
ENDBRANCH   2   3
ENDBRANCH   1   2
BRANCH   1  34
ATOM     34  O   UNL A   1      42.820  21.572  25.460  1.00  0.00    -0.374 OA
BRANCH  34  35
ATOM     35  C   UNL A   1      43.151  22.736  26.225  1.00  0.00     0.202 C 
BRANCH  35  36
ATOM     36  C   UNL A   1      43.048  22.686  27.765  1.00  0.00     0.261 C 
BRANCH  36  37
ATOM     37  O   UNL A   1      42.611  23.930  28.329  1.00  0.00    -0.460 OA
BRANCH  37  38
ATOM     38  C   UNL A   1      41.320  24.262  28.049  1.00  0.00     0.338 C 
ATOM     39  O   UNL A   1      40.353  23.524  28.002  1.00  0.00    -0.246 OA
BRANCH  38  40
ATOM     40  C   UNL A   1      41.250  25.720  28.255  1.00  0.00     0.060 A 
ATOM     41  C   UNL A   1      42.084  26.353  29.181  1.00  0.00     0.016 A 
ATOM     42  C   UNL A   1      40.093  26.349  27.764  1.00  0.00     0.016 A 
ATOM     43  C   UNL A   1      41.707  27.596  29.679  1.00  0.00     0.010 A 
ATOM     44  C   UNL A   1      39.695  27.566  28.304  1.00  0.00     0.010 A 
ATOM     45  C   UNL A   1      40.486  28.175  29.282  1.00  0.00    -0.014 A 
BRANCH  45  46
ATOM     46  C   UNL A   1      40.185  29.537  29.728  1.00  0.00     0.031 A 
ATOM     47  C   UNL A   1      41.363  30.443  29.613  1.00  0.00     0.074 A 
ATOM     48  C   UNL A   1      38.965  30.028  30.034  1.00  0.00     0.049 A 
ATOM     49  N   UNL A   1      41.963  31.107  30.546  1.00  0.00    -0.248 NA
ATOM     50  C   UNL A   1      42.027  30.515  28.300  1.00  0.00     0.031 C 
ATOM     51  C   UNL A   1      37.665  29.367  29.913  1.00  0.00     0.029 A 
ATOM     52  N   UNL A   1      38.626  31.292  30.434  1.00  0.00    -0.354 N 
ATOM     53  C   UNL A   1      42.982  31.813  29.908  1.00  0.00     0.074 A 
ATOM     54  C   UNL A   1      43.072  31.295  28.570  1.00  0.00     0.031 C 
ATOM     55  C   UNL A   1      36.679  30.288  30.035  1.00  0.00     0.029 A 
ATOM     56  C   UNL A   1      37.267  31.580  30.348  1.00  0.00     0.049 A 
ATOM     57  H   UNL A   1      39.289  31.944  30.757  1.00  0.00     0.167 HD
ATOM     58  C   UNL A   1      43.529  32.934  30.449  1.00  0.00     0.037 A 
ATOM     59  C   UNL A   1      36.674  32.796  30.470  1.00  0.00     0.037 A 
ATOM     60  C   UNL A   1      43.268  33.032  31.858  1.00  0.00     0.049 A 
ATOM     61  C   UNL A   1      37.631  33.700  31.146  1.00  0.00     0.074 A 
ATOM     62  C   UNL A   1      43.611  32.305  32.978  1.00  0.00     0.029 A 
ATOM     63  N   UNL A   1      42.278  33.886  32.264  1.00  0.00    -0.354 N 
ATOM     64  N   UNL A   1      37.959  33.614  32.401  1.00  0.00    -0.248 NA
ATOM     65  C   UNL A   1      38.532  34.482  30.315  1.00  0.00     0.031 C 
ATOM     66  C   UNL A   1      42.487  32.413  33.850  1.00  0.00     0.029 A 
ATOM     67  C   UNL A   1      41.553  33.244  33.231  1.00  0.00     0.049 A 
ATOM     68  H   UNL A   1      42.117  34.795  31.923  1.00  0.00     0.167 HD
ATOM     69  C   UNL A   1      39.306  33.932  32.432  1.00  0.00     0.074 A 
ATOM     70  C   UNL A   1      39.574  34.570  31.146  1.00  0.00     0.031 C 
ATOM     71  C   UNL A   1      40.127  33.396  33.382  1.00  0.00     0.037 A 
BRANCH  58  72
ATOM     72  C   UNL A   1      43.947  34.135  29.637  1.00  0.00     0.057 A 
ATOM     73  C   UNL A   1      45.287  34.458  29.338  1.00  0.00     0.134 A 
ATOM     74  C   UNL A   1      42.982  34.792  28.852  1.00  0.00     0.134 A 
ATOM     75  F   UNL A   1      46.323  33.872  29.949  1.00  0.00    -0.206 F 
ATOM     76  C   UNL A   1      45.642  35.331  28.307  1.00  0.00     0.040 A 
ATOM     77  C   UNL A   1      43.330  35.626  27.783  1.00  0.00     0.040 A 
ATOM     78  F   UNL A   1      41.673  34.568  29.039  1.00  0.00    -0.206 F 
ATOM     79  C   UNL A   1      44.664  35.886  27.500  1.00  0.00     0.006 A 
ENDBRANCH  58  72
BRANCH  59  80
ATOM     80  C   UNL A   1      35.438  33.328  29.846  1.00  0.00     0.057 A 
ATOM     81  C   UNL A   1      35.336  33.495  28.454  1.00  0.00     0.134 A 
ATOM     82  C   UNL A   1      34.439  33.951  30.611  1.00  0.00     0.134 A 
ATOM     83  F   UNL A   1      36.278  33.014  27.631  1.00  0.00    -0.206 F 
ATOM     84  C   UNL A   1      34.316  34.247  27.861  1.00  0.00     0.040 A 
ATOM     85  C   UNL A   1      33.415  34.714  30.031  1.00  0.00     0.040 A 
ATOM     86  F   UNL A   1      34.468  33.892  31.951  1.00  0.00    -0.206 F 
ATOM     87  C   UNL A   1      33.358  34.873  28.651  1.00  0.00     0.006 A 
ENDBRANCH  59  80
BRANCH  71  88
ATOM     88  C   UNL A   1      39.477  32.704  34.549  1.00  0.00     0.057 A 
ATOM     89  C   UNL A   1      39.193  31.338  34.449  1.00  0.00     0.134 A 
ATOM     90  C   UNL A   1      39.044  33.358  35.712  1.00  0.00     0.134 A 
ATOM     91  F   UNL A   1      39.523  30.656  33.341  1.00  0.00    -0.206 F 
ATOM     92  C   UNL A   1      38.534  30.646  35.468  1.00  0.00     0.040 A 
ATOM     93  C   UNL A   1      38.417  32.669  36.755  1.00  0.00     0.040 A 
ATOM     94  F   UNL A   1      39.175  34.683  35.856  1.00  0.00    -0.206 F 
ATOM     95  C   UNL A   1      38.158  31.308  36.633  1.00  0.00     0.006 A 
ENDBRANCH  71  88
ENDBRANCH  45  46
ENDBRANCH  38  40
ENDBRANCH  37  38
ENDBRANCH  36  37
ENDBRANCH  35  36
ENDBRANCH  34  35
ENDBRANCH   1  34
TORSDOF 19
ENDMDL
