MODEL 1
REMARK VINA RESULT:     -12.7      0.000      0.000
REMARK SMILES Nc1c(N2CCC(C(=O)OCCOCCOC(=O)c3ccc(-c4c5nc(c(-c6c(F)cccc6F)c6ccc([nH]6)c(-c6c(F)cccc6F)c6nc(c(-c7c(F)cccc7F)c7ccc4[nH]7)C=C6)C=C5)cc3)CC2)ncnc1N1CCN(c2ccccc2)CC1
REMARK SMILES IDX 12 1 11 2 10 3 8 4 9 5 7 6 4 7 5 8 74 9 6 10 73 11 3 12 2 13
REMARK SMILES IDX 78 14 75 15 77 16 76 17 1 18 79 21 80 22 90 23 81 24 89 25
REMARK SMILES IDX 82 26 83 27 84 28 88 29 85 30 87 31 86 32 13 33 14 34 15 35
REMARK SMILES IDX 16 36 17 37 18 38 19 39 20 40 72 41 21 42 71 43 22 44 23 45
REMARK SMILES IDX 24 46 65 47 25 48 70 49 64 50 66 51 26 52 69 53 63 54 62 55
REMARK SMILES IDX 27 57 53 58 36 59 52 60 37 61 40 62 51 63 67 64 38 65 39 66
REMARK SMILES IDX 50 68 68 69 41 70 28 71 29 72 34 73 30 74 31 75 33 76 35 77
REMARK SMILES IDX 32 78 54 79 55 80 60 81 56 82 57 83 59 84 61 85 58 86 42 87
REMARK SMILES IDX 43 88 48 89 44 90 45 91 47 92 49 93 46 94
REMARK H PARENT 1 19 1 20 66 56 40 67
REMARK Flexibility Score: inf
ROOT
ATOM      1  C   UNL A   1      40.781  21.497  27.380  1.00  0.00     0.202 C 
ENDROOT
BRANCH   1   2
ATOM      2  C   UNL A   1      39.967  20.967  26.199  1.00  0.00     0.261 C 
BRANCH   2   3
ATOM      3  O   UNL A   1      38.826  21.794  25.927  1.00  0.00    -0.463 OA
BRANCH   3   4
ATOM      4  C   UNL A   1      37.868  21.220  25.159  1.00  0.00     0.309 C 
ATOM      5  O   UNL A   1      37.846  20.044  24.813  1.00  0.00    -0.252 OA
BRANCH   4   6
ATOM      6  C   UNL A   1      36.801  22.194  24.725  1.00  0.00     0.103 C 
ATOM      7  N   UNL A   1      34.455  23.761  24.741  1.00  0.00    -0.355 N 
ATOM      8  C   UNL A   1      34.544  22.709  23.748  1.00  0.00     0.119 C 
ATOM      9  C   UNL A   1      35.646  24.275  25.405  1.00  0.00     0.119 C 
ATOM     10  C   UNL A   1      35.487  21.598  24.206  1.00  0.00     0.037 C 
ATOM     11  C   UNL A   1      36.514  23.131  25.891  1.00  0.00     0.037 C 
BRANCH   7  12
ATOM     12  C   UNL A   1      33.215  24.100  25.267  1.00  0.00     0.157 A 
ATOM     13  C   UNL A   1      32.556  25.238  24.784  1.00  0.00     0.118 A 
ATOM     14  C   UNL A   1      31.399  25.631  25.468  1.00  0.00     0.157 A 
ATOM     15  N   UNL A   1      32.730  23.374  26.287  1.00  0.00    -0.217 NA
ATOM     16  N   UNL A   1      30.953  24.969  26.547  1.00  0.00    -0.217 NA
ATOM     17  C   UNL A   1      31.625  23.855  26.876  1.00  0.00     0.226 A 
BRANCH  13  18
ATOM     18  N   UNL A   1      33.020  25.931  23.649  1.00  0.00    -0.393 N 
ATOM     19  H   UNL A   1      33.161  26.904  23.690  1.00  0.00     0.156 HD
ATOM     20  H   UNL A   1      33.204  25.442  22.814  1.00  0.00     0.156 HD
ENDBRANCH  13  18
BRANCH  14  21
ATOM     21  N   UNL A   1      30.722  26.754  25.055  1.00  0.00    -0.351 N 
ATOM     22  C   UNL A   1      31.088  28.077  25.545  1.00  0.00     0.139 C 
ATOM     23  C   UNL A   1      29.473  26.647  24.301  1.00  0.00     0.139 C 
ATOM     24  C   UNL A   1      31.159  29.050  24.337  1.00  0.00     0.138 C 
ATOM     25  C   UNL A   1      29.493  27.628  23.110  1.00  0.00     0.138 C 
ATOM     26  N   UNL A   1      29.918  28.969  23.548  1.00  0.00    -0.368 N 
BRANCH  26  27
ATOM     27  C   UNL A   1      29.348  30.079  22.969  1.00  0.00     0.037 A 
ATOM     28  C   UNL A   1      28.966  30.116  21.626  1.00  0.00     0.026 A 
ATOM     29  C   UNL A   1      29.153  31.235  23.739  1.00  0.00     0.026 A 
ATOM     30  C   UNL A   1      28.403  31.269  21.069  1.00  0.00     0.002 A 
ATOM     31  C   UNL A   1      28.610  32.395  23.187  1.00  0.00     0.002 A 
ATOM     32  C   UNL A   1      28.232  32.410  21.849  1.00  0.00     0.000 A 
ENDBRANCH  26  27
ENDBRANCH  14  21
ENDBRANCH   7  12
ENDBRANCH   4   6
ENDBRANCH   3   4
ENDBRANCH   2   3
ENDBRANCH   1   2
BRANCH   1  33
ATOM     33  O   UNL A   1      42.200  21.418  27.276  1.00  0.00    -0.374 OA
BRANCH  33  34
ATOM     34  C   UNL A   1      42.755  20.989  26.034  1.00  0.00     0.202 C 
BRANCH  34  35
ATOM     35  C   UNL A   1      43.748  21.937  25.348  1.00  0.00     0.261 C 
BRANCH  35  36
ATOM     36  O   UNL A   1      43.124  23.161  24.911  1.00  0.00    -0.460 OA
BRANCH  36  37
ATOM     37  C   UNL A   1      43.842  24.283  25.154  1.00  0.00     0.338 C 
ATOM     38  O   UNL A   1      44.893  24.623  24.625  1.00  0.00    -0.246 OA
BRANCH  37  39
ATOM     39  C   UNL A   1      43.088  25.186  26.039  1.00  0.00     0.060 A 
ATOM     40  C   UNL A   1      43.617  26.464  26.266  1.00  0.00     0.016 A 
ATOM     41  C   UNL A   1      41.943  24.762  26.715  1.00  0.00     0.016 A 
ATOM     42  C   UNL A   1      43.023  27.310  27.199  1.00  0.00     0.010 A 
ATOM     43  C   UNL A   1      41.356  25.608  27.663  1.00  0.00     0.010 A 
ATOM     44  C   UNL A   1      41.913  26.870  27.932  1.00  0.00    -0.014 A 
BRANCH  44  45
ATOM     45  C   UNL A   1      41.442  27.680  29.081  1.00  0.00     0.031 A 
ATOM     46  C   UNL A   1      42.188  27.599  30.385  1.00  0.00     0.074 A 
ATOM     47  C   UNL A   1      40.404  28.525  28.948  1.00  0.00     0.049 A 
ATOM     48  N   UNL A   1      41.963  28.231  31.508  1.00  0.00    -0.248 NA
ATOM     49  C   UNL A   1      43.343  26.689  30.426  1.00  0.00     0.031 C 
ATOM     50  C   UNL A   1      39.637  28.730  27.722  1.00  0.00     0.029 A 
ATOM     51  N   UNL A   1      39.825  29.374  29.857  1.00  0.00    -0.354 N 
ATOM     52  C   UNL A   1      42.952  27.802  32.384  1.00  0.00     0.074 A 
ATOM     53  C   UNL A   1      43.755  26.830  31.678  1.00  0.00     0.031 C 
ATOM     54  C   UNL A   1      38.686  29.653  27.954  1.00  0.00     0.029 A 
ATOM     55  C   UNL A   1      38.763  30.080  29.350  1.00  0.00     0.049 A 
ATOM     56  H   UNL A   1      40.141  29.468  30.785  1.00  0.00     0.167 HD
ATOM     57  C   UNL A   1      43.179  28.198  33.659  1.00  0.00     0.037 A 
ATOM     58  C   UNL A   1      37.939  30.964  29.948  1.00  0.00     0.037 A 
ATOM     59  C   UNL A   1      42.379  29.163  34.364  1.00  0.00     0.049 A 
ATOM     60  C   UNL A   1      38.153  31.313  31.397  1.00  0.00     0.074 A 
ATOM     61  C   UNL A   1      42.535  29.631  35.657  1.00  0.00     0.029 A 
ATOM     62  N   UNL A   1      41.269  29.803  33.837  1.00  0.00    -0.354 N 
ATOM     63  N   UNL A   1      39.100  30.913  32.212  1.00  0.00    -0.248 NA
ATOM     64  C   UNL A   1      37.183  32.233  32.011  1.00  0.00     0.031 C 
ATOM     65  C   UNL A   1      41.493  30.520  35.928  1.00  0.00     0.029 A 
ATOM     66  C   UNL A   1      40.714  30.642  34.788  1.00  0.00     0.049 A 
ATOM     67  H   UNL A   1      40.926  29.681  32.922  1.00  0.00     0.167 HD
ATOM     68  C   UNL A   1      38.853  31.547  33.424  1.00  0.00     0.074 A 
ATOM     69  C   UNL A   1      37.674  32.367  33.236  1.00  0.00     0.031 C 
ATOM     70  C   UNL A   1      39.542  31.457  34.587  1.00  0.00     0.037 A 
BRANCH  57  71
ATOM     71  C   UNL A   1      44.339  27.580  34.381  1.00  0.00     0.057 A 
ATOM     72  C   UNL A   1      45.588  28.210  34.440  1.00  0.00     0.134 A 
ATOM     73  C   UNL A   1      44.190  26.371  35.072  1.00  0.00     0.134 A 
ATOM     74  F   UNL A   1      45.799  29.364  33.789  1.00  0.00    -0.206 F 
ATOM     75  C   UNL A   1      46.653  27.654  35.151  1.00  0.00     0.040 A 
ATOM     76  C   UNL A   1      45.240  25.815  35.805  1.00  0.00     0.040 A 
ATOM     77  F   UNL A   1      43.018  25.719  35.059  1.00  0.00    -0.206 F 
ATOM     78  C   UNL A   1      46.477  26.457  35.843  1.00  0.00     0.006 A 
ENDBRANCH  57  71
BRANCH  58  79
ATOM     79  C   UNL A   1      36.834  31.583  29.175  1.00  0.00     0.057 A 
ATOM     80  C   UNL A   1      35.670  30.866  28.877  1.00  0.00     0.134 A 
ATOM     81  C   UNL A   1      36.912  32.904  28.720  1.00  0.00     0.134 A 
ATOM     82  F   UNL A   1      35.547  29.588  29.267  1.00  0.00    -0.206 F 
ATOM     83  C   UNL A   1      34.625  31.438  28.149  1.00  0.00     0.040 A 
ATOM     84  C   UNL A   1      35.866  33.496  28.010  1.00  0.00     0.040 A 
ATOM     85  F   UNL A   1      38.002  33.644  28.970  1.00  0.00    -0.206 F 
ATOM     86  C   UNL A   1      34.720  32.760  27.720  1.00  0.00     0.006 A 
ENDBRANCH  58  79
BRANCH  70  87
ATOM     87  C   UNL A   1      39.061  32.271  35.751  1.00  0.00     0.057 A 
ATOM     88  C   UNL A   1      38.238  31.720  36.741  1.00  0.00     0.134 A 
ATOM     89  C   UNL A   1      39.498  33.590  35.932  1.00  0.00     0.134 A 
ATOM     90  F   UNL A   1      37.779  30.465  36.623  1.00  0.00    -0.206 F 
ATOM     91  C   UNL A   1      37.863  32.454  37.868  1.00  0.00     0.040 A 
ATOM     92  C   UNL A   1      39.149  34.325  37.065  1.00  0.00     0.040 A 
ATOM     93  F   UNL A   1      40.297  34.172  35.025  1.00  0.00    -0.206 F 
ATOM     94  C   UNL A   1      38.328  33.757  38.037  1.00  0.00     0.006 A 
ENDBRANCH  70  87
ENDBRANCH  44  45
ENDBRANCH  37  39
ENDBRANCH  36  37
ENDBRANCH  35  36
ENDBRANCH  34  35
ENDBRANCH  33  34
ENDBRANCH   1  33
TORSDOF 18
ENDMDL
MODEL 2
REMARK VINA RESULT:     -12.3      0.403      5.938
REMARK SMILES Nc1c(N2CCC(C(=O)OCCOCCOC(=O)c3ccc(-c4c5nc(c(-c6c(F)cccc6F)c6ccc([nH]6)c(-c6c(F)cccc6F)c6nc(c(-c7c(F)cccc7F)c7ccc4[nH]7)C=C6)C=C5)cc3)CC2)ncnc1N1CCN(c2ccccc2)CC1
REMARK SMILES IDX 12 1 11 2 10 3 8 4 9 5 7 6 4 7 5 8 74 9 6 10 73 11 3 12 2 13
REMARK SMILES IDX 78 14 75 15 77 16 76 17 1 18 79 21 80 22 90 23 81 24 89 25
REMARK SMILES IDX 82 26 83 27 84 28 88 29 85 30 87 31 86 32 13 33 14 34 15 35
REMARK SMILES IDX 16 36 17 37 18 38 19 39 20 40 72 41 21 42 71 43 22 44 23 45
REMARK SMILES IDX 24 46 65 47 25 48 70 49 64 50 66 51 26 52 69 53 63 54 62 55
REMARK SMILES IDX 27 57 53 58 36 59 52 60 37 61 40 62 51 63 67 64 38 65 39 66
REMARK SMILES IDX 50 68 68 69 41 70 28 71 29 72 34 73 30 74 31 75 33 76 35 77
REMARK SMILES IDX 32 78 54 79 55 80 60 81 56 82 57 83 59 84 61 85 58 86 42 87
REMARK SMILES IDX 43 88 48 89 44 90 45 91 47 92 49 93 46 94
REMARK H PARENT 1 19 1 20 66 56 40 67
REMARK Flexibility Score: inf
ROOT
ATOM      1  C   UNL A   1      40.829  21.119  27.332  1.00  0.00     0.202 C 
ENDROOT
BRANCH   1   2
ATOM      2  C   UNL A   1      39.996  20.658  26.135  1.00  0.00     0.261 C 
BRANCH   2   3
ATOM      3  O   UNL A   1      38.980  21.613  25.797  1.00  0.00    -0.463 OA
BRANCH   3   4
ATOM      4  C   UNL A   1      37.919  21.111  25.119  1.00  0.00     0.309 C 
ATOM      5  O   UNL A   1      37.775  19.937  24.796  1.00  0.00    -0.252 OA
BRANCH   4   6
ATOM      6  C   UNL A   1      36.902  22.163  24.755  1.00  0.00     0.103 C 
ATOM      7  N   UNL A   1      34.604  23.797  24.853  1.00  0.00    -0.355 N 
ATOM      8  C   UNL A   1      34.708  22.863  23.750  1.00  0.00     0.119 C 
ATOM      9  C   UNL A   1      35.777  24.191  25.622  1.00  0.00     0.119 C 
ATOM     10  C   UNL A   1      35.596  21.675  24.116  1.00  0.00     0.037 C 
ATOM     11  C   UNL A   1      36.589  22.971  26.009  1.00  0.00     0.037 C 
BRANCH   7  12
ATOM     12  C   UNL A   1      33.351  24.116  25.362  1.00  0.00     0.157 A 
ATOM     13  C   UNL A   1      32.686  25.251  24.880  1.00  0.00     0.118 A 
ATOM     14  C   UNL A   1      31.514  25.623  25.549  1.00  0.00     0.157 A 
ATOM     15  N   UNL A   1      32.859  23.374  26.367  1.00  0.00    -0.217 NA
ATOM     16  N   UNL A   1      31.058  24.945  26.613  1.00  0.00    -0.217 NA
ATOM     17  C   UNL A   1      31.738  23.837  26.943  1.00  0.00     0.226 A 
BRANCH  13  18
ATOM     18  N   UNL A   1      33.160  25.961  23.759  1.00  0.00    -0.393 N 
ATOM     19  H   UNL A   1      34.104  26.234  23.712  1.00  0.00     0.156 HD
ATOM     20  H   UNL A   1      32.546  26.184  23.022  1.00  0.00     0.156 HD
ENDBRANCH  13  18
BRANCH  14  21
ATOM     21  N   UNL A   1      30.830  26.742  25.136  1.00  0.00    -0.351 N 
ATOM     22  C   UNL A   1      31.123  28.054  25.698  1.00  0.00     0.139 C 
ATOM     23  C   UNL A   1      29.635  26.630  24.298  1.00  0.00     0.139 C 
ATOM     24  C   UNL A   1      31.239  29.076  24.535  1.00  0.00     0.138 C 
ATOM     25  C   UNL A   1      29.700  27.657  23.149  1.00  0.00     0.138 C 
ATOM     26  N   UNL A   1      30.055  28.991  23.665  1.00  0.00    -0.368 N 
BRANCH  26  27
ATOM     27  C   UNL A   1      29.489  30.107  23.093  1.00  0.00     0.037 A 
ATOM     28  C   UNL A   1      29.245  31.281  23.812  1.00  0.00     0.026 A 
ATOM     29  C   UNL A   1      29.118  30.077  21.741  1.00  0.00     0.026 A 
ATOM     30  C   UNL A   1      28.654  32.390  23.198  1.00  0.00     0.002 A 
ATOM     31  C   UNL A   1      28.511  31.172  21.127  1.00  0.00     0.002 A 
ATOM     32  C   UNL A   1      28.282  32.332  21.858  1.00  0.00     0.000 A 
ENDBRANCH  26  27
ENDBRANCH  14  21
ENDBRANCH   7  12
ENDBRANCH   4   6
ENDBRANCH   3   4
ENDBRANCH   2   3
ENDBRANCH   1   2
BRANCH   1  33
ATOM     33  O   UNL A   1      42.161  21.552  27.065  1.00  0.00    -0.374 OA
BRANCH  33  34
ATOM     34  C   UNL A   1      42.572  21.644  25.702  1.00  0.00     0.202 C 
BRANCH  34  35
ATOM     35  C   UNL A   1      43.830  22.471  25.406  1.00  0.00     0.261 C 
BRANCH  35  36
ATOM     36  O   UNL A   1      43.524  23.725  24.766  1.00  0.00    -0.460 OA
BRANCH  36  37
ATOM     37  C   UNL A   1      44.286  24.770  25.168  1.00  0.00     0.338 C 
ATOM     38  O   UNL A   1      45.372  25.113  24.720  1.00  0.00    -0.246 OA
BRANCH  37  39
ATOM     39  C   UNL A   1      43.543  25.600  26.131  1.00  0.00     0.060 A 
ATOM     40  C   UNL A   1      43.998  26.907  26.347  1.00  0.00     0.016 A 
ATOM     41  C   UNL A   1      42.486  25.082  26.881  1.00  0.00     0.016 A 
ATOM     42  C   UNL A   1      43.422  27.691  27.344  1.00  0.00     0.010 A 
ATOM     43  C   UNL A   1      41.918  25.866  27.893  1.00  0.00     0.010 A 
ATOM     44  C   UNL A   1      42.406  27.160  28.149  1.00  0.00    -0.014 A 
BRANCH  44  45
ATOM     45  C   UNL A   1      41.971  27.912  29.350  1.00  0.00     0.031 A 
ATOM     46  C   UNL A   1      40.740  28.772  29.265  1.00  0.00     0.074 A 
ATOM     47  C   UNL A   1      42.624  27.781  30.518  1.00  0.00     0.049 A 
ATOM     48  N   UNL A   1      40.171  29.498  30.194  1.00  0.00    -0.248 NA
ATOM     49  C   UNL A   1      40.057  28.816  27.963  1.00  0.00     0.031 C 
ATOM     50  C   UNL A   1      43.797  26.937  30.737  1.00  0.00     0.029 A 
ATOM     51  N   UNL A   1      42.385  28.354  31.742  1.00  0.00    -0.354 N 
ATOM     52  C   UNL A   1      39.061  30.075  29.592  1.00  0.00     0.074 A 
ATOM     53  C   UNL A   1      39.055  29.648  28.210  1.00  0.00     0.031 C 
ATOM     54  C   UNL A   1      44.174  27.044  32.024  1.00  0.00     0.029 A 
ATOM     55  C   UNL A   1      43.287  27.983  32.708  1.00  0.00     0.049 A 
ATOM     56  H   UNL A   1      41.637  28.972  31.910  1.00  0.00     0.167 HD
ATOM     57  C   UNL A   1      38.121  30.877  30.146  1.00  0.00     0.037 A 
ATOM     58  C   UNL A   1      43.390  28.367  33.996  1.00  0.00     0.037 A 
ATOM     59  C   UNL A   1      38.128  31.305  31.519  1.00  0.00     0.049 A 
ATOM     60  C   UNL A   1      42.388  29.338  34.563  1.00  0.00     0.074 A 
ATOM     61  C   UNL A   1      37.215  32.114  32.173  1.00  0.00     0.029 A 
ATOM     62  N   UNL A   1      39.099  30.964  32.447  1.00  0.00    -0.354 N 
ATOM     63  N   UNL A   1      41.335  29.867  33.989  1.00  0.00    -0.248 NA
ATOM     64  C   UNL A   1      42.592  29.769  35.954  1.00  0.00     0.031 C 
ATOM     65  C   UNL A   1      37.657  32.299  33.485  1.00  0.00     0.029 A 
ATOM     66  C   UNL A   1      38.821  31.568  33.662  1.00  0.00     0.049 A 
ATOM     67  H   UNL A   1      39.870  30.378  32.270  1.00  0.00     0.167 HD
ATOM     68  C   UNL A   1      40.739  30.673  34.952  1.00  0.00     0.074 A 
ATOM     69  C   UNL A   1      41.542  30.556  36.151  1.00  0.00     0.031 C 
ATOM     70  C   UNL A   1      39.627  31.440  34.850  1.00  0.00     0.037 A 
BRANCH  57  71
ATOM     71  C   UNL A   1      37.006  31.353  29.264  1.00  0.00     0.057 A 
ATOM     72  C   UNL A   1      35.921  30.528  28.941  1.00  0.00     0.134 A 
ATOM     73  C   UNL A   1      36.989  32.666  28.777  1.00  0.00     0.134 A 
ATOM     74  F   UNL A   1      35.884  29.257  29.366  1.00  0.00    -0.206 F 
ATOM     75  C   UNL A   1      34.863  30.990  28.156  1.00  0.00     0.040 A 
ATOM     76  C   UNL A   1      35.927  33.146  28.011  1.00  0.00     0.040 A 
ATOM     77  F   UNL A   1      37.996  33.508  29.054  1.00  0.00    -0.206 F 
ATOM     78  C   UNL A   1      34.860  32.305  27.696  1.00  0.00     0.006 A 
ENDBRANCH  57  71
BRANCH  58  79
ATOM     79  C   UNL A   1      44.485  27.830  34.840  1.00  0.00     0.057 A 
ATOM     80  C   UNL A   1      44.330  26.636  35.553  1.00  0.00     0.134 A 
ATOM     81  C   UNL A   1      45.713  28.493  34.953  1.00  0.00     0.134 A 
ATOM     82  F   UNL A   1      43.167  25.968  35.504  1.00  0.00    -0.206 F 
ATOM     83  C   UNL A   1      45.353  26.123  36.353  1.00  0.00     0.040 A 
ATOM     84  C   UNL A   1      46.753  27.981  35.731  1.00  0.00     0.040 A 
ATOM     85  F   UNL A   1      45.925  29.643  34.297  1.00  0.00    -0.206 F 
ATOM     86  C   UNL A   1      46.571  26.793  36.436  1.00  0.00     0.006 A 
ENDBRANCH  58  79
BRANCH  70  87
ATOM     87  C   UNL A   1      39.191  32.206  36.064  1.00  0.00     0.057 A 
ATOM     88  C   UNL A   1      39.661  33.500  36.321  1.00  0.00     0.134 A 
ATOM     89  C   UNL A   1      38.224  31.682  36.932  1.00  0.00     0.134 A 
ATOM     90  F   UNL A   1      40.593  34.055  35.532  1.00  0.00    -0.206 F 
ATOM     91  C   UNL A   1      39.188  34.244  37.404  1.00  0.00     0.040 A 
ATOM     92  C   UNL A   1      37.727  32.425  38.003  1.00  0.00     0.040 A 
ATOM     93  F   UNL A   1      37.726  30.453  36.733  1.00  0.00    -0.206 F 
ATOM     94  C   UNL A   1      38.210  33.710  38.242  1.00  0.00     0.006 A 
ENDBRANCH  70  87
ENDBRANCH  44  45
ENDBRANCH  37  39
ENDBRANCH  36  37
ENDBRANCH  35  36
ENDBRANCH  34  35
ENDBRANCH  33  34
ENDBRANCH   1  33
TORSDOF 18
ENDMDL
MODEL 3
REMARK VINA RESULT:     -12.0      4.980     10.348
REMARK SMILES Nc1c(N2CCC(C(=O)OCCOCCOC(=O)c3ccc(-c4c5nc(c(-c6c(F)cccc6F)c6ccc([nH]6)c(-c6c(F)cccc6F)c6nc(c(-c7c(F)cccc7F)c7ccc4[nH]7)C=C6)C=C5)cc3)CC2)ncnc1N1CCN(c2ccccc2)CC1
REMARK SMILES IDX 12 1 11 2 10 3 8 4 9 5 7 6 4 7 5 8 74 9 6 10 73 11 3 12 2 13
REMARK SMILES IDX 78 14 75 15 77 16 76 17 1 18 79 21 80 22 90 23 81 24 89 25
REMARK SMILES IDX 82 26 83 27 84 28 88 29 85 30 87 31 86 32 13 33 14 34 15 35
REMARK SMILES IDX 16 36 17 37 18 38 19 39 20 40 72 41 21 42 71 43 22 44 23 45
REMARK SMILES IDX 24 46 65 47 25 48 70 49 64 50 66 51 26 52 69 53 63 54 62 55
REMARK SMILES IDX 27 57 53 58 36 59 52 60 37 61 40 62 51 63 67 64 38 65 39 66
REMARK SMILES IDX 50 68 68 69 41 70 28 71 29 72 34 73 30 74 31 75 33 76 35 77
REMARK SMILES IDX 32 78 54 79 55 80 60 81 56 82 57 83 59 84 61 85 58 86 42 87
REMARK SMILES IDX 43 88 48 89 44 90 45 91 47 92 49 93 46 94
REMARK H PARENT 1 19 1 20 66 56 40 67
REMARK Flexibility Score: inf
ROOT
ATOM      1  C   UNL A   1      34.902  33.365  28.034  1.00  0.00     0.202 C 
ENDROOT
BRANCH   1   2
ATOM      2  C   UNL A   1      34.100  32.111  28.387  1.00  0.00     0.261 C 
BRANCH   2   3
ATOM      3  O   UNL A   1      33.985  31.223  27.265  1.00  0.00    -0.463 OA
BRANCH   3   4
ATOM      4  C   UNL A   1      32.715  30.921  26.897  1.00  0.00     0.309 C 
ATOM      5  O   UNL A   1      31.795  31.725  26.801  1.00  0.00    -0.252 OA
BRANCH   4   6
ATOM      6  C   UNL A   1      32.514  29.451  26.631  1.00  0.00     0.103 C 
ATOM      7  N   UNL A   1      32.614  26.932  25.363  1.00  0.00    -0.355 N 
ATOM      8  C   UNL A   1      31.312  27.552  25.507  1.00  0.00     0.119 C 
ATOM      9  C   UNL A   1      33.743  27.348  26.184  1.00  0.00     0.119 C 
ATOM     10  C   UNL A   1      31.434  29.071  25.612  1.00  0.00     0.037 C 
ATOM     11  C   UNL A   1      33.852  28.860  26.203  1.00  0.00     0.037 C 
BRANCH   7  12
ATOM     12  C   UNL A   1      32.869  26.128  24.259  1.00  0.00     0.157 A 
ATOM     13  C   UNL A   1      32.992  24.743  24.436  1.00  0.00     0.118 A 
ATOM     14  C   UNL A   1      33.422  24.005  23.327  1.00  0.00     0.157 A 
ATOM     15  N   UNL A   1      33.080  26.717  23.071  1.00  0.00    -0.217 NA
ATOM     16  N   UNL A   1      33.725  24.591  22.158  1.00  0.00    -0.217 NA
ATOM     17  C   UNL A   1      33.505  25.912  22.085  1.00  0.00     0.226 A 
BRANCH  13  18
ATOM     18  N   UNL A   1      32.669  24.126  25.660  1.00  0.00    -0.393 N 
ATOM     19  H   UNL A   1      33.377  23.928  26.314  1.00  0.00     0.156 HD
ATOM     20  H   UNL A   1      31.733  23.893  25.862  1.00  0.00     0.156 HD
ENDBRANCH  13  18
BRANCH  14  21
ATOM     21  N   UNL A   1      33.584  22.645  23.446  1.00  0.00    -0.351 N 
ATOM     22  C   UNL A   1      34.851  22.073  23.882  1.00  0.00     0.139 C 
ATOM     23  C   UNL A   1      32.581  21.717  22.922  1.00  0.00     0.139 C 
ATOM     24  C   UNL A   1      34.562  20.998  24.964  1.00  0.00     0.138 C 
ATOM     25  C   UNL A   1      32.294  20.613  23.960  1.00  0.00     0.138 C 
ATOM     26  N   UNL A   1      33.552  20.045  24.475  1.00  0.00    -0.368 N 
BRANCH  26  27
ATOM     27  C   UNL A   1      33.616  18.701  24.766  1.00  0.00     0.037 A 
ATOM     28  C   UNL A   1      32.619  18.038  25.486  1.00  0.00     0.026 A 
ATOM     29  C   UNL A   1      34.728  17.957  24.347  1.00  0.00     0.026 A 
ATOM     30  C   UNL A   1      32.727  16.674  25.774  1.00  0.00     0.002 A 
ATOM     31  C   UNL A   1      34.852  16.601  24.646  1.00  0.00     0.002 A 
ATOM     32  C   UNL A   1      33.847  15.958  25.360  1.00  0.00     0.000 A 
ENDBRANCH  26  27
ENDBRANCH  14  21
ENDBRANCH   7  12
ENDBRANCH   4   6
ENDBRANCH   3   4
ENDBRANCH   2   3
ENDBRANCH   1   2
BRANCH   1  33
ATOM     33  O   UNL A   1      34.986  34.381  29.031  1.00  0.00    -0.374 OA
BRANCH  33  34
ATOM     34  C   UNL A   1      34.039  34.350  30.096  1.00  0.00     0.202 C 
BRANCH  34  35
ATOM     35  C   UNL A   1      34.589  34.147  31.514  1.00  0.00     0.261 C 
BRANCH  35  36
ATOM     36  O   UNL A   1      35.985  33.789  31.515  1.00  0.00    -0.460 OA
BRANCH  36  37
ATOM     37  C   UNL A   1      36.296  32.716  32.279  1.00  0.00     0.338 C 
ATOM     38  O   UNL A   1      35.765  32.370  33.327  1.00  0.00    -0.246 OA
BRANCH  37  39
ATOM     39  C   UNL A   1      37.274  31.863  31.583  1.00  0.00     0.060 A 
ATOM     40  C   UNL A   1      38.292  31.284  32.351  1.00  0.00     0.016 A 
ATOM     41  C   UNL A   1      37.258  31.713  30.195  1.00  0.00     0.016 A 
ATOM     42  C   UNL A   1      39.322  30.583  31.729  1.00  0.00     0.010 A 
ATOM     43  C   UNL A   1      38.302  31.020  29.571  1.00  0.00     0.010 A 
ATOM     44  C   UNL A   1      39.354  30.482  30.332  1.00  0.00    -0.014 A 
BRANCH  44  45
ATOM     45  C   UNL A   1      40.570  29.945  29.676  1.00  0.00     0.031 A 
ATOM     46  C   UNL A   1      41.763  30.845  29.505  1.00  0.00     0.074 A 
ATOM     47  C   UNL A   1      40.635  28.658  29.295  1.00  0.00     0.049 A 
ATOM     48  N   UNL A   1      42.932  30.580  28.979  1.00  0.00    -0.248 NA
ATOM     49  C   UNL A   1      41.623  32.224  29.998  1.00  0.00     0.031 C 
ATOM     50  C   UNL A   1      39.565  27.677  29.456  1.00  0.00     0.029 A 
ATOM     51  N   UNL A   1      41.653  27.955  28.701  1.00  0.00    -0.354 N 
ATOM     52  C   UNL A   1      43.667  31.754  29.085  1.00  0.00     0.074 A 
ATOM     53  C   UNL A   1      42.804  32.744  29.691  1.00  0.00     0.031 C 
ATOM     54  C   UNL A   1      39.985  26.493  28.975  1.00  0.00     0.029 A 
ATOM     55  C   UNL A   1      41.341  26.642  28.449  1.00  0.00     0.049 A 
ATOM     56  H   UNL A   1      42.525  28.354  28.478  1.00  0.00     0.167 HD
ATOM     57  C   UNL A   1      44.952  31.981  28.725  1.00  0.00     0.037 A 
ATOM     58  C   UNL A   1      42.064  25.674  27.852  1.00  0.00     0.037 A 
ATOM     59  C   UNL A   1      45.810  30.999  28.120  1.00  0.00     0.049 A 
ATOM     60  C   UNL A   1      43.458  25.980  27.371  1.00  0.00     0.074 A 
ATOM     61  C   UNL A   1      47.130  31.135  27.725  1.00  0.00     0.029 A 
ATOM     62  N   UNL A   1      45.432  29.700  27.817  1.00  0.00    -0.354 N 
ATOM     63  N   UNL A   1      44.148  27.089  27.489  1.00  0.00    -0.248 NA
ATOM     64  C   UNL A   1      44.172  24.902  26.669  1.00  0.00     0.031 C 
ATOM     65  C   UNL A   1      47.536  29.933  27.141  1.00  0.00     0.029 A 
ATOM     66  C   UNL A   1      46.485  29.032  27.215  1.00  0.00     0.049 A 
ATOM     67  H   UNL A   1      44.548  29.310  28.003  1.00  0.00     0.167 HD
ATOM     68  C   UNL A   1      45.381  26.836  26.900  1.00  0.00     0.074 A 
ATOM     69  C   UNL A   1      45.349  25.466  26.433  1.00  0.00     0.031 C 
ATOM     70  C   UNL A   1      46.442  27.666  26.759  1.00  0.00     0.037 A 
BRANCH  57  71
ATOM     71  C   UNL A   1      45.510  33.351  28.969  1.00  0.00     0.057 A 
ATOM     72  C   UNL A   1      45.375  34.379  28.027  1.00  0.00     0.134 A 
ATOM     73  C   UNL A   1      46.138  33.662  30.181  1.00  0.00     0.134 A 
ATOM     74  F   UNL A   1      44.794  34.142  26.842  1.00  0.00    -0.206 F 
ATOM     75  C   UNL A   1      45.857  35.665  28.277  1.00  0.00     0.040 A 
ATOM     76  C   UNL A   1      46.604  34.949  30.453  1.00  0.00     0.040 A 
ATOM     77  F   UNL A   1      46.295  32.724  31.128  1.00  0.00    -0.206 F 
ATOM     78  C   UNL A   1      46.465  35.955  29.497  1.00  0.00     0.006 A 
ENDBRANCH  57  71
BRANCH  58  79
ATOM     79  C   UNL A   1      41.483  24.320  27.676  1.00  0.00     0.057 A 
ATOM     80  C   UNL A   1      40.506  24.074  26.705  1.00  0.00     0.134 A 
ATOM     81  C   UNL A   1      41.889  23.241  28.470  1.00  0.00     0.134 A 
ATOM     82  F   UNL A   1      40.058  25.073  25.930  1.00  0.00    -0.206 F 
ATOM     83  C   UNL A   1      39.950  22.805  26.533  1.00  0.00     0.040 A 
ATOM     84  C   UNL A   1      41.359  21.963  28.294  1.00  0.00     0.040 A 
ATOM     85  F   UNL A   1      42.820  23.413  29.420  1.00  0.00    -0.206 F 
ATOM     86  C   UNL A   1      40.383  21.743  27.325  1.00  0.00     0.006 A 
ENDBRANCH  58  79
BRANCH  70  87
ATOM     87  C   UNL A   1      47.670  27.125  26.088  1.00  0.00     0.057 A 
ATOM     88  C   UNL A   1      47.879  27.273  24.711  1.00  0.00     0.134 A 
ATOM     89  C   UNL A   1      48.693  26.532  26.839  1.00  0.00     0.134 A 
ATOM     90  F   UNL A   1      46.934  27.826  23.935  1.00  0.00    -0.206 F 
ATOM     91  C   UNL A   1      49.062  26.846  24.104  1.00  0.00     0.040 A 
ATOM     92  C   UNL A   1      49.889  26.122  26.247  1.00  0.00     0.040 A 
ATOM     93  F   UNL A   1      48.559  26.371  28.164  1.00  0.00    -0.206 F 
ATOM     94  C   UNL A   1      50.075  26.278  24.876  1.00  0.00     0.006 A 
ENDBRANCH  70  87
ENDBRANCH  44  45
ENDBRANCH  37  39
ENDBRANCH  36  37
ENDBRANCH  35  36
ENDBRANCH  34  35
ENDBRANCH  33  34
ENDBRANCH   1  33
TORSDOF 18
ENDMDL
