MODEL 1
REMARK VINA RESULT:     -10.4      0.000      0.000
REMARK SMILES CCCOc1ccc(C[N@H+]2CC[C@H](C(=O)OCCOCCOC(=O)c3ccc(-c4c5nc(c(-c6c(F)cccc6F)c6ccc([nH]6)c(-c6c(F)cccc6F)c6nc(c(-c7c(F)cccc7F)c7ccc4[nH]7)C=C6)C=C5)cc3)[C@@H]2C)cc1
REMARK SMILES IDX 17 1 16 2 14 3 15 4 13 5 10 6 11 7 79 8 12 10 80 11 9 12
REMARK SMILES IDX 8 13 5 14 6 15 82 16 7 17 81 18 4 19 3 20 2 21 1 22 18 23
REMARK SMILES IDX 19 24 20 25 21 26 22 27 23 28 24 29 25 30 26 31 78 32 27 33
REMARK SMILES IDX 77 34 28 35 29 36 30 37 71 38 31 39 76 40 70 41 72 42 32 43
REMARK SMILES IDX 75 44 69 45 68 46 33 48 59 49 42 50 58 51 43 52 46 53 57 54
REMARK SMILES IDX 73 55 44 56 45 57 56 59 74 60 47 61 34 62 35 63 40 64 36 65
REMARK SMILES IDX 37 66 39 67 41 68 38 69 60 70 61 71 66 72 62 73 63 74 65 75
REMARK SMILES IDX 67 76 64 77 48 78 49 79 54 80 50 81 51 82 53 83 55 84 52 85
REMARK H PARENT 10 9 72 47 46 58
REMARK Flexibility Score: inf
ROOT
ATOM      1  C   UNL A   1      34.918  21.117  25.301  1.00  0.00     0.261 C 
ENDROOT
BRANCH   1   2
ATOM      2  O   UNL A   1      33.765  21.925  25.051  1.00  0.00    -0.463 OA
BRANCH   2   3
ATOM      3  C   UNL A   1      32.566  21.313  25.265  1.00  0.00     0.315 C 
ATOM      4  O   UNL A   1      32.323  20.139  25.027  1.00  0.00    -0.252 OA
BRANCH   3   5
ATOM      5  C   UNL A   1      31.579  22.319  25.812  1.00  0.00     0.162 C 
ATOM      6  N   UNL A   1      31.706  24.673  25.285  1.00  0.00    -0.328 N 
ATOM      7  C   UNL A   1      32.710  24.346  26.300  1.00  0.00     0.263 C 
ATOM      8  C   UNL A   1      31.104  23.407  24.831  1.00  0.00     0.195 C 
ATOM      9  H   UNL A   1      32.174  25.130  24.503  1.00  0.00     0.348 HD
ATOM     10  C   UNL A   1      32.233  23.066  26.960  1.00  0.00     0.083 C 
ATOM     11  C   UNL A   1      31.411  23.214  23.347  1.00  0.00     0.076 C 
BRANCH   6  12
ATOM     12  C   UNL A   1      30.745  25.723  25.649  1.00  0.00     0.299 C 
BRANCH  12  13
ATOM     13  C   UNL A   1      30.453  26.770  24.594  1.00  0.00     0.006 A 
ATOM     14  C   UNL A   1      29.918  28.791  22.741  1.00  0.00     0.119 A 
ATOM     15  C   UNL A   1      28.932  27.853  23.034  1.00  0.00     0.047 A 
ATOM     16  C   UNL A   1      31.140  28.761  23.397  1.00  0.00     0.047 A 
ATOM     17  C   UNL A   1      29.200  26.845  23.964  1.00  0.00     0.013 A 
ATOM     18  C   UNL A   1      31.431  27.719  24.267  1.00  0.00     0.013 A 
BRANCH  14  19
ATOM     19  O   UNL A   1      29.682  29.780  21.831  1.00  0.00    -0.494 OA
BRANCH  19  20
ATOM     20  C   UNL A   1      28.271  29.990  21.651  1.00  0.00     0.229 C 
BRANCH  20  21
ATOM     21  C   UNL A   1      27.822  31.388  22.099  1.00  0.00     0.038 C 
ATOM     22  C   UNL A   1      27.502  31.470  23.588  1.00  0.00     0.007 C 
ENDBRANCH  20  21
ENDBRANCH  19  20
ENDBRANCH  14  19
ENDBRANCH  12  13
ENDBRANCH   6  12
ENDBRANCH   3   5
ENDBRANCH   2   3
ENDBRANCH   1   2
BRANCH   1  23
ATOM     23  C   UNL A   1      36.147  21.989  25.576  1.00  0.00     0.202 C 
BRANCH  23  24
ATOM     24  O   UNL A   1      37.426  21.446  25.255  1.00  0.00    -0.374 OA
BRANCH  24  25
ATOM     25  C   UNL A   1      37.509  20.071  24.878  1.00  0.00     0.202 C 
BRANCH  25  26
ATOM     26  C   UNL A   1      38.736  19.262  25.315  1.00  0.00     0.261 C 
BRANCH  26  27
ATOM     27  O   UNL A   1      39.578  19.974  26.237  1.00  0.00    -0.460 OA
BRANCH  27  28
ATOM     28  C   UNL A   1      40.898  19.686  26.134  1.00  0.00     0.338 C 
ATOM     29  O   UNL A   1      41.408  18.669  25.695  1.00  0.00    -0.246 OA
BRANCH  28  30
ATOM     30  C   UNL A   1      41.691  20.878  26.475  1.00  0.00     0.060 A 
ATOM     31  C   UNL A   1      41.934  21.139  27.829  1.00  0.00     0.016 A 
ATOM     32  C   UNL A   1      42.101  21.774  25.488  1.00  0.00     0.016 A 
ATOM     33  C   UNL A   1      42.569  22.317  28.207  1.00  0.00     0.010 A 
ATOM     34  C   UNL A   1      42.723  22.966  25.870  1.00  0.00     0.010 A 
ATOM     35  C   UNL A   1      42.934  23.253  27.231  1.00  0.00    -0.014 A 
BRANCH  35  36
ATOM     36  C   UNL A   1      43.411  24.591  27.644  1.00  0.00     0.031 A 
ATOM     37  C   UNL A   1      42.407  25.616  28.088  1.00  0.00     0.074 A 
ATOM     38  C   UNL A   1      44.724  24.878  27.637  1.00  0.00     0.049 A 
ATOM     39  N   UNL A   1      42.593  26.864  28.432  1.00  0.00    -0.248 NA
ATOM     40  C   UNL A   1      41.005  25.175  28.150  1.00  0.00     0.031 C 
ATOM     41  C   UNL A   1      45.789  23.947  27.270  1.00  0.00     0.029 A 
ATOM     42  N   UNL A   1      45.380  26.043  27.939  1.00  0.00    -0.354 N 
ATOM     43  C   UNL A   1      41.334  27.360  28.744  1.00  0.00     0.074 A 
ATOM     44  C   UNL A   1      40.389  26.286  28.525  1.00  0.00     0.031 C 
ATOM     45  C   UNL A   1      46.970  24.585  27.352  1.00  0.00     0.029 A 
ATOM     46  C   UNL A   1      46.737  25.972  27.743  1.00  0.00     0.049 A 
ATOM     47  H   UNL A   1      44.923  26.851  28.264  1.00  0.00     0.167 HD
ATOM     48  C   UNL A   1      40.999  28.596  29.180  1.00  0.00     0.037 A 
ATOM     49  C   UNL A   1      47.678  26.932  27.843  1.00  0.00     0.037 A 
ATOM     50  C   UNL A   1      41.945  29.660  29.392  1.00  0.00     0.049 A 
ATOM     51  C   UNL A   1      47.270  28.322  28.251  1.00  0.00     0.074 A 
ATOM     52  C   UNL A   1      41.712  30.945  29.849  1.00  0.00     0.029 A 
ATOM     53  N   UNL A   1      43.307  29.561  29.151  1.00  0.00    -0.354 N 
ATOM     54  N   UNL A   1      46.080  28.776  28.566  1.00  0.00    -0.248 NA
ATOM     55  C   UNL A   1      48.335  29.332  28.318  1.00  0.00     0.031 C 
ATOM     56  C   UNL A   1      42.926  31.639  29.838  1.00  0.00     0.029 A 
ATOM     57  C   UNL A   1      43.924  30.771  29.423  1.00  0.00     0.049 A 
ATOM     58  H   UNL A   1      43.768  28.751  28.835  1.00  0.00     0.167 HD
ATOM     59  C   UNL A   1      46.258  30.115  28.891  1.00  0.00     0.074 A 
ATOM     60  C   UNL A   1      47.671  30.396  28.747  1.00  0.00     0.031 C 
ATOM     61  C   UNL A   1      45.334  31.030  29.277  1.00  0.00     0.037 A 
BRANCH  48  62
ATOM     62  C   UNL A   1      39.546  28.873  29.428  1.00  0.00     0.057 A 
ATOM     63  C   UNL A   1      38.962  28.700  30.689  1.00  0.00     0.134 A 
ATOM     64  C   UNL A   1      38.724  29.342  28.395  1.00  0.00     0.134 A 
ATOM     65  F   UNL A   1      39.690  28.237  31.717  1.00  0.00    -0.206 F 
ATOM     66  C   UNL A   1      37.608  28.962  30.909  1.00  0.00     0.040 A 
ATOM     67  C   UNL A   1      37.376  29.632  28.608  1.00  0.00     0.040 A 
ATOM     68  F   UNL A   1      39.220  29.532  27.163  1.00  0.00    -0.206 F 
ATOM     69  C   UNL A   1      36.813  29.437  29.868  1.00  0.00     0.006 A 
ENDBRANCH  48  62
BRANCH  49  70
ATOM     70  C   UNL A   1      49.094  26.616  27.531  1.00  0.00     0.057 A 
ATOM     71  C   UNL A   1      49.580  26.679  26.221  1.00  0.00     0.134 A 
ATOM     72  C   UNL A   1      49.991  26.230  28.535  1.00  0.00     0.134 A 
ATOM     73  F   UNL A   1      48.763  27.019  25.214  1.00  0.00    -0.206 F 
ATOM     74  C   UNL A   1      50.904  26.357  25.917  1.00  0.00     0.040 A 
ATOM     75  C   UNL A   1      51.324  25.929  28.249  1.00  0.00     0.040 A 
ATOM     76  F   UNL A   1      49.587  26.151  29.811  1.00  0.00    -0.206 F 
ATOM     77  C   UNL A   1      51.781  25.985  26.934  1.00  0.00     0.006 A 
ENDBRANCH  49  70
BRANCH  61  78
ATOM     78  C   UNL A   1      45.826  32.410  29.602  1.00  0.00     0.057 A 
ATOM     79  C   UNL A   1      46.282  32.750  30.882  1.00  0.00     0.134 A 
ATOM     80  C   UNL A   1      45.887  33.397  28.609  1.00  0.00     0.134 A 
ATOM     81  F   UNL A   1      46.237  31.854  31.880  1.00  0.00    -0.206 F 
ATOM     82  C   UNL A   1      46.765  34.028  31.167  1.00  0.00     0.040 A 
ATOM     83  C   UNL A   1      46.392  34.670  28.876  1.00  0.00     0.040 A 
ATOM     84  F   UNL A   1      45.475  33.133  27.360  1.00  0.00    -0.206 F 
ATOM     85  C   UNL A   1      46.828  34.990  30.160  1.00  0.00     0.006 A 
ENDBRANCH  61  78
ENDBRANCH  35  36
ENDBRANCH  28  30
ENDBRANCH  27  28
ENDBRANCH  26  27
ENDBRANCH  25  26
ENDBRANCH  24  25
ENDBRANCH  23  24
ENDBRANCH   1  23
TORSDOF 19
ENDMDL
MODEL 2
REMARK VINA RESULT:     -10.3      4.678      9.666
REMARK SMILES CCCOc1ccc(C[N@H+]2CC[C@H](C(=O)OCCOCCOC(=O)c3ccc(-c4c5nc(c(-c6c(F)cccc6F)c6ccc([nH]6)c(-c6c(F)cccc6F)c6nc(c(-c7c(F)cccc7F)c7ccc4[nH]7)C=C6)C=C5)cc3)[C@@H]2C)cc1
REMARK SMILES IDX 17 1 16 2 14 3 15 4 13 5 10 6 11 7 79 8 12 10 80 11 9 12
REMARK SMILES IDX 8 13 5 14 6 15 82 16 7 17 81 18 4 19 3 20 2 21 1 22 18 23
REMARK SMILES IDX 19 24 20 25 21 26 22 27 23 28 24 29 25 30 26 31 78 32 27 33
REMARK SMILES IDX 77 34 28 35 29 36 30 37 71 38 31 39 76 40 70 41 72 42 32 43
REMARK SMILES IDX 75 44 69 45 68 46 33 48 59 49 42 50 58 51 43 52 46 53 57 54
REMARK SMILES IDX 73 55 44 56 45 57 56 59 74 60 47 61 34 62 35 63 40 64 36 65
REMARK SMILES IDX 37 66 39 67 41 68 38 69 60 70 61 71 66 72 62 73 63 74 65 75
REMARK SMILES IDX 67 76 64 77 48 78 49 79 54 80 50 81 51 82 53 83 55 84 52 85
REMARK H PARENT 10 9 72 47 46 58
REMARK Flexibility Score: inf
ROOT
ATOM      1  C   UNL A   1      31.241  29.155  24.021  1.00  0.00     0.261 C 
ENDROOT
BRANCH   1   2
ATOM      2  O   UNL A   1      31.663  27.816  23.749  1.00  0.00    -0.463 OA
BRANCH   2   3
ATOM      3  C   UNL A   1      31.244  27.303  22.558  1.00  0.00     0.315 C 
ATOM      4  O   UNL A   1      30.192  27.583  22.003  1.00  0.00    -0.252 OA
BRANCH   3   5
ATOM      5  C   UNL A   1      32.267  26.313  22.049  1.00  0.00     0.162 C 
ATOM      6  N   UNL A   1      33.165  24.553  23.439  1.00  0.00    -0.328 N 
ATOM      7  C   UNL A   1      33.813  25.821  23.778  1.00  0.00     0.263 C 
ATOM      8  C   UNL A   1      32.075  24.850  22.493  1.00  0.00     0.195 C 
ATOM      9  H   UNL A   1      32.777  24.149  24.291  1.00  0.00     0.348 HD
ATOM     10  C   UNL A   1      33.634  26.718  22.568  1.00  0.00     0.083 C 
ATOM     11  C   UNL A   1      30.742  24.467  23.131  1.00  0.00     0.076 C 
BRANCH   6  12
ATOM     12  C   UNL A   1      34.061  23.463  23.031  1.00  0.00     0.299 C 
BRANCH  12  13
ATOM     13  C   UNL A   1      33.840  22.120  23.694  1.00  0.00     0.006 A 
ATOM     14  C   UNL A   1      33.338  19.695  24.989  1.00  0.00     0.119 A 
ATOM     15  C   UNL A   1      34.535  20.363  25.228  1.00  0.00     0.047 A 
ATOM     16  C   UNL A   1      32.374  20.246  24.157  1.00  0.00     0.047 A 
ATOM     17  C   UNL A   1      34.783  21.578  24.584  1.00  0.00     0.013 A 
ATOM     18  C   UNL A   1      32.650  21.417  23.462  1.00  0.00     0.013 A 
BRANCH  14  19
ATOM     19  O   UNL A   1      33.076  18.504  25.601  1.00  0.00    -0.494 OA
BRANCH  19  20
ATOM     20  C   UNL A   1      32.429  17.591  24.698  1.00  0.00     0.229 C 
BRANCH  20  21
ATOM     21  C   UNL A   1      33.110  16.216  24.663  1.00  0.00     0.038 C 
ATOM     22  C   UNL A   1      34.598  16.272  24.993  1.00  0.00     0.007 C 
ENDBRANCH  20  21
ENDBRANCH  19  20
ENDBRANCH  14  19
ENDBRANCH  12  13
ENDBRANCH   6  12
ENDBRANCH   3   5
ENDBRANCH   2   3
ENDBRANCH   1   2
BRANCH   1  23
ATOM     23  C   UNL A   1      31.727  29.612  25.400  1.00  0.00     0.202 C 
BRANCH  23  24
ATOM     24  O   UNL A   1      31.424  30.947  25.797  1.00  0.00    -0.374 OA
BRANCH  24  25
ATOM     25  C   UNL A   1      32.148  31.516  26.889  1.00  0.00     0.202 C 
BRANCH  25  26
ATOM     26  C   UNL A   1      31.896  32.984  27.252  1.00  0.00     0.261 C 
BRANCH  26  27
ATOM     27  O   UNL A   1      33.094  33.778  27.245  1.00  0.00    -0.460 OA
BRANCH  27  28
ATOM     28  C   UNL A   1      33.279  34.532  28.356  1.00  0.00     0.338 C 
ATOM     29  O   UNL A   1      32.593  35.458  28.751  1.00  0.00    -0.246 OA
BRANCH  28  30
ATOM     30  C   UNL A   1      34.367  33.959  29.165  1.00  0.00     0.060 A 
ATOM     31  C   UNL A   1      35.685  34.275  28.809  1.00  0.00     0.016 A 
ATOM     32  C   UNL A   1      34.100  33.051  30.188  1.00  0.00     0.016 A 
ATOM     33  C   UNL A   1      36.748  33.660  29.462  1.00  0.00     0.010 A 
ATOM     34  C   UNL A   1      35.169  32.421  30.832  1.00  0.00     0.010 A 
ATOM     35  C   UNL A   1      36.493  32.703  30.453  1.00  0.00    -0.014 A 
BRANCH  35  36
ATOM     36  C   UNL A   1      37.610  31.898  30.994  1.00  0.00     0.031 A 
ATOM     37  C   UNL A   1      38.087  32.165  32.394  1.00  0.00     0.074 A 
ATOM     38  C   UNL A   1      38.178  30.934  30.251  1.00  0.00     0.049 A 
ATOM     39  N   UNL A   1      39.084  31.626  33.046  1.00  0.00    -0.248 NA
ATOM     40  C   UNL A   1      37.340  33.175  33.159  1.00  0.00     0.031 C 
ATOM     41  C   UNL A   1      37.766  30.558  28.899  1.00  0.00     0.029 A 
ATOM     42  N   UNL A   1      39.231  30.102  30.528  1.00  0.00    -0.354 N 
ATOM     43  C   UNL A   1      39.090  32.235  34.294  1.00  0.00     0.074 A 
ATOM     44  C   UNL A   1      38.014  33.202  34.299  1.00  0.00     0.031 C 
ATOM     45  C   UNL A   1      38.573  29.578  28.457  1.00  0.00     0.029 A 
ATOM     46  C   UNL A   1      39.573  29.285  29.480  1.00  0.00     0.049 A 
ATOM     47  H   UNL A   1      39.697  30.091  31.395  1.00  0.00     0.167 HD
ATOM     48  C   UNL A   1      39.915  32.004  35.341  1.00  0.00     0.037 A 
ATOM     49  C   UNL A   1      40.598  28.419  29.354  1.00  0.00     0.037 A 
ATOM     50  C   UNL A   1      40.986  31.042  35.327  1.00  0.00     0.049 A 
ATOM     51  C   UNL A   1      41.551  28.237  30.505  1.00  0.00     0.074 A 
ATOM     52  C   UNL A   1      41.869  30.717  36.341  1.00  0.00     0.029 A 
ATOM     53  N   UNL A   1      41.324  30.256  34.236  1.00  0.00    -0.354 N 
ATOM     54  N   UNL A   1      41.537  28.801  31.689  1.00  0.00    -0.248 NA
ATOM     55  C   UNL A   1      42.664  27.300  30.301  1.00  0.00     0.031 C 
ATOM     56  C   UNL A   1      42.772  29.770  35.848  1.00  0.00     0.029 A 
ATOM     57  C   UNL A   1      42.420  29.467  34.542  1.00  0.00     0.049 A 
ATOM     58  H   UNL A   1      40.853  30.258  33.370  1.00  0.00     0.167 HD
ATOM     59  C   UNL A   1      42.620  28.269  32.377  1.00  0.00     0.074 A 
ATOM     60  C   UNL A   1      43.263  27.329  31.483  1.00  0.00     0.031 C 
ATOM     61  C   UNL A   1      43.043  28.534  33.638  1.00  0.00     0.037 A 
BRANCH  48  62
ATOM     62  C   UNL A   1      39.709  32.825  36.579  1.00  0.00     0.057 A 
ATOM     63  C   UNL A   1      40.453  33.985  36.833  1.00  0.00     0.134 A 
ATOM     64  C   UNL A   1      38.736  32.465  37.519  1.00  0.00     0.134 A 
ATOM     65  F   UNL A   1      41.413  34.377  35.980  1.00  0.00    -0.206 F 
ATOM     66  C   UNL A   1      40.251  34.744  37.987  1.00  0.00     0.040 A 
ATOM     67  C   UNL A   1      38.506  33.229  38.664  1.00  0.00     0.040 A 
ATOM     68  F   UNL A   1      37.986  31.367  37.337  1.00  0.00    -0.206 F 
ATOM     69  C   UNL A   1      39.270  34.370  38.904  1.00  0.00     0.006 A 
ENDBRANCH  48  62
BRANCH  49  70
ATOM     70  C   UNL A   1      40.788  27.673  28.085  1.00  0.00     0.057 A 
ATOM     71  C   UNL A   1      40.223  26.407  27.896  1.00  0.00     0.134 A 
ATOM     72  C   UNL A   1      41.551  28.203  27.037  1.00  0.00     0.134 A 
ATOM     73  F   UNL A   1      39.502  25.838  28.872  1.00  0.00    -0.206 F 
ATOM     74  C   UNL A   1      40.420  25.688  26.717  1.00  0.00     0.040 A 
ATOM     75  C   UNL A   1      41.737  27.505  25.843  1.00  0.00     0.040 A 
ATOM     76  F   UNL A   1      42.118  29.411  27.156  1.00  0.00    -0.206 F 
ATOM     77  C   UNL A   1      41.175  26.240  25.683  1.00  0.00     0.006 A 
ENDBRANCH  49  70
BRANCH  61  78
ATOM     78  C   UNL A   1      44.237  27.773  34.138  1.00  0.00     0.057 A 
ATOM     79  C   UNL A   1      45.533  28.299  34.062  1.00  0.00     0.134 A 
ATOM     80  C   UNL A   1      44.081  26.519  34.743  1.00  0.00     0.134 A 
ATOM     81  F   UNL A   1      45.751  29.490  33.482  1.00  0.00    -0.206 F 
ATOM     82  C   UNL A   1      46.634  27.597  34.555  1.00  0.00     0.040 A 
ATOM     83  C   UNL A   1      45.171  25.820  35.262  1.00  0.00     0.040 A 
ATOM     84  F   UNL A   1      42.866  25.964  34.855  1.00  0.00    -0.206 F 
ATOM     85  C   UNL A   1      46.452  26.357  35.165  1.00  0.00     0.006 A 
ENDBRANCH  61  78
ENDBRANCH  35  36
ENDBRANCH  28  30
ENDBRANCH  27  28
ENDBRANCH  26  27
ENDBRANCH  25  26
ENDBRANCH  24  25
ENDBRANCH  23  24
ENDBRANCH   1  23
TORSDOF 19
ENDMDL
MODEL 3
REMARK VINA RESULT:     -10.2      2.588      7.990
REMARK SMILES CCCOc1ccc(C[N@H+]2CC[C@H](C(=O)OCCOCCOC(=O)c3ccc(-c4c5nc(c(-c6c(F)cccc6F)c6ccc([nH]6)c(-c6c(F)cccc6F)c6nc(c(-c7c(F)cccc7F)c7ccc4[nH]7)C=C6)C=C5)cc3)[C@@H]2C)cc1
REMARK SMILES IDX 17 1 16 2 14 3 15 4 13 5 10 6 11 7 79 8 12 10 80 11 9 12
REMARK SMILES IDX 8 13 5 14 6 15 82 16 7 17 81 18 4 19 3 20 2 21 1 22 18 23
REMARK SMILES IDX 19 24 20 25 21 26 22 27 23 28 24 29 25 30 26 31 78 32 27 33
REMARK SMILES IDX 77 34 28 35 29 36 30 37 71 38 31 39 76 40 70 41 72 42 32 43
REMARK SMILES IDX 75 44 69 45 68 46 33 48 59 49 42 50 58 51 43 52 46 53 57 54
REMARK SMILES IDX 73 55 44 56 45 57 56 59 74 60 47 61 34 62 35 63 40 64 36 65
REMARK SMILES IDX 37 66 39 67 41 68 38 69 60 70 61 71 66 72 62 73 63 74 65 75
REMARK SMILES IDX 67 76 64 77 48 78 49 79 54 80 50 81 51 82 53 83 55 84 52 85
REMARK H PARENT 10 9 72 47 46 58
REMARK Flexibility Score: inf
ROOT
ATOM      1  C   UNL A   1      30.566  28.769  23.748  1.00  0.00     0.261 C 
ENDROOT
BRANCH   1   2
ATOM      2  O   UNL A   1      30.671  27.562  22.989  1.00  0.00    -0.463 OA
BRANCH   2   3
ATOM      3  C   UNL A   1      30.130  26.456  23.574  1.00  0.00     0.315 C 
ATOM      4  O   UNL A   1      29.095  26.439  24.224  1.00  0.00    -0.252 OA
BRANCH   3   5
ATOM      5  C   UNL A   1      31.026  25.264  23.321  1.00  0.00     0.162 C 
ATOM      6  N   UNL A   1      33.366  25.256  23.917  1.00  0.00    -0.328 N 
ATOM      7  C   UNL A   1      33.180  26.021  22.682  1.00  0.00     0.263 C 
ATOM      8  C   UNL A   1      32.030  24.920  24.437  1.00  0.00     0.195 C 
ATOM      9  H   UNL A   1      33.858  25.844  24.590  1.00  0.00     0.348 HD
ATOM     10  C   UNL A   1      31.868  25.543  22.090  1.00  0.00     0.083 C 
ATOM     11  C   UNL A   1      31.842  25.588  25.798  1.00  0.00     0.076 C 
BRANCH   6  12
ATOM     12  C   UNL A   1      34.305  24.128  23.838  1.00  0.00     0.299 C 
BRANCH  12  13
ATOM     13  C   UNL A   1      33.738  22.754  24.126  1.00  0.00     0.006 A 
ATOM     14  C   UNL A   1      32.574  20.270  24.656  1.00  0.00     0.119 A 
ATOM     15  C   UNL A   1      33.327  20.897  25.644  1.00  0.00     0.047 A 
ATOM     16  C   UNL A   1      32.355  20.889  23.433  1.00  0.00     0.047 A 
ATOM     17  C   UNL A   1      33.905  22.142  25.380  1.00  0.00     0.013 A 
ATOM     18  C   UNL A   1      32.988  22.091  23.146  1.00  0.00     0.013 A 
BRANCH  14  19
ATOM     19  O   UNL A   1      32.006  19.051  24.889  1.00  0.00    -0.494 OA
BRANCH  19  20
ATOM     20  C   UNL A   1      32.985  18.106  25.353  1.00  0.00     0.229 C 
BRANCH  20  21
ATOM     21  C   UNL A   1      33.031  16.835  24.493  1.00  0.00     0.038 C 
ATOM     22  C   UNL A   1      33.935  16.966  23.272  1.00  0.00     0.007 C 
ENDBRANCH  20  21
ENDBRANCH  19  20
ENDBRANCH  14  19
ENDBRANCH  12  13
ENDBRANCH   6  12
ENDBRANCH   3   5
ENDBRANCH   2   3
ENDBRANCH   1   2
BRANCH   1  23
ATOM     23  C   UNL A   1      31.857  29.039  24.526  1.00  0.00     0.202 C 
BRANCH  23  24
ATOM     24  O   UNL A   1      31.901  30.204  25.347  1.00  0.00    -0.374 OA
BRANCH  24  25
ATOM     25  C   UNL A   1      32.104  30.043  26.752  1.00  0.00     0.202 C 
BRANCH  25  26
ATOM     26  C   UNL A   1      32.971  31.068  27.492  1.00  0.00     0.261 C 
BRANCH  26  27
ATOM     27  O   UNL A   1      34.371  30.746  27.461  1.00  0.00    -0.460 OA
BRANCH  27  28
ATOM     28  C   UNL A   1      35.053  31.084  28.582  1.00  0.00     0.338 C 
ATOM     29  O   UNL A   1      34.667  31.770  29.512  1.00  0.00    -0.246 OA
BRANCH  28  30
ATOM     30  C   UNL A   1      36.325  30.344  28.627  1.00  0.00     0.060 A 
ATOM     31  C   UNL A   1      36.748  29.843  29.865  1.00  0.00     0.016 A 
ATOM     32  C   UNL A   1      37.131  30.231  27.496  1.00  0.00     0.016 A 
ATOM     33  C   UNL A   1      37.999  29.248  29.983  1.00  0.00     0.010 A 
ATOM     34  C   UNL A   1      38.396  29.649  27.619  1.00  0.00     0.010 A 
ATOM     35  C   UNL A   1      38.843  29.180  28.867  1.00  0.00    -0.014 A 
BRANCH  35  36
ATOM     36  C   UNL A   1      40.247  28.744  29.039  1.00  0.00     0.031 A 
ATOM     37  C   UNL A   1      41.244  29.712  29.610  1.00  0.00     0.074 A 
ATOM     38  C   UNL A   1      40.619  27.498  28.703  1.00  0.00     0.049 A 
ATOM     39  N   UNL A   1      42.531  29.566  29.790  1.00  0.00    -0.248 NA
ATOM     40  C   UNL A   1      40.719  31.019  30.034  1.00  0.00     0.031 C 
ATOM     41  C   UNL A   1      39.728  26.462  28.184  1.00  0.00     0.029 A 
ATOM     42  N   UNL A   1      41.851  26.897  28.740  1.00  0.00    -0.354 N 
ATOM     43  C   UNL A   1      42.972  30.762  30.340  1.00  0.00     0.074 A 
ATOM     44  C   UNL A   1      41.821  31.633  30.441  1.00  0.00     0.031 C 
ATOM     45  C   UNL A   1      40.448  25.355  27.933  1.00  0.00     0.029 A 
ATOM     46  C   UNL A   1      41.851  25.618  28.244  1.00  0.00     0.049 A 
ATOM     47  H   UNL A   1      42.657  27.340  29.090  1.00  0.00     0.167 HD
ATOM     48  C   UNL A   1      44.223  31.101  30.730  1.00  0.00     0.037 A 
ATOM     49  C   UNL A   1      42.876  24.768  28.038  1.00  0.00     0.037 A 
ATOM     50  C   UNL A   1      45.364  30.230  30.623  1.00  0.00     0.049 A 
ATOM     51  C   UNL A   1      44.271  25.197  28.405  1.00  0.00     0.074 A 
ATOM     52  C   UNL A   1      46.672  30.469  31.005  1.00  0.00     0.029 A 
ATOM     53  N   UNL A   1      45.332  28.953  30.083  1.00  0.00    -0.354 N 
ATOM     54  N   UNL A   1      44.676  26.322  28.944  1.00  0.00    -0.248 NA
ATOM     55  C   UNL A   1      45.352  24.239  28.133  1.00  0.00     0.031 C 
ATOM     56  C   UNL A   1      47.440  29.356  30.652  1.00  0.00     0.029 A 
ATOM     57  C   UNL A   1      46.602  28.402  30.096  1.00  0.00     0.049 A 
ATOM     58  H   UNL A   1      44.525  28.504  29.741  1.00  0.00     0.167 HD
ATOM     59  C   UNL A   1      46.051  26.197  29.100  1.00  0.00     0.074 A 
ATOM     60  C   UNL A   1      46.409  24.883  28.608  1.00  0.00     0.031 C 
ATOM     61  C   UNL A   1      46.938  27.089  29.606  1.00  0.00     0.037 A 
BRANCH  48  62
ATOM     62  C   UNL A   1      44.426  32.481  31.281  1.00  0.00     0.057 A 
ATOM     63  C   UNL A   1      44.329  32.754  32.652  1.00  0.00     0.134 A 
ATOM     64  C   UNL A   1      44.747  33.547  30.432  1.00  0.00     0.134 A 
ATOM     65  F   UNL A   1      44.008  31.781  33.517  1.00  0.00    -0.206 F 
ATOM     66  C   UNL A   1      44.523  34.042  33.154  1.00  0.00     0.040 A 
ATOM     67  C   UNL A   1      44.969  34.833  30.924  1.00  0.00     0.040 A 
ATOM     68  F   UNL A   1      44.858  33.354  29.108  1.00  0.00    -0.206 F 
ATOM     69  C   UNL A   1      44.851  35.085  32.290  1.00  0.00     0.006 A 
ENDBRANCH  48  62
BRANCH  49  70
ATOM     70  C   UNL A   1      42.625  23.435  27.436  1.00  0.00     0.057 A 
ATOM     71  C   UNL A   1      42.666  23.244  26.051  1.00  0.00     0.134 A 
ATOM     72  C   UNL A   1      42.323  22.323  28.233  1.00  0.00     0.134 A 
ATOM     73  F   UNL A   1      42.926  24.276  25.236  1.00  0.00    -0.206 F 
ATOM     74  C   UNL A   1      42.403  22.000  25.477  1.00  0.00     0.040 A 
ATOM     75  C   UNL A   1      42.081  21.067  27.674  1.00  0.00     0.040 A 
ATOM     76  F   UNL A   1      42.268  22.440  29.567  1.00  0.00    -0.206 F 
ATOM     77  C   UNL A   1      42.115  20.905  26.291  1.00  0.00     0.006 A 
ENDBRANCH  49  70
BRANCH  61  78
ATOM     78  C   UNL A   1      48.375  26.663  29.685  1.00  0.00     0.057 A 
ATOM     79  C   UNL A   1      49.273  26.897  28.637  1.00  0.00     0.134 A 
ATOM     80  C   UNL A   1      48.874  26.052  30.843  1.00  0.00     0.134 A 
ATOM     81  F   UNL A   1      48.855  27.465  27.495  1.00  0.00    -0.206 F 
ATOM     82  C   UNL A   1      50.615  26.523  28.731  1.00  0.00     0.040 A 
ATOM     83  C   UNL A   1      50.219  25.698  30.958  1.00  0.00     0.040 A 
ATOM     84  F   UNL A   1      48.068  25.809  31.886  1.00  0.00    -0.206 F 
ATOM     85  C   UNL A   1      51.092  25.928  29.898  1.00  0.00     0.006 A 
ENDBRANCH  61  78
ENDBRANCH  35  36
ENDBRANCH  28  30
ENDBRANCH  27  28
ENDBRANCH  26  27
ENDBRANCH  25  26
ENDBRANCH  24  25
ENDBRANCH  23  24
ENDBRANCH   1  23
TORSDOF 19
ENDMDL
