MODEL 1
REMARK VINA RESULT:     -10.4      0.000      0.000
REMARK SMILES CC(C)c1cc(=O)[nH]c(SCC(=O)OCCOCCOC(=O)c2ccc(-c3c4nc(c(-c5c(F)cccc5F)c5ccc([nH]5)c(-c5c(F)cccc5F)c5nc(c(-c6c(F)cccc6F)c6ccc3[nH]6)C=C5)C=C4)cc2)n1
REMARK SMILES IDX 16 1 15 2 14 3 12 4 13 5 11 6 10 7 9 8 4 9 5 10 77 11 6 12
REMARK SMILES IDX 7 13 8 14 2 16 1 17 3 18 17 19 18 20 19 21 20 22 21 23 22 24
REMARK SMILES IDX 23 25 24 26 76 27 25 28 75 29 26 30 27 31 28 32 69 33 29 34
REMARK SMILES IDX 74 35 68 36 70 37 30 38 73 39 67 40 66 41 31 43 57 44 40 45
REMARK SMILES IDX 56 46 41 47 44 48 55 49 71 50 42 51 43 52 54 54 72 55 45 56
REMARK SMILES IDX 32 57 33 58 38 59 34 60 35 61 37 62 39 63 36 64 58 65 59 66
REMARK SMILES IDX 64 67 60 68 61 69 63 70 65 71 62 72 46 73 47 74 52 75 48 76
REMARK SMILES IDX 49 77 51 78 53 79 50 80
REMARK H PARENT 8 15 70 42 44 53
REMARK Flexibility Score: inf
ROOT
ATOM      1  C   UNL A   1      42.944  19.708  26.124  1.00  0.00     0.202 C 
ENDROOT
BRANCH   1   2
ATOM      2  C   UNL A   1      41.424  19.478  26.193  1.00  0.00     0.261 C 
BRANCH   2   3
ATOM      3  O   UNL A   1      40.816  20.051  27.373  1.00  0.00    -0.463 OA
BRANCH   3   4
ATOM      4  C   UNL A   1      40.653  21.405  27.364  1.00  0.00     0.316 C 
ATOM      5  O   UNL A   1      41.129  22.153  28.216  1.00  0.00    -0.251 OA
BRANCH   4   6
ATOM      6  C   UNL A   1      39.793  21.955  26.242  1.00  0.00     0.200 C 
BRANCH   6   7
ATOM      7  S   UNL A   1      38.847  23.452  26.565  1.00  0.00    -0.076 SA
BRANCH   7   8
ATOM      8  C   UNL A   1      37.300  23.199  25.806  1.00  0.00     0.168 A 
ATOM      9  C   UNL A   1      35.022  23.066  25.574  1.00  0.00     0.051 A 
ATOM     10  C   UNL A   1      35.109  22.990  24.232  1.00  0.00     0.095 A 
ATOM     11  N   UNL A   1      36.147  23.148  26.396  1.00  0.00    -0.229 NA
ATOM     12  C   UNL A   1      36.428  23.042  23.597  1.00  0.00     0.251 A 
ATOM     13  O   UNL A   1      36.556  23.056  22.379  1.00  0.00    -0.269 OA
ATOM     14  N   UNL A   1      37.471  23.130  24.458  1.00  0.00    -0.301 N 
ATOM     15  H   UNL A   1      38.386  23.145  24.095  1.00  0.00     0.172 HD
BRANCH   9  16
ATOM     16  C   UNL A   1      33.615  23.148  26.196  1.00  0.00     0.032 C 
ATOM     17  C   UNL A   1      33.460  22.552  27.600  1.00  0.00     0.014 C 
ATOM     18  C   UNL A   1      33.034  24.578  26.199  1.00  0.00     0.014 C 
ENDBRANCH   9  16
ENDBRANCH   7   8
ENDBRANCH   6   7
ENDBRANCH   4   6
ENDBRANCH   3   4
ENDBRANCH   2   3
ENDBRANCH   1   2
BRANCH   1  19
ATOM     19  O   UNL A   1      43.434  20.470  25.022  1.00  0.00    -0.374 OA
BRANCH  19  20
ATOM     20  C   UNL A   1      44.187  21.629  25.346  1.00  0.00     0.202 C 
BRANCH  20  21
ATOM     21  C   UNL A   1      44.261  22.736  24.301  1.00  0.00     0.261 C 
BRANCH  21  22
ATOM     22  O   UNL A   1      43.508  23.869  24.685  1.00  0.00    -0.460 OA
BRANCH  22  23
ATOM     23  C   UNL A   1      44.280  24.872  25.134  1.00  0.00     0.338 C 
ATOM     24  O   UNL A   1      45.398  25.212  24.775  1.00  0.00    -0.246 OA
BRANCH  23  25
ATOM     25  C   UNL A   1      43.458  25.631  26.056  1.00  0.00     0.060 A 
ATOM     26  C   UNL A   1      43.743  26.990  26.174  1.00  0.00     0.016 A 
ATOM     27  C   UNL A   1      42.439  25.004  26.781  1.00  0.00     0.016 A 
ATOM     28  C   UNL A   1      43.052  27.730  27.109  1.00  0.00     0.010 A 
ATOM     29  C   UNL A   1      41.736  25.751  27.707  1.00  0.00     0.010 A 
ATOM     30  C   UNL A   1      42.087  27.094  27.903  1.00  0.00    -0.014 A 
BRANCH  30  31
ATOM     31  C   UNL A   1      41.579  27.812  29.075  1.00  0.00     0.031 A 
ATOM     32  C   UNL A   1      42.322  27.664  30.366  1.00  0.00     0.074 A 
ATOM     33  C   UNL A   1      40.518  28.615  28.933  1.00  0.00     0.049 A 
ATOM     34  N   UNL A   1      42.080  28.216  31.523  1.00  0.00    -0.248 NA
ATOM     35  C   UNL A   1      43.495  26.770  30.356  1.00  0.00     0.031 C 
ATOM     36  C   UNL A   1      39.774  28.818  27.688  1.00  0.00     0.029 A 
ATOM     37  N   UNL A   1      39.890  29.416  29.841  1.00  0.00    -0.354 N 
ATOM     38  C   UNL A   1      43.064  27.736  32.376  1.00  0.00     0.074 A 
ATOM     39  C   UNL A   1      43.881  26.813  31.621  1.00  0.00     0.031 C 
ATOM     40  C   UNL A   1      38.786  29.699  27.913  1.00  0.00     0.029 A 
ATOM     41  C   UNL A   1      38.815  30.088  29.320  1.00  0.00     0.049 A 
ATOM     42  H   UNL A   1      40.180  29.503  30.778  1.00  0.00     0.167 HD
ATOM     43  C   UNL A   1      43.269  28.058  33.671  1.00  0.00     0.037 A 
ATOM     44  C   UNL A   1      37.950  30.912  29.932  1.00  0.00     0.037 A 
ATOM     45  C   UNL A   1      42.433  28.982  34.389  1.00  0.00     0.049 A 
ATOM     46  C   UNL A   1      38.168  31.210  31.388  1.00  0.00     0.074 A 
ATOM     47  C   UNL A   1      42.536  29.401  35.701  1.00  0.00     0.029 A 
ATOM     48  N   UNL A   1      41.329  29.625  33.843  1.00  0.00    -0.354 N 
ATOM     49  N   UNL A   1      39.114  30.776  32.189  1.00  0.00    -0.248 NA
ATOM     50  C   UNL A   1      37.207  32.116  32.025  1.00  0.00     0.031 C 
ATOM     51  C   UNL A   1      41.462  30.259  35.963  1.00  0.00     0.029 A 
ATOM     52  C   UNL A   1      40.725  30.420  34.799  1.00  0.00     0.049 A 
ATOM     53  H   UNL A   1      41.023  29.529  32.912  1.00  0.00     0.167 HD
ATOM     54  C   UNL A   1      38.878  31.372  33.419  1.00  0.00     0.074 A 
ATOM     55  C   UNL A   1      37.709  32.215  33.248  1.00  0.00     0.031 C 
ATOM     56  C   UNL A   1      39.560  31.243  34.584  1.00  0.00     0.037 A 
BRANCH  43  57
ATOM     57  C   UNL A   1      44.406  27.387  34.382  1.00  0.00     0.057 A 
ATOM     58  C   UNL A   1      44.254  26.156  35.035  1.00  0.00     0.134 A 
ATOM     59  C   UNL A   1      45.675  27.979  34.414  1.00  0.00     0.134 A 
ATOM     60  F   UNL A   1      43.060  25.545  35.066  1.00  0.00    -0.206 F 
ATOM     61  C   UNL A   1      45.316  25.550  35.709  1.00  0.00     0.040 A 
ATOM     62  C   UNL A   1      46.751  27.370  35.060  1.00  0.00     0.040 A 
ATOM     63  F   UNL A   1      45.890  29.160  33.815  1.00  0.00    -0.206 F 
ATOM     64  C   UNL A   1      46.572  26.154  35.716  1.00  0.00     0.006 A 
ENDBRANCH  43  57
BRANCH  44  65
ATOM     65  C   UNL A   1      36.822  31.497  29.169  1.00  0.00     0.057 A 
ATOM     66  C   UNL A   1      35.695  30.738  28.839  1.00  0.00     0.134 A 
ATOM     67  C   UNL A   1      36.836  32.839  28.767  1.00  0.00     0.134 A 
ATOM     68  F   UNL A   1      35.625  29.445  29.190  1.00  0.00    -0.206 F 
ATOM     69  C   UNL A   1      34.631  31.284  28.121  1.00  0.00     0.040 A 
ATOM     70  C   UNL A   1      35.767  33.406  28.073  1.00  0.00     0.040 A 
ATOM     71  F   UNL A   1      37.880  33.625  29.066  1.00  0.00    -0.206 F 
ATOM     72  C   UNL A   1      34.663  32.624  27.740  1.00  0.00     0.006 A 
ENDBRANCH  44  65
BRANCH  56  73
ATOM     73  C   UNL A   1      39.070  32.055  35.746  1.00  0.00     0.057 A 
ATOM     74  C   UNL A   1      38.238  31.508  36.730  1.00  0.00     0.134 A 
ATOM     75  C   UNL A   1      39.472  33.388  35.899  1.00  0.00     0.134 A 
ATOM     76  F   UNL A   1      37.810  30.241  36.633  1.00  0.00    -0.206 F 
ATOM     77  C   UNL A   1      37.800  32.269  37.814  1.00  0.00     0.040 A 
ATOM     78  C   UNL A   1      39.067  34.148  36.995  1.00  0.00     0.040 A 
ATOM     79  F   UNL A   1      40.280  33.965  34.996  1.00  0.00    -0.206 F 
ATOM     80  C   UNL A   1      38.222  33.590  37.952  1.00  0.00     0.006 A 
ENDBRANCH  56  73
ENDBRANCH  30  31
ENDBRANCH  23  25
ENDBRANCH  22  23
ENDBRANCH  21  22
ENDBRANCH  20  21
ENDBRANCH  19  20
ENDBRANCH   1  19
TORSDOF 17
ENDMDL
MODEL 2
REMARK VINA RESULT:     -10.1      4.557      6.986
REMARK SMILES CC(C)c1cc(=O)[nH]c(SCC(=O)OCCOCCOC(=O)c2ccc(-c3c4nc(c(-c5c(F)cccc5F)c5ccc([nH]5)c(-c5c(F)cccc5F)c5nc(c(-c6c(F)cccc6F)c6ccc3[nH]6)C=C5)C=C4)cc2)n1
REMARK SMILES IDX 16 1 15 2 14 3 12 4 13 5 11 6 10 7 9 8 4 9 5 10 77 11 6 12
REMARK SMILES IDX 7 13 8 14 2 16 1 17 3 18 17 19 18 20 19 21 20 22 21 23 22 24
REMARK SMILES IDX 23 25 24 26 76 27 25 28 75 29 26 30 27 31 28 32 69 33 29 34
REMARK SMILES IDX 74 35 68 36 70 37 30 38 73 39 67 40 66 41 31 43 57 44 40 45
REMARK SMILES IDX 56 46 41 47 44 48 55 49 71 50 42 51 43 52 54 54 72 55 45 56
REMARK SMILES IDX 32 57 33 58 38 59 34 60 35 61 37 62 39 63 36 64 58 65 59 66
REMARK SMILES IDX 64 67 60 68 61 69 63 70 65 71 62 72 46 73 47 74 52 75 48 76
REMARK SMILES IDX 49 77 51 78 53 79 50 80
REMARK H PARENT 8 15 70 42 44 53
REMARK Flexibility Score: inf
ROOT
ATOM      1  C   UNL A   1      37.893  22.743  25.763  1.00  0.00     0.202 C 
ENDROOT
BRANCH   1   2
ATOM      2  C   UNL A   1      36.639  23.614  25.953  1.00  0.00     0.261 C 
BRANCH   2   3
ATOM      3  O   UNL A   1      35.589  23.313  25.006  1.00  0.00    -0.463 OA
BRANCH   3   4
ATOM      4  C   UNL A   1      34.623  22.453  25.440  1.00  0.00     0.316 C 
ATOM      5  O   UNL A   1      34.709  21.799  26.476  1.00  0.00    -0.251 OA
BRANCH   4   6
ATOM      6  C   UNL A   1      33.419  22.307  24.528  1.00  0.00     0.200 C 
BRANCH   6   7
ATOM      7  S   UNL A   1      32.096  21.205  25.053  1.00  0.00    -0.076 SA
BRANCH   7   8
ATOM      8  C   UNL A   1      32.594  19.610  24.559  1.00  0.00     0.168 A 
ATOM      9  C   UNL A   1      33.292  17.433  24.732  1.00  0.00     0.051 A 
ATOM     10  C   UNL A   1      33.052  17.195  23.429  1.00  0.00     0.095 A 
ATOM     11  N   UNL A   1      33.083  18.681  25.319  1.00  0.00    -0.229 NA
ATOM     12  C   UNL A   1      32.506  18.269  22.594  1.00  0.00     0.251 A 
ATOM     13  O   UNL A   1      32.198  18.082  21.424  1.00  0.00    -0.269 OA
ATOM     14  N   UNL A   1      32.323  19.450  23.235  1.00  0.00    -0.301 N 
ATOM     15  H   UNL A   1      31.982  20.219  22.724  1.00  0.00     0.172 HD
BRANCH   9  16
ATOM     16  C   UNL A   1      33.733  16.243  25.606  1.00  0.00     0.032 C 
ATOM     17  C   UNL A   1      32.851  14.991  25.540  1.00  0.00     0.014 C 
ATOM     18  C   UNL A   1      35.201  15.825  25.370  1.00  0.00     0.014 C 
ENDBRANCH   9  16
ENDBRANCH   7   8
ENDBRANCH   6   7
ENDBRANCH   4   6
ENDBRANCH   3   4
ENDBRANCH   2   3
ENDBRANCH   1   2
BRANCH   1  19
ATOM     19  O   UNL A   1      37.881  21.818  24.677  1.00  0.00    -0.374 OA
BRANCH  19  20
ATOM     20  C   UNL A   1      37.700  20.452  25.018  1.00  0.00     0.202 C 
BRANCH  20  21
ATOM     21  C   UNL A   1      38.947  19.585  25.140  1.00  0.00     0.261 C 
BRANCH  21  22
ATOM     22  O   UNL A   1      39.689  19.896  26.302  1.00  0.00    -0.460 OA
BRANCH  22  23
ATOM     23  C   UNL A   1      40.995  19.613  26.171  1.00  0.00     0.338 C 
ATOM     24  O   UNL A   1      41.531  18.595  25.756  1.00  0.00    -0.246 OA
BRANCH  23  25
ATOM     25  C   UNL A   1      41.706  20.841  26.466  1.00  0.00     0.060 A 
ATOM     26  C   UNL A   1      41.968  21.105  27.809  1.00  0.00     0.016 A 
ATOM     27  C   UNL A   1      42.094  21.702  25.434  1.00  0.00     0.016 A 
ATOM     28  C   UNL A   1      42.555  22.306  28.142  1.00  0.00     0.010 A 
ATOM     29  C   UNL A   1      42.698  22.900  25.769  1.00  0.00     0.010 A 
ATOM     30  C   UNL A   1      42.872  23.216  27.125  1.00  0.00    -0.014 A 
BRANCH  30  31
ATOM     31  C   UNL A   1      43.217  24.587  27.509  1.00  0.00     0.031 A 
ATOM     32  C   UNL A   1      44.652  25.002  27.422  1.00  0.00     0.074 A 
ATOM     33  C   UNL A   1      42.235  25.428  27.860  1.00  0.00     0.049 A 
ATOM     34  N   UNL A   1      45.191  26.161  27.683  1.00  0.00    -0.248 NA
ATOM     35  C   UNL A   1      45.613  23.972  26.985  1.00  0.00     0.031 C 
ATOM     36  C   UNL A   1      40.814  25.082  27.933  1.00  0.00     0.029 A 
ATOM     37  N   UNL A   1      42.285  26.745  28.209  1.00  0.00    -0.354 N 
ATOM     38  C   UNL A   1      46.550  25.999  27.446  1.00  0.00     0.074 A 
ATOM     39  C   UNL A   1      46.763  24.622  27.065  1.00  0.00     0.031 C 
ATOM     40  C   UNL A   1      40.122  26.171  28.301  1.00  0.00     0.029 A 
ATOM     41  C   UNL A   1      41.058  27.271  28.519  1.00  0.00     0.049 A 
ATOM     42  H   UNL A   1      43.119  27.267  28.235  1.00  0.00     0.167 HD
ATOM     43  C   UNL A   1      47.523  26.932  27.527  1.00  0.00     0.037 A 
ATOM     44  C   UNL A   1      40.745  28.505  28.946  1.00  0.00     0.037 A 
ATOM     45  C   UNL A   1      47.270  28.295  27.911  1.00  0.00     0.049 A 
ATOM     46  C   UNL A   1      41.855  29.508  29.080  1.00  0.00     0.074 A 
ATOM     47  C   UNL A   1      48.164  29.341  28.024  1.00  0.00     0.029 A 
ATOM     48  N   UNL A   1      46.018  28.792  28.251  1.00  0.00    -0.354 N 
ATOM     49  N   UNL A   1      43.136  29.362  28.832  1.00  0.00    -0.248 NA
ATOM     50  C   UNL A   1      41.479  30.847  29.546  1.00  0.00     0.031 C 
ATOM     51  C   UNL A   1      47.461  30.460  28.484  1.00  0.00     0.029 A 
ATOM     52  C   UNL A   1      46.119  30.126  28.600  1.00  0.00     0.049 A 
ATOM     53  H   UNL A   1      45.183  28.271  28.245  1.00  0.00     0.167 HD
ATOM     54  C   UNL A   1      43.718  30.595  29.088  1.00  0.00     0.074 A 
ATOM     55  C   UNL A   1      42.642  31.480  29.493  1.00  0.00     0.031 C 
ATOM     56  C   UNL A   1      45.019  30.970  28.998  1.00  0.00     0.037 A 
BRANCH  43  57
ATOM     57  C   UNL A   1      48.927  26.499  27.227  1.00  0.00     0.057 A 
ATOM     58  C   UNL A   1      49.462  26.551  25.932  1.00  0.00     0.134 A 
ATOM     59  C   UNL A   1      49.759  26.024  28.248  1.00  0.00     0.134 A 
ATOM     60  F   UNL A   1      48.711  26.971  24.903  1.00  0.00    -0.206 F 
ATOM     61  C   UNL A   1      50.765  26.127  25.662  1.00  0.00     0.040 A 
ATOM     62  C   UNL A   1      51.072  25.624  27.996  1.00  0.00     0.040 A 
ATOM     63  F   UNL A   1      49.310  25.942  29.510  1.00  0.00    -0.206 F 
ATOM     64  C   UNL A   1      51.577  25.669  26.698  1.00  0.00     0.006 A 
ENDBRANCH  43  57
BRANCH  44  65
ATOM     65  C   UNL A   1      39.337  28.840  29.268  1.00  0.00     0.057 A 
ATOM     66  C   UNL A   1      38.479  29.377  28.303  1.00  0.00     0.134 A 
ATOM     67  C   UNL A   1      38.811  28.612  30.546  1.00  0.00     0.134 A 
ATOM     68  F   UNL A   1      38.927  29.623  27.063  1.00  0.00    -0.206 F 
ATOM     69  C   UNL A   1      37.153  29.693  28.601  1.00  0.00     0.040 A 
ATOM     70  C   UNL A   1      37.480  28.898  30.849  1.00  0.00     0.040 A 
ATOM     71  F   UNL A   1      39.578  28.085  31.510  1.00  0.00    -0.206 F 
ATOM     72  C   UNL A   1      36.649  29.449  29.877  1.00  0.00     0.006 A 
ENDBRANCH  44  65
BRANCH  56  73
ATOM     73  C   UNL A   1      45.332  32.402  29.314  1.00  0.00     0.057 A 
ATOM     74  C   UNL A   1      45.261  33.405  28.339  1.00  0.00     0.134 A 
ATOM     75  C   UNL A   1      45.668  32.783  30.619  1.00  0.00     0.134 A 
ATOM     76  F   UNL A   1      44.956  33.101  27.069  1.00  0.00    -0.206 F 
ATOM     77  C   UNL A   1      45.541  34.736  28.648  1.00  0.00     0.040 A 
ATOM     78  C   UNL A   1      45.917  34.115  30.945  1.00  0.00     0.040 A 
ATOM     79  F   UNL A   1      45.739  31.870  31.599  1.00  0.00    -0.206 F 
ATOM     80  C   UNL A   1      45.862  35.094  29.956  1.00  0.00     0.006 A 
ENDBRANCH  56  73
ENDBRANCH  30  31
ENDBRANCH  23  25
ENDBRANCH  22  23
ENDBRANCH  21  22
ENDBRANCH  20  21
ENDBRANCH  19  20
ENDBRANCH   1  19
TORSDOF 17
ENDMDL
MODEL 3
REMARK VINA RESULT:     -10.1      4.523      9.238
REMARK SMILES CC(C)c1cc(=O)[nH]c(SCC(=O)OCCOCCOC(=O)c2ccc(-c3c4nc(c(-c5c(F)cccc5F)c5ccc([nH]5)c(-c5c(F)cccc5F)c5nc(c(-c6c(F)cccc6F)c6ccc3[nH]6)C=C5)C=C4)cc2)n1
REMARK SMILES IDX 16 1 15 2 14 3 12 4 13 5 11 6 10 7 9 8 4 9 5 10 77 11 6 12
REMARK SMILES IDX 7 13 8 14 2 16 1 17 3 18 17 19 18 20 19 21 20 22 21 23 22 24
REMARK SMILES IDX 23 25 24 26 76 27 25 28 75 29 26 30 27 31 28 32 69 33 29 34
REMARK SMILES IDX 74 35 68 36 70 37 30 38 73 39 67 40 66 41 31 43 57 44 40 45
REMARK SMILES IDX 56 46 41 47 44 48 55 49 71 50 42 51 43 52 54 54 72 55 45 56
REMARK SMILES IDX 32 57 33 58 38 59 34 60 35 61 37 62 39 63 36 64 58 65 59 66
REMARK SMILES IDX 64 67 60 68 61 69 63 70 65 71 62 72 46 73 47 74 52 75 48 76
REMARK SMILES IDX 49 77 51 78 53 79 50 80
REMARK H PARENT 8 15 70 42 44 53
REMARK Flexibility Score: inf
ROOT
ATOM      1  C   UNL A   1      32.094  29.471  25.796  1.00  0.00     0.202 C 
ENDROOT
BRANCH   1   2
ATOM      2  C   UNL A   1      33.385  28.679  25.521  1.00  0.00     0.261 C 
BRANCH   2   3
ATOM      3  O   UNL A   1      33.237  27.698  24.470  1.00  0.00    -0.463 OA
BRANCH   3   4
ATOM      4  C   UNL A   1      33.279  28.177  23.194  1.00  0.00     0.316 C 
ATOM      5  O   UNL A   1      34.041  29.070  22.827  1.00  0.00    -0.251 OA
BRANCH   4   6
ATOM      6  C   UNL A   1      32.279  27.566  22.231  1.00  0.00     0.200 C 
BRANCH   6   7
ATOM      7  S   UNL A   1      30.743  26.920  22.913  1.00  0.00    -0.076 SA
BRANCH   7   8
ATOM      8  C   UNL A   1      29.625  28.255  22.892  1.00  0.00     0.168 A 
ATOM      9  C   UNL A   1      28.783  30.339  22.435  1.00  0.00     0.051 A 
ATOM     10  C   UNL A   1      27.548  29.987  22.837  1.00  0.00     0.095 A 
ATOM     11  N   UNL A   1      29.867  29.461  22.483  1.00  0.00    -0.229 NA
ATOM     12  C   UNL A   1      27.309  28.618  23.301  1.00  0.00     0.251 A 
ATOM     13  O   UNL A   1      26.189  28.227  23.603  1.00  0.00    -0.269 OA
ATOM     14  N   UNL A   1      28.406  27.822  23.313  1.00  0.00    -0.301 N 
ATOM     15  H   UNL A   1      28.318  26.897  23.637  1.00  0.00     0.172 HD
BRANCH   9  16
ATOM     16  C   UNL A   1      28.964  31.742  21.824  1.00  0.00     0.032 C 
ATOM     17  C   UNL A   1      28.107  32.059  20.592  1.00  0.00     0.014 C 
ATOM     18  C   UNL A   1      28.791  32.881  22.852  1.00  0.00     0.014 C 
ENDBRANCH   9  16
ENDBRANCH   7   8
ENDBRANCH   6   7
ENDBRANCH   4   6
ENDBRANCH   3   4
ENDBRANCH   2   3
ENDBRANCH   1   2
BRANCH   1  19
ATOM     19  O   UNL A   1      32.193  30.582  26.684  1.00  0.00    -0.374 OA
BRANCH  19  20
ATOM     20  C   UNL A   1      31.305  31.663  26.438  1.00  0.00     0.202 C 
BRANCH  20  21
ATOM     21  C   UNL A   1      31.691  33.030  26.990  1.00  0.00     0.261 C 
BRANCH  21  22
ATOM     22  O   UNL A   1      33.093  33.214  26.999  1.00  0.00    -0.460 OA
BRANCH  22  23
ATOM     23  C   UNL A   1      33.537  33.724  28.158  1.00  0.00     0.338 C 
ATOM     24  O   UNL A   1      32.995  34.514  28.918  1.00  0.00    -0.246 OA
BRANCH  23  25
ATOM     25  C   UNL A   1      34.769  33.022  28.462  1.00  0.00     0.060 A 
ATOM     26  C   UNL A   1      34.651  31.682  28.827  1.00  0.00     0.016 A 
ATOM     27  C   UNL A   1      36.000  33.683  28.387  1.00  0.00     0.016 A 
ATOM     28  C   UNL A   1      35.785  31.003  29.216  1.00  0.00     0.010 A 
ATOM     29  C   UNL A   1      37.139  32.995  28.763  1.00  0.00     0.010 A 
ATOM     30  C   UNL A   1      37.013  31.678  29.229  1.00  0.00    -0.014 A 
BRANCH  30  31
ATOM     31  C   UNL A   1      38.141  31.043  29.916  1.00  0.00     0.031 A 
ATOM     32  C   UNL A   1      38.362  31.375  31.359  1.00  0.00     0.074 A 
ATOM     33  C   UNL A   1      38.885  30.150  29.251  1.00  0.00     0.049 A 
ATOM     34  N   UNL A   1      39.271  30.923  32.177  1.00  0.00    -0.248 NA
ATOM     35  C   UNL A   1      37.436  32.351  31.963  1.00  0.00     0.031 C 
ATOM     36  C   UNL A   1      38.693  29.768  27.851  1.00  0.00     0.029 A 
ATOM     37  N   UNL A   1      39.942  29.397  29.670  1.00  0.00    -0.354 N 
ATOM     38  C   UNL A   1      39.030  31.560  33.387  1.00  0.00     0.074 A 
ATOM     39  C   UNL A   1      37.921  32.463  33.189  1.00  0.00     0.031 C 
ATOM     40  C   UNL A   1      39.607  28.841  27.527  1.00  0.00     0.029 A 
ATOM     41  C   UNL A   1      40.460  28.596  28.686  1.00  0.00     0.049 A 
ATOM     42  H   UNL A   1      40.298  29.426  30.588  1.00  0.00     0.167 HD
ATOM     43  C   UNL A   1      39.676  31.384  34.560  1.00  0.00     0.037 A 
ATOM     44  C   UNL A   1      41.519  27.772  28.731  1.00  0.00     0.037 A 
ATOM     45  C   UNL A   1      40.778  30.473  34.718  1.00  0.00     0.049 A 
ATOM     46  C   UNL A   1      42.254  27.637  30.034  1.00  0.00     0.074 A 
ATOM     47  C   UNL A   1      41.514  30.195  35.853  1.00  0.00     0.029 A 
ATOM     48  N   UNL A   1      41.303  29.696  33.693  1.00  0.00    -0.354 N 
ATOM     49  N   UNL A   1      42.011  28.220  31.185  1.00  0.00    -0.248 NA
ATOM     50  C   UNL A   1      43.404  26.727  30.050  1.00  0.00     0.031 C 
ATOM     51  C   UNL A   1      42.519  29.287  35.502  1.00  0.00     0.029 A 
ATOM     52  C   UNL A   1      42.372  28.955  34.163  1.00  0.00     0.049 A 
ATOM     53  H   UNL A   1      40.964  29.676  32.769  1.00  0.00     0.167 HD
ATOM     54  C   UNL A   1      42.961  27.732  32.070  1.00  0.00     0.074 A 
ATOM     55  C   UNL A   1      43.772  26.789  31.322  1.00  0.00     0.031 C 
ATOM     56  C   UNL A   1      43.151  28.028  33.380  1.00  0.00     0.037 A 
BRANCH  43  57
ATOM     57  C   UNL A   1      39.226  32.207  35.730  1.00  0.00     0.057 A 
ATOM     58  C   UNL A   1      38.309  31.722  36.674  1.00  0.00     0.134 A 
ATOM     59  C   UNL A   1      39.718  33.504  35.920  1.00  0.00     0.134 A 
ATOM     60  F   UNL A   1      37.779  30.496  36.539  1.00  0.00    -0.206 F 
ATOM     61  C   UNL A   1      37.884  32.504  37.749  1.00  0.00     0.040 A 
ATOM     62  C   UNL A   1      39.322  34.285  37.006  1.00  0.00     0.040 A 
ATOM     63  F   UNL A   1      40.593  34.034  35.052  1.00  0.00    -0.206 F 
ATOM     64  C   UNL A   1      38.397  33.788  37.922  1.00  0.00     0.006 A 
ENDBRANCH  43  57
BRANCH  44  65
ATOM     65  C   UNL A   1      41.929  27.029  27.515  1.00  0.00     0.057 A 
ATOM     66  C   UNL A   1      42.769  27.607  26.558  1.00  0.00     0.134 A 
ATOM     67  C   UNL A   1      41.504  25.713  27.292  1.00  0.00     0.134 A 
ATOM     68  F   UNL A   1      43.203  28.867  26.713  1.00  0.00    -0.206 F 
ATOM     69  C   UNL A   1      43.157  26.911  25.413  1.00  0.00     0.040 A 
ATOM     70  C   UNL A   1      41.907  24.996  26.165  1.00  0.00     0.040 A 
ATOM     71  F   UNL A   1      40.711  25.097  28.180  1.00  0.00    -0.206 F 
ATOM     72  C   UNL A   1      42.729  25.599  25.216  1.00  0.00     0.006 A 
ENDBRANCH  44  65
BRANCH  56  73
ATOM     73  C   UNL A   1      44.258  27.299  34.082  1.00  0.00     0.057 A 
ATOM     74  C   UNL A   1      44.062  26.037  34.657  1.00  0.00     0.134 A 
ATOM     75  C   UNL A   1      45.543  27.852  34.145  1.00  0.00     0.134 A 
ATOM     76  F   UNL A   1      42.851  25.461  34.639  1.00  0.00    -0.206 F 
ATOM     77  C   UNL A   1      45.103  25.362  35.296  1.00  0.00     0.040 A 
ATOM     78  C   UNL A   1      46.598  27.172  34.752  1.00  0.00     0.040 A 
ATOM     79  F   UNL A   1      45.797  29.052  33.602  1.00  0.00    -0.206 F 
ATOM     80  C   UNL A   1      46.376  25.927  35.337  1.00  0.00     0.006 A 
ENDBRANCH  56  73
ENDBRANCH  30  31
ENDBRANCH  23  25
ENDBRANCH  22  23
ENDBRANCH  21  22
ENDBRANCH  20  21
ENDBRANCH  19  20
ENDBRANCH   1  19
TORSDOF 17
ENDMDL
