MODEL 1
REMARK VINA RESULT:     -12.1      0.000      0.000
REMARK SMILES O=C(C[C@H](NC(=O)[C@]12C[C@H]3C[C@H](C[C@H](C3)C1)C2)c1cccc([N+](=O)[O-])c1)OCCOCCOC(=O)c1ccc(-c2c3nc(c(-c4c(F)cccc4F)c4ccc([nH]4)c(-c4c(F)cccc4F)c4nc(c(-c5c(F)cccc5F)c5ccc2[nH]5)C=C4)C=C3)cc1
REMARK SMILES IDX 29 1 28 2 27 3 2 4 1 5 3 6 4 7 18 8 19 9 26 10 20 11 22 12
REMARK SMILES IDX 21 13 23 14 24 15 25 16 5 17 6 18 7 20 8 21 9 22 16 23 17 24
REMARK SMILES IDX 10 25 14 26 12 27 11 28 15 29 13 30 30 31 31 32 32 33 33 34
REMARK SMILES IDX 34 35 35 36 36 37 37 38 89 39 38 40 88 41 39 42 40 43 41 44
REMARK SMILES IDX 82 45 42 46 87 47 81 48 83 49 43 50 86 51 80 52 79 53 44 55
REMARK SMILES IDX 70 56 53 57 69 58 54 59 57 60 68 61 84 62 55 63 56 64 67 66
REMARK SMILES IDX 85 67 58 68 45 69 46 70 51 71 47 72 48 73 50 74 52 75 49 76
REMARK SMILES IDX 71 77 72 78 77 79 73 80 74 81 76 82 78 83 75 84 59 85 60 86
REMARK SMILES IDX 65 87 61 88 62 89 64 90 66 91 63 92
REMARK H PARENT 5 19 83 54 57 65
REMARK Flexibility Score: inf
ROOT
ATOM      1  C   UNL A   1      34.490  32.469  28.199  1.00  0.00     0.202 C 
ENDROOT
BRANCH   1   2
ATOM      2  C   UNL A   1      34.256  31.065  27.621  1.00  0.00     0.261 C 
BRANCH   2   3
ATOM      3  O   UNL A   1      33.038  30.812  26.916  1.00  0.00    -0.463 OA
BRANCH   3   4
ATOM      4  C   UNL A   1      33.048  29.755  26.096  1.00  0.00     0.308 C 
ATOM      5  O   UNL A   1      34.036  29.038  25.984  1.00  0.00    -0.252 OA
BRANCH   4   6
ATOM      6  C   UNL A   1      31.786  29.550  25.305  1.00  0.00     0.152 C 
BRANCH   6   7
ATOM      7  C   UNL A   1      31.632  28.260  24.521  1.00  0.00     0.123 C 
BRANCH   7   8
ATOM      8  C   UNL A   1      30.273  28.372  23.782  1.00  0.00    -0.018 A 
ATOM      9  C   UNL A   1      29.352  27.312  23.793  1.00  0.00     0.006 A 
ATOM     10  C   UNL A   1      29.836  29.628  23.301  1.00  0.00     0.091 A 
ATOM     11  C   UNL A   1      28.005  27.528  23.456  1.00  0.00     0.007 A 
ATOM     12  C   UNL A   1      28.480  29.845  23.005  1.00  0.00     0.269 A 
ATOM     13  C   UNL A   1      27.557  28.800  23.092  1.00  0.00     0.085 A 
BRANCH  12  14
ATOM     14  N   UNL A   1      28.013  31.205  22.697  1.00  0.00     0.062 N 
ATOM     15  O   UNL A   1      28.413  31.727  21.646  1.00  0.00    -0.258 OA
ATOM     16  O   UNL A   1      27.247  31.748  23.507  1.00  0.00    -0.258 OA
ENDBRANCH  12  14
ENDBRANCH   7   8
BRANCH   7  17
ATOM     17  N   UNL A   1      32.700  27.930  23.552  1.00  0.00    -0.348 N 
ATOM     18  C   UNL A   1      33.228  26.803  22.979  1.00  0.00     0.226 C 
ATOM     19  H   UNL A   1      33.156  28.742  23.231  1.00  0.00     0.164 HD
ATOM     20  O   UNL A   1      33.809  26.980  21.903  1.00  0.00    -0.274 OA
BRANCH  18  21
ATOM     21  C   UNL A   1      33.243  25.406  23.645  1.00  0.00     0.050 C 
ATOM     22  C   UNL A   1      33.682  25.599  25.129  1.00  0.00     0.020 C 
ATOM     23  C   UNL A   1      34.328  24.439  23.058  1.00  0.00     0.020 C 
ATOM     24  C   UNL A   1      31.937  24.614  23.389  1.00  0.00     0.020 C 
ATOM     25  C   UNL A   1      33.603  24.283  25.903  1.00  0.00    -0.010 C 
ATOM     26  C   UNL A   1      34.317  23.077  23.822  1.00  0.00    -0.010 C 
ATOM     27  C   UNL A   1      31.870  23.371  24.292  1.00  0.00    -0.010 C 
ATOM     28  C   UNL A   1      32.195  23.683  25.768  1.00  0.00     0.007 C 
ATOM     29  C   UNL A   1      34.637  23.318  25.307  1.00  0.00     0.007 C 
ATOM     30  C   UNL A   1      32.931  22.403  23.752  1.00  0.00     0.007 C 
ENDBRANCH  18  21
ENDBRANCH   7  17
ENDBRANCH   6   7
ENDBRANCH   4   6
ENDBRANCH   3   4
ENDBRANCH   2   3
ENDBRANCH   1   2
BRANCH   1  31
ATOM     31  O   UNL A   1      34.057  32.710  29.538  1.00  0.00    -0.374 OA
BRANCH  31  32
ATOM     32  C   UNL A   1      34.275  34.045  30.038  1.00  0.00     0.202 C 
BRANCH  32  33
ATOM     33  C   UNL A   1      34.766  34.188  31.476  1.00  0.00     0.261 C 
BRANCH  33  34
ATOM     34  O   UNL A   1      36.162  33.901  31.564  1.00  0.00    -0.460 OA
BRANCH  34  35
ATOM     35  C   UNL A   1      36.468  32.893  32.411  1.00  0.00     0.338 C 
ATOM     36  O   UNL A   1      35.945  32.638  33.485  1.00  0.00    -0.246 OA
BRANCH  35  37
ATOM     37  C   UNL A   1      37.355  31.960  31.695  1.00  0.00     0.060 A 
ATOM     38  C   UNL A   1      38.209  31.158  32.468  1.00  0.00     0.016 A 
ATOM     39  C   UNL A   1      37.297  31.819  30.306  1.00  0.00     0.016 A 
ATOM     40  C   UNL A   1      39.020  30.216  31.861  1.00  0.00     0.010 A 
ATOM     41  C   UNL A   1      38.165  30.930  29.685  1.00  0.00     0.010 A 
ATOM     42  C   UNL A   1      39.055  30.174  30.466  1.00  0.00    -0.014 A 
BRANCH  42  43
ATOM     43  C   UNL A   1      40.271  29.640  29.839  1.00  0.00     0.031 A 
ATOM     44  C   UNL A   1      41.418  30.599  29.688  1.00  0.00     0.074 A 
ATOM     45  C   UNL A   1      40.350  28.358  29.464  1.00  0.00     0.049 A 
ATOM     46  N   UNL A   1      42.568  30.430  29.099  1.00  0.00    -0.248 NA
ATOM     47  C   UNL A   1      41.233  31.939  30.277  1.00  0.00     0.031 C 
ATOM     48  C   UNL A   1      39.303  27.355  29.647  1.00  0.00     0.029 A 
ATOM     49  N   UNL A   1      41.363  27.690  28.838  1.00  0.00    -0.354 N 
ATOM     50  C   UNL A   1      43.232  31.644  29.233  1.00  0.00     0.074 A 
ATOM     51  C   UNL A   1      42.352  32.549  29.932  1.00  0.00     0.031 C 
ATOM     52  C   UNL A   1      39.721  26.195  29.110  1.00  0.00     0.029 A 
ATOM     53  C   UNL A   1      41.042  26.395  28.520  1.00  0.00     0.049 A 
ATOM     54  H   UNL A   1      42.235  28.098  28.632  1.00  0.00     0.167 HD
ATOM     55  C   UNL A   1      44.471  31.966  28.805  1.00  0.00     0.037 A 
ATOM     56  C   UNL A   1      41.740  25.500  27.799  1.00  0.00     0.037 A 
ATOM     57  C   UNL A   1      45.315  31.047  28.099  1.00  0.00     0.049 A 
ATOM     58  C   UNL A   1      43.085  25.908  27.262  1.00  0.00     0.074 A 
ATOM     59  C   UNL A   1      46.592  31.246  27.609  1.00  0.00     0.029 A 
ATOM     60  N   UNL A   1      44.953  29.746  27.773  1.00  0.00    -0.354 N 
ATOM     61  N   UNL A   1      43.718  27.052  27.391  1.00  0.00    -0.248 NA
ATOM     62  C   UNL A   1      43.816  24.902  26.482  1.00  0.00     0.031 C 
ATOM     63  C   UNL A   1      46.978  30.082  26.937  1.00  0.00     0.029 A 
ATOM     64  C   UNL A   1      45.972  29.136  27.066  1.00  0.00     0.049 A 
ATOM     65  H   UNL A   1      44.097  29.321  28.011  1.00  0.00     0.167 HD
ATOM     66  C   UNL A   1      44.934  26.893  26.738  1.00  0.00     0.074 A 
ATOM     67  C   UNL A   1      44.950  25.538  26.223  1.00  0.00     0.031 C 
ATOM     68  C   UNL A   1      45.950  27.779  26.580  1.00  0.00     0.037 A 
BRANCH  55  69
ATOM     69  C   UNL A   1      44.941  33.370  29.048  1.00  0.00     0.057 A 
ATOM     70  C   UNL A   1      45.665  33.729  30.194  1.00  0.00     0.134 A 
ATOM     71  C   UNL A   1      44.650  34.384  28.128  1.00  0.00     0.134 A 
ATOM     72  F   UNL A   1      45.951  32.813  31.133  1.00  0.00    -0.206 F 
ATOM     73  C   UNL A   1      46.058  35.048  30.427  1.00  0.00     0.040 A 
ATOM     74  C   UNL A   1      45.065  35.701  28.334  1.00  0.00     0.040 A 
ATOM     75  F   UNL A   1      43.951  34.114  27.015  1.00  0.00    -0.206 F 
ATOM     76  C   UNL A   1      45.766  36.037  29.490  1.00  0.00     0.006 A 
ENDBRANCH  55  69
BRANCH  56  77
ATOM     77  C   UNL A   1      41.171  24.155  27.540  1.00  0.00     0.057 A 
ATOM     78  C   UNL A   1      41.639  23.026  28.221  1.00  0.00     0.134 A 
ATOM     79  C   UNL A   1      40.141  23.966  26.611  1.00  0.00     0.134 A 
ATOM     80  F   UNL A   1      42.634  23.140  29.112  1.00  0.00    -0.206 F 
ATOM     81  C   UNL A   1      41.116  21.755  27.976  1.00  0.00     0.040 A 
ATOM     82  C   UNL A   1      39.588  22.705  26.375  1.00  0.00     0.040 A 
ATOM     83  F   UNL A   1      39.641  25.008  25.930  1.00  0.00    -0.206 F 
ATOM     84  C   UNL A   1      40.082  21.594  27.056  1.00  0.00     0.006 A 
ENDBRANCH  56  77
BRANCH  68  85
ATOM     85  C   UNL A   1      47.176  27.291  25.866  1.00  0.00     0.057 A 
ATOM     86  C   UNL A   1      48.190  26.587  26.527  1.00  0.00     0.134 A 
ATOM     87  C   UNL A   1      47.312  27.484  24.486  1.00  0.00     0.134 A 
ATOM     88  F   UNL A   1      48.122  26.378  27.851  1.00  0.00    -0.206 F 
ATOM     89  C   UNL A   1      49.310  26.115  25.843  1.00  0.00     0.040 A 
ATOM     90  C   UNL A   1      48.411  26.988  23.786  1.00  0.00     0.040 A 
ATOM     91  F   UNL A   1      46.367  28.138  23.793  1.00  0.00    -0.206 F 
ATOM     92  C   UNL A   1      49.418  26.308  24.466  1.00  0.00     0.006 A 
ENDBRANCH  68  85
ENDBRANCH  42  43
ENDBRANCH  35  37
ENDBRANCH  34  35
ENDBRANCH  33  34
ENDBRANCH  32  33
ENDBRANCH  31  32
ENDBRANCH   1  31
TORSDOF 19
ENDMDL
MODEL 2
REMARK VINA RESULT:     -12.0      3.854      5.944
REMARK SMILES O=C(C[C@H](NC(=O)[C@]12C[C@H]3C[C@H](C[C@H](C3)C1)C2)c1cccc([N+](=O)[O-])c1)OCCOCCOC(=O)c1ccc(-c2c3nc(c(-c4c(F)cccc4F)c4ccc([nH]4)c(-c4c(F)cccc4F)c4nc(c(-c5c(F)cccc5F)c5ccc2[nH]5)C=C4)C=C3)cc1
REMARK SMILES IDX 29 1 28 2 27 3 2 4 1 5 3 6 4 7 18 8 19 9 26 10 20 11 22 12
REMARK SMILES IDX 21 13 23 14 24 15 25 16 5 17 6 18 7 20 8 21 9 22 16 23 17 24
REMARK SMILES IDX 10 25 14 26 12 27 11 28 15 29 13 30 30 31 31 32 32 33 33 34
REMARK SMILES IDX 34 35 35 36 36 37 37 38 89 39 38 40 88 41 39 42 40 43 41 44
REMARK SMILES IDX 82 45 42 46 87 47 81 48 83 49 43 50 86 51 80 52 79 53 44 55
REMARK SMILES IDX 70 56 53 57 69 58 54 59 57 60 68 61 84 62 55 63 56 64 67 66
REMARK SMILES IDX 85 67 58 68 45 69 46 70 51 71 47 72 48 73 50 74 52 75 49 76
REMARK SMILES IDX 71 77 72 78 77 79 73 80 74 81 76 82 78 83 75 84 59 85 60 86
REMARK SMILES IDX 65 87 61 88 62 89 64 90 66 91 63 92
REMARK H PARENT 5 19 83 54 57 65
REMARK Flexibility Score: inf
ROOT
ATOM      1  C   UNL A   1      33.264  29.656  27.081  1.00  0.00     0.202 C 
ENDROOT
BRANCH   1   2
ATOM      2  C   UNL A   1      33.273  28.522  26.044  1.00  0.00     0.261 C 
BRANCH   2   3
ATOM      3  O   UNL A   1      34.034  28.699  24.847  1.00  0.00    -0.463 OA
BRANCH   3   4
ATOM      4  C   UNL A   1      33.325  28.909  23.731  1.00  0.00     0.308 C 
ATOM      5  O   UNL A   1      33.871  29.138  22.657  1.00  0.00    -0.252 OA
BRANCH   4   6
ATOM      6  C   UNL A   1      31.833  28.887  23.910  1.00  0.00     0.152 C 
BRANCH   6   7
ATOM      7  C   UNL A   1      31.042  27.803  23.202  1.00  0.00     0.123 C 
BRANCH   7   8
ATOM      8  C   UNL A   1      29.708  28.465  22.770  1.00  0.00    -0.018 A 
ATOM      9  C   UNL A   1      28.472  27.959  23.205  1.00  0.00     0.006 A 
ATOM     10  C   UNL A   1      29.723  29.731  22.140  1.00  0.00     0.091 A 
ATOM     11  C   UNL A   1      27.308  28.744  23.131  1.00  0.00     0.007 A 
ATOM     12  C   UNL A   1      28.565  30.525  22.107  1.00  0.00     0.269 A 
ATOM     13  C   UNL A   1      27.356  30.039  22.612  1.00  0.00     0.085 A 
BRANCH  12  14
ATOM     14  N   UNL A   1      28.649  31.912  21.625  1.00  0.00     0.062 N 
ATOM     15  O   UNL A   1      28.350  32.130  20.442  1.00  0.00    -0.258 OA
ATOM     16  O   UNL A   1      29.014  32.780  22.432  1.00  0.00    -0.258 OA
ENDBRANCH  12  14
ENDBRANCH   7   8
BRANCH   7  17
ATOM     17  N   UNL A   1      31.679  27.158  22.034  1.00  0.00    -0.348 N 
ATOM     18  C   UNL A   1      32.088  25.900  21.675  1.00  0.00     0.226 C 
ATOM     19  H   UNL A   1      31.860  27.811  21.319  1.00  0.00     0.164 HD
ATOM     20  O   UNL A   1      32.172  25.700  20.458  1.00  0.00    -0.274 OA
BRANCH  18  21
ATOM     21  C   UNL A   1      32.549  24.811  22.671  1.00  0.00     0.050 C 
ATOM     22  C   UNL A   1      33.709  25.413  23.521  1.00  0.00     0.020 C 
ATOM     23  C   UNL A   1      33.200  23.561  21.984  1.00  0.00     0.020 C 
ATOM     24  C   UNL A   1      31.366  24.172  23.439  1.00  0.00     0.020 C 
ATOM     25  C   UNL A   1      34.146  24.448  24.623  1.00  0.00    -0.010 C 
ATOM     26  C   UNL A   1      33.690  22.540  23.058  1.00  0.00    -0.010 C 
ATOM     27  C   UNL A   1      31.877  23.315  24.609  1.00  0.00    -0.010 C 
ATOM     28  C   UNL A   1      32.931  24.042  25.471  1.00  0.00     0.007 C 
ATOM     29  C   UNL A   1      34.749  23.204  23.954  1.00  0.00     0.007 C 
ATOM     30  C   UNL A   1      32.534  22.083  23.971  1.00  0.00     0.007 C 
ENDBRANCH  18  21
ENDBRANCH   7  17
ENDBRANCH   6   7
ENDBRANCH   4   6
ENDBRANCH   3   4
ENDBRANCH   2   3
ENDBRANCH   1   2
BRANCH   1  31
ATOM     31  O   UNL A   1      32.024  30.324  27.314  1.00  0.00    -0.374 OA
BRANCH  31  32
ATOM     32  C   UNL A   1      31.751  31.455  26.463  1.00  0.00     0.202 C 
BRANCH  32  33
ATOM     33  C   UNL A   1      31.793  32.842  27.100  1.00  0.00     0.261 C 
BRANCH  33  34
ATOM     34  O   UNL A   1      33.142  33.256  27.319  1.00  0.00    -0.460 OA
BRANCH  34  35
ATOM     35  C   UNL A   1      33.287  34.173  28.302  1.00  0.00     0.338 C 
ATOM     36  O   UNL A   1      32.530  35.088  28.584  1.00  0.00    -0.246 OA
BRANCH  35  37
ATOM     37  C   UNL A   1      34.378  33.717  29.181  1.00  0.00     0.060 A 
ATOM     38  C   UNL A   1      35.686  34.091  28.835  1.00  0.00     0.016 A 
ATOM     39  C   UNL A   1      34.120  33.007  30.357  1.00  0.00     0.016 A 
ATOM     40  C   UNL A   1      36.748  33.750  29.653  1.00  0.00     0.010 A 
ATOM     41  C   UNL A   1      35.189  32.596  31.141  1.00  0.00     0.010 A 
ATOM     42  C   UNL A   1      36.499  32.928  30.753  1.00  0.00    -0.014 A 
BRANCH  42  43
ATOM     43  C   UNL A   1      37.614  32.113  31.251  1.00  0.00     0.031 A 
ATOM     44  C   UNL A   1      38.121  32.444  32.625  1.00  0.00     0.074 A 
ATOM     45  C   UNL A   1      38.114  31.108  30.521  1.00  0.00     0.049 A 
ATOM     46  N   UNL A   1      39.139  31.955  33.274  1.00  0.00    -0.248 NA
ATOM     47  C   UNL A   1      37.377  33.483  33.364  1.00  0.00     0.031 C 
ATOM     48  C   UNL A   1      37.623  30.685  29.212  1.00  0.00     0.029 A 
ATOM     49  N   UNL A   1      39.160  30.271  30.785  1.00  0.00    -0.354 N 
ATOM     50  C   UNL A   1      39.165  32.636  34.485  1.00  0.00     0.074 A 
ATOM     51  C   UNL A   1      38.084  33.591  34.474  1.00  0.00     0.031 C 
ATOM     52  C   UNL A   1      38.395  29.676  28.769  1.00  0.00     0.029 A 
ATOM     53  C   UNL A   1      39.447  29.420  29.750  1.00  0.00     0.049 A 
ATOM     54  H   UNL A   1      39.660  30.280  31.634  1.00  0.00     0.167 HD
ATOM     55  C   UNL A   1      40.024  32.472  35.514  1.00  0.00     0.037 A 
ATOM     56  C   UNL A   1      40.474  28.562  29.616  1.00  0.00     0.037 A 
ATOM     57  C   UNL A   1      41.100  31.523  35.488  1.00  0.00     0.049 A 
ATOM     58  C   UNL A   1      41.467  28.454  30.741  1.00  0.00     0.074 A 
ATOM     59  C   UNL A   1      42.043  31.257  36.462  1.00  0.00     0.029 A 
ATOM     60  N   UNL A   1      41.378  30.689  34.413  1.00  0.00    -0.354 N 
ATOM     61  N   UNL A   1      41.493  29.092  31.889  1.00  0.00    -0.248 NA
ATOM     62  C   UNL A   1      42.572  27.505  30.557  1.00  0.00     0.031 C 
ATOM     63  C   UNL A   1      42.926  30.300  35.952  1.00  0.00     0.029 A 
ATOM     64  C   UNL A   1      42.494  29.922  34.689  1.00  0.00     0.049 A 
ATOM     65  H   UNL A   1      40.857  30.649  33.578  1.00  0.00     0.167 HD
ATOM     66  C   UNL A   1      42.595  28.599  32.577  1.00  0.00     0.074 A 
ATOM     67  C   UNL A   1      43.204  27.603  31.718  1.00  0.00     0.031 C 
ATOM     68  C   UNL A   1      43.062  28.931  33.807  1.00  0.00     0.037 A 
BRANCH  55  69
ATOM     69  C   UNL A   1      39.855  33.370  36.704  1.00  0.00     0.057 A 
ATOM     70  C   UNL A   1      40.524  34.597  36.817  1.00  0.00     0.134 A 
ATOM     71  C   UNL A   1      39.019  32.993  37.763  1.00  0.00     0.134 A 
ATOM     72  F   UNL A   1      41.365  35.004  35.853  1.00  0.00    -0.206 F 
ATOM     73  C   UNL A   1      40.389  35.402  37.950  1.00  0.00     0.040 A 
ATOM     74  C   UNL A   1      38.852  33.804  38.887  1.00  0.00     0.040 A 
ATOM     75  F   UNL A   1      38.357  31.827  37.726  1.00  0.00    -0.206 F 
ATOM     76  C   UNL A   1      39.543  35.009  38.985  1.00  0.00     0.006 A 
ENDBRANCH  55  69
BRANCH  56  77
ATOM     77  C   UNL A   1      40.613  27.764  28.373  1.00  0.00     0.057 A 
ATOM     78  C   UNL A   1      41.371  28.229  27.293  1.00  0.00     0.134 A 
ATOM     79  C   UNL A   1      39.999  26.512  28.238  1.00  0.00     0.134 A 
ATOM     80  F   UNL A   1      41.971  29.426  27.357  1.00  0.00    -0.206 F 
ATOM     81  C   UNL A   1      41.500  27.488  26.117  1.00  0.00     0.040 A 
ATOM     82  C   UNL A   1      40.141  25.748  27.079  1.00  0.00     0.040 A 
ATOM     83  F   UNL A   1      39.264  26.005  29.239  1.00  0.00    -0.206 F 
ATOM     84  C   UNL A   1      40.888  26.240  26.011  1.00  0.00     0.006 A 
ENDBRANCH  56  77
BRANCH  68  85
ATOM     85  C   UNL A   1      44.255  28.176  34.311  1.00  0.00     0.057 A 
ATOM     86  C   UNL A   1      44.131  26.959  34.993  1.00  0.00     0.134 A 
ATOM     87  C   UNL A   1      45.549  28.649  34.058  1.00  0.00     0.134 A 
ATOM     88  F   UNL A   1      42.919  26.457  35.273  1.00  0.00    -0.206 F 
ATOM     89  C   UNL A   1      45.253  26.254  35.429  1.00  0.00     0.040 A 
ATOM     90  C   UNL A   1      46.678  27.937  34.460  1.00  0.00     0.040 A 
ATOM     91  F   UNL A   1      45.735  29.802  33.397  1.00  0.00    -0.206 F 
ATOM     92  C   UNL A   1      46.531  26.738  35.154  1.00  0.00     0.006 A 
ENDBRANCH  68  85
ENDBRANCH  42  43
ENDBRANCH  35  37
ENDBRANCH  34  35
ENDBRANCH  33  34
ENDBRANCH  32  33
ENDBRANCH  31  32
ENDBRANCH   1  31
TORSDOF 19
ENDMDL
MODEL 3
REMARK VINA RESULT:     -11.9      4.850      9.924
REMARK SMILES O=C(C[C@H](NC(=O)[C@]12C[C@H]3C[C@H](C[C@H](C3)C1)C2)c1cccc([N+](=O)[O-])c1)OCCOCCOC(=O)c1ccc(-c2c3nc(c(-c4c(F)cccc4F)c4ccc([nH]4)c(-c4c(F)cccc4F)c4nc(c(-c5c(F)cccc5F)c5ccc2[nH]5)C=C4)C=C3)cc1
REMARK SMILES IDX 29 1 28 2 27 3 2 4 1 5 3 6 4 7 18 8 19 9 26 10 20 11 22 12
REMARK SMILES IDX 21 13 23 14 24 15 25 16 5 17 6 18 7 20 8 21 9 22 16 23 17 24
REMARK SMILES IDX 10 25 14 26 12 27 11 28 15 29 13 30 30 31 31 32 32 33 33 34
REMARK SMILES IDX 34 35 35 36 36 37 37 38 89 39 38 40 88 41 39 42 40 43 41 44
REMARK SMILES IDX 82 45 42 46 87 47 81 48 83 49 43 50 86 51 80 52 79 53 44 55
REMARK SMILES IDX 70 56 53 57 69 58 54 59 57 60 68 61 84 62 55 63 56 64 67 66
REMARK SMILES IDX 85 67 58 68 45 69 46 70 51 71 47 72 48 73 50 74 52 75 49 76
REMARK SMILES IDX 71 77 72 78 77 79 73 80 74 81 76 82 78 83 75 84 59 85 60 86
REMARK SMILES IDX 65 87 61 88 62 89 64 90 66 91 63 92
REMARK H PARENT 5 19 83 54 57 65
REMARK Flexibility Score: inf
ROOT
ATOM      1  C   UNL A   1      39.102  21.422  25.761  1.00  0.00     0.202 C 
ENDROOT
BRANCH   1   2
ATOM      2  C   UNL A   1      37.958  22.448  25.756  1.00  0.00     0.261 C 
BRANCH   2   3
ATOM      3  O   UNL A   1      36.799  22.173  24.965  1.00  0.00    -0.463 OA
BRANCH   3   4
ATOM      4  C   UNL A   1      36.083  21.103  25.332  1.00  0.00     0.308 C 
ATOM      5  O   UNL A   1      36.368  19.976  24.942  1.00  0.00    -0.252 OA
BRANCH   4   6
ATOM      6  C   UNL A   1      34.898  21.400  26.206  1.00  0.00     0.152 C 
BRANCH   6   7
ATOM      7  C   UNL A   1      33.713  22.120  25.588  1.00  0.00     0.123 C 
BRANCH   7   8
ATOM      8  C   UNL A   1      32.962  21.057  24.744  1.00  0.00    -0.018 A 
ATOM      9  C   UNL A   1      32.493  21.352  23.454  1.00  0.00     0.006 A 
ATOM     10  C   UNL A   1      32.960  19.705  25.159  1.00  0.00     0.091 A 
ATOM     11  C   UNL A   1      32.153  20.322  22.560  1.00  0.00     0.007 A 
ATOM     12  C   UNL A   1      32.657  18.680  24.248  1.00  0.00     0.269 A 
ATOM     13  C   UNL A   1      32.264  18.984  22.942  1.00  0.00     0.085 A 
BRANCH  12  14
ATOM     14  N   UNL A   1      32.851  17.277  24.642  1.00  0.00     0.062 N 
ATOM     15  O   UNL A   1      32.364  16.909  25.721  1.00  0.00    -0.258 OA
ATOM     16  O   UNL A   1      33.490  16.545  23.871  1.00  0.00    -0.258 OA
ENDBRANCH  12  14
ENDBRANCH   7   8
BRANCH   7  17
ATOM     17  N   UNL A   1      32.768  22.779  26.515  1.00  0.00    -0.348 N 
ATOM     18  C   UNL A   1      31.951  23.879  26.507  1.00  0.00     0.226 C 
ATOM     19  H   UNL A   1      32.709  22.296  27.370  1.00  0.00     0.164 HD
ATOM     20  O   UNL A   1      31.005  23.840  27.301  1.00  0.00    -0.274 OA
BRANCH  18  21
ATOM     21  C   UNL A   1      32.215  25.162  25.684  1.00  0.00     0.050 C 
ATOM     22  C   UNL A   1      31.132  26.209  26.088  1.00  0.00     0.020 C 
ATOM     23  C   UNL A   1      31.999  24.979  24.142  1.00  0.00     0.020 C 
ATOM     24  C   UNL A   1      33.694  25.613  25.748  1.00  0.00     0.020 C 
ATOM     25  C   UNL A   1      31.390  27.558  25.415  1.00  0.00    -0.010 C 
ATOM     26  C   UNL A   1      32.226  26.330  23.393  1.00  0.00    -0.010 C 
ATOM     27  C   UNL A   1      33.857  27.027  25.167  1.00  0.00    -0.010 C 
ATOM     28  C   UNL A   1      32.820  28.027  25.722  1.00  0.00     0.007 C 
ATOM     29  C   UNL A   1      31.218  27.375  23.901  1.00  0.00     0.007 C 
ATOM     30  C   UNL A   1      33.641  26.888  23.655  1.00  0.00     0.007 C 
ENDBRANCH  18  21
ENDBRANCH   7  17
ENDBRANCH   6   7
ENDBRANCH   4   6
ENDBRANCH   3   4
ENDBRANCH   2   3
ENDBRANCH   1   2
BRANCH   1  31
ATOM     31  O   UNL A   1      40.178  21.643  26.674  1.00  0.00    -0.374 OA
BRANCH  31  32
ATOM     32  C   UNL A   1      41.396  20.924  26.393  1.00  0.00     0.202 C 
BRANCH  32  33
ATOM     33  C   UNL A   1      42.593  21.732  25.897  1.00  0.00     0.261 C 
BRANCH  33  34
ATOM     34  O   UNL A   1      42.163  22.956  25.301  1.00  0.00    -0.460 OA
BRANCH  34  35
ATOM     35  C   UNL A   1      43.031  23.981  25.454  1.00  0.00     0.338 C 
ATOM     36  O   UNL A   1      44.095  24.148  24.880  1.00  0.00    -0.246 OA
BRANCH  35  37
ATOM     37  C   UNL A   1      42.348  25.034  26.225  1.00  0.00     0.060 A 
ATOM     38  C   UNL A   1      42.962  26.296  26.282  1.00  0.00     0.016 A 
ATOM     39  C   UNL A   1      41.101  24.815  26.815  1.00  0.00     0.016 A 
ATOM     40  C   UNL A   1      42.342  27.345  26.935  1.00  0.00     0.010 A 
ATOM     41  C   UNL A   1      40.510  25.843  27.538  1.00  0.00     0.010 A 
ATOM     42  C   UNL A   1      41.162  27.084  27.634  1.00  0.00    -0.014 A 
BRANCH  42  43
ATOM     43  C   UNL A   1      40.834  27.973  28.757  1.00  0.00     0.031 A 
ATOM     44  C   UNL A   1      41.669  27.816  29.995  1.00  0.00     0.074 A 
ATOM     45  C   UNL A   1      39.867  28.891  28.651  1.00  0.00     0.049 A 
ATOM     46  N   UNL A   1      41.549  28.398  31.155  1.00  0.00    -0.248 NA
ATOM     47  C   UNL A   1      42.791  26.860  29.913  1.00  0.00     0.031 C 
ATOM     48  C   UNL A   1      39.067  29.146  27.455  1.00  0.00     0.029 A 
ATOM     49  N   UNL A   1      39.391  29.772  29.579  1.00  0.00    -0.354 N 
ATOM     50  C   UNL A   1      42.566  27.867  31.940  1.00  0.00     0.074 A 
ATOM     51  C   UNL A   1      43.276  26.899  31.140  1.00  0.00     0.031 C 
ATOM     52  C   UNL A   1      38.169  30.108  27.736  1.00  0.00     0.029 A 
ATOM     53  C   UNL A   1      38.316  30.498  29.136  1.00  0.00     0.049 A 
ATOM     54  H   UNL A   1      39.780  29.874  30.479  1.00  0.00     0.167 HD
ATOM     55  C   UNL A   1      42.873  28.167  33.220  1.00  0.00     0.037 A 
ATOM     56  C   UNL A   1      37.529  31.351  29.815  1.00  0.00     0.037 A 
ATOM     57  C   UNL A   1      42.136  29.125  33.994  1.00  0.00     0.049 A 
ATOM     58  C   UNL A   1      37.840  31.611  31.265  1.00  0.00     0.074 A 
ATOM     59  C   UNL A   1      42.341  29.522  35.301  1.00  0.00     0.029 A 
ATOM     60  N   UNL A   1      41.036  29.830  33.522  1.00  0.00    -0.354 N 
ATOM     61  N   UNL A   1      38.802  31.115  32.008  1.00  0.00    -0.248 NA
ATOM     62  C   UNL A   1      36.959  32.549  31.970  1.00  0.00     0.031 C 
ATOM     63  C   UNL A   1      41.329  30.427  35.637  1.00  0.00     0.029 A 
ATOM     64  C   UNL A   1      40.535  30.644  34.520  1.00  0.00     0.049 A 
ATOM     65  H   UNL A   1      40.669  29.761  32.611  1.00  0.00     0.167 HD
ATOM     66  C   UNL A   1      38.664  31.705  33.258  1.00  0.00     0.074 A 
ATOM     67  C   UNL A   1      37.529  32.602  33.166  1.00  0.00     0.031 C 
ATOM     68  C   UNL A   1      39.406  31.531  34.381  1.00  0.00     0.037 A 
BRANCH  55  69
ATOM     69  C   UNL A   1      44.007  27.416  33.852  1.00  0.00     0.057 A 
ATOM     70  C   UNL A   1      45.332  27.868  33.787  1.00  0.00     0.134 A 
ATOM     71  C   UNL A   1      43.771  26.211  34.524  1.00  0.00     0.134 A 
ATOM     72  F   UNL A   1      45.634  29.000  33.132  1.00  0.00    -0.206 F 
ATOM     73  C   UNL A   1      46.383  27.136  34.344  1.00  0.00     0.040 A 
ATOM     74  C   UNL A   1      44.809  25.485  35.112  1.00  0.00     0.040 A 
ATOM     75  F   UNL A   1      42.528  25.713  34.615  1.00  0.00    -0.206 F 
ATOM     76  C   UNL A   1      46.120  25.945  35.017  1.00  0.00     0.006 A 
ENDBRANCH  55  69
BRANCH  56  77
ATOM     77  C   UNL A   1      36.380  31.998  29.136  1.00  0.00     0.057 A 
ATOM     78  C   UNL A   1      36.404  33.357  28.805  1.00  0.00     0.134 A 
ATOM     79  C   UNL A   1      35.233  31.271  28.793  1.00  0.00     0.134 A 
ATOM     80  F   UNL A   1      37.468  34.109  29.119  1.00  0.00    -0.206 F 
ATOM     81  C   UNL A   1      35.323  33.975  28.173  1.00  0.00     0.040 A 
ATOM     82  C   UNL A   1      34.155  31.869  28.137  1.00  0.00     0.040 A 
ATOM     83  F   UNL A   1      35.149  29.962  29.075  1.00  0.00    -0.206 F 
ATOM     84  C   UNL A   1      34.197  33.228  27.832  1.00  0.00     0.006 A 
ENDBRANCH  56  77
BRANCH  68  85
ATOM     85  C   UNL A   1      39.043  32.362  35.575  1.00  0.00     0.057 A 
ATOM     86  C   UNL A   1      38.272  31.854  36.628  1.00  0.00     0.134 A 
ATOM     87  C   UNL A   1      39.521  33.674  35.694  1.00  0.00     0.134 A 
ATOM     88  F   UNL A   1      37.777  30.609  36.570  1.00  0.00    -0.206 F 
ATOM     89  C   UNL A   1      37.968  32.632  37.746  1.00  0.00     0.040 A 
ATOM     90  C   UNL A   1      39.252  34.448  36.821  1.00  0.00     0.040 A 
ATOM     91  F   UNL A   1      40.277  34.213  34.725  1.00  0.00    -0.206 F 
ATOM     92  C   UNL A   1      38.466  33.930  37.848  1.00  0.00     0.006 A 
ENDBRANCH  68  85
ENDBRANCH  42  43
ENDBRANCH  35  37
ENDBRANCH  34  35
ENDBRANCH  33  34
ENDBRANCH  32  33
ENDBRANCH  31  32
ENDBRANCH   1  31
TORSDOF 19
ENDMDL
