MODEL 1
REMARK VINA RESULT:     -11.5      0.000      0.000
REMARK SMILES O=C(OCCOCCOC(=O)[C@H]1CCC(=O)N(C2CCCCC2)[C@H]1c1ccccc1)c1ccc(-c2c3nc(c(-c4c(F)cccc4F)c4ccc([nH]4)c(-c4c(F)cccc4F)c4nc(c(-c5c(F)cccc5F)c5ccc2[nH]5)C=C4)C=C3)cc1
REMARK SMILES IDX 5 1 4 2 3 3 2 4 1 5 31 6 32 7 84 8 33 9 83 10 34 11 35 12
REMARK SMILES IDX 36 13 77 14 37 15 82 16 76 17 78 18 38 19 81 20 75 21 74 22
REMARK SMILES IDX 39 24 65 25 48 26 64 27 49 28 52 29 63 30 79 31 50 32 51 33
REMARK SMILES IDX 62 35 80 36 53 37 40 38 41 39 46 40 42 41 43 42 45 43 47 44
REMARK SMILES IDX 44 45 66 46 67 47 72 48 68 49 69 50 71 51 73 52 70 53 54 54
REMARK SMILES IDX 55 55 60 56 56 57 57 58 59 59 61 60 58 61 6 62 7 63 8 64
REMARK SMILES IDX 9 65 10 66 11 67 12 68 13 69 24 70 14 71 17 72 15 73 16 74
REMARK SMILES IDX 25 75 26 76 30 77 27 78 29 79 28 80 18 81 19 82 23 83 20 84
REMARK SMILES IDX 22 85 21 86
REMARK H PARENT 78 23 52 34
REMARK Flexibility Score: inf
ROOT
ATOM      1  C   UNL A   1      37.766  19.874  24.513  1.00  0.00     0.202 C 
ENDROOT
BRANCH   1   2
ATOM      2  C   UNL A   1      38.699  20.111  25.702  1.00  0.00     0.261 C 
BRANCH   2   3
ATOM      3  O   UNL A   1      39.797  19.189  25.668  1.00  0.00    -0.460 OA
BRANCH   3   4
ATOM      4  C   UNL A   1      41.067  19.488  26.035  1.00  0.00     0.338 C 
ATOM      5  O   UNL A   1      41.961  18.669  25.827  1.00  0.00    -0.246 OA
BRANCH   4   6
ATOM      6  C   UNL A   1      41.461  20.831  26.562  1.00  0.00     0.060 A 
ATOM      7  C   UNL A   1      41.672  21.155  27.907  1.00  0.00     0.016 A 
ATOM      8  C   UNL A   1      41.765  21.799  25.591  1.00  0.00     0.016 A 
ATOM      9  C   UNL A   1      42.190  22.382  28.285  1.00  0.00     0.010 A 
ATOM     10  C   UNL A   1      42.289  23.037  25.960  1.00  0.00     0.010 A 
ATOM     11  C   UNL A   1      42.516  23.318  27.312  1.00  0.00    -0.014 A 
BRANCH  11  12
ATOM     12  C   UNL A   1      43.019  24.623  27.756  1.00  0.00     0.031 A 
ATOM     13  C   UNL A   1      42.024  25.634  28.217  1.00  0.00     0.074 A 
ATOM     14  C   UNL A   1      44.346  24.830  27.821  1.00  0.00     0.049 A 
ATOM     15  N   UNL A   1      42.206  26.886  28.528  1.00  0.00    -0.248 NA
ATOM     16  C   UNL A   1      40.632  25.168  28.355  1.00  0.00     0.031 C 
ATOM     17  C   UNL A   1      45.374  23.831  27.513  1.00  0.00     0.029 A 
ATOM     18  N   UNL A   1      45.060  25.942  28.175  1.00  0.00    -0.354 N 
ATOM     19  C   UNL A   1      40.948  27.371  28.852  1.00  0.00     0.074 A 
ATOM     20  C   UNL A   1      40.011  26.279  28.723  1.00  0.00     0.031 C 
ATOM     21  C   UNL A   1      46.587  24.380  27.686  1.00  0.00     0.029 A 
ATOM     22  C   UNL A   1      46.418  25.785  28.035  1.00  0.00     0.049 A 
ATOM     23  H   UNL A   1      44.642  26.773  28.499  1.00  0.00     0.167 HD
ATOM     24  C   UNL A   1      40.621  28.633  29.202  1.00  0.00     0.037 A 
ATOM     25  C   UNL A   1      47.397  26.705  28.117  1.00  0.00     0.037 A 
ATOM     26  C   UNL A   1      41.595  29.682  29.327  1.00  0.00     0.049 A 
ATOM     27  C   UNL A   1      46.989  28.124  28.415  1.00  0.00     0.074 A 
ATOM     28  C   UNL A   1      41.399  31.009  29.652  1.00  0.00     0.029 A 
ATOM     29  N   UNL A   1      42.958  29.509  29.124  1.00  0.00    -0.354 N 
ATOM     30  N   UNL A   1      45.795  28.600  28.682  1.00  0.00    -0.248 NA
ATOM     31  C   UNL A   1      48.050  29.138  28.392  1.00  0.00     0.031 C 
ATOM     32  C   UNL A   1      42.638  31.652  29.589  1.00  0.00     0.029 A 
ATOM     33  C   UNL A   1      43.614  30.715  29.279  1.00  0.00     0.049 A 
ATOM     34  H   UNL A   1      43.393  28.654  28.904  1.00  0.00     0.167 HD
ATOM     35  C   UNL A   1      45.960  29.965  28.866  1.00  0.00     0.074 A 
ATOM     36  C   UNL A   1      47.377  30.234  28.714  1.00  0.00     0.031 C 
ATOM     37  C   UNL A   1      45.031  30.920  29.124  1.00  0.00     0.037 A 
BRANCH  24  38
ATOM     38  C   UNL A   1      39.168  28.951  29.376  1.00  0.00     0.057 A 
ATOM     39  C   UNL A   1      38.510  28.822  30.604  1.00  0.00     0.134 A 
ATOM     40  C   UNL A   1      38.416  29.397  28.281  1.00  0.00     0.134 A 
ATOM     41  F   UNL A   1      39.164  28.368  31.683  1.00  0.00    -0.206 F 
ATOM     42  C   UNL A   1      37.150  29.116  30.735  1.00  0.00     0.040 A 
ATOM     43  C   UNL A   1      37.064  29.715  28.404  1.00  0.00     0.040 A 
ATOM     44  F   UNL A   1      38.984  29.526  27.073  1.00  0.00    -0.206 F 
ATOM     45  C   UNL A   1      36.427  29.572  29.634  1.00  0.00     0.006 A 
ENDBRANCH  24  38
BRANCH  25  46
ATOM     46  C   UNL A   1      48.811  26.351  27.818  1.00  0.00     0.057 A 
ATOM     47  C   UNL A   1      49.312  26.368  26.511  1.00  0.00     0.134 A 
ATOM     48  C   UNL A   1      49.687  25.928  28.829  1.00  0.00     0.134 A 
ATOM     49  F   UNL A   1      48.526  26.743  25.491  1.00  0.00    -0.206 F 
ATOM     50  C   UNL A   1      50.613  25.950  26.217  1.00  0.00     0.040 A 
ATOM     51  C   UNL A   1      51.000  25.540  28.554  1.00  0.00     0.040 A 
ATOM     52  F   UNL A   1      49.278  25.883  30.107  1.00  0.00    -0.206 F 
ATOM     53  C   UNL A   1      51.462  25.537  27.242  1.00  0.00     0.006 A 
ENDBRANCH  25  46
BRANCH  37  54
ATOM     54  C   UNL A   1      45.533  32.324  29.267  1.00  0.00     0.057 A 
ATOM     55  C   UNL A   1      45.589  33.196  28.175  1.00  0.00     0.134 A 
ATOM     56  C   UNL A   1      45.897  32.822  30.524  1.00  0.00     0.134 A 
ATOM     57  F   UNL A   1      45.266  32.768  26.944  1.00  0.00    -0.206 F 
ATOM     58  C   UNL A   1      46.004  34.518  28.325  1.00  0.00     0.040 A 
ATOM     59  C   UNL A   1      46.283  34.150  30.691  1.00  0.00     0.040 A 
ATOM     60  F   UNL A   1      45.852  32.034  31.609  1.00  0.00    -0.206 F 
ATOM     61  C   UNL A   1      46.341  35.001  29.589  1.00  0.00     0.006 A 
ENDBRANCH  37  54
ENDBRANCH  11  12
ENDBRANCH   4   6
ENDBRANCH   3   4
ENDBRANCH   2   3
ENDBRANCH   1   2
BRANCH   1  62
ATOM     62  O   UNL A   1      36.519  19.357  24.957  1.00  0.00    -0.374 OA
BRANCH  62  63
ATOM     63  C   UNL A   1      35.411  20.239  25.078  1.00  0.00     0.202 C 
BRANCH  63  64
ATOM     64  C   UNL A   1      34.137  19.445  24.776  1.00  0.00     0.261 C 
BRANCH  64  65
ATOM     65  O   UNL A   1      33.006  20.235  25.171  1.00  0.00    -0.463 OA
BRANCH  65  66
ATOM     66  C   UNL A   1      32.576  21.128  24.240  1.00  0.00     0.311 C 
ATOM     67  O   UNL A   1      32.536  20.940  23.034  1.00  0.00    -0.252 OA
BRANCH  66  68
ATOM     68  C   UNL A   1      31.999  22.364  24.886  1.00  0.00     0.127 C 
ATOM     69  C   UNL A   1      31.922  22.313  26.405  1.00  0.00     0.028 C 
ATOM     70  C   UNL A   1      32.722  23.629  24.409  1.00  0.00     0.130 C 
ATOM     71  C   UNL A   1      31.139  23.504  26.898  1.00  0.00     0.101 C 
ATOM     72  N   UNL A   1      32.171  24.841  25.060  1.00  0.00    -0.332 N 
ATOM     73  C   UNL A   1      31.553  24.833  26.309  1.00  0.00     0.223 C 
ATOM     74  O   UNL A   1      31.217  25.858  26.904  1.00  0.00    -0.275 OA
BRANCH  70  75
ATOM     75  C   UNL A   1      34.252  23.537  24.476  1.00  0.00    -0.025 A 
ATOM     76  C   UNL A   1      35.059  23.354  23.348  1.00  0.00     0.006 A 
ATOM     77  C   UNL A   1      34.899  23.681  25.722  1.00  0.00     0.006 A 
ATOM     78  C   UNL A   1      36.454  23.326  23.464  1.00  0.00     0.000 A 
ATOM     79  C   UNL A   1      36.288  23.723  25.829  1.00  0.00     0.000 A 
ATOM     80  C   UNL A   1      37.069  23.536  24.697  1.00  0.00     0.000 A 
ENDBRANCH  70  75
BRANCH  72  81
ATOM     81  C   UNL A   1      32.328  26.120  24.336  1.00  0.00     0.085 C 
ATOM     82  C   UNL A   1      33.619  26.844  24.764  1.00  0.00     0.025 C 
ATOM     83  C   UNL A   1      32.200  25.963  22.811  1.00  0.00     0.025 C 
ATOM     84  C   UNL A   1      33.851  28.132  23.979  1.00  0.00     0.002 C 
ATOM     85  C   UNL A   1      32.447  27.277  22.080  1.00  0.00     0.002 C 
ATOM     86  C   UNL A   1      33.787  27.885  22.476  1.00  0.00     0.000 C 
ENDBRANCH  72  81
ENDBRANCH  66  68
ENDBRANCH  65  66
ENDBRANCH  64  65
ENDBRANCH  63  64
ENDBRANCH  62  63
ENDBRANCH   1  62
TORSDOF 16
ENDMDL
MODEL 2
REMARK VINA RESULT:     -11.5      4.787      9.780
REMARK SMILES O=C(OCCOCCOC(=O)[C@H]1CCC(=O)N(C2CCCCC2)[C@H]1c1ccccc1)c1ccc(-c2c3nc(c(-c4c(F)cccc4F)c4ccc([nH]4)c(-c4c(F)cccc4F)c4nc(c(-c5c(F)cccc5F)c5ccc2[nH]5)C=C4)C=C3)cc1
REMARK SMILES IDX 5 1 4 2 3 3 2 4 1 5 31 6 32 7 84 8 33 9 83 10 34 11 35 12
REMARK SMILES IDX 36 13 77 14 37 15 82 16 76 17 78 18 38 19 81 20 75 21 74 22
REMARK SMILES IDX 39 24 65 25 48 26 64 27 49 28 52 29 63 30 79 31 50 32 51 33
REMARK SMILES IDX 62 35 80 36 53 37 40 38 41 39 46 40 42 41 43 42 45 43 47 44
REMARK SMILES IDX 44 45 66 46 67 47 72 48 68 49 69 50 71 51 73 52 70 53 54 54
REMARK SMILES IDX 55 55 60 56 56 57 57 58 59 59 61 60 58 61 6 62 7 63 8 64
REMARK SMILES IDX 9 65 10 66 11 67 12 68 13 69 24 70 14 71 17 72 15 73 16 74
REMARK SMILES IDX 25 75 26 76 30 77 27 78 29 79 28 80 18 81 19 82 23 83 20 84
REMARK SMILES IDX 22 85 21 86
REMARK H PARENT 78 23 52 34
REMARK Flexibility Score: inf
ROOT
ATOM      1  C   UNL A   1      31.436  31.817  26.505  1.00  0.00     0.202 C 
ENDROOT
BRANCH   1   2
ATOM      2  C   UNL A   1      32.576  32.496  27.267  1.00  0.00     0.261 C 
BRANCH   2   3
ATOM      3  O   UNL A   1      32.202  33.828  27.643  1.00  0.00    -0.460 OA
BRANCH   3   4
ATOM      4  C   UNL A   1      32.917  34.623  28.478  1.00  0.00     0.338 C 
ATOM      5  O   UNL A   1      32.527  35.770  28.693  1.00  0.00    -0.246 OA
BRANCH   4   6
ATOM      6  C   UNL A   1      34.090  34.126  29.261  1.00  0.00     0.060 A 
ATOM      7  C   UNL A   1      34.033  33.283  30.376  1.00  0.00     0.016 A 
ATOM      8  C   UNL A   1      35.350  34.444  28.733  1.00  0.00     0.016 A 
ATOM      9  C   UNL A   1      35.179  32.747  30.939  1.00  0.00     0.010 A 
ATOM     10  C   UNL A   1      36.511  33.909  29.291  1.00  0.00     0.010 A 
ATOM     11  C   UNL A   1      36.418  33.044  30.387  1.00  0.00    -0.014 A 
BRANCH  11  12
ATOM     12  C   UNL A   1      37.611  32.494  31.039  1.00  0.00     0.031 A 
ATOM     13  C   UNL A   1      38.316  31.364  30.368  1.00  0.00     0.074 A 
ATOM     14  C   UNL A   1      38.079  33.077  32.157  1.00  0.00     0.049 A 
ATOM     15  N   UNL A   1      39.300  30.631  30.804  1.00  0.00    -0.248 NA
ATOM     16  C   UNL A   1      37.852  31.016  29.012  1.00  0.00     0.031 C 
ATOM     17  C   UNL A   1      37.512  34.274  32.787  1.00  0.00     0.029 A 
ATOM     18  N   UNL A   1      39.141  32.753  32.956  1.00  0.00    -0.354 N 
ATOM     19  C   UNL A   1      39.542  29.705  29.801  1.00  0.00     0.074 A 
ATOM     20  C   UNL A   1      38.621  29.977  28.722  1.00  0.00     0.031 C 
ATOM     21  C   UNL A   1      38.230  34.576  33.880  1.00  0.00     0.029 A 
ATOM     22  C   UNL A   1      39.250  33.553  34.068  1.00  0.00     0.049 A 
ATOM     23  H   UNL A   1      39.766  32.019  32.754  1.00  0.00     0.167 HD
ATOM     24  C   UNL A   1      40.448  28.704  29.810  1.00  0.00     0.037 A 
ATOM     25  C   UNL A   1      40.048  33.417  35.143  1.00  0.00     0.037 A 
ATOM     26  C   UNL A   1      41.351  28.483  30.906  1.00  0.00     0.049 A 
ATOM     27  C   UNL A   1      40.981  32.234  35.166  1.00  0.00     0.074 A 
ATOM     28  C   UNL A   1      42.303  27.494  31.056  1.00  0.00     0.029 A 
ATOM     29  N   UNL A   1      41.402  29.274  32.046  1.00  0.00    -0.354 N 
ATOM     30  N   UNL A   1      41.188  31.328  34.238  1.00  0.00    -0.248 NA
ATOM     31  C   UNL A   1      41.765  32.031  36.390  1.00  0.00     0.031 C 
ATOM     32  C   UNL A   1      42.890  27.653  32.314  1.00  0.00     0.029 A 
ATOM     33  C   UNL A   1      42.343  28.773  32.925  1.00  0.00     0.049 A 
ATOM     34  H   UNL A   1      40.850  30.073  32.205  1.00  0.00     0.167 HD
ATOM     35  C   UNL A   1      42.130  30.453  34.760  1.00  0.00     0.074 A 
ATOM     36  C   UNL A   1      42.477  30.958  36.074  1.00  0.00     0.031 C 
ATOM     37  C   UNL A   1      42.654  29.326  34.218  1.00  0.00     0.037 A 
BRANCH  24  38
ATOM     38  C   UNL A   1      40.434  27.744  28.661  1.00  0.00     0.057 A 
ATOM     39  C   UNL A   1      41.178  27.954  27.495  1.00  0.00     0.134 A 
ATOM     40  C   UNL A   1      39.653  26.584  28.732  1.00  0.00     0.134 A 
ATOM     41  F   UNL A   1      41.920  29.061  27.350  1.00  0.00    -0.206 F 
ATOM     42  C   UNL A   1      41.138  27.045  26.434  1.00  0.00     0.040 A 
ATOM     43  C   UNL A   1      39.621  25.659  27.689  1.00  0.00     0.040 A 
ATOM     44  F   UNL A   1      38.903  26.333  29.816  1.00  0.00    -0.206 F 
ATOM     45  C   UNL A   1      40.364  25.890  26.533  1.00  0.00     0.006 A 
ENDBRANCH  24  38
BRANCH  25  46
ATOM     46  C   UNL A   1      39.933  34.336  36.308  1.00  0.00     0.057 A 
ATOM     47  C   UNL A   1      39.082  34.057  37.383  1.00  0.00     0.134 A 
ATOM     48  C   UNL A   1      40.631  35.552  36.348  1.00  0.00     0.134 A 
ATOM     49  F   UNL A   1      38.369  32.921  37.403  1.00  0.00    -0.206 F 
ATOM     50  C   UNL A   1      38.905  34.962  38.434  1.00  0.00     0.040 A 
ATOM     51  C   UNL A   1      40.490  36.450  37.408  1.00  0.00     0.040 A 
ATOM     52  F   UNL A   1      41.465  35.890  35.352  1.00  0.00    -0.206 F 
ATOM     53  C   UNL A   1      39.613  36.162  38.449  1.00  0.00     0.006 A 
ENDBRANCH  25  46
BRANCH  37  54
ATOM     54  C   UNL A   1      43.661  28.588  35.046  1.00  0.00     0.057 A 
ATOM     55  C   UNL A   1      45.030  28.864  34.950  1.00  0.00     0.134 A 
ATOM     56  C   UNL A   1      43.246  27.645  35.994  1.00  0.00     0.134 A 
ATOM     57  F   UNL A   1      45.485  29.747  34.049  1.00  0.00    -0.206 F 
ATOM     58  C   UNL A   1      45.956  28.213  35.763  1.00  0.00     0.040 A 
ATOM     59  C   UNL A   1      44.160  27.013  36.833  1.00  0.00     0.040 A 
ATOM     60  F   UNL A   1      41.945  27.350  36.138  1.00  0.00    -0.206 F 
ATOM     61  C   UNL A   1      45.521  27.293  36.716  1.00  0.00     0.006 A 
ENDBRANCH  37  54
ENDBRANCH  11  12
ENDBRANCH   4   6
ENDBRANCH   3   4
ENDBRANCH   2   3
ENDBRANCH   1   2
BRANCH   1  62
ATOM     62  O   UNL A   1      31.829  30.520  26.078  1.00  0.00    -0.374 OA
BRANCH  62  63
ATOM     63  C   UNL A   1      32.596  29.707  26.956  1.00  0.00     0.202 C 
BRANCH  63  64
ATOM     64  C   UNL A   1      31.716  28.542  27.414  1.00  0.00     0.261 C 
BRANCH  64  65
ATOM     65  O   UNL A   1      32.260  27.326  26.879  1.00  0.00    -0.463 OA
BRANCH  65  66
ATOM     66  C   UNL A   1      31.379  26.560  26.181  1.00  0.00     0.311 C 
ATOM     67  O   UNL A   1      30.501  26.975  25.442  1.00  0.00    -0.252 OA
BRANCH  66  68
ATOM     68  C   UNL A   1      31.702  25.092  26.310  1.00  0.00     0.127 C 
ATOM     69  C   UNL A   1      30.562  24.153  25.944  1.00  0.00     0.028 C 
ATOM     70  C   UNL A   1      32.983  24.736  25.544  1.00  0.00     0.130 C 
ATOM     71  C   UNL A   1      30.947  22.743  26.320  1.00  0.00     0.101 C 
ATOM     72  N   UNL A   1      33.288  23.290  25.651  1.00  0.00    -0.332 N 
ATOM     73  C   UNL A   1      32.322  22.310  25.865  1.00  0.00     0.223 C 
ATOM     74  O   UNL A   1      32.561  21.102  25.821  1.00  0.00    -0.275 OA
BRANCH  70  75
ATOM     75  C   UNL A   1      33.017  25.266  24.105  1.00  0.00    -0.025 A 
ATOM     76  C   UNL A   1      32.380  24.625  23.037  1.00  0.00     0.006 A 
ATOM     77  C   UNL A   1      33.686  26.478  23.831  1.00  0.00     0.006 A 
ATOM     78  C   UNL A   1      32.405  25.181  21.752  1.00  0.00     0.000 A 
ATOM     79  C   UNL A   1      33.653  27.067  22.568  1.00  0.00     0.000 A 
ATOM     80  C   UNL A   1      33.017  26.412  21.523  1.00  0.00     0.000 A 
ENDBRANCH  70  75
BRANCH  72  81
ATOM     81  C   UNL A   1      34.702  22.892  25.487  1.00  0.00     0.085 C 
ATOM     82  C   UNL A   1      35.021  22.572  24.014  1.00  0.00     0.025 C 
ATOM     83  C   UNL A   1      35.684  23.897  26.114  1.00  0.00     0.025 C 
ATOM     84  C   UNL A   1      36.492  22.232  23.798  1.00  0.00     0.002 C 
ATOM     85  C   UNL A   1      37.136  23.509  25.861  1.00  0.00     0.002 C 
ATOM     86  C   UNL A   1      37.402  23.309  24.375  1.00  0.00     0.000 C 
ENDBRANCH  72  81
ENDBRANCH  66  68
ENDBRANCH  65  66
ENDBRANCH  64  65
ENDBRANCH  63  64
ENDBRANCH  62  63
ENDBRANCH   1  62
TORSDOF 16
ENDMDL
MODEL 3
REMARK VINA RESULT:     -11.4      4.807      9.854
REMARK SMILES O=C(OCCOCCOC(=O)[C@H]1CCC(=O)N(C2CCCCC2)[C@H]1c1ccccc1)c1ccc(-c2c3nc(c(-c4c(F)cccc4F)c4ccc([nH]4)c(-c4c(F)cccc4F)c4nc(c(-c5c(F)cccc5F)c5ccc2[nH]5)C=C4)C=C3)cc1
REMARK SMILES IDX 5 1 4 2 3 3 2 4 1 5 31 6 32 7 84 8 33 9 83 10 34 11 35 12
REMARK SMILES IDX 36 13 77 14 37 15 82 16 76 17 78 18 38 19 81 20 75 21 74 22
REMARK SMILES IDX 39 24 65 25 48 26 64 27 49 28 52 29 63 30 79 31 50 32 51 33
REMARK SMILES IDX 62 35 80 36 53 37 40 38 41 39 46 40 42 41 43 42 45 43 47 44
REMARK SMILES IDX 44 45 66 46 67 47 72 48 68 49 69 50 71 51 73 52 70 53 54 54
REMARK SMILES IDX 55 55 60 56 56 57 57 58 59 59 61 60 58 61 6 62 7 63 8 64
REMARK SMILES IDX 9 65 10 66 11 67 12 68 13 69 24 70 14 71 17 72 15 73 16 74
REMARK SMILES IDX 25 75 26 76 30 77 27 78 29 79 28 80 18 81 19 82 23 83 20 84
REMARK SMILES IDX 22 85 21 86
REMARK H PARENT 78 23 52 34
REMARK Flexibility Score: inf
ROOT
ATOM      1  C   UNL A   1      31.175  31.603  26.757  1.00  0.00     0.202 C 
ENDROOT
BRANCH   1   2
ATOM      2  C   UNL A   1      32.406  32.503  26.881  1.00  0.00     0.261 C 
BRANCH   2   3
ATOM      3  O   UNL A   1      32.071  33.716  27.570  1.00  0.00    -0.460 OA
BRANCH   3   4
ATOM      4  C   UNL A   1      32.922  34.413  28.362  1.00  0.00     0.338 C 
ATOM      5  O   UNL A   1      32.597  35.535  28.750  1.00  0.00    -0.246 OA
BRANCH   4   6
ATOM      6  C   UNL A   1      34.187  33.828  28.901  1.00  0.00     0.060 A 
ATOM      7  C   UNL A   1      35.484  34.260  28.601  1.00  0.00     0.016 A 
ATOM      8  C   UNL A   1      34.028  32.846  29.891  1.00  0.00     0.016 A 
ATOM      9  C   UNL A   1      36.588  33.762  29.272  1.00  0.00     0.010 A 
ATOM     10  C   UNL A   1      35.133  32.338  30.574  1.00  0.00     0.010 A 
ATOM     11  C   UNL A   1      36.413  32.813  30.272  1.00  0.00    -0.014 A 
BRANCH  11  12
ATOM     12  C   UNL A   1      37.611  32.277  30.926  1.00  0.00     0.031 A 
ATOM     13  C   UNL A   1      38.370  31.203  30.221  1.00  0.00     0.074 A 
ATOM     14  C   UNL A   1      38.034  32.826  32.079  1.00  0.00     0.049 A 
ATOM     15  N   UNL A   1      39.371  30.487  30.647  1.00  0.00    -0.248 NA
ATOM     16  C   UNL A   1      37.948  30.901  28.841  1.00  0.00     0.031 C 
ATOM     17  C   UNL A   1      37.410  33.972  32.748  1.00  0.00     0.029 A 
ATOM     18  N   UNL A   1      39.090  32.504  32.886  1.00  0.00    -0.354 N 
ATOM     19  C   UNL A   1      39.668  29.616  29.610  1.00  0.00     0.074 A 
ATOM     20  C   UNL A   1      38.760  29.904  28.524  1.00  0.00     0.031 C 
ATOM     21  C   UNL A   1      38.095  34.251  33.869  1.00  0.00     0.029 A 
ATOM     22  C   UNL A   1      39.147  33.257  34.034  1.00  0.00     0.049 A 
ATOM     23  H   UNL A   1      39.746  31.803  32.666  1.00  0.00     0.167 HD
ATOM     24  C   UNL A   1      40.609  28.648  29.595  1.00  0.00     0.037 A 
ATOM     25  C   UNL A   1      39.927  33.101  35.120  1.00  0.00     0.037 A 
ATOM     26  C   UNL A   1      41.496  28.411  30.700  1.00  0.00     0.049 A 
ATOM     27  C   UNL A   1      40.901  31.952  35.112  1.00  0.00     0.074 A 
ATOM     28  C   UNL A   1      42.480  27.451  30.828  1.00  0.00     0.029 A 
ATOM     29  N   UNL A   1      41.495  29.152  31.875  1.00  0.00    -0.354 N 
ATOM     30  N   UNL A   1      41.160  31.096  34.150  1.00  0.00    -0.248 NA
ATOM     31  C   UNL A   1      41.667  31.723  36.343  1.00  0.00     0.031 C 
ATOM     32  C   UNL A   1      43.035  27.574  32.105  1.00  0.00     0.029 A 
ATOM     33  C   UNL A   1      42.435  28.645  32.752  1.00  0.00     0.049 A 
ATOM     34  H   UNL A   1      40.911  29.923  32.056  1.00  0.00     0.167 HD
ATOM     35  C   UNL A   1      42.122  30.233  34.654  1.00  0.00     0.074 A 
ATOM     36  C   UNL A   1      42.424  30.691  35.996  1.00  0.00     0.031 C 
ATOM     37  C   UNL A   1      42.699  29.151  34.075  1.00  0.00     0.037 A 
BRANCH  24  38
ATOM     38  C   UNL A   1      40.654  27.741  28.405  1.00  0.00     0.057 A 
ATOM     39  C   UNL A   1      39.945  26.537  28.349  1.00  0.00     0.134 A 
ATOM     40  C   UNL A   1      41.428  28.090  27.291  1.00  0.00     0.134 A 
ATOM     41  F   UNL A   1      39.212  26.128  29.394  1.00  0.00    -0.206 F 
ATOM     42  C   UNL A   1      40.013  25.704  27.228  1.00  0.00     0.040 A 
ATOM     43  C   UNL A   1      41.487  27.279  26.158  1.00  0.00     0.040 A 
ATOM     44  F   UNL A   1      42.145  29.225  27.289  1.00  0.00    -0.206 F 
ATOM     45  C   UNL A   1      40.779  26.080  26.126  1.00  0.00     0.006 A 
ENDBRANCH  24  38
BRANCH  25  46
ATOM     46  C   UNL A   1      39.755  33.962  36.321  1.00  0.00     0.057 A 
ATOM     47  C   UNL A   1      38.960  33.566  37.403  1.00  0.00     0.134 A 
ATOM     48  C   UNL A   1      40.336  35.237  36.394  1.00  0.00     0.134 A 
ATOM     49  F   UNL A   1      38.357  32.367  37.394  1.00  0.00    -0.206 F 
ATOM     50  C   UNL A   1      38.724  34.410  38.491  1.00  0.00     0.040 A 
ATOM     51  C   UNL A   1      40.136  36.079  37.490  1.00  0.00     0.040 A 
ATOM     52  F   UNL A   1      41.109  35.689  35.394  1.00  0.00    -0.206 F 
ATOM     53  C   UNL A   1      39.316  35.671  38.537  1.00  0.00     0.006 A 
ENDBRANCH  25  46
BRANCH  37  54
ATOM     54  C   UNL A   1      43.714  28.413  34.892  1.00  0.00     0.057 A 
ATOM     55  C   UNL A   1      45.061  28.794  34.904  1.00  0.00     0.134 A 
ATOM     56  C   UNL A   1      43.324  27.357  35.725  1.00  0.00     0.134 A 
ATOM     57  F   UNL A   1      45.494  29.789  34.114  1.00  0.00    -0.206 F 
ATOM     58  C   UNL A   1      45.991  28.138  35.709  1.00  0.00     0.040 A 
ATOM     59  C   UNL A   1      44.238  26.716  36.557  1.00  0.00     0.040 A 
ATOM     60  F   UNL A   1      42.044  26.957  35.763  1.00  0.00    -0.206 F 
ATOM     61  C   UNL A   1      45.578  27.104  36.547  1.00  0.00     0.006 A 
ENDBRANCH  37  54
ENDBRANCH  11  12
ENDBRANCH   4   6
ENDBRANCH   3   4
ENDBRANCH   2   3
ENDBRANCH   1   2
BRANCH   1  62
ATOM     62  O   UNL A   1      30.848  31.396  25.390  1.00  0.00    -0.374 OA
BRANCH  62  63
ATOM     63  C   UNL A   1      31.268  30.196  24.754  1.00  0.00     0.202 C 
BRANCH  63  64
ATOM     64  C   UNL A   1      30.119  29.698  23.873  1.00  0.00     0.261 C 
BRANCH  64  65
ATOM     65  O   UNL A   1      30.596  28.597  23.087  1.00  0.00    -0.463 OA
BRANCH  65  66
ATOM     66  C   UNL A   1      30.203  27.369  23.520  1.00  0.00     0.311 C 
ATOM     67  O   UNL A   1      29.144  27.110  24.070  1.00  0.00    -0.252 OA
BRANCH  66  68
ATOM     68  C   UNL A   1      31.183  26.299  23.108  1.00  0.00     0.127 C 
ATOM     69  C   UNL A   1      32.229  26.747  22.097  1.00  0.00     0.028 C 
ATOM     70  C   UNL A   1      31.837  25.644  24.330  1.00  0.00     0.130 C 
ATOM     71  C   UNL A   1      32.997  25.540  21.617  1.00  0.00     0.101 C 
ATOM     72  N   UNL A   1      32.817  24.608  23.926  1.00  0.00    -0.332 N 
ATOM     73  C   UNL A   1      33.495  24.620  22.708  1.00  0.00     0.223 C 
ATOM     74  O   UNL A   1      34.403  23.834  22.431  1.00  0.00    -0.275 OA
BRANCH  70  75
ATOM     75  C   UNL A   1      32.388  26.643  25.355  1.00  0.00    -0.025 A 
ATOM     76  C   UNL A   1      33.598  27.326  25.185  1.00  0.00     0.006 A 
ATOM     77  C   UNL A   1      31.636  26.932  26.513  1.00  0.00     0.006 A 
ATOM     78  C   UNL A   1      34.028  28.264  26.131  1.00  0.00     0.000 A 
ATOM     79  C   UNL A   1      32.028  27.915  27.419  1.00  0.00     0.000 A 
ATOM     80  C   UNL A   1      33.233  28.577  27.233  1.00  0.00     0.000 A 
ENDBRANCH  70  75
BRANCH  72  81
ATOM     81  C   UNL A   1      33.093  23.531  24.900  1.00  0.00     0.085 C 
ATOM     82  C   UNL A   1      34.402  23.800  25.666  1.00  0.00     0.025 C 
ATOM     83  C   UNL A   1      31.899  23.241  25.826  1.00  0.00     0.025 C 
ATOM     84  C   UNL A   1      34.678  22.746  26.734  1.00  0.00     0.002 C 
ATOM     85  C   UNL A   1      32.234  22.187  26.874  1.00  0.00     0.002 C 
ATOM     86  C   UNL A   1      33.481  22.569  27.661  1.00  0.00     0.000 C 
ENDBRANCH  72  81
ENDBRANCH  66  68
ENDBRANCH  65  66
ENDBRANCH  64  65
ENDBRANCH  63  64
ENDBRANCH  62  63
ENDBRANCH   1  62
TORSDOF 16
ENDMDL
