MODEL 1
REMARK VINA RESULT:     -11.9      0.000      0.000
REMARK SMILES COC(=O)c1ccc(NC(=O)[C@@H]2CC=CC[C@@H]2C(=O)OCCOCCOC(=O)c2ccc(-c3c4nc(c(-c5c(F)cccc5F)c5ccc([nH]5)c(-c5c(F)cccc5F)c5nc(c(-c6c(F)cccc6F)c6ccc3[nH]6)C=C5)C=C4)cc2)c(C)c1
REMARK SMILES IDX 22 1 21 2 20 3 18 4 19 5 17 6 12 7 13 8 14 9 16 10 15 11
REMARK SMILES IDX 10 12 9 13 11 15 8 16 5 17 6 18 85 19 7 20 83 21 84 22 3 23
REMARK SMILES IDX 4 24 2 25 1 26 23 27 24 28 25 29 26 30 27 31 28 32 29 33
REMARK SMILES IDX 30 34 82 35 31 36 81 37 32 38 33 39 34 40 75 41 35 42 80 43
REMARK SMILES IDX 74 44 76 45 36 46 79 47 73 48 72 49 37 51 63 52 46 53 62 54
REMARK SMILES IDX 47 55 50 56 61 57 77 58 48 59 49 60 60 62 78 63 51 64 38 65
REMARK SMILES IDX 39 66 44 67 40 68 41 69 43 70 45 71 42 72 64 73 65 74 70 75
REMARK SMILES IDX 66 76 67 77 69 78 71 79 68 80 52 81 53 82 58 83 54 84 55 85
REMARK SMILES IDX 57 86 59 87 56 88
REMARK H PARENT 9 14 76 50 50 61
REMARK Flexibility Score: inf
ROOT
ATOM      1  C   UNL A   1      37.871  23.370  25.800  1.00  0.00     0.202 C 
ENDROOT
BRANCH   1   2
ATOM      2  C   UNL A   1      36.549  24.040  26.086  1.00  0.00     0.261 C 
BRANCH   2   3
ATOM      3  O   UNL A   1      35.451  23.234  25.605  1.00  0.00    -0.463 OA
BRANCH   3   4
ATOM      4  C   UNL A   1      34.204  23.408  26.158  1.00  0.00     0.310 C 
ATOM      5  O   UNL A   1      33.930  23.327  27.332  1.00  0.00    -0.252 OA
BRANCH   4   6
ATOM      6  C   UNL A   1      33.249  23.863  25.088  1.00  0.00     0.116 C 
ATOM      7  C   UNL A   1      31.803  23.343  25.260  1.00  0.00     0.097 C 
ATOM      8  C   UNL A   1      31.715  21.824  25.103  1.00  0.00     0.041 C 
ATOM      9  C   UNL A   1      32.388  21.421  23.814  1.00  0.00    -0.030 C 
ATOM     10  C   UNL A   1      33.761  23.522  23.681  1.00  0.00     0.043 C 
ATOM     11  C   UNL A   1      33.275  22.196  23.167  1.00  0.00    -0.030 C 
BRANCH   7  12
ATOM     12  C   UNL A   1      31.131  23.917  26.497  1.00  0.00     0.228 C 
ATOM     13  N   UNL A   1      30.669  25.214  26.502  1.00  0.00    -0.326 N 
ATOM     14  H   UNL A   1      30.347  25.517  27.382  1.00  0.00     0.169 HD
ATOM     15  O   UNL A   1      30.923  23.245  27.508  1.00  0.00    -0.274 OA
BRANCH  13  16
ATOM     16  C   UNL A   1      30.566  26.196  25.487  1.00  0.00     0.044 A 
ATOM     17  C   UNL A   1      30.117  28.368  23.736  1.00  0.00     0.060 A 
ATOM     18  C   UNL A   1      29.376  27.212  23.602  1.00  0.00     0.018 A 
ATOM     19  C   UNL A   1      31.148  28.415  24.685  1.00  0.00     0.021 A 
ATOM     20  C   UNL A   1      29.622  26.150  24.459  1.00  0.00     0.027 A 
ATOM     21  C   UNL A   1      31.414  27.317  25.532  1.00  0.00    -0.027 A 
ATOM     22  C   UNL A   1      32.572  27.411  26.490  1.00  0.00     0.046 C 
BRANCH  17  23
ATOM     23  C   UNL A   1      29.757  29.498  22.844  1.00  0.00     0.337 C 
ATOM     24  O   UNL A   1      29.856  29.439  21.628  1.00  0.00    -0.246 OA
BRANCH  23  25
ATOM     25  O   UNL A   1      29.283  30.572  23.512  1.00  0.00    -0.465 OA
ATOM     26  C   UNL A   1      28.581  31.499  22.679  1.00  0.00     0.282 C 
ENDBRANCH  23  25
ENDBRANCH  17  23
ENDBRANCH  13  16
ENDBRANCH   7  12
ENDBRANCH   4   6
ENDBRANCH   3   4
ENDBRANCH   2   3
ENDBRANCH   1   2
BRANCH   1  27
ATOM     27  O   UNL A   1      37.560  22.140  25.172  1.00  0.00    -0.374 OA
BRANCH  27  28
ATOM     28  C   UNL A   1      38.420  21.052  25.427  1.00  0.00     0.202 C 
BRANCH  28  29
ATOM     29  C   UNL A   1      39.720  21.479  26.118  1.00  0.00     0.261 C 
BRANCH  29  30
ATOM     30  O   UNL A   1      40.529  20.324  26.433  1.00  0.00    -0.460 OA
BRANCH  30  31
ATOM     31  C   UNL A   1      41.835  20.391  26.045  1.00  0.00     0.338 C 
ATOM     32  O   UNL A   1      42.411  19.548  25.376  1.00  0.00    -0.246 OA
BRANCH  31  33
ATOM     33  C   UNL A   1      42.530  21.486  26.781  1.00  0.00     0.060 A 
ATOM     34  C   UNL A   1      42.324  21.649  28.167  1.00  0.00     0.016 A 
ATOM     35  C   UNL A   1      43.072  22.524  26.037  1.00  0.00     0.016 A 
ATOM     36  C   UNL A   1      42.497  22.908  28.765  1.00  0.00     0.010 A 
ATOM     37  C   UNL A   1      43.099  23.779  26.600  1.00  0.00     0.010 A 
ATOM     38  C   UNL A   1      42.802  23.998  27.957  1.00  0.00    -0.014 A 
BRANCH  38  39
ATOM     39  C   UNL A   1      42.827  25.412  28.356  1.00  0.00     0.031 A 
ATOM     40  C   UNL A   1      41.626  26.233  28.051  1.00  0.00     0.074 A 
ATOM     41  C   UNL A   1      43.722  25.893  29.257  1.00  0.00     0.049 A 
ATOM     42  N   UNL A   1      41.544  27.500  28.259  1.00  0.00    -0.248 NA
ATOM     43  C   UNL A   1      40.402  25.695  27.467  1.00  0.00     0.031 C 
ATOM     44  C   UNL A   1      43.512  26.999  30.193  1.00  0.00     0.029 A 
ATOM     45  N   UNL A   1      45.007  25.453  29.601  1.00  0.00    -0.354 N 
ATOM     46  C   UNL A   1      40.215  27.852  28.222  1.00  0.00     0.074 A 
ATOM     47  C   UNL A   1      39.563  26.722  27.612  1.00  0.00     0.031 C 
ATOM     48  C   UNL A   1      44.668  27.315  30.796  1.00  0.00     0.029 A 
ATOM     49  C   UNL A   1      45.705  26.551  30.145  1.00  0.00     0.049 A 
ATOM     50  H   UNL A   1      45.361  24.541  29.485  1.00  0.00     0.167 HD
ATOM     51  C   UNL A   1      39.833  29.009  28.839  1.00  0.00     0.037 A 
ATOM     52  C   UNL A   1      46.820  27.045  29.541  1.00  0.00     0.037 A 
ATOM     53  C   UNL A   1      40.996  29.691  29.441  1.00  0.00     0.049 A 
ATOM     54  C   UNL A   1      46.575  28.451  29.049  1.00  0.00     0.074 A 
ATOM     55  C   UNL A   1      41.438  29.927  30.735  1.00  0.00     0.029 A 
ATOM     56  N   UNL A   1      42.077  30.006  28.629  1.00  0.00    -0.354 N 
ATOM     57  N   UNL A   1      45.408  29.027  29.138  1.00  0.00    -0.248 NA
ATOM     58  C   UNL A   1      47.549  29.321  28.407  1.00  0.00     0.031 C 
ATOM     59  C   UNL A   1      42.769  30.448  30.667  1.00  0.00     0.029 A 
ATOM     60  C   UNL A   1      43.133  30.540  29.334  1.00  0.00     0.049 A 
ATOM     61  H   UNL A   1      42.087  29.864  27.655  1.00  0.00     0.167 HD
ATOM     62  C   UNL A   1      45.424  30.269  28.596  1.00  0.00     0.074 A 
ATOM     63  C   UNL A   1      46.789  30.394  28.106  1.00  0.00     0.031 C 
ATOM     64  C   UNL A   1      44.295  31.041  28.598  1.00  0.00     0.037 A 
BRANCH  51  65
ATOM     65  C   UNL A   1      38.398  29.460  29.078  1.00  0.00     0.057 A 
ATOM     66  C   UNL A   1      37.589  29.872  27.998  1.00  0.00     0.134 A 
ATOM     67  C   UNL A   1      37.736  29.519  30.320  1.00  0.00     0.134 A 
ATOM     68  F   UNL A   1      38.009  29.788  26.728  1.00  0.00    -0.206 F 
ATOM     69  C   UNL A   1      36.287  30.372  28.151  1.00  0.00     0.040 A 
ATOM     70  C   UNL A   1      36.447  30.050  30.494  1.00  0.00     0.040 A 
ATOM     71  F   UNL A   1      38.252  29.004  31.437  1.00  0.00    -0.206 F 
ATOM     72  C   UNL A   1      35.717  30.487  29.406  1.00  0.00     0.006 A 
ENDBRANCH  51  65
BRANCH  52  73
ATOM     73  C   UNL A   1      47.619  25.941  28.933  1.00  0.00     0.057 A 
ATOM     74  C   UNL A   1      47.524  25.774  27.534  1.00  0.00     0.134 A 
ATOM     75  C   UNL A   1      48.808  25.511  29.537  1.00  0.00     0.134 A 
ATOM     76  F   UNL A   1      46.426  26.186  26.880  1.00  0.00    -0.206 F 
ATOM     77  C   UNL A   1      48.608  25.340  26.760  1.00  0.00     0.040 A 
ATOM     78  C   UNL A   1      49.904  25.092  28.767  1.00  0.00     0.040 A 
ATOM     79  F   UNL A   1      48.988  25.659  30.857  1.00  0.00    -0.206 F 
ATOM     80  C   UNL A   1      49.821  25.046  27.376  1.00  0.00     0.006 A 
ENDBRANCH  52  73
BRANCH  64  81
ATOM     81  C   UNL A   1      44.164  32.339  27.855  1.00  0.00     0.057 A 
ATOM     82  C   UNL A   1      44.361  32.459  26.479  1.00  0.00     0.134 A 
ATOM     83  C   UNL A   1      43.865  33.547  28.528  1.00  0.00     0.134 A 
ATOM     84  F   UNL A   1      44.813  31.430  25.748  1.00  0.00    -0.206 F 
ATOM     85  C   UNL A   1      44.133  33.661  25.799  1.00  0.00     0.040 A 
ATOM     86  C   UNL A   1      43.696  34.762  27.872  1.00  0.00     0.040 A 
ATOM     87  F   UNL A   1      43.694  33.615  29.855  1.00  0.00    -0.206 F 
ATOM     88  C   UNL A   1      43.789  34.815  26.494  1.00  0.00     0.006 A 
ENDBRANCH  64  81
ENDBRANCH  38  39
ENDBRANCH  31  33
ENDBRANCH  30  31
ENDBRANCH  29  30
ENDBRANCH  28  29
ENDBRANCH  27  28
ENDBRANCH   1  27
TORSDOF 18
ENDMDL
MODEL 2
REMARK VINA RESULT:     -11.4      3.871      9.256
REMARK SMILES COC(=O)c1ccc(NC(=O)[C@@H]2CC=CC[C@@H]2C(=O)OCCOCCOC(=O)c2ccc(-c3c4nc(c(-c5c(F)cccc5F)c5ccc([nH]5)c(-c5c(F)cccc5F)c5nc(c(-c6c(F)cccc6F)c6ccc3[nH]6)C=C5)C=C4)cc2)c(C)c1
REMARK SMILES IDX 22 1 21 2 20 3 18 4 19 5 17 6 12 7 13 8 14 9 16 10 15 11
REMARK SMILES IDX 10 12 9 13 11 15 8 16 5 17 6 18 85 19 7 20 83 21 84 22 3 23
REMARK SMILES IDX 4 24 2 25 1 26 23 27 24 28 25 29 26 30 27 31 28 32 29 33
REMARK SMILES IDX 30 34 82 35 31 36 81 37 32 38 33 39 34 40 75 41 35 42 80 43
REMARK SMILES IDX 74 44 76 45 36 46 79 47 73 48 72 49 37 51 63 52 46 53 62 54
REMARK SMILES IDX 47 55 50 56 61 57 77 58 48 59 49 60 60 62 78 63 51 64 38 65
REMARK SMILES IDX 39 66 44 67 40 68 41 69 43 70 45 71 42 72 64 73 65 74 70 75
REMARK SMILES IDX 66 76 67 77 69 78 71 79 68 80 52 81 53 82 58 83 54 84 55 85
REMARK SMILES IDX 57 86 59 87 56 88
REMARK H PARENT 9 14 76 50 50 61
REMARK Flexibility Score: inf
ROOT
ATOM      1  C   UNL A   1      32.063  29.255  25.966  1.00  0.00     0.202 C 
ENDROOT
BRANCH   1   2
ATOM      2  C   UNL A   1      32.811  28.288  26.852  1.00  0.00     0.261 C 
BRANCH   2   3
ATOM      3  O   UNL A   1      32.469  26.924  26.525  1.00  0.00    -0.463 OA
BRANCH   3   4
ATOM      4  C   UNL A   1      33.076  26.325  25.446  1.00  0.00     0.310 C 
ATOM      5  O   UNL A   1      34.202  26.529  25.061  1.00  0.00    -0.252 OA
BRANCH   4   6
ATOM      6  C   UNL A   1      32.166  25.258  24.897  1.00  0.00     0.116 C 
ATOM      7  C   UNL A   1      31.909  25.359  23.376  1.00  0.00     0.097 C 
ATOM      8  C   UNL A   1      31.131  26.623  23.007  1.00  0.00     0.041 C 
ATOM      9  C   UNL A   1      29.896  26.714  23.870  1.00  0.00    -0.030 C 
ATOM     10  C   UNL A   1      30.829  25.204  25.650  1.00  0.00     0.043 C 
ATOM     11  C   UNL A   1      29.754  26.053  25.032  1.00  0.00    -0.030 C 
BRANCH   7  12
ATOM     12  C   UNL A   1      33.167  25.100  22.564  1.00  0.00     0.228 C 
ATOM     13  N   UNL A   1      33.783  23.869  22.606  1.00  0.00    -0.326 N 
ATOM     14  H   UNL A   1      34.644  23.840  22.128  1.00  0.00     0.169 HD
ATOM     15  O   UNL A   1      33.648  25.941  21.803  1.00  0.00    -0.274 OA
BRANCH  13  16
ATOM     16  C   UNL A   1      33.420  22.638  23.202  1.00  0.00     0.044 A 
ATOM     17  C   UNL A   1      32.992  20.008  24.146  1.00  0.00     0.060 A 
ATOM     18  C   UNL A   1      32.155  20.540  23.186  1.00  0.00     0.018 A 
ATOM     19  C   UNL A   1      33.991  20.816  24.706  1.00  0.00     0.021 A 
ATOM     20  C   UNL A   1      32.369  21.838  22.748  1.00  0.00     0.027 A 
ATOM     21  C   UNL A   1      34.182  22.148  24.278  1.00  0.00    -0.027 A 
ATOM     22  C   UNL A   1      35.236  22.978  24.960  1.00  0.00     0.046 C 
BRANCH  17  23
ATOM     23  C   UNL A   1      32.763  18.591  24.518  1.00  0.00     0.337 C 
ATOM     24  O   UNL A   1      32.154  18.261  25.524  1.00  0.00    -0.246 OA
BRANCH  23  25
ATOM     25  O   UNL A   1      33.266  17.716  23.620  1.00  0.00    -0.465 OA
ATOM     26  C   UNL A   1      33.440  16.397  24.141  1.00  0.00     0.282 C 
ENDBRANCH  23  25
ENDBRANCH  17  23
ENDBRANCH  13  16
ENDBRANCH   7  12
ENDBRANCH   4   6
ENDBRANCH   3   4
ENDBRANCH   2   3
ENDBRANCH   1   2
BRANCH   1  27
ATOM     27  O   UNL A   1      32.753  30.487  26.059  1.00  0.00    -0.374 OA
BRANCH  27  28
ATOM     28  C   UNL A   1      32.914  31.038  27.348  1.00  0.00     0.202 C 
BRANCH  28  29
ATOM     29  C   UNL A   1      34.371  31.403  27.654  1.00  0.00     0.261 C 
BRANCH  29  30
ATOM     30  O   UNL A   1      34.515  32.833  27.798  1.00  0.00    -0.460 OA
BRANCH  30  31
ATOM     31  C   UNL A   1      34.408  33.315  29.070  1.00  0.00     0.338 C 
ATOM     32  O   UNL A   1      33.456  33.941  29.505  1.00  0.00    -0.246 OA
BRANCH  31  33
ATOM     33  C   UNL A   1      35.725  33.215  29.765  1.00  0.00     0.060 A 
ATOM     34  C   UNL A   1      36.898  33.668  29.126  1.00  0.00     0.016 A 
ATOM     35  C   UNL A   1      35.818  32.365  30.858  1.00  0.00     0.016 A 
ATOM     36  C   UNL A   1      38.147  33.128  29.474  1.00  0.00     0.010 A 
ATOM     37  C   UNL A   1      37.021  31.739  31.091  1.00  0.00     0.010 A 
ATOM     38  C   UNL A   1      38.195  32.093  30.402  1.00  0.00    -0.014 A 
BRANCH  38  39
ATOM     39  C   UNL A   1      39.363  31.272  30.748  1.00  0.00     0.031 A 
ATOM     40  C   UNL A   1      39.577  30.021  29.973  1.00  0.00     0.074 A 
ATOM     41  C   UNL A   1      40.399  31.760  31.478  1.00  0.00     0.049 A 
ATOM     42  N   UNL A   1      40.501  29.163  30.227  1.00  0.00    -0.248 NA
ATOM     43  C   UNL A   1      38.751  29.616  28.841  1.00  0.00     0.031 C 
ATOM     44  C   UNL A   1      41.805  31.364  31.375  1.00  0.00     0.029 A 
ATOM     45  N   UNL A   1      40.448  32.783  32.435  1.00  0.00    -0.354 N 
ATOM     46  C   UNL A   1      40.644  28.353  29.124  1.00  0.00     0.074 A 
ATOM     47  C   UNL A   1      39.458  28.600  28.343  1.00  0.00     0.031 C 
ATOM     48  C   UNL A   1      42.511  31.916  32.373  1.00  0.00     0.029 A 
ATOM     49  C   UNL A   1      41.563  32.542  33.263  1.00  0.00     0.049 A 
ATOM     50  H   UNL A   1      39.818  33.536  32.514  1.00  0.00     0.167 HD
ATOM     51  C   UNL A   1      41.820  27.679  28.961  1.00  0.00     0.037 A 
ATOM     52  C   UNL A   1      41.410  32.292  34.593  1.00  0.00     0.037 A 
ATOM     53  C   UNL A   1      42.746  27.962  30.077  1.00  0.00     0.049 A 
ATOM     54  C   UNL A   1      41.853  30.888  34.921  1.00  0.00     0.074 A 
ATOM     55  C   UNL A   1      43.934  28.663  30.216  1.00  0.00     0.029 A 
ATOM     56  N   UNL A   1      42.317  27.719  31.375  1.00  0.00    -0.354 N 
ATOM     57  N   UNL A   1      42.236  30.045  34.001  1.00  0.00    -0.248 NA
ATOM     58  C   UNL A   1      41.892  30.282  36.244  1.00  0.00     0.031 C 
ATOM     59  C   UNL A   1      44.232  28.771  31.611  1.00  0.00     0.029 A 
ATOM     60  C   UNL A   1      43.233  28.126  32.320  1.00  0.00     0.049 A 
ATOM     61  H   UNL A   1      41.454  27.301  31.595  1.00  0.00     0.167 HD
ATOM     62  C   UNL A   1      42.549  28.838  34.531  1.00  0.00     0.074 A 
ATOM     63  C   UNL A   1      42.273  29.022  35.949  1.00  0.00     0.031 C 
ATOM     64  C   UNL A   1      42.980  27.818  33.729  1.00  0.00     0.037 A 
BRANCH  51  65
ATOM     65  C   UNL A   1      42.239  26.903  27.719  1.00  0.00     0.057 A 
ATOM     66  C   UNL A   1      42.540  25.528  27.804  1.00  0.00     0.134 A 
ATOM     67  C   UNL A   1      42.368  27.420  26.415  1.00  0.00     0.134 A 
ATOM     68  F   UNL A   1      42.376  24.836  28.939  1.00  0.00    -0.206 F 
ATOM     69  C   UNL A   1      43.006  24.768  26.720  1.00  0.00     0.040 A 
ATOM     70  C   UNL A   1      42.866  26.682  25.329  1.00  0.00     0.040 A 
ATOM     71  F   UNL A   1      41.956  28.643  26.080  1.00  0.00    -0.206 F 
ATOM     72  C   UNL A   1      43.195  25.350  25.479  1.00  0.00     0.006 A 
ENDBRANCH  51  65
BRANCH  52  73
ATOM     73  C   UNL A   1      40.285  33.099  35.151  1.00  0.00     0.057 A 
ATOM     74  C   UNL A   1      39.078  32.417  35.421  1.00  0.00     0.134 A 
ATOM     75  C   UNL A   1      40.545  34.242  35.918  1.00  0.00     0.134 A 
ATOM     76  F   UNL A   1      38.771  31.298  34.745  1.00  0.00    -0.206 F 
ATOM     77  C   UNL A   1      38.248  32.769  36.493  1.00  0.00     0.040 A 
ATOM     78  C   UNL A   1      39.728  34.590  37.004  1.00  0.00     0.040 A 
ATOM     79  F   UNL A   1      41.682  34.930  35.742  1.00  0.00    -0.206 F 
ATOM     80  C   UNL A   1      38.602  33.830  37.320  1.00  0.00     0.006 A 
ENDBRANCH  52  73
BRANCH  64  81
ATOM     81  C   UNL A   1      43.162  26.402  34.195  1.00  0.00     0.057 A 
ATOM     82  C   UNL A   1      44.360  25.698  34.064  1.00  0.00     0.134 A 
ATOM     83  C   UNL A   1      42.095  25.674  34.771  1.00  0.00     0.134 A 
ATOM     84  F   UNL A   1      45.397  26.210  33.385  1.00  0.00    -0.206 F 
ATOM     85  C   UNL A   1      44.529  24.416  34.598  1.00  0.00     0.040 A 
ATOM     86  C   UNL A   1      42.233  24.375  35.252  1.00  0.00     0.040 A 
ATOM     87  F   UNL A   1      40.867  26.185  34.925  1.00  0.00    -0.206 F 
ATOM     88  C   UNL A   1      43.466  23.754  35.204  1.00  0.00     0.006 A 
ENDBRANCH  64  81
ENDBRANCH  38  39
ENDBRANCH  31  33
ENDBRANCH  30  31
ENDBRANCH  29  30
ENDBRANCH  28  29
ENDBRANCH  27  28
ENDBRANCH   1  27
TORSDOF 18
ENDMDL
MODEL 3
REMARK VINA RESULT:     -11.2      3.154      8.639
REMARK SMILES COC(=O)c1ccc(NC(=O)[C@@H]2CC=CC[C@@H]2C(=O)OCCOCCOC(=O)c2ccc(-c3c4nc(c(-c5c(F)cccc5F)c5ccc([nH]5)c(-c5c(F)cccc5F)c5nc(c(-c6c(F)cccc6F)c6ccc3[nH]6)C=C5)C=C4)cc2)c(C)c1
REMARK SMILES IDX 22 1 21 2 20 3 18 4 19 5 17 6 12 7 13 8 14 9 16 10 15 11
REMARK SMILES IDX 10 12 9 13 11 15 8 16 5 17 6 18 85 19 7 20 83 21 84 22 3 23
REMARK SMILES IDX 4 24 2 25 1 26 23 27 24 28 25 29 26 30 27 31 28 32 29 33
REMARK SMILES IDX 30 34 82 35 31 36 81 37 32 38 33 39 34 40 75 41 35 42 80 43
REMARK SMILES IDX 74 44 76 45 36 46 79 47 73 48 72 49 37 51 63 52 46 53 62 54
REMARK SMILES IDX 47 55 50 56 61 57 77 58 48 59 49 60 60 62 78 63 51 64 38 65
REMARK SMILES IDX 39 66 44 67 40 68 41 69 43 70 45 71 42 72 64 73 65 74 70 75
REMARK SMILES IDX 66 76 67 77 69 78 71 79 68 80 52 81 53 82 58 83 54 84 55 85
REMARK SMILES IDX 57 86 59 87 56 88
REMARK H PARENT 9 14 76 50 50 61
REMARK Flexibility Score: inf
ROOT
ATOM      1  C   UNL A   1      31.467  29.456  24.862  1.00  0.00     0.202 C 
ENDROOT
BRANCH   1   2
ATOM      2  C   UNL A   1      32.739  28.969  24.213  1.00  0.00     0.261 C 
BRANCH   2   3
ATOM      3  O   UNL A   1      32.647  27.562  23.897  1.00  0.00    -0.463 OA
BRANCH   3   4
ATOM      4  C   UNL A   1      33.151  26.645  24.788  1.00  0.00     0.310 C 
ATOM      5  O   UNL A   1      34.031  26.844  25.592  1.00  0.00    -0.252 OA
BRANCH   4   6
ATOM      6  C   UNL A   1      32.336  25.382  24.711  1.00  0.00     0.116 C 
ATOM      7  C   UNL A   1      31.796  25.055  23.300  1.00  0.00     0.097 C 
ATOM      8  C   UNL A   1      30.776  26.090  22.821  1.00  0.00     0.041 C 
ATOM      9  C   UNL A   1      29.718  26.269  23.882  1.00  0.00    -0.030 C 
ATOM     10  C   UNL A   1      31.182  25.383  25.724  1.00  0.00     0.043 C 
ATOM     11  C   UNL A   1      29.893  25.923  25.169  1.00  0.00    -0.030 C 
BRANCH   7  12
ATOM     12  C   UNL A   1      32.911  24.729  22.321  1.00  0.00     0.228 C 
ATOM     13  N   UNL A   1      33.560  23.516  22.382  1.00  0.00    -0.326 N 
ATOM     14  H   UNL A   1      34.332  23.448  21.774  1.00  0.00     0.169 HD
ATOM     15  O   UNL A   1      33.238  25.493  21.412  1.00  0.00    -0.274 OA
BRANCH  13  16
ATOM     16  C   UNL A   1      33.334  22.347  23.148  1.00  0.00     0.044 A 
ATOM     17  C   UNL A   1      33.177  19.837  24.436  1.00  0.00     0.060 A 
ATOM     18  C   UNL A   1      32.247  20.176  23.475  1.00  0.00     0.018 A 
ATOM     19  C   UNL A   1      34.136  20.782  24.826  1.00  0.00     0.021 A 
ATOM     20  C   UNL A   1      32.329  21.420  22.866  1.00  0.00     0.027 A 
ATOM     21  C   UNL A   1      34.192  22.059  24.225  1.00  0.00    -0.027 A 
ATOM     22  C   UNL A   1      35.209  23.047  24.729  1.00  0.00     0.046 C 
BRANCH  17  23
ATOM     23  C   UNL A   1      33.087  18.465  24.995  1.00  0.00     0.337 C 
ATOM     24  O   UNL A   1      32.155  18.095  25.692  1.00  0.00    -0.246 OA
BRANCH  23  25
ATOM     25  O   UNL A   1      34.118  17.673  24.629  1.00  0.00    -0.465 OA
ATOM     26  C   UNL A   1      33.840  16.866  23.482  1.00  0.00     0.282 C 
ENDBRANCH  23  25
ENDBRANCH  17  23
ENDBRANCH  13  16
ENDBRANCH   7  12
ENDBRANCH   4   6
ENDBRANCH   3   4
ENDBRANCH   2   3
ENDBRANCH   1   2
BRANCH   1  27
ATOM     27  O   UNL A   1      31.856  30.453  25.789  1.00  0.00    -0.374 OA
BRANCH  27  28
ATOM     28  C   UNL A   1      32.064  30.044  27.123  1.00  0.00     0.202 C 
BRANCH  28  29
ATOM     29  C   UNL A   1      33.551  29.918  27.475  1.00  0.00     0.261 C 
BRANCH  29  30
ATOM     30  O   UNL A   1      34.231  31.174  27.251  1.00  0.00    -0.460 OA
BRANCH  30  31
ATOM     31  C   UNL A   1      35.200  31.493  28.156  1.00  0.00     0.338 C 
ATOM     32  O   UNL A   1      35.431  32.618  28.568  1.00  0.00    -0.246 OA
BRANCH  31  33
ATOM     33  C   UNL A   1      36.112  30.330  28.358  1.00  0.00     0.060 A 
ATOM     34  C   UNL A   1      36.194  29.704  29.618  1.00  0.00     0.016 A 
ATOM     35  C   UNL A   1      37.110  30.119  27.416  1.00  0.00     0.016 A 
ATOM     36  C   UNL A   1      37.359  29.015  29.993  1.00  0.00     0.010 A 
ATOM     37  C   UNL A   1      38.297  29.570  27.843  1.00  0.00     0.010 A 
ATOM     38  C   UNL A   1      38.450  29.025  29.130  1.00  0.00    -0.014 A 
BRANCH  38  39
ATOM     39  C   UNL A   1      39.806  28.539  29.419  1.00  0.00     0.031 A 
ATOM     40  C   UNL A   1      40.168  27.181  28.934  1.00  0.00     0.074 A 
ATOM     41  C   UNL A   1      40.809  29.376  29.792  1.00  0.00     0.049 A 
ATOM     42  N   UNL A   1      41.283  26.594  29.192  1.00  0.00    -0.248 NA
ATOM     43  C   UNL A   1      39.289  26.351  28.117  1.00  0.00     0.031 C 
ATOM     44  C   UNL A   1      42.236  29.212  29.506  1.00  0.00     0.029 A 
ATOM     45  N   UNL A   1      40.778  30.612  30.452  1.00  0.00    -0.354 N 
ATOM     46  C   UNL A   1      41.430  25.553  28.304  1.00  0.00     0.074 A 
ATOM     47  C   UNL A   1      40.117  25.375  27.741  1.00  0.00     0.031 C 
ATOM     48  C   UNL A   1      42.946  30.126  30.184  1.00  0.00     0.029 A 
ATOM     49  C   UNL A   1      42.030  30.797  31.074  1.00  0.00     0.049 A 
ATOM     50  H   UNL A   1      40.019  31.239  30.476  1.00  0.00     0.167 HD
ATOM     51  C   UNL A   1      42.687  25.072  28.073  1.00  0.00     0.037 A 
ATOM     52  C   UNL A   1      42.134  30.894  32.427  1.00  0.00     0.037 A 
ATOM     53  C   UNL A   1      43.685  25.799  28.883  1.00  0.00     0.049 A 
ATOM     54  C   UNL A   1      42.915  29.727  32.981  1.00  0.00     0.074 A 
ATOM     55  C   UNL A   1      44.701  26.704  28.613  1.00  0.00     0.029 A 
ATOM     56  N   UNL A   1      43.518  25.846  30.260  1.00  0.00    -0.354 N 
ATOM     57  N   UNL A   1      43.329  28.745  32.228  1.00  0.00    -0.248 NA
ATOM     58  C   UNL A   1      43.280  29.518  34.374  1.00  0.00     0.031 C 
ATOM     59  C   UNL A   1      45.173  27.233  29.855  1.00  0.00     0.029 A 
ATOM     60  C   UNL A   1      44.455  26.643  30.881  1.00  0.00     0.049 A 
ATOM     61  H   UNL A   1      42.809  25.362  30.741  1.00  0.00     0.167 HD
ATOM     62  C   UNL A   1      43.971  27.798  32.954  1.00  0.00     0.074 A 
ATOM     63  C   UNL A   1      43.876  28.309  34.314  1.00  0.00     0.031 C 
ATOM     64  C   UNL A   1      44.488  26.689  32.344  1.00  0.00     0.037 A 
BRANCH  51  65
ATOM     65  C   UNL A   1      43.074  24.072  26.990  1.00  0.00     0.057 A 
ATOM     66  C   UNL A   1      42.973  22.686  27.229  1.00  0.00     0.134 A 
ATOM     67  C   UNL A   1      43.546  24.380  25.700  1.00  0.00     0.134 A 
ATOM     68  F   UNL A   1      42.448  22.198  28.361  1.00  0.00    -0.206 F 
ATOM     69  C   UNL A   1      43.383  21.708  26.309  1.00  0.00     0.040 A 
ATOM     70  C   UNL A   1      43.993  23.416  24.781  1.00  0.00     0.040 A 
ATOM     71  F   UNL A   1      43.540  25.619  25.206  1.00  0.00    -0.206 F 
ATOM     72  C   UNL A   1      43.920  22.071  25.086  1.00  0.00     0.006 A 
ENDBRANCH  51  65
BRANCH  52  73
ATOM     73  C   UNL A   1      40.958  31.617  32.994  1.00  0.00     0.057 A 
ATOM     74  C   UNL A   1      39.973  30.836  33.637  1.00  0.00     0.134 A 
ATOM     75  C   UNL A   1      41.080  32.947  33.417  1.00  0.00     0.134 A 
ATOM     76  F   UNL A   1      39.813  29.545  33.305  1.00  0.00    -0.206 F 
ATOM     77  C   UNL A   1      39.251  31.309  34.741  1.00  0.00     0.040 A 
ATOM     78  C   UNL A   1      40.373  33.422  34.532  1.00  0.00     0.040 A 
ATOM     79  F   UNL A   1      42.009  33.747  32.875  1.00  0.00    -0.206 F 
ATOM     80  C   UNL A   1      39.490  32.593  35.222  1.00  0.00     0.006 A 
ENDBRANCH  52  73
BRANCH  64  81
ATOM     81  C   UNL A   1      45.039  25.504  33.084  1.00  0.00     0.057 A 
ATOM     82  C   UNL A   1      44.246  24.618  33.814  1.00  0.00     0.134 A 
ATOM     83  C   UNL A   1      46.427  25.234  33.113  1.00  0.00     0.134 A 
ATOM     84  F   UNL A   1      42.940  24.853  34.010  1.00  0.00    -0.206 F 
ATOM     85  C   UNL A   1      44.774  23.467  34.409  1.00  0.00     0.040 A 
ATOM     86  C   UNL A   1      46.973  24.125  33.752  1.00  0.00     0.040 A 
ATOM     87  F   UNL A   1      47.331  26.012  32.504  1.00  0.00    -0.206 F 
ATOM     88  C   UNL A   1      46.140  23.211  34.370  1.00  0.00     0.006 A 
ENDBRANCH  64  81
ENDBRANCH  38  39
ENDBRANCH  31  33
ENDBRANCH  30  31
ENDBRANCH  29  30
ENDBRANCH  28  29
ENDBRANCH  27  28
ENDBRANCH   1  27
TORSDOF 18
ENDMDL
