MODEL 1
REMARK VINA RESULT:      -9.9      0.000      0.000
REMARK SMILES CC(=O)N[C@@H](C[NH2+]CCc1ccc(F)cc1C)C(=O)OCCOCCOC(=O)c1ccc(-c2c3nc(c(-c4c(F)cccc4F)c4ccc([nH]4)c(-c4c(F)cccc4F)c4nc(c(-c5c(F)cccc5F)c5ccc2[nH]5)C=C4)C=C3)cc1
REMARK SMILES IDX 21 1 20 2 18 3 19 4 5 5 4 6 1 7 2 8 3 9 6 11 7 12 8 15 9 16
REMARK SMILES IDX 10 17 11 18 16 19 12 20 15 21 17 22 13 23 14 24 22 25 23 26
REMARK SMILES IDX 24 27 25 28 26 29 27 30 28 31 29 32 30 33 82 34 31 35 81 36
REMARK SMILES IDX 32 37 33 38 34 39 75 40 35 41 80 42 74 43 76 44 36 45 79 46
REMARK SMILES IDX 73 47 72 48 37 50 63 51 46 52 62 53 47 54 50 55 61 56 77 57
REMARK SMILES IDX 48 58 49 59 60 61 78 62 51 63 38 64 39 65 44 66 40 67 41 68
REMARK SMILES IDX 43 69 45 70 42 71 64 72 65 73 70 74 66 75 67 76 69 77 71 78
REMARK SMILES IDX 68 79 52 80 53 81 58 82 54 83 55 84 57 85 59 86 56 87
REMARK H PARENT 4 10 7 13 7 14 76 49 50 60
REMARK Flexibility Score: inf
ROOT
ATOM      1  C   UNL A   1      41.983  19.531  25.985  1.00  0.00     0.261 C 
ENDROOT
BRANCH   1   2
ATOM      2  O   UNL A   1      41.275  20.767  25.830  1.00  0.00    -0.462 OA
BRANCH   2   3
ATOM      3  C   UNL A   1      41.013  21.451  26.980  1.00  0.00     0.334 C 
ATOM      4  O   UNL A   1      41.631  21.329  28.033  1.00  0.00    -0.250 OA
BRANCH   3   5
ATOM      5  C   UNL A   1      39.794  22.374  26.835  1.00  0.00     0.247 C 
BRANCH   5   6
ATOM      6  N   UNL A   1      40.088  23.665  26.192  1.00  0.00    -0.338 N 
ATOM      7  C   UNL A   1      39.127  25.078  27.964  1.00  0.00     0.114 C 
ATOM      8  C   UNL A   1      39.820  24.922  26.638  1.00  0.00     0.217 C 
ATOM      9  O   UNL A   1      40.175  25.895  25.976  1.00  0.00    -0.275 OA
ATOM     10  H   UNL A   1      40.541  23.611  25.319  1.00  0.00     0.164 HD
ENDBRANCH   5   6
BRANCH   5  11
ATOM     11  C   UNL A   1      38.729  21.604  26.034  1.00  0.00     0.297 C 
BRANCH  11  12
ATOM     12  N   UNL A   1      38.151  22.472  24.998  1.00  0.00    -0.344 N 
ATOM     13  H   UNL A   1      38.414  22.103  24.084  1.00  0.00     0.346 HD
ATOM     14  H   UNL A   1      38.516  23.411  25.153  1.00  0.00     0.346 HD
BRANCH  12  15
ATOM     15  C   UNL A   1      36.695  22.557  25.061  1.00  0.00     0.265 C 
BRANCH  15  16
ATOM     16  C   UNL A   1      36.134  23.637  26.001  1.00  0.00     0.097 C 
BRANCH  16  17
ATOM     17  C   UNL A   1      34.647  23.585  26.307  1.00  0.00    -0.039 A 
ATOM     18  C   UNL A   1      34.200  22.567  27.176  1.00  0.00     0.007 A 
ATOM     19  C   UNL A   1      33.696  24.467  25.746  1.00  0.00    -0.045 A 
ATOM     20  C   UNL A   1      32.850  22.428  27.495  1.00  0.00     0.039 A 
ATOM     21  C   UNL A   1      32.340  24.322  26.096  1.00  0.00     0.043 A 
ATOM     22  C   UNL A   1      34.051  25.605  24.829  1.00  0.00     0.045 C 
ATOM     23  C   UNL A   1      31.932  23.308  26.951  1.00  0.00     0.123 A 
ATOM     24  F   UNL A   1      30.632  23.176  27.248  1.00  0.00    -0.207 F 
ENDBRANCH  16  17
ENDBRANCH  15  16
ENDBRANCH  12  15
ENDBRANCH  11  12
ENDBRANCH   5  11
ENDBRANCH   3   5
ENDBRANCH   2   3
ENDBRANCH   1   2
BRANCH   1  25
ATOM     25  C   UNL A   1      43.476  19.703  25.696  1.00  0.00     0.202 C 
BRANCH  25  26
ATOM     26  O   UNL A   1      43.823  20.578  24.625  1.00  0.00    -0.374 OA
BRANCH  26  27
ATOM     27  C   UNL A   1      44.984  21.396  24.778  1.00  0.00     0.202 C 
BRANCH  27  28
ATOM     28  C   UNL A   1      44.895  22.852  24.301  1.00  0.00     0.261 C 
BRANCH  28  29
ATOM     29  O   UNL A   1      44.081  23.676  25.157  1.00  0.00    -0.460 OA
BRANCH  29  30
ATOM     30  C   UNL A   1      44.592  24.903  25.418  1.00  0.00     0.338 C 
ATOM     31  O   UNL A   1      45.486  25.483  24.818  1.00  0.00    -0.246 OA
BRANCH  30  32
ATOM     32  C   UNL A   1      43.798  25.567  26.465  1.00  0.00     0.060 A 
ATOM     33  C   UNL A   1      43.725  26.966  26.444  1.00  0.00     0.016 A 
ATOM     34  C   UNL A   1      43.224  24.837  27.506  1.00  0.00     0.016 A 
ATOM     35  C   UNL A   1      43.095  27.645  27.486  1.00  0.00     0.010 A 
ATOM     36  C   UNL A   1      42.606  25.523  28.557  1.00  0.00     0.010 A 
ATOM     37  C   UNL A   1      42.559  26.929  28.563  1.00  0.00    -0.014 A 
BRANCH  37  38
ATOM     38  C   UNL A   1      42.042  27.653  29.749  1.00  0.00     0.031 A 
ATOM     39  C   UNL A   1      40.817  28.511  29.613  1.00  0.00     0.074 A 
ATOM     40  C   UNL A   1      42.661  27.540  30.937  1.00  0.00     0.049 A 
ATOM     41  N   UNL A   1      40.244  29.284  30.499  1.00  0.00    -0.248 NA
ATOM     42  C   UNL A   1      40.148  28.495  28.303  1.00  0.00     0.031 C 
ATOM     43  C   UNL A   1      43.828  26.702  31.205  1.00  0.00     0.029 A 
ATOM     44  N   UNL A   1      42.396  28.146  32.139  1.00  0.00    -0.354 N 
ATOM     45  C   UNL A   1      39.151  29.850  29.856  1.00  0.00     0.074 A 
ATOM     46  C   UNL A   1      39.153  29.348  28.498  1.00  0.00     0.031 C 
ATOM     47  C   UNL A   1      44.193  26.862  32.489  1.00  0.00     0.029 A 
ATOM     48  C   UNL A   1      43.307  27.839  33.119  1.00  0.00     0.049 A 
ATOM     49  H   UNL A   1      41.628  28.744  32.284  1.00  0.00     0.167 HD
ATOM     50  C   UNL A   1      38.229  30.708  30.355  1.00  0.00     0.037 A 
ATOM     51  C   UNL A   1      43.429  28.318  34.372  1.00  0.00     0.037 A 
ATOM     52  C   UNL A   1      38.232  31.209  31.703  1.00  0.00     0.049 A 
ATOM     53  C   UNL A   1      42.446  29.341  34.874  1.00  0.00     0.074 A 
ATOM     54  C   UNL A   1      37.326  32.062  32.309  1.00  0.00     0.029 A 
ATOM     55  N   UNL A   1      39.197  30.910  32.653  1.00  0.00    -0.354 N 
ATOM     56  N   UNL A   1      41.404  29.854  34.266  1.00  0.00    -0.248 NA
ATOM     57  C   UNL A   1      42.661  29.858  36.233  1.00  0.00     0.031 C 
ATOM     58  C   UNL A   1      37.770  32.318  33.611  1.00  0.00     0.029 A 
ATOM     59  C   UNL A   1      38.927  31.589  33.830  1.00  0.00     0.049 A 
ATOM     60  H   UNL A   1      39.960  30.307  32.511  1.00  0.00     0.167 HD
ATOM     61  C   UNL A   1      40.830  30.737  35.171  1.00  0.00     0.074 A 
ATOM     62  C   UNL A   1      41.631  30.680  36.377  1.00  0.00     0.031 C 
ATOM     63  C   UNL A   1      39.737  31.525  35.020  1.00  0.00     0.037 A 
BRANCH  50  64
ATOM     64  C   UNL A   1      37.152  31.180  29.424  1.00  0.00     0.057 A 
ATOM     65  C   UNL A   1      37.212  32.431  28.798  1.00  0.00     0.134 A 
ATOM     66  C   UNL A   1      36.059  30.357  29.124  1.00  0.00     0.134 A 
ATOM     67  F   UNL A   1      38.227  33.272  29.053  1.00  0.00    -0.206 F 
ATOM     68  C   UNL A   1      36.212  32.856  27.921  1.00  0.00     0.040 A 
ATOM     69  C   UNL A   1      35.065  30.762  28.232  1.00  0.00     0.040 A 
ATOM     70  F   UNL A   1      35.945  29.144  29.685  1.00  0.00    -0.206 F 
ATOM     71  C   UNL A   1      35.138  32.017  27.631  1.00  0.00     0.006 A 
ENDBRANCH  50  64
BRANCH  51  72
ATOM     72  C   UNL A   1      44.546  27.860  35.234  1.00  0.00     0.057 A 
ATOM     73  C   UNL A   1      44.396  26.769  36.098  1.00  0.00     0.134 A 
ATOM     74  C   UNL A   1      45.786  28.514  35.229  1.00  0.00     0.134 A 
ATOM     75  F   UNL A   1      43.225  26.118  36.165  1.00  0.00    -0.206 F 
ATOM     76  C   UNL A   1      45.433  26.353  36.935  1.00  0.00     0.040 A 
ATOM     77  C   UNL A   1      46.837  28.094  36.045  1.00  0.00     0.040 A 
ATOM     78  F   UNL A   1      45.993  29.566  34.423  1.00  0.00    -0.206 F 
ATOM     79  C   UNL A   1      46.660  27.014  36.906  1.00  0.00     0.006 A 
ENDBRANCH  51  72
BRANCH  63  80
ATOM     80  C   UNL A   1      39.334  32.374  36.188  1.00  0.00     0.057 A 
ATOM     81  C   UNL A   1      39.884  33.644  36.398  1.00  0.00     0.134 A 
ATOM     82  C   UNL A   1      38.351  31.937  37.085  1.00  0.00     0.134 A 
ATOM     83  F   UNL A   1      40.840  34.115  35.582  1.00  0.00    -0.206 F 
ATOM     84  C   UNL A   1      39.482  34.444  37.470  1.00  0.00     0.040 A 
ATOM     85  C   UNL A   1      37.924  32.737  38.146  1.00  0.00     0.040 A 
ATOM     86  F   UNL A   1      37.779  30.733  36.935  1.00  0.00    -0.206 F 
ATOM     87  C   UNL A   1      38.494  33.993  38.343  1.00  0.00     0.006 A 
ENDBRANCH  63  80
ENDBRANCH  37  38
ENDBRANCH  30  32
ENDBRANCH  29  30
ENDBRANCH  28  29
ENDBRANCH  27  28
ENDBRANCH  26  27
ENDBRANCH  25  26
ENDBRANCH   1  25
TORSDOF 20
ENDMDL
MODEL 2
REMARK VINA RESULT:      -9.9      4.008      8.626
REMARK SMILES CC(=O)N[C@@H](C[NH2+]CCc1ccc(F)cc1C)C(=O)OCCOCCOC(=O)c1ccc(-c2c3nc(c(-c4c(F)cccc4F)c4ccc([nH]4)c(-c4c(F)cccc4F)c4nc(c(-c5c(F)cccc5F)c5ccc2[nH]5)C=C4)C=C3)cc1
REMARK SMILES IDX 21 1 20 2 18 3 19 4 5 5 4 6 1 7 2 8 3 9 6 11 7 12 8 15 9 16
REMARK SMILES IDX 10 17 11 18 16 19 12 20 15 21 17 22 13 23 14 24 22 25 23 26
REMARK SMILES IDX 24 27 25 28 26 29 27 30 28 31 29 32 30 33 82 34 31 35 81 36
REMARK SMILES IDX 32 37 33 38 34 39 75 40 35 41 80 42 74 43 76 44 36 45 79 46
REMARK SMILES IDX 73 47 72 48 37 50 63 51 46 52 62 53 47 54 50 55 61 56 77 57
REMARK SMILES IDX 48 58 49 59 60 61 78 62 51 63 38 64 39 65 44 66 40 67 41 68
REMARK SMILES IDX 43 69 45 70 42 71 64 72 65 73 70 74 66 75 67 76 69 77 71 78
REMARK SMILES IDX 68 79 52 80 53 81 58 82 54 83 55 84 57 85 59 86 56 87
REMARK H PARENT 4 10 7 13 7 14 76 49 50 60
REMARK Flexibility Score: inf
ROOT
ATOM      1  C   UNL A   1      31.900  28.948  25.669  1.00  0.00     0.261 C 
ENDROOT
BRANCH   1   2
ATOM      2  O   UNL A   1      31.354  27.631  25.805  1.00  0.00    -0.462 OA
BRANCH   2   3
ATOM      3  C   UNL A   1      30.862  27.069  24.663  1.00  0.00     0.334 C 
ATOM      4  O   UNL A   1      30.049  27.595  23.909  1.00  0.00    -0.250 OA
BRANCH   3   5
ATOM      5  C   UNL A   1      31.400  25.648  24.443  1.00  0.00     0.247 C 
BRANCH   5   6
ATOM      6  N   UNL A   1      31.157  24.730  25.570  1.00  0.00    -0.338 N 
ATOM      7  C   UNL A   1      33.505  24.562  26.294  1.00  0.00     0.114 C 
ATOM      8  C   UNL A   1      32.052  24.200  26.447  1.00  0.00     0.217 C 
ATOM      9  O   UNL A   1      31.660  23.474  27.356  1.00  0.00    -0.275 OA
ATOM     10  H   UNL A   1      30.219  24.464  25.706  1.00  0.00     0.164 HD
ENDBRANCH   5   6
BRANCH   5  11
ATOM     11  C   UNL A   1      30.749  25.105  23.159  1.00  0.00     0.297 C 
BRANCH  11  12
ATOM     12  N   UNL A   1      31.615  25.369  22.002  1.00  0.00    -0.344 N 
ATOM     13  H   UNL A   1      31.614  26.373  21.820  1.00  0.00     0.346 HD
ATOM     14  H   UNL A   1      31.242  24.836  21.217  1.00  0.00     0.346 HD
BRANCH  12  15
ATOM     15  C   UNL A   1      32.995  24.937  22.202  1.00  0.00     0.265 C 
BRANCH  15  16
ATOM     16  C   UNL A   1      33.240  23.423  22.079  1.00  0.00     0.097 C 
BRANCH  16  17
ATOM     17  C   UNL A   1      34.137  22.780  23.124  1.00  0.00    -0.039 A 
ATOM     18  C   UNL A   1      35.482  23.204  23.172  1.00  0.00     0.007 A 
ATOM     19  C   UNL A   1      33.710  21.769  24.014  1.00  0.00    -0.045 A 
ATOM     20  C   UNL A   1      36.383  22.654  24.081  1.00  0.00     0.039 A 
ATOM     21  C   UNL A   1      34.630  21.239  24.938  1.00  0.00     0.043 A 
ATOM     22  C   UNL A   1      32.299  21.253  24.077  1.00  0.00     0.045 C 
ATOM     23  C   UNL A   1      35.948  21.675  24.957  1.00  0.00     0.123 A 
ATOM     24  F   UNL A   1      36.810  21.137  25.829  1.00  0.00    -0.207 F 
ENDBRANCH  16  17
ENDBRANCH  15  16
ENDBRANCH  12  15
ENDBRANCH  11  12
ENDBRANCH   5  11
ENDBRANCH   3   5
ENDBRANCH   2   3
ENDBRANCH   1   2
BRANCH   1  25
ATOM     25  C   UNL A   1      32.720  29.341  26.900  1.00  0.00     0.202 C 
BRANCH  25  26
ATOM     26  O   UNL A   1      33.125  30.705  26.990  1.00  0.00    -0.374 OA
BRANCH  26  27
ATOM     27  C   UNL A   1      32.108  31.697  27.137  1.00  0.00     0.202 C 
BRANCH  27  28
ATOM     28  C   UNL A   1      32.532  33.168  27.040  1.00  0.00     0.261 C 
BRANCH  28  29
ATOM     29  O   UNL A   1      32.235  33.920  28.232  1.00  0.00    -0.460 OA
BRANCH  29  30
ATOM     30  C   UNL A   1      33.231  34.736  28.653  1.00  0.00     0.338 C 
ATOM     31  O   UNL A   1      33.180  35.944  28.834  1.00  0.00    -0.246 OA
BRANCH  30  32
ATOM     32  C   UNL A   1      34.403  33.937  29.046  1.00  0.00     0.060 A 
ATOM     33  C   UNL A   1      34.211  32.901  29.968  1.00  0.00     0.016 A 
ATOM     34  C   UNL A   1      35.683  34.267  28.599  1.00  0.00     0.016 A 
ATOM     35  C   UNL A   1      35.309  32.202  30.469  1.00  0.00     0.010 A 
ATOM     36  C   UNL A   1      36.784  33.574  29.115  1.00  0.00     0.010 A 
ATOM     37  C   UNL A   1      36.603  32.556  30.068  1.00  0.00    -0.014 A 
BRANCH  37  38
ATOM     38  C   UNL A   1      37.777  31.933  30.724  1.00  0.00     0.031 A 
ATOM     39  C   UNL A   1      38.547  30.865  29.999  1.00  0.00     0.074 A 
ATOM     40  C   UNL A   1      38.154  32.321  31.954  1.00  0.00     0.049 A 
ATOM     41  N   UNL A   1      39.553  30.141  30.417  1.00  0.00    -0.248 NA
ATOM     42  C   UNL A   1      38.125  30.575  28.620  1.00  0.00     0.031 C 
ATOM     43  C   UNL A   1      37.518  33.378  32.738  1.00  0.00     0.029 A 
ATOM     44  N   UNL A   1      39.161  31.859  32.765  1.00  0.00    -0.354 N 
ATOM     45  C   UNL A   1      39.883  29.307  29.356  1.00  0.00     0.074 A 
ATOM     46  C   UNL A   1      38.957  29.600  28.283  1.00  0.00     0.031 C 
ATOM     47  C   UNL A   1      38.138  33.471  33.927  1.00  0.00     0.029 A 
ATOM     48  C   UNL A   1      39.188  32.457  34.000  1.00  0.00     0.049 A 
ATOM     49  H   UNL A   1      39.800  31.164  32.486  1.00  0.00     0.167 HD
ATOM     50  C   UNL A   1      40.871  28.384  29.284  1.00  0.00     0.037 A 
ATOM     51  C   UNL A   1      39.953  32.192  35.076  1.00  0.00     0.037 A 
ATOM     52  C   UNL A   1      41.788  28.091  30.354  1.00  0.00     0.049 A 
ATOM     53  C   UNL A   1      40.983  31.098  35.002  1.00  0.00     0.074 A 
ATOM     54  C   UNL A   1      42.839  27.191  30.367  1.00  0.00     0.029 A 
ATOM     55  N   UNL A   1      41.755  28.686  31.605  1.00  0.00    -0.354 N 
ATOM     56  N   UNL A   1      41.303  30.330  33.989  1.00  0.00    -0.248 NA
ATOM     57  C   UNL A   1      41.754  30.827  36.225  1.00  0.00     0.031 C 
ATOM     58  C   UNL A   1      43.412  27.206  31.643  1.00  0.00     0.029 A 
ATOM     59  C   UNL A   1      42.745  28.148  32.410  1.00  0.00     0.049 A 
ATOM     60  H   UNL A   1      41.122  29.386  31.881  1.00  0.00     0.167 HD
ATOM     61  C   UNL A   1      42.320  29.501  34.443  1.00  0.00     0.074 A 
ATOM     62  C   UNL A   1      42.576  29.869  35.821  1.00  0.00     0.031 C 
ATOM     63  C   UNL A   1      42.985  28.523  33.781  1.00  0.00     0.037 A 
BRANCH  50  64
ATOM     64  C   UNL A   1      40.994  27.603  28.009  1.00  0.00     0.057 A 
ATOM     65  C   UNL A   1      41.784  28.049  26.942  1.00  0.00     0.134 A 
ATOM     66  C   UNL A   1      40.341  26.374  27.862  1.00  0.00     0.134 A 
ATOM     67  F   UNL A   1      42.426  29.225  27.016  1.00  0.00    -0.206 F 
ATOM     68  C   UNL A   1      41.906  27.307  25.766  1.00  0.00     0.040 A 
ATOM     69  C   UNL A   1      40.471  25.613  26.699  1.00  0.00     0.040 A 
ATOM     70  F   UNL A   1      39.573  25.888  28.849  1.00  0.00    -0.206 F 
ATOM     71  C   UNL A   1      41.252  26.082  25.645  1.00  0.00     0.006 A 
ENDBRANCH  50  64
BRANCH  51  72
ATOM     72  C   UNL A   1      39.754  32.956  36.332  1.00  0.00     0.057 A 
ATOM     73  C   UNL A   1      40.521  34.089  36.621  1.00  0.00     0.134 A 
ATOM     74  C   UNL A   1      38.803  32.560  37.282  1.00  0.00     0.134 A 
ATOM     75  F   UNL A   1      41.464  34.503  35.762  1.00  0.00    -0.206 F 
ATOM     76  C   UNL A   1      40.361  34.794  37.816  1.00  0.00     0.040 A 
ATOM     77  C   UNL A   1      38.617  33.268  38.470  1.00  0.00     0.040 A 
ATOM     78  F   UNL A   1      38.035  31.482  37.064  1.00  0.00    -0.206 F 
ATOM     79  C   UNL A   1      39.403  34.386  38.742  1.00  0.00     0.006 A 
ENDBRANCH  51  72
BRANCH  63  80
ATOM     80  C   UNL A   1      44.061  27.794  34.529  1.00  0.00     0.057 A 
ATOM     81  C   UNL A   1      43.809  26.584  35.187  1.00  0.00     0.134 A 
ATOM     82  C   UNL A   1      45.374  28.283  34.550  1.00  0.00     0.134 A 
ATOM     83  F   UNL A   1      42.571  26.070  35.214  1.00  0.00    -0.206 F 
ATOM     84  C   UNL A   1      44.823  25.894  35.855  1.00  0.00     0.040 A 
ATOM     85  C   UNL A   1      46.399  27.590  35.195  1.00  0.00     0.040 A 
ATOM     86  F   UNL A   1      45.683  29.433  33.933  1.00  0.00    -0.206 F 
ATOM     87  C   UNL A   1      46.124  26.394  35.853  1.00  0.00     0.006 A 
ENDBRANCH  63  80
ENDBRANCH  37  38
ENDBRANCH  30  32
ENDBRANCH  29  30
ENDBRANCH  28  29
ENDBRANCH  27  28
ENDBRANCH  26  27
ENDBRANCH  25  26
ENDBRANCH   1  25
TORSDOF 20
ENDMDL
MODEL 3
REMARK VINA RESULT:      -9.8      2.547      4.275
REMARK SMILES CC(=O)N[C@@H](C[NH2+]CCc1ccc(F)cc1C)C(=O)OCCOCCOC(=O)c1ccc(-c2c3nc(c(-c4c(F)cccc4F)c4ccc([nH]4)c(-c4c(F)cccc4F)c4nc(c(-c5c(F)cccc5F)c5ccc2[nH]5)C=C4)C=C3)cc1
REMARK SMILES IDX 21 1 20 2 18 3 19 4 5 5 4 6 1 7 2 8 3 9 6 11 7 12 8 15 9 16
REMARK SMILES IDX 10 17 11 18 16 19 12 20 15 21 17 22 13 23 14 24 22 25 23 26
REMARK SMILES IDX 24 27 25 28 26 29 27 30 28 31 29 32 30 33 82 34 31 35 81 36
REMARK SMILES IDX 32 37 33 38 34 39 75 40 35 41 80 42 74 43 76 44 36 45 79 46
REMARK SMILES IDX 73 47 72 48 37 50 63 51 46 52 62 53 47 54 50 55 61 56 77 57
REMARK SMILES IDX 48 58 49 59 60 61 78 62 51 63 38 64 39 65 44 66 40 67 41 68
REMARK SMILES IDX 43 69 45 70 42 71 64 72 65 73 70 74 66 75 67 76 69 77 71 78
REMARK SMILES IDX 68 79 52 80 53 81 58 82 54 83 55 84 57 85 59 86 56 87
REMARK H PARENT 4 10 7 13 7 14 76 49 50 60
REMARK Flexibility Score: inf
ROOT
ATOM      1  C   UNL A   1      36.395  21.422  25.798  1.00  0.00     0.261 C 
ENDROOT
BRANCH   1   2
ATOM      2  O   UNL A   1      35.209  21.906  25.159  1.00  0.00    -0.462 OA
BRANCH   2   3
ATOM      3  C   UNL A   1      34.162  22.194  25.985  1.00  0.00     0.334 C 
ATOM      4  O   UNL A   1      34.236  22.851  27.019  1.00  0.00    -0.250 OA
BRANCH   3   5
ATOM      5  C   UNL A   1      32.856  21.543  25.506  1.00  0.00     0.247 C 
BRANCH   5   6
ATOM      6  N   UNL A   1      32.647  20.172  26.004  1.00  0.00    -0.338 N 
ATOM      7  C   UNL A   1      32.704  19.073  23.802  1.00  0.00     0.114 C 
ATOM      8  C   UNL A   1      32.569  19.011  25.299  1.00  0.00     0.217 C 
ATOM      9  O   UNL A   1      32.427  17.945  25.892  1.00  0.00    -0.275 OA
ATOM     10  H   UNL A   1      32.552  20.085  26.980  1.00  0.00     0.164 HD
ENDBRANCH   5   6
BRANCH   5  11
ATOM     11  C   UNL A   1      31.699  22.457  25.950  1.00  0.00     0.297 C 
BRANCH  11  12
ATOM     12  N   UNL A   1      31.949  23.837  25.513  1.00  0.00    -0.344 N 
ATOM     13  H   UNL A   1      31.513  23.972  24.600  1.00  0.00     0.346 HD
ATOM     14  H   UNL A   1      32.960  23.965  25.478  1.00  0.00     0.346 HD
BRANCH  12  15
ATOM     15  C   UNL A   1      31.418  24.840  26.431  1.00  0.00     0.265 C 
BRANCH  15  16
ATOM     16  C   UNL A   1      31.048  26.191  25.795  1.00  0.00     0.097 C 
BRANCH  16  17
ATOM     17  C   UNL A   1      31.970  27.365  26.076  1.00  0.00    -0.039 A 
ATOM     18  C   UNL A   1      31.596  28.249  27.111  1.00  0.00     0.007 A 
ATOM     19  C   UNL A   1      33.149  27.635  25.344  1.00  0.00    -0.045 A 
ATOM     20  C   UNL A   1      32.368  29.366  27.425  1.00  0.00     0.039 A 
ATOM     21  C   UNL A   1      33.925  28.757  25.689  1.00  0.00     0.043 A 
ATOM     22  C   UNL A   1      33.665  26.755  24.240  1.00  0.00     0.045 C 
ATOM     23  C   UNL A   1      33.528  29.610  26.710  1.00  0.00     0.123 A 
ATOM     24  F   UNL A   1      34.271  30.685  27.001  1.00  0.00    -0.207 F 
ENDBRANCH  16  17
ENDBRANCH  15  16
ENDBRANCH  12  15
ENDBRANCH  11  12
ENDBRANCH   5  11
ENDBRANCH   3   5
ENDBRANCH   2   3
ENDBRANCH   1   2
BRANCH   1  25
ATOM     25  C   UNL A   1      37.652  22.051  25.190  1.00  0.00     0.202 C 
BRANCH  25  26
ATOM     26  O   UNL A   1      38.904  21.543  25.644  1.00  0.00    -0.374 OA
BRANCH  26  27
ATOM     27  C   UNL A   1      39.663  22.346  26.550  1.00  0.00     0.202 C 
BRANCH  27  28
ATOM     28  C   UNL A   1      41.166  22.494  26.279  1.00  0.00     0.261 C 
BRANCH  28  29
ATOM     29  O   UNL A   1      41.787  23.509  27.090  1.00  0.00    -0.460 OA
BRANCH  29  30
ATOM     30  C   UNL A   1      41.888  24.725  26.501  1.00  0.00     0.338 C 
ATOM     31  O   UNL A   1      42.159  24.970  25.334  1.00  0.00    -0.246 OA
BRANCH  30  32
ATOM     32  C   UNL A   1      41.453  25.775  27.437  1.00  0.00     0.060 A 
ATOM     33  C   UNL A   1      42.287  26.888  27.607  1.00  0.00     0.016 A 
ATOM     34  C   UNL A   1      40.302  25.620  28.211  1.00  0.00     0.016 A 
ATOM     35  C   UNL A   1      41.983  27.844  28.575  1.00  0.00     0.010 A 
ATOM     36  C   UNL A   1      40.009  26.573  29.192  1.00  0.00     0.010 A 
ATOM     37  C   UNL A   1      40.860  27.675  29.394  1.00  0.00    -0.014 A 
BRANCH  37  38
ATOM     38  C   UNL A   1      40.629  28.595  30.533  1.00  0.00     0.031 A 
ATOM     39  C   UNL A   1      39.575  29.660  30.418  1.00  0.00     0.074 A 
ATOM     40  C   UNL A   1      41.352  28.477  31.660  1.00  0.00     0.049 A 
ATOM     41  N   UNL A   1      39.264  30.612  31.261  1.00  0.00    -0.248 NA
ATOM     42  C   UNL A   1      38.765  29.652  29.191  1.00  0.00     0.031 C 
ATOM     43  C   UNL A   1      42.368  27.455  31.907  1.00  0.00     0.029 A 
ATOM     44  N   UNL A   1      41.348  29.234  32.804  1.00  0.00    -0.354 N 
ATOM     45  C   UNL A   1      38.226  31.317  30.666  1.00  0.00     0.074 A 
ATOM     46  C   UNL A   1      37.975  30.698  29.382  1.00  0.00     0.031 C 
ATOM     47  C   UNL A   1      42.904  27.662  33.122  1.00  0.00     0.029 A 
ATOM     48  C   UNL A   1      42.295  28.849  33.719  1.00  0.00     0.049 A 
ATOM     49  H   UNL A   1      40.725  29.983  32.952  1.00  0.00     0.167 HD
ATOM     50  C   UNL A   1      37.544  32.382  31.150  1.00  0.00     0.037 A 
ATOM     51  C   UNL A   1      42.651  29.412  34.890  1.00  0.00     0.037 A 
ATOM     52  C   UNL A   1      37.799  32.999  32.425  1.00  0.00     0.049 A 
ATOM     53  C   UNL A   1      41.940  30.651  35.363  1.00  0.00     0.074 A 
ATOM     54  C   UNL A   1      37.143  34.067  33.013  1.00  0.00     0.029 A 
ATOM     55  N   UNL A   1      38.797  32.608  33.304  1.00  0.00    -0.354 N 
ATOM     56  N   UNL A   1      40.946  31.298  34.804  1.00  0.00    -0.248 NA
ATOM     57  C   UNL A   1      42.405  31.242  36.626  1.00  0.00     0.031 C 
ATOM     58  C   UNL A   1      37.777  34.354  34.227  1.00  0.00     0.029 A 
ATOM     59  C   UNL A   1      38.798  33.436  34.414  1.00  0.00     0.049 A 
ATOM     60  H   UNL A   1      39.414  31.856  33.159  1.00  0.00     0.167 HD
ATOM     61  C   UNL A   1      40.655  32.358  35.653  1.00  0.00     0.074 A 
ATOM     62  C   UNL A   1      41.569  32.260  36.774  1.00  0.00     0.031 C 
ATOM     63  C   UNL A   1      39.717  33.327  35.519  1.00  0.00     0.037 A 
BRANCH  50  64
ATOM     64  C   UNL A   1      36.470  32.966  30.281  1.00  0.00     0.057 A 
ATOM     65  C   UNL A   1      35.112  32.714  30.513  1.00  0.00     0.134 A 
ATOM     66  C   UNL A   1      36.798  33.818  29.219  1.00  0.00     0.134 A 
ATOM     67  F   UNL A   1      34.732  31.897  31.507  1.00  0.00    -0.206 F 
ATOM     68  C   UNL A   1      34.119  33.275  29.708  1.00  0.00     0.040 A 
ATOM     69  C   UNL A   1      35.814  34.402  28.421  1.00  0.00     0.040 A 
ATOM     70  F   UNL A   1      38.080  34.104  28.946  1.00  0.00    -0.206 F 
ATOM     71  C   UNL A   1      34.469  34.127  28.662  1.00  0.00     0.006 A 
ENDBRANCH  50  64
BRANCH  51  72
ATOM     72  C   UNL A   1      43.758  28.827  35.686  1.00  0.00     0.057 A 
ATOM     73  C   UNL A   1      43.517  27.845  36.652  1.00  0.00     0.134 A 
ATOM     74  C   UNL A   1      45.082  29.252  35.513  1.00  0.00     0.134 A 
ATOM     75  F   UNL A   1      42.266  27.416  36.880  1.00  0.00    -0.206 F 
ATOM     76  C   UNL A   1      44.549  27.314  37.427  1.00  0.00     0.040 A 
ATOM     77  C   UNL A   1      46.127  28.714  36.265  1.00  0.00     0.040 A 
ATOM     78  F   UNL A   1      45.379  30.191  34.602  1.00  0.00    -0.206 F 
ATOM     79  C   UNL A   1      45.860  27.745  37.231  1.00  0.00     0.006 A 
ENDBRANCH  51  72
BRANCH  63  80
ATOM     80  C   UNL A   1      39.618  34.346  36.615  1.00  0.00     0.057 A 
ATOM     81  C   UNL A   1      38.893  34.099  37.786  1.00  0.00     0.134 A 
ATOM     82  C   UNL A   1      40.295  35.569  36.517  1.00  0.00     0.134 A 
ATOM     83  F   UNL A   1      38.212  32.952  37.935  1.00  0.00    -0.206 F 
ATOM     84  C   UNL A   1      38.830  35.039  38.817  1.00  0.00     0.040 A 
ATOM     85  C   UNL A   1      40.258  36.507  37.551  1.00  0.00     0.040 A 
ATOM     86  F   UNL A   1      41.014  35.865  35.425  1.00  0.00    -0.206 F 
ATOM     87  C   UNL A   1      39.521  36.244  38.703  1.00  0.00     0.006 A 
ENDBRANCH  63  80
ENDBRANCH  37  38
ENDBRANCH  30  32
ENDBRANCH  29  30
ENDBRANCH  28  29
ENDBRANCH  27  28
ENDBRANCH  26  27
ENDBRANCH  25  26
ENDBRANCH   1  25
TORSDOF 20
ENDMDL
