MODEL 1
REMARK VINA RESULT:     -11.7      0.000      0.000
REMARK SMILES O=C(Cn1cc(/C=C2\SC(N3CCOCC3)=[NH+]C2=O)c2ccccc21)OCCOCCOC(=O)c1ccc(-c2c3nc(c(-c4c(F)cccc4F)c4ccc([nH]4)c(-c4c(F)cccc4F)c4nc(c(-c5c(F)cccc5F)c5ccc2[nH]5)C=C4)C=C3)cc1
REMARK SMILES IDX 29 1 28 2 27 3 26 4 2 5 1 6 3 7 4 8 5 9 25 10 6 11 20 12
REMARK SMILES IDX 24 13 21 14 23 15 22 16 7 17 8 18 9 19 18 20 10 21 17 22
REMARK SMILES IDX 19 23 11 24 12 26 16 27 13 28 15 29 14 30 30 31 31 32 32 33
REMARK SMILES IDX 33 34 34 35 35 36 36 37 88 38 37 39 87 40 38 41 39 42 40 43
REMARK SMILES IDX 81 44 41 45 86 46 80 47 82 48 42 49 85 50 79 51 78 52 43 54
REMARK SMILES IDX 69 55 52 56 68 57 53 58 56 59 67 60 83 61 54 62 55 63 66 65
REMARK SMILES IDX 84 66 57 67 44 68 45 69 50 70 46 71 47 72 49 73 51 74 48 75
REMARK SMILES IDX 70 76 71 77 76 78 72 79 73 80 75 81 77 82 74 83 58 84 59 85
REMARK SMILES IDX 64 86 60 87 61 88 63 89 65 90 62 91
REMARK H PARENT 17 25 82 53 56 64
REMARK Flexibility Score: inf
ROOT
ATOM      1  O   UNL A   1      41.065  18.895  25.713  1.00  0.00    -0.374 OA
ENDROOT
BRANCH   1   2
ATOM      2  C   UNL A   1      40.060  19.900  25.825  1.00  0.00     0.202 C 
BRANCH   2   3
ATOM      3  C   UNL A   1      38.651  19.559  25.370  1.00  0.00     0.261 C 
BRANCH   3   4
ATOM      4  O   UNL A   1      38.152  20.482  24.401  1.00  0.00    -0.462 OA
BRANCH   4   5
ATOM      5  C   UNL A   1      37.190  21.396  24.657  1.00  0.00     0.326 C 
ATOM      6  O   UNL A   1      36.947  22.249  23.800  1.00  0.00    -0.250 OA
BRANCH   5   7
ATOM      7  C   UNL A   1      36.440  21.406  25.972  1.00  0.00     0.244 C 
BRANCH   7   8
ATOM      8  N   UNL A   1      35.012  21.181  25.857  1.00  0.00    -0.336 N 
ATOM      9  C   UNL A   1      34.092  22.083  26.309  1.00  0.00     0.095 A 
ATOM     10  C   UNL A   1      34.376  20.106  25.264  1.00  0.00     0.049 A 
ATOM     11  C   UNL A   1      32.847  21.661  25.906  1.00  0.00     0.001 A 
ATOM     12  C   UNL A   1      32.998  20.372  25.318  1.00  0.00     0.007 A 
ATOM     13  C   UNL A   1      34.890  18.963  24.623  1.00  0.00     0.027 A 
ATOM     14  C   UNL A   1      32.112  19.417  24.779  1.00  0.00     0.011 A 
ATOM     15  C   UNL A   1      33.991  18.056  24.062  1.00  0.00     0.002 A 
ATOM     16  C   UNL A   1      32.621  18.259  24.173  1.00  0.00     0.001 A 
BRANCH  11  17
ATOM     17  C   UNL A   1      31.677  22.447  26.140  1.00  0.00     0.034 C 
ATOM     18  C   UNL A   1      31.472  23.686  25.664  1.00  0.00     0.110 C 
ATOM     19  S   UNL A   1      32.401  24.543  24.494  1.00  0.00     0.006 SA
ATOM     20  C   UNL A   1      30.403  24.586  26.184  1.00  0.00     0.346 C 
ATOM     21  C   UNL A   1      31.515  26.007  24.871  1.00  0.00     0.319 C 
ATOM     22  N   UNL A   1      30.567  25.884  25.739  1.00  0.00    -0.200 N 
ATOM     23  O   UNL A   1      29.529  24.212  26.950  1.00  0.00    -0.240 OA
ATOM     24  N   UNL A   1      31.934  27.168  24.283  1.00  0.00    -0.251 N 
ATOM     25  H   UNL A   1      30.018  26.638  26.052  1.00  0.00     0.316 HD
ATOM     26  C   UNL A   1      31.989  27.357  22.831  1.00  0.00     0.265 C 
ATOM     27  C   UNL A   1      32.059  28.413  25.044  1.00  0.00     0.265 C 
ATOM     28  C   UNL A   1      33.251  28.142  22.454  1.00  0.00     0.206 C 
ATOM     29  C   UNL A   1      33.339  29.139  24.594  1.00  0.00     0.206 C 
ATOM     30  O   UNL A   1      33.332  29.383  23.177  1.00  0.00    -0.373 OA
ENDBRANCH  11  17
ENDBRANCH   7   8
ENDBRANCH   5   7
ENDBRANCH   4   5
ENDBRANCH   3   4
ENDBRANCH   2   3
ENDBRANCH   1   2
BRANCH   1  31
ATOM     31  C   UNL A   1      42.300  19.236  26.364  1.00  0.00     0.202 C 
BRANCH  31  32
ATOM     32  C   UNL A   1      43.562  19.091  25.487  1.00  0.00     0.261 C 
BRANCH  32  33
ATOM     33  O   UNL A   1      43.718  20.234  24.627  1.00  0.00    -0.460 OA
BRANCH  33  34
ATOM     34  C   UNL A   1      44.944  20.821  24.650  1.00  0.00     0.338 C 
ATOM     35  O   UNL A   1      45.936  20.458  24.044  1.00  0.00    -0.246 OA
BRANCH  34  36
ATOM     36  C   UNL A   1      44.781  22.173  25.239  1.00  0.00     0.060 A 
ATOM     37  C   UNL A   1      45.556  22.607  26.323  1.00  0.00     0.016 A 
ATOM     38  C   UNL A   1      43.635  22.890  24.859  1.00  0.00     0.016 A 
ATOM     39  C   UNL A   1      45.117  23.689  27.086  1.00  0.00     0.010 A 
ATOM     40  C   UNL A   1      43.204  23.978  25.618  1.00  0.00     0.010 A 
ATOM     41  C   UNL A   1      43.926  24.360  26.752  1.00  0.00    -0.014 A 
BRANCH  41  42
ATOM     42  C   UNL A   1      43.640  25.634  27.427  1.00  0.00     0.031 A 
ATOM     43  C   UNL A   1      44.650  26.671  27.113  1.00  0.00     0.074 A 
ATOM     44  C   UNL A   1      42.543  25.986  28.130  1.00  0.00     0.049 A 
ATOM     45  N   UNL A   1      45.424  27.279  27.948  1.00  0.00    -0.248 NA
ATOM     46  C   UNL A   1      44.924  26.966  25.698  1.00  0.00     0.031 C 
ATOM     47  C   UNL A   1      41.364  25.173  28.397  1.00  0.00     0.029 A 
ATOM     48  N   UNL A   1      42.211  27.199  28.682  1.00  0.00    -0.354 N 
ATOM     49  C   UNL A   1      46.144  28.188  27.188  1.00  0.00     0.074 A 
ATOM     50  C   UNL A   1      45.921  27.844  25.807  1.00  0.00     0.031 C 
ATOM     51  C   UNL A   1      40.370  25.969  28.852  1.00  0.00     0.029 A 
ATOM     52  C   UNL A   1      40.867  27.317  29.020  1.00  0.00     0.049 A 
ATOM     53  H   UNL A   1      42.866  27.920  28.828  1.00  0.00     0.167 HD
ATOM     54  C   UNL A   1      46.654  29.314  27.749  1.00  0.00     0.037 A 
ATOM     55  C   UNL A   1      40.169  28.414  29.414  1.00  0.00     0.037 A 
ATOM     56  C   UNL A   1      46.759  29.201  29.182  1.00  0.00     0.049 A 
ATOM     57  C   UNL A   1      41.133  29.376  29.976  1.00  0.00     0.074 A 
ATOM     58  C   UNL A   1      47.401  28.349  30.060  1.00  0.00     0.029 A 
ATOM     59  N   UNL A   1      45.857  29.901  29.943  1.00  0.00    -0.354 N 
ATOM     60  N   UNL A   1      41.752  29.198  31.107  1.00  0.00    -0.248 NA
ATOM     61  C   UNL A   1      41.721  30.360  29.085  1.00  0.00     0.031 C 
ATOM     62  C   UNL A   1      46.543  28.259  31.196  1.00  0.00     0.029 A 
ATOM     63  C   UNL A   1      45.445  29.086  30.962  1.00  0.00     0.049 A 
ATOM     64  H   UNL A   1      45.560  30.826  29.785  1.00  0.00     0.167 HD
ATOM     65  C   UNL A   1      43.033  29.660  30.865  1.00  0.00     0.074 A 
ATOM     66  C   UNL A   1      42.918  30.482  29.663  1.00  0.00     0.031 C 
ATOM     67  C   UNL A   1      44.104  29.094  31.494  1.00  0.00     0.037 A 
BRANCH  54  68
ATOM     68  C   UNL A   1      46.650  30.646  27.044  1.00  0.00     0.057 A 
ATOM     69  C   UNL A   1      45.478  31.326  26.654  1.00  0.00     0.134 A 
ATOM     70  C   UNL A   1      47.823  31.417  27.044  1.00  0.00     0.134 A 
ATOM     71  F   UNL A   1      44.268  30.756  26.686  1.00  0.00    -0.206 F 
ATOM     72  C   UNL A   1      45.469  32.679  26.310  1.00  0.00     0.040 A 
ATOM     73  C   UNL A   1      47.815  32.787  26.756  1.00  0.00     0.040 A 
ATOM     74  F   UNL A   1      48.996  30.885  27.418  1.00  0.00    -0.206 F 
ATOM     75  C   UNL A   1      46.633  33.423  26.396  1.00  0.00     0.006 A 
ENDBRANCH  54  68
BRANCH  55  76
ATOM     76  C   UNL A   1      38.752  28.770  29.159  1.00  0.00     0.057 A 
ATOM     77  C   UNL A   1      38.362  29.354  27.940  1.00  0.00     0.134 A 
ATOM     78  C   UNL A   1      37.801  28.815  30.190  1.00  0.00     0.134 A 
ATOM     79  F   UNL A   1      39.213  29.429  26.907  1.00  0.00    -0.206 F 
ATOM     80  C   UNL A   1      37.115  29.965  27.764  1.00  0.00     0.040 A 
ATOM     81  C   UNL A   1      36.549  29.427  30.027  1.00  0.00     0.040 A 
ATOM     82  F   UNL A   1      38.086  28.322  31.404  1.00  0.00    -0.206 F 
ATOM     83  C   UNL A   1      36.208  30.017  28.814  1.00  0.00     0.006 A 
ENDBRANCH  55  76
BRANCH  67  84
ATOM     84  C   UNL A   1      43.822  28.215  32.680  1.00  0.00     0.057 A 
ATOM     85  C   UNL A   1      43.804  28.792  33.954  1.00  0.00     0.134 A 
ATOM     86  C   UNL A   1      43.661  26.823  32.615  1.00  0.00     0.134 A 
ATOM     87  F   UNL A   1      44.003  30.112  34.100  1.00  0.00    -0.206 F 
ATOM     88  C   UNL A   1      43.613  28.028  35.109  1.00  0.00     0.040 A 
ATOM     89  C   UNL A   1      43.432  26.053  33.758  1.00  0.00     0.040 A 
ATOM     90  F   UNL A   1      43.761  26.165  31.452  1.00  0.00    -0.206 F 
ATOM     91  C   UNL A   1      43.411  26.654  35.013  1.00  0.00     0.006 A 
ENDBRANCH  67  84
ENDBRANCH  41  42
ENDBRANCH  34  36
ENDBRANCH  33  34
ENDBRANCH  32  33
ENDBRANCH  31  32
ENDBRANCH   1  31
TORSDOF 16
ENDMDL
MODEL 2
REMARK VINA RESULT:     -11.5      3.477      9.606
REMARK SMILES O=C(Cn1cc(/C=C2\SC(N3CCOCC3)=[NH+]C2=O)c2ccccc21)OCCOCCOC(=O)c1ccc(-c2c3nc(c(-c4c(F)cccc4F)c4ccc([nH]4)c(-c4c(F)cccc4F)c4nc(c(-c5c(F)cccc5F)c5ccc2[nH]5)C=C4)C=C3)cc1
REMARK SMILES IDX 29 1 28 2 27 3 26 4 2 5 1 6 3 7 4 8 5 9 25 10 6 11 20 12
REMARK SMILES IDX 24 13 21 14 23 15 22 16 7 17 8 18 9 19 18 20 10 21 17 22
REMARK SMILES IDX 19 23 11 24 12 26 16 27 13 28 15 29 14 30 30 31 31 32 32 33
REMARK SMILES IDX 33 34 34 35 35 36 36 37 88 38 37 39 87 40 38 41 39 42 40 43
REMARK SMILES IDX 81 44 41 45 86 46 80 47 82 48 42 49 85 50 79 51 78 52 43 54
REMARK SMILES IDX 69 55 52 56 68 57 53 58 56 59 67 60 83 61 54 62 55 63 66 65
REMARK SMILES IDX 84 66 57 67 44 68 45 69 50 70 46 71 47 72 49 73 51 74 48 75
REMARK SMILES IDX 70 76 71 77 76 78 72 79 73 80 75 81 77 82 74 83 58 84 59 85
REMARK SMILES IDX 64 86 60 87 61 88 63 89 65 90 62 91
REMARK H PARENT 17 25 82 53 56 64
REMARK Flexibility Score: inf
ROOT
ATOM      1  O   UNL A   1      33.365  34.460  28.822  1.00  0.00    -0.374 OA
ENDROOT
BRANCH   1   2
ATOM      2  C   UNL A   1      34.698  34.011  28.596  1.00  0.00     0.202 C 
BRANCH   2   3
ATOM      3  C   UNL A   1      34.941  32.516  28.475  1.00  0.00     0.261 C 
BRANCH   3   4
ATOM      4  O   UNL A   1      34.416  31.975  27.261  1.00  0.00    -0.462 OA
BRANCH   4   5
ATOM      5  C   UNL A   1      33.854  30.750  27.165  1.00  0.00     0.326 C 
ATOM      6  O   UNL A   1      34.463  29.786  27.636  1.00  0.00    -0.250 OA
BRANCH   5   7
ATOM      7  C   UNL A   1      32.524  30.543  26.473  1.00  0.00     0.244 C 
BRANCH   7   8
ATOM      8  N   UNL A   1      32.284  29.189  26.011  1.00  0.00    -0.336 N 
ATOM      9  C   UNL A   1      31.691  28.244  26.797  1.00  0.00     0.095 A 
ATOM     10  C   UNL A   1      32.552  28.670  24.758  1.00  0.00     0.049 A 
ATOM     11  C   UNL A   1      31.457  27.131  26.023  1.00  0.00     0.001 A 
ATOM     12  C   UNL A   1      32.069  27.351  24.756  1.00  0.00     0.007 A 
ATOM     13  C   UNL A   1      33.108  29.262  23.608  1.00  0.00     0.027 A 
ATOM     14  C   UNL A   1      32.225  26.585  23.583  1.00  0.00     0.011 A 
ATOM     15  C   UNL A   1      33.211  28.493  22.450  1.00  0.00     0.002 A 
ATOM     16  C   UNL A   1      32.813  27.162  22.448  1.00  0.00     0.001 A 
BRANCH  11  17
ATOM     17  C   UNL A   1      30.753  25.998  26.534  1.00  0.00     0.034 C 
ATOM     18  C   UNL A   1      31.243  24.749  26.595  1.00  0.00     0.110 C 
ATOM     19  S   UNL A   1      32.859  24.225  26.320  1.00  0.00     0.006 SA
ATOM     20  C   UNL A   1      30.382  23.553  26.829  1.00  0.00     0.346 C 
ATOM     21  C   UNL A   1      32.317  22.559  26.331  1.00  0.00     0.319 C 
ATOM     22  N   UNL A   1      31.063  22.377  26.575  1.00  0.00    -0.200 N 
ATOM     23  O   UNL A   1      29.208  23.628  27.153  1.00  0.00    -0.240 OA
ATOM     24  N   UNL A   1      33.231  21.596  26.009  1.00  0.00    -0.251 N 
ATOM     25  H   UNL A   1      30.635  21.491  26.581  1.00  0.00     0.316 HD
ATOM     26  C   UNL A   1      34.474  21.387  26.758  1.00  0.00     0.265 C 
ATOM     27  C   UNL A   1      32.903  20.497  25.098  1.00  0.00     0.265 C 
ATOM     28  C   UNL A   1      35.621  21.074  25.791  1.00  0.00     0.206 C 
ATOM     29  C   UNL A   1      34.109  20.243  24.176  1.00  0.00     0.206 C 
ATOM     30  O   UNL A   1      35.298  19.963  24.936  1.00  0.00    -0.373 OA
ENDBRANCH  11  17
ENDBRANCH   7   8
ENDBRANCH   5   7
ENDBRANCH   4   5
ENDBRANCH   3   4
ENDBRANCH   2   3
ENDBRANCH   1   2
BRANCH   1  31
ATOM     31  C   UNL A   1      33.285  35.783  29.377  1.00  0.00     0.202 C 
BRANCH  31  32
ATOM     32  C   UNL A   1      32.786  35.850  30.836  1.00  0.00     0.261 C 
BRANCH  32  33
ATOM     33  O   UNL A   1      33.329  34.764  31.609  1.00  0.00    -0.460 OA
BRANCH  33  34
ATOM     34  C   UNL A   1      34.128  35.128  32.647  1.00  0.00     0.338 C 
ATOM     35  O   UNL A   1      33.812  35.810  33.605  1.00  0.00    -0.246 OA
BRANCH  34  36
ATOM     36  C   UNL A   1      35.334  34.263  32.607  1.00  0.00     0.060 A 
ATOM     37  C   UNL A   1      36.629  34.798  32.586  1.00  0.00     0.016 A 
ATOM     38  C   UNL A   1      35.125  32.908  32.305  1.00  0.00     0.016 A 
ATOM     39  C   UNL A   1      37.689  34.002  32.153  1.00  0.00     0.010 A 
ATOM     40  C   UNL A   1      36.189  32.111  31.883  1.00  0.00     0.010 A 
ATOM     41  C   UNL A   1      37.468  32.664  31.774  1.00  0.00    -0.014 A 
BRANCH  41  42
ATOM     42  C   UNL A   1      38.641  31.804  31.569  1.00  0.00     0.031 A 
ATOM     43  C   UNL A   1      39.358  31.524  32.835  1.00  0.00     0.074 A 
ATOM     44  C   UNL A   1      39.020  31.152  30.449  1.00  0.00     0.049 A 
ATOM     45  N   UNL A   1      40.581  31.826  33.117  1.00  0.00    -0.248 NA
ATOM     46  C   UNL A   1      38.588  30.971  33.960  1.00  0.00     0.031 C 
ATOM     47  C   UNL A   1      38.352  31.152  29.155  1.00  0.00     0.029 A 
ATOM     48  N   UNL A   1      40.053  30.265  30.261  1.00  0.00    -0.354 N 
ATOM     49  C   UNL A   1      40.802  31.315  34.386  1.00  0.00     0.074 A 
ATOM     50  C   UNL A   1      39.514  30.950  34.918  1.00  0.00     0.031 C 
ATOM     51  C   UNL A   1      38.851  30.150  28.397  1.00  0.00     0.029 A 
ATOM     52  C   UNL A   1      39.946  29.513  29.096  1.00  0.00     0.049 A 
ATOM     53  H   UNL A   1      40.802  30.172  30.894  1.00  0.00     0.167 HD
ATOM     54  C   UNL A   1      42.055  30.987  34.795  1.00  0.00     0.037 A 
ATOM     55  C   UNL A   1      40.676  28.442  28.691  1.00  0.00     0.037 A 
ATOM     56  C   UNL A   1      43.067  31.634  34.000  1.00  0.00     0.049 A 
ATOM     57  C   UNL A   1      41.974  28.500  29.387  1.00  0.00     0.074 A 
ATOM     58  C   UNL A   1      43.397  32.942  33.697  1.00  0.00     0.029 A 
ATOM     59  N   UNL A   1      43.762  30.864  33.103  1.00  0.00    -0.354 N 
ATOM     60  N   UNL A   1      42.888  29.389  29.131  1.00  0.00    -0.248 NA
ATOM     61  C   UNL A   1      42.103  27.810  30.657  1.00  0.00     0.031 C 
ATOM     62  C   UNL A   1      43.901  32.907  32.363  1.00  0.00     0.029 A 
ATOM     63  C   UNL A   1      43.883  31.578  31.941  1.00  0.00     0.049 A 
ATOM     64  H   UNL A   1      44.111  29.958  33.265  1.00  0.00     0.167 HD
ATOM     65  C   UNL A   1      43.396  29.715  30.377  1.00  0.00     0.074 A 
ATOM     66  C   UNL A   1      42.978  28.624  31.253  1.00  0.00     0.031 C 
ATOM     67  C   UNL A   1      43.853  30.976  30.630  1.00  0.00     0.037 A 
BRANCH  54  68
ATOM     68  C   UNL A   1      42.343  29.762  35.625  1.00  0.00     0.057 A 
ATOM     69  C   UNL A   1      41.976  28.453  35.250  1.00  0.00     0.134 A 
ATOM     70  C   UNL A   1      43.290  29.850  36.658  1.00  0.00     0.134 A 
ATOM     71  F   UNL A   1      41.154  28.200  34.225  1.00  0.00    -0.206 F 
ATOM     72  C   UNL A   1      42.525  27.315  35.844  1.00  0.00     0.040 A 
ATOM     73  C   UNL A   1      43.888  28.716  37.220  1.00  0.00     0.040 A 
ATOM     74  F   UNL A   1      43.733  31.043  37.085  1.00  0.00    -0.206 F 
ATOM     75  C   UNL A   1      43.511  27.444  36.807  1.00  0.00     0.006 A 
ENDBRANCH  54  68
BRANCH  55  76
ATOM     76  C   UNL A   1      40.257  27.264  27.894  1.00  0.00     0.057 A 
ATOM     77  C   UNL A   1      39.503  26.229  28.476  1.00  0.00     0.134 A 
ATOM     78  C   UNL A   1      40.814  26.982  26.637  1.00  0.00     0.134 A 
ATOM     79  F   UNL A   1      38.980  26.362  29.703  1.00  0.00    -0.206 F 
ATOM     80  C   UNL A   1      39.334  24.983  27.860  1.00  0.00     0.040 A 
ATOM     81  C   UNL A   1      40.655  25.736  26.010  1.00  0.00     0.040 A 
ATOM     82  F   UNL A   1      41.583  27.885  26.013  1.00  0.00    -0.206 F 
ATOM     83  C   UNL A   1      39.924  24.727  26.629  1.00  0.00     0.006 A 
ENDBRANCH  55  76
BRANCH  67  84
ATOM     84  C   UNL A   1      44.099  31.871  29.449  1.00  0.00     0.057 A 
ATOM     85  C   UNL A   1      45.345  31.821  28.817  1.00  0.00     0.134 A 
ATOM     86  C   UNL A   1      43.191  32.832  28.980  1.00  0.00     0.134 A 
ATOM     87  F   UNL A   1      46.285  30.961  29.244  1.00  0.00    -0.206 F 
ATOM     88  C   UNL A   1      45.670  32.668  27.754  1.00  0.00     0.040 A 
ATOM     89  C   UNL A   1      43.490  33.659  27.894  1.00  0.00     0.040 A 
ATOM     90  F   UNL A   1      42.010  33.026  29.581  1.00  0.00    -0.206 F 
ATOM     91  C   UNL A   1      44.735  33.582  27.278  1.00  0.00     0.006 A 
ENDBRANCH  67  84
ENDBRANCH  41  42
ENDBRANCH  34  36
ENDBRANCH  33  34
ENDBRANCH  32  33
ENDBRANCH  31  32
ENDBRANCH   1  31
TORSDOF 16
ENDMDL
MODEL 3
REMARK VINA RESULT:     -11.5      3.237      9.125
REMARK SMILES O=C(Cn1cc(/C=C2\SC(N3CCOCC3)=[NH+]C2=O)c2ccccc21)OCCOCCOC(=O)c1ccc(-c2c3nc(c(-c4c(F)cccc4F)c4ccc([nH]4)c(-c4c(F)cccc4F)c4nc(c(-c5c(F)cccc5F)c5ccc2[nH]5)C=C4)C=C3)cc1
REMARK SMILES IDX 29 1 28 2 27 3 26 4 2 5 1 6 3 7 4 8 5 9 25 10 6 11 20 12
REMARK SMILES IDX 24 13 21 14 23 15 22 16 7 17 8 18 9 19 18 20 10 21 17 22
REMARK SMILES IDX 19 23 11 24 12 26 16 27 13 28 15 29 14 30 30 31 31 32 32 33
REMARK SMILES IDX 33 34 34 35 35 36 36 37 88 38 37 39 87 40 38 41 39 42 40 43
REMARK SMILES IDX 81 44 41 45 86 46 80 47 82 48 42 49 85 50 79 51 78 52 43 54
REMARK SMILES IDX 69 55 52 56 68 57 53 58 56 59 67 60 83 61 54 62 55 63 66 65
REMARK SMILES IDX 84 66 57 67 44 68 45 69 50 70 46 71 47 72 49 73 51 74 48 75
REMARK SMILES IDX 70 76 71 77 76 78 72 79 73 80 75 81 77 82 74 83 58 84 59 85
REMARK SMILES IDX 64 86 60 87 61 88 63 89 65 90 62 91
REMARK H PARENT 17 25 82 53 56 64
REMARK Flexibility Score: inf
ROOT
ATOM      1  O   UNL A   1      35.594  33.163  27.809  1.00  0.00    -0.374 OA
ENDROOT
BRANCH   1   2
ATOM      2  C   UNL A   1      35.134  31.827  27.629  1.00  0.00     0.202 C 
BRANCH   2   3
ATOM      3  C   UNL A   1      33.651  31.549  27.809  1.00  0.00     0.261 C 
BRANCH   3   4
ATOM      4  O   UNL A   1      33.311  30.193  27.514  1.00  0.00    -0.462 OA
BRANCH   4   5
ATOM      5  C   UNL A   1      32.141  29.816  26.952  1.00  0.00     0.326 C 
ATOM      6  O   UNL A   1      31.689  28.701  27.228  1.00  0.00    -0.250 OA
BRANCH   5   7
ATOM      7  C   UNL A   1      31.403  30.715  25.984  1.00  0.00     0.244 C 
BRANCH   7   8
ATOM      8  N   UNL A   1      31.106  30.111  24.700  1.00  0.00    -0.336 N 
ATOM      9  C   UNL A   1      31.900  29.150  24.144  1.00  0.00     0.095 A 
ATOM     10  C   UNL A   1      30.010  30.353  23.892  1.00  0.00     0.049 A 
ATOM     11  C   UNL A   1      31.266  28.667  23.023  1.00  0.00     0.001 A 
ATOM     12  C   UNL A   1      30.112  29.473  22.801  1.00  0.00     0.007 A 
ATOM     13  C   UNL A   1      28.907  31.211  24.057  1.00  0.00     0.027 A 
ATOM     14  C   UNL A   1      29.109  29.519  21.810  1.00  0.00     0.011 A 
ATOM     15  C   UNL A   1      27.909  31.205  23.082  1.00  0.00     0.002 A 
ATOM     16  C   UNL A   1      28.028  30.401  21.955  1.00  0.00     0.001 A 
BRANCH  11  17
ATOM     17  C   UNL A   1      31.799  27.576  22.271  1.00  0.00     0.034 C 
ATOM     18  C   UNL A   1      32.084  26.362  22.770  1.00  0.00     0.110 C 
ATOM     19  S   UNL A   1      31.681  25.726  24.319  1.00  0.00     0.006 SA
ATOM     20  C   UNL A   1      32.926  25.367  22.045  1.00  0.00     0.346 C 
ATOM     21  C   UNL A   1      32.737  24.358  24.027  1.00  0.00     0.319 C 
ATOM     22  N   UNL A   1      33.301  24.321  22.866  1.00  0.00    -0.200 N 
ATOM     23  O   UNL A   1      33.272  25.505  20.882  1.00  0.00    -0.240 OA
ATOM     24  N   UNL A   1      32.940  23.486  25.059  1.00  0.00    -0.251 N 
ATOM     25  H   UNL A   1      33.935  23.619  22.595  1.00  0.00     0.316 HD
ATOM     26  C   UNL A   1      31.854  22.743  25.707  1.00  0.00     0.265 C 
ATOM     27  C   UNL A   1      34.275  22.984  25.390  1.00  0.00     0.265 C 
ATOM     28  C   UNL A   1      32.092  22.685  27.220  1.00  0.00     0.206 C 
ATOM     29  C   UNL A   1      34.421  22.946  26.921  1.00  0.00     0.206 C 
ATOM     30  O   UNL A   1      33.390  22.146  27.526  1.00  0.00    -0.373 OA
ENDBRANCH  11  17
ENDBRANCH   7   8
ENDBRANCH   5   7
ENDBRANCH   4   5
ENDBRANCH   3   4
ENDBRANCH   2   3
ENDBRANCH   1   2
BRANCH   1  31
ATOM     31  C   UNL A   1      34.538  34.120  27.996  1.00  0.00     0.202 C 
BRANCH  31  32
ATOM     32  C   UNL A   1      34.204  34.445  29.467  1.00  0.00     0.261 C 
BRANCH  32  33
ATOM     33  O   UNL A   1      35.313  34.120  30.324  1.00  0.00    -0.460 OA
BRANCH  33  34
ATOM     34  C   UNL A   1      35.103  33.093  31.190  1.00  0.00     0.338 C 
ATOM     35  O   UNL A   1      34.028  32.709  31.616  1.00  0.00    -0.246 OA
BRANCH  34  36
ATOM     36  C   UNL A   1      36.352  32.293  31.247  1.00  0.00     0.060 A 
ATOM     37  C   UNL A   1      37.618  32.893  31.207  1.00  0.00     0.016 A 
ATOM     38  C   UNL A   1      36.220  30.908  31.056  1.00  0.00     0.016 A 
ATOM     39  C   UNL A   1      38.727  32.121  30.864  1.00  0.00     0.010 A 
ATOM     40  C   UNL A   1      37.333  30.138  30.724  1.00  0.00     0.010 A 
ATOM     41  C   UNL A   1      38.585  30.747  30.595  1.00  0.00    -0.014 A 
BRANCH  41  42
ATOM     42  C   UNL A   1      39.805  29.936  30.485  1.00  0.00     0.031 A 
ATOM     43  C   UNL A   1      40.482  29.766  31.792  1.00  0.00     0.074 A 
ATOM     44  C   UNL A   1      40.259  29.239  29.422  1.00  0.00     0.049 A 
ATOM     45  N   UNL A   1      41.677  30.145  32.101  1.00  0.00    -0.248 NA
ATOM     46  C   UNL A   1      39.695  29.242  32.919  1.00  0.00     0.031 C 
ATOM     47  C   UNL A   1      39.644  29.130  28.107  1.00  0.00     0.029 A 
ATOM     48  N   UNL A   1      41.340  28.396  29.327  1.00  0.00    -0.354 N 
ATOM     49  C   UNL A   1      41.871  29.721  33.406  1.00  0.00     0.074 A 
ATOM     50  C   UNL A   1      40.582  29.324  33.910  1.00  0.00     0.031 C 
ATOM     51  C   UNL A   1      40.221  28.111  27.430  1.00  0.00     0.029 A 
ATOM     52  C   UNL A   1      41.316  27.572  28.207  1.00  0.00     0.049 A 
ATOM     53  H   UNL A   1      42.067  28.377  29.992  1.00  0.00     0.167 HD
ATOM     54  C   UNL A   1      43.120  29.481  33.881  1.00  0.00     0.037 A 
ATOM     55  C   UNL A   1      42.112  26.518  27.895  1.00  0.00     0.037 A 
ATOM     56  C   UNL A   1      44.132  30.131  33.087  1.00  0.00     0.049 A 
ATOM     57  C   UNL A   1      43.377  26.680  28.633  1.00  0.00     0.074 A 
ATOM     58  C   UNL A   1      44.411  31.433  32.718  1.00  0.00     0.029 A 
ATOM     59  N   UNL A   1      44.898  29.345  32.264  1.00  0.00    -0.354 N 
ATOM     60  N   UNL A   1      44.257  27.598  28.359  1.00  0.00    -0.248 NA
ATOM     61  C   UNL A   1      43.488  26.073  29.947  1.00  0.00     0.031 C 
ATOM     62  C   UNL A   1      44.970  31.345  31.409  1.00  0.00     0.029 A 
ATOM     63  C   UNL A   1      45.032  29.994  31.067  1.00  0.00     0.049 A 
ATOM     64  H   UNL A   1      45.284  28.468  32.494  1.00  0.00     0.167 HD
ATOM     65  C   UNL A   1      44.698  28.021  29.601  1.00  0.00     0.074 A 
ATOM     66  C   UNL A   1      44.298  26.963  30.525  1.00  0.00     0.031 C 
ATOM     67  C   UNL A   1      45.084  29.316  29.795  1.00  0.00     0.037 A 
BRANCH  54  68
ATOM     68  C   UNL A   1      43.433  28.323  34.794  1.00  0.00     0.057 A 
ATOM     69  C   UNL A   1      43.297  26.969  34.422  1.00  0.00     0.134 A 
ATOM     70  C   UNL A   1      44.193  28.557  35.951  1.00  0.00     0.134 A 
ATOM     71  F   UNL A   1      42.679  26.588  33.298  1.00  0.00    -0.206 F 
ATOM     72  C   UNL A   1      43.890  25.927  35.136  1.00  0.00     0.040 A 
ATOM     73  C   UNL A   1      44.839  27.524  36.640  1.00  0.00     0.040 A 
ATOM     74  F   UNL A   1      44.411  29.806  36.389  1.00  0.00    -0.206 F 
ATOM     75  C   UNL A   1      44.694  26.205  36.228  1.00  0.00     0.006 A 
ENDBRANCH  54  68
BRANCH  55  76
ATOM     76  C   UNL A   1      41.782  25.275  27.155  1.00  0.00     0.057 A 
ATOM     77  C   UNL A   1      40.746  24.429  27.589  1.00  0.00     0.134 A 
ATOM     78  C   UNL A   1      42.643  24.738  26.184  1.00  0.00     0.134 A 
ATOM     79  F   UNL A   1      39.905  24.810  28.561  1.00  0.00    -0.206 F 
ATOM     80  C   UNL A   1      40.588  23.124  27.107  1.00  0.00     0.040 A 
ATOM     81  C   UNL A   1      42.497  23.431  25.695  1.00  0.00     0.040 A 
ATOM     82  F   UNL A   1      43.687  25.447  25.731  1.00  0.00    -0.206 F 
ATOM     83  C   UNL A   1      41.475  22.614  26.167  1.00  0.00     0.006 A 
ENDBRANCH  55  76
BRANCH  67  84
ATOM     84  C   UNL A   1      45.335  30.152  28.571  1.00  0.00     0.057 A 
ATOM     85  C   UNL A   1      44.269  30.869  28.019  1.00  0.00     0.134 A 
ATOM     86  C   UNL A   1      46.554  30.199  27.880  1.00  0.00     0.134 A 
ATOM     87  F   UNL A   1      43.058  30.831  28.596  1.00  0.00    -0.206 F 
ATOM     88  C   UNL A   1      44.410  31.616  26.846  1.00  0.00     0.040 A 
ATOM     89  C   UNL A   1      46.718  30.972  26.727  1.00  0.00     0.040 A 
ATOM     90  F   UNL A   1      47.606  29.469  28.273  1.00  0.00    -0.206 F 
ATOM     91  C   UNL A   1      45.643  31.682  26.203  1.00  0.00     0.006 A 
ENDBRANCH  67  84
ENDBRANCH  41  42
ENDBRANCH  34  36
ENDBRANCH  33  34
ENDBRANCH  32  33
ENDBRANCH  31  32
ENDBRANCH   1  31
TORSDOF 16
ENDMDL
