MODEL 1
REMARK VINA RESULT:     -11.0      0.000      0.000
REMARK SMILES C[C@@H](Sc1nc2ccccc2c(=O)n1N)C(=O)OCCOCCOC(=O)c1ccc(-c2c3nc(c(-c4c(F)cccc4F)c4ccc([nH]4)c(-c4c(F)cccc4F)c4nc(c(-c5c(F)cccc5F)c5ccc2[nH]5)C=C4)C=C3)cc1
REMARK SMILES IDX 20 1 19 2 18 3 16 4 17 5 2 6 1 7 3 8 4 9 5 10 14 11 6 12
REMARK SMILES IDX 12 13 7 14 11 15 13 16 8 17 10 18 9 19 15 20 21 23 22 24
REMARK SMILES IDX 23 25 24 26 25 27 26 28 27 29 28 30 80 31 29 32 79 33 30 34
REMARK SMILES IDX 31 35 32 36 73 37 33 38 78 39 72 40 74 41 34 42 77 43 71 44
REMARK SMILES IDX 70 45 35 47 61 48 44 49 60 50 45 51 48 52 59 53 75 54 46 55
REMARK SMILES IDX 47 56 58 58 76 59 49 60 36 61 37 62 42 63 38 64 39 65 41 66
REMARK SMILES IDX 43 67 40 68 62 69 63 70 68 71 64 72 65 73 67 74 69 75 66 76
REMARK SMILES IDX 50 77 51 78 56 79 52 80 53 81 55 82 57 83 54 84
REMARK H PARENT 15 21 15 22 74 46 48 57
REMARK Flexibility Score: inf
ROOT
ATOM      1  C   UNL A   1      40.497  21.441  27.374  1.00  0.00     0.202 C 
ENDROOT
BRANCH   1   2
ATOM      2  C   UNL A   1      39.850  21.760  26.024  1.00  0.00     0.261 C 
BRANCH   2   3
ATOM      3  O   UNL A   1      38.419  21.853  26.126  1.00  0.00    -0.462 OA
BRANCH   3   4
ATOM      4  C   UNL A   1      37.900  23.107  26.005  1.00  0.00     0.319 C 
ATOM      5  O   UNL A   1      38.383  24.112  26.517  1.00  0.00    -0.251 OA
BRANCH   4   6
ATOM      6  C   UNL A   1      36.626  23.139  25.167  1.00  0.00     0.161 C 
ATOM      7  C   UNL A   1      36.761  22.585  23.752  1.00  0.00     0.032 C 
BRANCH   6   8
ATOM      8  S   UNL A   1      35.356  22.247  26.124  1.00  0.00    -0.071 SA
BRANCH   8   9
ATOM      9  C   UNL A   1      34.113  23.467  26.248  1.00  0.00     0.191 A 
ATOM     10  N   UNL A   1      34.397  24.631  25.765  1.00  0.00    -0.222 NA
ATOM     11  N   UNL A   1      32.871  23.127  26.778  1.00  0.00    -0.202 N 
ATOM     12  C   UNL A   1      33.387  25.600  25.735  1.00  0.00     0.079 A 
ATOM     13  C   UNL A   1      31.814  24.039  26.798  1.00  0.00     0.280 A 
ATOM     14  C   UNL A   1      33.669  26.840  25.158  1.00  0.00     0.029 A 
ATOM     15  C   UNL A   1      32.097  25.361  26.210  1.00  0.00     0.068 A 
ATOM     16  O   UNL A   1      30.700  23.775  27.250  1.00  0.00    -0.267 OA
ATOM     17  C   UNL A   1      32.675  27.815  25.045  1.00  0.00     0.002 A 
ATOM     18  C   UNL A   1      31.095  26.331  26.109  1.00  0.00     0.016 A 
ATOM     19  C   UNL A   1      31.388  27.560  25.518  1.00  0.00     0.001 A 
BRANCH  11  20
ATOM     20  N   UNL A   1      32.606  21.830  27.330  1.00  0.00    -0.334 N 
ATOM     21  H   UNL A   1      31.712  21.430  27.238  1.00  0.00     0.178 HD
ATOM     22  H   UNL A   1      33.319  21.341  27.801  1.00  0.00     0.178 HD
ENDBRANCH  11  20
ENDBRANCH   8   9
ENDBRANCH   6   8
ENDBRANCH   4   6
ENDBRANCH   3   4
ENDBRANCH   2   3
ENDBRANCH   1   2
BRANCH   1  23
ATOM     23  O   UNL A   1      41.828  20.935  27.334  1.00  0.00    -0.374 OA
BRANCH  23  24
ATOM     24  C   UNL A   1      42.375  20.607  26.057  1.00  0.00     0.202 C 
BRANCH  24  25
ATOM     25  C   UNL A   1      43.642  21.363  25.639  1.00  0.00     0.261 C 
BRANCH  25  26
ATOM     26  O   UNL A   1      43.866  22.535  26.447  1.00  0.00    -0.460 OA
BRANCH  26  27
ATOM     27  C   UNL A   1      43.790  23.710  25.782  1.00  0.00     0.338 C 
ATOM     28  O   UNL A   1      44.073  23.922  24.608  1.00  0.00    -0.246 OA
BRANCH  27  29
ATOM     29  C   UNL A   1      43.134  24.727  26.621  1.00  0.00     0.060 A 
ATOM     30  C   UNL A   1      43.733  25.992  26.702  1.00  0.00     0.016 A 
ATOM     31  C   UNL A   1      42.004  24.428  27.385  1.00  0.00     0.016 A 
ATOM     32  C   UNL A   1      43.225  26.952  27.575  1.00  0.00     0.010 A 
ATOM     33  C   UNL A   1      41.504  25.389  28.270  1.00  0.00     0.010 A 
ATOM     34  C   UNL A   1      42.128  26.644  28.390  1.00  0.00    -0.014 A 
BRANCH  34  35
ATOM     35  C   UNL A   1      41.709  27.588  29.454  1.00  0.00     0.031 A 
ATOM     36  C   UNL A   1      42.415  27.558  30.780  1.00  0.00     0.074 A 
ATOM     37  C   UNL A   1      40.709  28.461  29.240  1.00  0.00     0.049 A 
ATOM     38  N   UNL A   1      42.160  28.235  31.870  1.00  0.00    -0.248 NA
ATOM     39  C   UNL A   1      43.560  26.640  30.893  1.00  0.00     0.031 C 
ATOM     40  C   UNL A   1      39.974  28.614  27.986  1.00  0.00     0.029 A 
ATOM     41  N   UNL A   1      40.130  29.375  30.084  1.00  0.00    -0.354 N 
ATOM     42  C   UNL A   1      43.101  27.816  32.803  1.00  0.00     0.074 A 
ATOM     43  C   UNL A   1      43.924  26.816  32.155  1.00  0.00     0.031 C 
ATOM     44  C   UNL A   1      39.021  29.547  28.152  1.00  0.00     0.029 A 
ATOM     45  C   UNL A   1      39.059  30.032  29.530  1.00  0.00     0.049 A 
ATOM     46  H   UNL A   1      40.451  29.543  31.000  1.00  0.00     0.167 HD
ATOM     47  C   UNL A   1      43.264  28.231  34.081  1.00  0.00     0.037 A 
ATOM     48  C   UNL A   1      38.188  30.898  30.083  1.00  0.00     0.037 A 
ATOM     49  C   UNL A   1      42.453  29.234  34.719  1.00  0.00     0.049 A 
ATOM     50  C   UNL A   1      38.347  31.288  31.529  1.00  0.00     0.074 A 
ATOM     51  C   UNL A   1      42.577  29.759  35.993  1.00  0.00     0.029 A 
ATOM     52  N   UNL A   1      41.362  29.854  34.133  1.00  0.00    -0.354 N 
ATOM     53  N   UNL A   1      39.265  30.919  32.388  1.00  0.00    -0.248 NA
ATOM     54  C   UNL A   1      37.345  32.211  32.082  1.00  0.00     0.031 C 
ATOM     55  C   UNL A   1      41.528  30.661  36.197  1.00  0.00     0.029 A 
ATOM     56  C   UNL A   1      40.777  30.729  35.034  1.00  0.00     0.049 A 
ATOM     57  H   UNL A   1      41.047  29.697  33.213  1.00  0.00     0.167 HD
ATOM     58  C   UNL A   1      38.964  31.577  33.575  1.00  0.00     0.074 A 
ATOM     59  C   UNL A   1      37.786  32.379  33.322  1.00  0.00     0.031 C 
ATOM     60  C   UNL A   1      39.605  31.522  34.767  1.00  0.00     0.037 A 
BRANCH  47  61
ATOM     61  C   UNL A   1      44.346  27.581  34.890  1.00  0.00     0.057 A 
ATOM     62  C   UNL A   1      44.126  26.402  35.611  1.00  0.00     0.134 A 
ATOM     63  C   UNL A   1      45.640  28.118  34.903  1.00  0.00     0.134 A 
ATOM     64  F   UNL A   1      42.907  25.845  35.647  1.00  0.00    -0.206 F 
ATOM     65  C   UNL A   1      45.153  25.786  36.329  1.00  0.00     0.040 A 
ATOM     66  C   UNL A   1      46.679  27.499  35.599  1.00  0.00     0.040 A 
ATOM     67  F   UNL A   1      45.917  29.244  34.228  1.00  0.00    -0.206 F 
ATOM     68  C   UNL A   1      46.435  26.331  36.318  1.00  0.00     0.006 A 
ENDBRANCH  47  61
BRANCH  48  69
ATOM     69  C   UNL A   1      37.057  31.427  29.282  1.00  0.00     0.057 A 
ATOM     70  C   UNL A   1      37.083  32.722  28.751  1.00  0.00     0.134 A 
ATOM     71  C   UNL A   1      35.909  30.657  29.050  1.00  0.00     0.134 A 
ATOM     72  F   UNL A   1      38.143  33.516  28.962  1.00  0.00    -0.206 F 
ATOM     73  C   UNL A   1      36.003  33.238  28.034  1.00  0.00     0.040 A 
ATOM     74  C   UNL A   1      34.833  31.152  28.314  1.00  0.00     0.040 A 
ATOM     75  F   UNL A   1      35.822  29.410  29.535  1.00  0.00    -0.206 F 
ATOM     76  C   UNL A   1      34.876  32.450  27.809  1.00  0.00     0.006 A 
ENDBRANCH  48  69
BRANCH  60  77
ATOM     77  C   UNL A   1      39.064  32.364  35.883  1.00  0.00     0.057 A 
ATOM     78  C   UNL A   1      38.200  31.834  36.849  1.00  0.00     0.134 A 
ATOM     79  C   UNL A   1      39.456  33.700  36.027  1.00  0.00     0.134 A 
ATOM     80  F   UNL A   1      37.778  30.564  36.761  1.00  0.00    -0.206 F 
ATOM     81  C   UNL A   1      37.735  32.609  37.913  1.00  0.00     0.040 A 
ATOM     82  C   UNL A   1      39.016  34.479  37.098  1.00  0.00     0.040 A 
ATOM     83  F   UNL A   1      40.289  34.265  35.140  1.00  0.00    -0.206 F 
ATOM     84  C   UNL A   1      38.150  33.934  38.044  1.00  0.00     0.006 A 
ENDBRANCH  60  77
ENDBRANCH  34  35
ENDBRANCH  27  29
ENDBRANCH  26  27
ENDBRANCH  25  26
ENDBRANCH  24  25
ENDBRANCH  23  24
ENDBRANCH   1  23
TORSDOF 17
ENDMDL
MODEL 2
REMARK VINA RESULT:     -10.5      3.276      8.553
REMARK SMILES C[C@@H](Sc1nc2ccccc2c(=O)n1N)C(=O)OCCOCCOC(=O)c1ccc(-c2c3nc(c(-c4c(F)cccc4F)c4ccc([nH]4)c(-c4c(F)cccc4F)c4nc(c(-c5c(F)cccc5F)c5ccc2[nH]5)C=C4)C=C3)cc1
REMARK SMILES IDX 20 1 19 2 18 3 16 4 17 5 2 6 1 7 3 8 4 9 5 10 14 11 6 12
REMARK SMILES IDX 12 13 7 14 11 15 13 16 8 17 10 18 9 19 15 20 21 23 22 24
REMARK SMILES IDX 23 25 24 26 25 27 26 28 27 29 28 30 80 31 29 32 79 33 30 34
REMARK SMILES IDX 31 35 32 36 73 37 33 38 78 39 72 40 74 41 34 42 77 43 71 44
REMARK SMILES IDX 70 45 35 47 61 48 44 49 60 50 45 51 48 52 59 53 75 54 46 55
REMARK SMILES IDX 47 56 58 58 76 59 49 60 36 61 37 62 42 63 38 64 39 65 41 66
REMARK SMILES IDX 43 67 40 68 62 69 63 70 68 71 64 72 65 73 67 74 69 75 66 76
REMARK SMILES IDX 50 77 51 78 56 79 52 80 53 81 55 82 57 83 54 84
REMARK H PARENT 15 21 15 22 74 46 48 57
REMARK Flexibility Score: inf
ROOT
ATOM      1  C   UNL A   1      32.440  29.864  25.538  1.00  0.00     0.202 C 
ENDROOT
BRANCH   1   2
ATOM      2  C   UNL A   1      31.337  28.833  25.287  1.00  0.00     0.261 C 
BRANCH   2   3
ATOM      3  O   UNL A   1      31.254  28.465  23.900  1.00  0.00    -0.462 OA
BRANCH   3   4
ATOM      4  C   UNL A   1      31.432  27.142  23.630  1.00  0.00     0.319 C 
ATOM      5  O   UNL A   1      30.540  26.299  23.662  1.00  0.00    -0.251 OA
BRANCH   4   6
ATOM      6  C   UNL A   1      32.879  26.799  23.292  1.00  0.00     0.161 C 
ATOM      7  C   UNL A   1      33.712  26.261  24.452  1.00  0.00     0.032 C 
BRANCH   6   8
ATOM      8  S   UNL A   1      32.818  25.621  21.901  1.00  0.00    -0.071 SA
BRANCH   8   9
ATOM      9  C   UNL A   1      33.381  24.161  22.675  1.00  0.00     0.191 A 
ATOM     10  N   UNL A   1      34.662  24.001  22.744  1.00  0.00    -0.222 NA
ATOM     11  N   UNL A   1      32.457  23.286  23.240  1.00  0.00    -0.202 N 
ATOM     12  C   UNL A   1      35.154  22.906  23.463  1.00  0.00     0.079 A 
ATOM     13  C   UNL A   1      32.865  22.162  23.962  1.00  0.00     0.280 A 
ATOM     14  C   UNL A   1      36.537  22.762  23.595  1.00  0.00     0.029 A 
ATOM     15  C   UNL A   1      34.322  21.982  24.096  1.00  0.00     0.068 A 
ATOM     16  O   UNL A   1      32.080  21.370  24.482  1.00  0.00    -0.267 OA
ATOM     17  C   UNL A   1      37.075  21.722  24.357  1.00  0.00     0.002 A 
ATOM     18  C   UNL A   1      34.848  20.933  24.858  1.00  0.00     0.016 A 
ATOM     19  C   UNL A   1      36.231  20.810  24.991  1.00  0.00     0.001 A 
BRANCH  11  20
ATOM     20  N   UNL A   1      31.042  23.485  23.116  1.00  0.00    -0.334 N 
ATOM     21  H   UNL A   1      30.625  23.508  22.225  1.00  0.00     0.178 HD
ATOM     22  H   UNL A   1      30.489  23.598  23.923  1.00  0.00     0.178 HD
ENDBRANCH  11  20
ENDBRANCH   8   9
ENDBRANCH   6   8
ENDBRANCH   4   6
ENDBRANCH   3   4
ENDBRANCH   2   3
ENDBRANCH   1   2
BRANCH   1  23
ATOM     23  O   UNL A   1      32.361  30.590  26.761  1.00  0.00    -0.374 OA
BRANCH  23  24
ATOM     24  C   UNL A   1      31.588  31.791  26.771  1.00  0.00     0.202 C 
BRANCH  24  25
ATOM     25  C   UNL A   1      32.368  33.107  26.867  1.00  0.00     0.261 C 
BRANCH  25  26
ATOM     26  O   UNL A   1      32.155  33.774  28.127  1.00  0.00    -0.460 OA
BRANCH  26  27
ATOM     27  C   UNL A   1      33.143  34.618  28.501  1.00  0.00     0.338 C 
ATOM     28  O   UNL A   1      33.067  35.831  28.659  1.00  0.00    -0.246 OA
BRANCH  27  29
ATOM     29  C   UNL A   1      34.345  33.856  28.882  1.00  0.00     0.060 A 
ATOM     30  C   UNL A   1      34.165  32.687  29.634  1.00  0.00     0.016 A 
ATOM     31  C   UNL A   1      35.628  34.319  28.587  1.00  0.00     0.016 A 
ATOM     32  C   UNL A   1      35.270  31.994  30.124  1.00  0.00     0.010 A 
ATOM     33  C   UNL A   1      36.735  33.629  29.092  1.00  0.00     0.010 A 
ATOM     34  C   UNL A   1      36.561  32.481  29.886  1.00  0.00    -0.014 A 
BRANCH  34  35
ATOM     35  C   UNL A   1      37.723  31.861  30.567  1.00  0.00     0.031 A 
ATOM     36  C   UNL A   1      38.514  30.803  29.850  1.00  0.00     0.074 A 
ATOM     37  C   UNL A   1      38.069  32.236  31.811  1.00  0.00     0.049 A 
ATOM     38  N   UNL A   1      39.511  30.077  30.285  1.00  0.00    -0.248 NA
ATOM     39  C   UNL A   1      38.127  30.525  28.458  1.00  0.00     0.031 C 
ATOM     40  C   UNL A   1      37.406  33.277  32.595  1.00  0.00     0.029 A 
ATOM     41  N   UNL A   1      39.059  31.768  32.639  1.00  0.00    -0.354 N 
ATOM     42  C   UNL A   1      39.863  29.246  29.227  1.00  0.00     0.074 A 
ATOM     43  C   UNL A   1      38.962  29.548  28.135  1.00  0.00     0.031 C 
ATOM     44  C   UNL A   1      37.991  33.350  33.802  1.00  0.00     0.029 A 
ATOM     45  C   UNL A   1      39.045  32.341  33.888  1.00  0.00     0.049 A 
ATOM     46  H   UNL A   1      39.715  31.087  32.365  1.00  0.00     0.167 HD
ATOM     47  C   UNL A   1      40.847  28.319  29.174  1.00  0.00     0.037 A 
ATOM     48  C   UNL A   1      39.775  32.057  34.983  1.00  0.00     0.037 A 
ATOM     49  C   UNL A   1      41.749  28.029  30.257  1.00  0.00     0.049 A 
ATOM     50  C   UNL A   1      40.816  30.970  34.919  1.00  0.00     0.074 A 
ATOM     51  C   UNL A   1      42.813  27.145  30.278  1.00  0.00     0.029 A 
ATOM     52  N   UNL A   1      41.685  28.610  31.513  1.00  0.00    -0.354 N 
ATOM     53  N   UNL A   1      41.167  30.221  33.903  1.00  0.00    -0.248 NA
ATOM     54  C   UNL A   1      41.557  30.686  36.158  1.00  0.00     0.031 C 
ATOM     55  C   UNL A   1      43.362  27.153  31.565  1.00  0.00     0.029 A 
ATOM     56  C   UNL A   1      42.666  28.075  32.331  1.00  0.00     0.049 A 
ATOM     57  H   UNL A   1      41.037  29.300  31.786  1.00  0.00     0.167 HD
ATOM     58  C   UNL A   1      42.181  29.393  34.372  1.00  0.00     0.074 A 
ATOM     59  C   UNL A   1      42.397  29.740  35.760  1.00  0.00     0.031 C 
ATOM     60  C   UNL A   1      42.870  28.431  33.711  1.00  0.00     0.037 A 
BRANCH  47  61
ATOM     61  C   UNL A   1      40.988  27.526  27.910  1.00  0.00     0.057 A 
ATOM     62  C   UNL A   1      41.820  27.942  26.863  1.00  0.00     0.134 A 
ATOM     63  C   UNL A   1      40.320  26.304  27.762  1.00  0.00     0.134 A 
ATOM     64  F   UNL A   1      42.478  29.108  26.940  1.00  0.00    -0.206 F 
ATOM     65  C   UNL A   1      41.972  27.175  25.706  1.00  0.00     0.040 A 
ATOM     66  C   UNL A   1      40.481  25.518  26.619  1.00  0.00     0.040 A 
ATOM     67  F   UNL A   1      39.511  25.848  28.730  1.00  0.00    -0.206 F 
ATOM     68  C   UNL A   1      41.308  25.956  25.586  1.00  0.00     0.006 A 
ENDBRANCH  47  61
BRANCH  48  69
ATOM     69  C   UNL A   1      39.523  32.783  36.252  1.00  0.00     0.057 A 
ATOM     70  C   UNL A   1      40.226  33.949  36.576  1.00  0.00     0.134 A 
ATOM     71  C   UNL A   1      38.590  32.311  37.184  1.00  0.00     0.134 A 
ATOM     72  F   UNL A   1      41.151  34.435  35.736  1.00  0.00    -0.206 F 
ATOM     73  C   UNL A   1      40.022  34.610  37.789  1.00  0.00     0.040 A 
ATOM     74  C   UNL A   1      38.359  32.976  38.389  1.00  0.00     0.040 A 
ATOM     75  F   UNL A   1      37.886  31.197  36.934  1.00  0.00    -0.206 F 
ATOM     76  C   UNL A   1      39.082  34.126  38.697  1.00  0.00     0.006 A 
ENDBRANCH  48  69
BRANCH  60  77
ATOM     77  C   UNL A   1      43.935  27.699  34.471  1.00  0.00     0.057 A 
ATOM     78  C   UNL A   1      43.682  26.467  35.086  1.00  0.00     0.134 A 
ATOM     79  C   UNL A   1      45.240  28.202  34.538  1.00  0.00     0.134 A 
ATOM     80  F   UNL A   1      42.450  25.937  35.066  1.00  0.00    -0.206 F 
ATOM     81  C   UNL A   1      44.689  25.766  35.752  1.00  0.00     0.040 A 
ATOM     82  C   UNL A   1      46.260  27.500  35.183  1.00  0.00     0.040 A 
ATOM     83  F   UNL A   1      45.549  29.373  33.963  1.00  0.00    -0.206 F 
ATOM     84  C   UNL A   1      45.985  26.279  35.794  1.00  0.00     0.006 A 
ENDBRANCH  60  77
ENDBRANCH  34  35
ENDBRANCH  27  29
ENDBRANCH  26  27
ENDBRANCH  25  26
ENDBRANCH  24  25
ENDBRANCH  23  24
ENDBRANCH   1  23
TORSDOF 17
ENDMDL
MODEL 3
REMARK VINA RESULT:     -10.3      4.124      8.866
REMARK SMILES C[C@@H](Sc1nc2ccccc2c(=O)n1N)C(=O)OCCOCCOC(=O)c1ccc(-c2c3nc(c(-c4c(F)cccc4F)c4ccc([nH]4)c(-c4c(F)cccc4F)c4nc(c(-c5c(F)cccc5F)c5ccc2[nH]5)C=C4)C=C3)cc1
REMARK SMILES IDX 20 1 19 2 18 3 16 4 17 5 2 6 1 7 3 8 4 9 5 10 14 11 6 12
REMARK SMILES IDX 12 13 7 14 11 15 13 16 8 17 10 18 9 19 15 20 21 23 22 24
REMARK SMILES IDX 23 25 24 26 25 27 26 28 27 29 28 30 80 31 29 32 79 33 30 34
REMARK SMILES IDX 31 35 32 36 73 37 33 38 78 39 72 40 74 41 34 42 77 43 71 44
REMARK SMILES IDX 70 45 35 47 61 48 44 49 60 50 45 51 48 52 59 53 75 54 46 55
REMARK SMILES IDX 47 56 58 58 76 59 49 60 36 61 37 62 42 63 38 64 39 65 41 66
REMARK SMILES IDX 43 67 40 68 62 69 63 70 68 71 64 72 65 73 67 74 69 75 66 76
REMARK SMILES IDX 50 77 51 78 56 79 52 80 53 81 55 82 57 83 54 84
REMARK H PARENT 15 21 15 22 74 46 48 57
REMARK Flexibility Score: inf
ROOT
ATOM      1  C   UNL A   1      35.133  34.014  28.657  1.00  0.00     0.202 C 
ENDROOT
BRANCH   1   2
ATOM      2  C   UNL A   1      34.454  32.789  29.274  1.00  0.00     0.261 C 
BRANCH   2   3
ATOM      3  O   UNL A   1      34.878  31.569  28.645  1.00  0.00    -0.462 OA
BRANCH   3   4
ATOM      4  C   UNL A   1      34.056  31.094  27.668  1.00  0.00     0.319 C 
ATOM      5  O   UNL A   1      33.035  31.655  27.283  1.00  0.00    -0.251 OA
BRANCH   4   6
ATOM      6  C   UNL A   1      34.531  29.762  27.095  1.00  0.00     0.161 C 
ATOM      7  C   UNL A   1      35.816  29.209  27.704  1.00  0.00     0.032 C 
BRANCH   6   8
ATOM      8  S   UNL A   1      33.141  28.597  27.279  1.00  0.00    -0.071 SA
BRANCH   8   9
ATOM      9  C   UNL A   1      32.967  28.022  25.640  1.00  0.00     0.191 A 
ATOM     10  N   UNL A   1      33.539  26.898  25.359  1.00  0.00    -0.222 NA
ATOM     11  N   UNL A   1      32.177  28.738  24.744  1.00  0.00    -0.202 N 
ATOM     12  C   UNL A   1      33.322  26.344  24.091  1.00  0.00     0.079 A 
ATOM     13  C   UNL A   1      31.921  28.261  23.456  1.00  0.00     0.280 A 
ATOM     14  C   UNL A   1      33.886  25.099  23.803  1.00  0.00     0.029 A 
ATOM     15  C   UNL A   1      32.524  26.957  23.125  1.00  0.00     0.068 A 
ATOM     16  O   UNL A   1      31.224  28.860  22.639  1.00  0.00    -0.267 OA
ATOM     17  C   UNL A   1      33.644  24.475  22.577  1.00  0.00     0.002 A 
ATOM     18  C   UNL A   1      32.279  26.346  21.891  1.00  0.00     0.016 A 
ATOM     19  C   UNL A   1      32.838  25.097  21.622  1.00  0.00     0.001 A 
BRANCH  11  20
ATOM     20  N   UNL A   1      31.583  29.997  25.087  1.00  0.00    -0.334 N 
ATOM     21  H   UNL A   1      31.476  30.249  26.032  1.00  0.00     0.178 HD
ATOM     22  H   UNL A   1      31.282  30.609  24.377  1.00  0.00     0.178 HD
ENDBRANCH  11  20
ENDBRANCH   8   9
ENDBRANCH   6   8
ENDBRANCH   4   6
ENDBRANCH   3   4
ENDBRANCH   2   3
ENDBRANCH   1   2
BRANCH   1  23
ATOM     23  O   UNL A   1      34.277  34.957  28.016  1.00  0.00    -0.374 OA
BRANCH  23  24
ATOM     24  C   UNL A   1      34.040  36.197  28.681  1.00  0.00     0.202 C 
BRANCH  24  25
ATOM     25  C   UNL A   1      32.715  36.326  29.441  1.00  0.00     0.261 C 
BRANCH  25  26
ATOM     26  O   UNL A   1      32.550  35.285  30.424  1.00  0.00    -0.460 OA
BRANCH  26  27
ATOM     27  C   UNL A   1      32.687  35.686  31.708  1.00  0.00     0.338 C 
ATOM     28  O   UNL A   1      31.927  36.402  32.351  1.00  0.00    -0.246 OA
BRANCH  27  29
ATOM     29  C   UNL A   1      33.825  34.994  32.338  1.00  0.00     0.060 A 
ATOM     30  C   UNL A   1      35.096  35.570  32.201  1.00  0.00     0.016 A 
ATOM     31  C   UNL A   1      33.670  33.761  32.975  1.00  0.00     0.016 A 
ATOM     32  C   UNL A   1      36.222  34.898  32.670  1.00  0.00     0.010 A 
ATOM     33  C   UNL A   1      34.805  33.083  33.433  1.00  0.00     0.010 A 
ATOM     34  C   UNL A   1      36.086  33.634  33.258  1.00  0.00    -0.014 A 
BRANCH  34  35
ATOM     35  C   UNL A   1      37.293  32.834  33.578  1.00  0.00     0.031 A 
ATOM     36  C   UNL A   1      38.052  33.127  34.842  1.00  0.00     0.074 A 
ATOM     37  C   UNL A   1      37.708  31.858  32.752  1.00  0.00     0.049 A 
ATOM     38  N   UNL A   1      39.172  32.608  35.275  1.00  0.00    -0.248 NA
ATOM     39  C   UNL A   1      37.472  34.142  35.735  1.00  0.00     0.031 C 
ATOM     40  C   UNL A   1      37.037  31.454  31.518  1.00  0.00     0.029 A 
ATOM     41  N   UNL A   1      38.809  31.041  32.821  1.00  0.00    -0.354 N 
ATOM     42  C   UNL A   1      39.440  33.242  36.483  1.00  0.00     0.074 A 
ATOM     43  C   UNL A   1      38.373  34.194  36.707  1.00  0.00     0.031 C 
ATOM     44  C   UNL A   1      37.756  30.482  30.931  1.00  0.00     0.029 A 
ATOM     45  C   UNL A   1      38.952  30.220  31.730  1.00  0.00     0.049 A 
ATOM     46  H   UNL A   1      39.436  31.043  33.580  1.00  0.00     0.167 HD
ATOM     47  C   UNL A   1      40.479  33.044  37.327  1.00  0.00     0.037 A 
ATOM     48  C   UNL A   1      39.951  29.380  31.397  1.00  0.00     0.037 A 
ATOM     49  C   UNL A   1      41.532  32.088  37.109  1.00  0.00     0.049 A 
ATOM     50  C   UNL A   1      41.133  29.232  32.319  1.00  0.00     0.074 A 
ATOM     51  C   UNL A   1      42.598  31.778  37.934  1.00  0.00     0.029 A 
ATOM     52  N   UNL A   1      41.656  31.296  35.979  1.00  0.00    -0.354 N 
ATOM     53  N   UNL A   1      41.355  29.805  33.477  1.00  0.00    -0.248 NA
ATOM     54  C   UNL A   1      42.206  28.326  31.883  1.00  0.00     0.031 C 
ATOM     55  C   UNL A   1      43.397  30.834  37.280  1.00  0.00     0.029 A 
ATOM     56  C   UNL A   1      42.803  30.525  36.066  1.00  0.00     0.049 A 
ATOM     57  H   UNL A   1      41.023  31.283  35.224  1.00  0.00     0.167 HD
ATOM     58  C   UNL A   1      42.579  29.315  33.917  1.00  0.00     0.074 A 
ATOM     59  C   UNL A   1      43.046  28.389  32.908  1.00  0.00     0.031 C 
ATOM     60  C   UNL A   1      43.255  29.607  35.054  1.00  0.00     0.037 A 
BRANCH  47  61
ATOM     61  C   UNL A   1      40.547  33.898  38.557  1.00  0.00     0.057 A 
ATOM     62  C   UNL A   1      39.875  33.554  39.736  1.00  0.00     0.134 A 
ATOM     63  C   UNL A   1      41.340  35.052  38.575  1.00  0.00     0.134 A 
ATOM     64  F   UNL A   1      39.091  32.467  39.779  1.00  0.00    -0.206 F 
ATOM     65  C   UNL A   1      39.978  34.338  40.887  1.00  0.00     0.040 A 
ATOM     66  C   UNL A   1      41.468  35.832  39.726  1.00  0.00     0.040 A 
ATOM     67  F   UNL A   1      42.014  35.434  37.479  1.00  0.00    -0.206 F 
ATOM     68  C   UNL A   1      40.782  35.476  40.885  1.00  0.00     0.006 A 
ENDBRANCH  47  61
BRANCH  48  69
ATOM     69  C   UNL A   1      39.904  28.642  30.111  1.00  0.00     0.057 A 
ATOM     70  C   UNL A   1      40.489  29.161  28.950  1.00  0.00     0.134 A 
ATOM     71  C   UNL A   1      39.248  27.408  30.007  1.00  0.00     0.134 A 
ATOM     72  F   UNL A   1      41.108  30.350  28.981  1.00  0.00    -0.206 F 
ATOM     73  C   UNL A   1      40.408  28.489  27.730  1.00  0.00     0.040 A 
ATOM     74  C   UNL A   1      39.181  26.714  28.799  1.00  0.00     0.040 A 
ATOM     75  F   UNL A   1      38.665  26.859  31.083  1.00  0.00    -0.206 F 
ATOM     76  C   UNL A   1      39.758  27.259  27.653  1.00  0.00     0.006 A 
ENDBRANCH  48  69
BRANCH  60  77
ATOM     77  C   UNL A   1      44.560  28.905  35.282  1.00  0.00     0.057 A 
ATOM     78  C   UNL A   1      44.621  27.648  35.895  1.00  0.00     0.134 A 
ATOM     79  C   UNL A   1      45.762  29.465  34.831  1.00  0.00     0.134 A 
ATOM     80  F   UNL A   1      43.506  27.063  36.359  1.00  0.00    -0.206 F 
ATOM     81  C   UNL A   1      45.833  26.977  36.063  1.00  0.00     0.040 A 
ATOM     82  C   UNL A   1      46.978  28.795  34.974  1.00  0.00     0.040 A 
ATOM     83  F   UNL A   1      45.772  30.663  34.228  1.00  0.00    -0.206 F 
ATOM     84  C   UNL A   1      47.016  27.547  35.594  1.00  0.00     0.006 A 
ENDBRANCH  60  77
ENDBRANCH  34  35
ENDBRANCH  27  29
ENDBRANCH  26  27
ENDBRANCH  25  26
ENDBRANCH  24  25
ENDBRANCH  23  24
ENDBRANCH   1  23
TORSDOF 17
ENDMDL
