MODEL 1
REMARK VINA RESULT:     -11.0      0.000      0.000
REMARK SMILES O=C(OCCOCCOC(=O)c1cccc(S(=O)(=O)Nc2cccc(I)c2)c1)c1ccc(-c2c3nc(c(-c4c(F)cccc4F)c4ccc([nH]4)c(-c4c(F)cccc4F)c4nc(c(-c5c(F)cccc5F)c5ccc2[nH]5)C=C4)C=C3)cc1
REMARK SMILES IDX 7 1 6 2 5 3 4 4 3 5 2 6 1 7 29 8 30 9 82 10 31 11 81 12
REMARK SMILES IDX 32 13 33 14 34 15 75 16 35 17 80 18 74 19 76 20 36 21 79 22
REMARK SMILES IDX 73 23 72 24 37 26 63 27 46 28 62 29 47 30 50 31 61 32 77 33
REMARK SMILES IDX 48 34 49 35 60 37 78 38 51 39 38 40 39 41 44 42 40 43 41 44
REMARK SMILES IDX 43 45 45 46 42 47 64 48 65 49 70 50 66 51 67 52 69 53 71 54
REMARK SMILES IDX 68 55 52 56 53 57 58 58 54 59 55 60 57 61 59 62 56 63 8 64
REMARK SMILES IDX 9 65 10 66 11 67 12 68 13 69 28 70 14 71 16 72 15 73 17 74
REMARK SMILES IDX 18 75 19 76 20 77 21 79 22 80 27 81 23 82 25 83 24 84 26 85
REMARK H PARENT 76 25 50 36 20 78
REMARK Flexibility Score: inf
ROOT
ATOM      1  C   UNL A   1      32.529  30.108  26.646  1.00  0.00     0.202 C 
ENDROOT
BRANCH   1   2
ATOM      2  O   UNL A   1      31.653  30.826  25.777  1.00  0.00    -0.374 OA
BRANCH   2   3
ATOM      3  C   UNL A   1      31.327  32.171  26.131  1.00  0.00     0.202 C 
BRANCH   3   4
ATOM      4  C   UNL A   1      31.744  32.550  27.551  1.00  0.00     0.261 C 
BRANCH   4   5
ATOM      5  O   UNL A   1      32.451  33.801  27.542  1.00  0.00    -0.460 OA
BRANCH   5   6
ATOM      6  C   UNL A   1      33.353  34.242  28.452  1.00  0.00     0.338 C 
ATOM      7  O   UNL A   1      33.160  35.325  29.002  1.00  0.00    -0.246 OA
BRANCH   6   8
ATOM      8  C   UNL A   1      34.555  33.457  28.857  1.00  0.00     0.060 A 
ATOM      9  C   UNL A   1      34.519  32.228  29.513  1.00  0.00     0.016 A 
ATOM     10  C   UNL A   1      35.809  33.967  28.487  1.00  0.00     0.016 A 
ATOM     11  C   UNL A   1      35.659  31.537  29.842  1.00  0.00     0.010 A 
ATOM     12  C   UNL A   1      36.980  33.276  28.810  1.00  0.00     0.010 A 
ATOM     13  C   UNL A   1      36.894  32.067  29.510  1.00  0.00    -0.014 A 
BRANCH  13  14
ATOM     14  C   UNL A   1      38.037  31.407  30.142  1.00  0.00     0.031 A 
ATOM     15  C   UNL A   1      38.212  31.615  31.613  1.00  0.00     0.074 A 
ATOM     16  C   UNL A   1      38.702  30.461  29.459  1.00  0.00     0.049 A 
ATOM     17  N   UNL A   1      39.119  31.133  32.414  1.00  0.00    -0.248 NA
ATOM     18  C   UNL A   1      37.207  32.466  32.280  1.00  0.00     0.031 C 
ATOM     19  C   UNL A   1      38.421  30.065  28.073  1.00  0.00     0.029 A 
ATOM     20  N   UNL A   1      39.703  29.621  29.849  1.00  0.00    -0.354 N 
ATOM     21  C   UNL A   1      38.826  31.663  33.663  1.00  0.00     0.074 A 
ATOM     22  C   UNL A   1      37.654  32.492  33.523  1.00  0.00     0.031 C 
ATOM     23  C   UNL A   1      39.219  29.038  27.742  1.00  0.00     0.029 A 
ATOM     24  C   UNL A   1      40.116  28.767  28.857  1.00  0.00     0.049 A 
ATOM     25  H   UNL A   1      40.092  29.627  30.754  1.00  0.00     0.167 HD
ATOM     26  C   UNL A   1      39.503  31.474  34.817  1.00  0.00     0.037 A 
ATOM     27  C   UNL A   1      41.139  27.896  28.859  1.00  0.00     0.037 A 
ATOM     28  C   UNL A   1      40.659  30.626  34.900  1.00  0.00     0.049 A 
ATOM     29  C   UNL A   1      41.952  27.798  30.120  1.00  0.00     0.074 A 
ATOM     30  C   UNL A   1      41.494  30.400  35.975  1.00  0.00     0.029 A 
ATOM     31  N   UNL A   1      41.137  29.857  33.845  1.00  0.00    -0.354 N 
ATOM     32  N   UNL A   1      41.754  28.386  31.279  1.00  0.00    -0.248 NA
ATOM     33  C   UNL A   1      43.135  26.935  30.076  1.00  0.00     0.031 C 
ATOM     34  C   UNL A   1      42.512  29.538  35.551  1.00  0.00     0.029 A 
ATOM     35  C   UNL A   1      42.270  29.170  34.234  1.00  0.00     0.049 A 
ATOM     36  H   UNL A   1      40.727  29.809  32.951  1.00  0.00     0.167 HD
ATOM     37  C   UNL A   1      42.767  27.939  32.113  1.00  0.00     0.074 A 
ATOM     38  C   UNL A   1      43.569  27.021  31.325  1.00  0.00     0.031 C 
ATOM     39  C   UNL A   1      43.020  28.252  33.410  1.00  0.00     0.037 A 
BRANCH  26  40
ATOM     40  C   UNL A   1      39.069  32.288  36.000  1.00  0.00     0.057 A 
ATOM     41  C   UNL A   1      38.171  31.809  36.963  1.00  0.00     0.134 A 
ATOM     42  C   UNL A   1      39.508  33.612  36.131  1.00  0.00     0.134 A 
ATOM     43  F   UNL A   1      37.678  30.565  36.876  1.00  0.00    -0.206 F 
ATOM     44  C   UNL A   1      37.700  32.629  37.992  1.00  0.00     0.040 A 
ATOM     45  C   UNL A   1      39.066  34.431  37.171  1.00  0.00     0.040 A 
ATOM     46  F   UNL A   1      40.355  34.140  35.235  1.00  0.00    -0.206 F 
ATOM     47  C   UNL A   1      38.151  33.944  38.100  1.00  0.00     0.006 A 
ENDBRANCH  26  40
BRANCH  27  48
ATOM     48  C   UNL A   1      41.481  27.119  27.639  1.00  0.00     0.057 A 
ATOM     49  C   UNL A   1      42.278  27.662  26.625  1.00  0.00     0.134 A 
ATOM     50  C   UNL A   1      40.996  25.819  27.443  1.00  0.00     0.134 A 
ATOM     51  F   UNL A   1      42.762  28.908  26.740  1.00  0.00    -0.206 F 
ATOM     52  C   UNL A   1      42.559  26.953  25.454  1.00  0.00     0.040 A 
ATOM     53  C   UNL A   1      41.294  25.087  26.293  1.00  0.00     0.040 A 
ATOM     54  F   UNL A   1      40.228  25.232  28.374  1.00  0.00    -0.206 F 
ATOM     55  C   UNL A   1      42.069  25.659  25.288  1.00  0.00     0.006 A 
ENDBRANCH  27  48
BRANCH  39  56
ATOM     56  C   UNL A   1      44.165  27.538  34.059  1.00  0.00     0.057 A 
ATOM     57  C   UNL A   1      44.020  26.277  34.649  1.00  0.00     0.134 A 
ATOM     58  C   UNL A   1      45.442  28.113  34.052  1.00  0.00     0.134 A 
ATOM     59  F   UNL A   1      42.818  25.682  34.697  1.00  0.00    -0.206 F 
ATOM     60  C   UNL A   1      45.101  25.627  35.241  1.00  0.00     0.040 A 
ATOM     61  C   UNL A   1      46.537  27.457  34.609  1.00  0.00     0.040 A 
ATOM     62  F   UNL A   1      45.646  29.314  33.489  1.00  0.00    -0.206 F 
ATOM     63  C   UNL A   1      46.366  26.214  35.214  1.00  0.00     0.006 A 
ENDBRANCH  39  56
ENDBRANCH  13  14
ENDBRANCH   6   8
ENDBRANCH   5   6
ENDBRANCH   4   5
ENDBRANCH   3   4
ENDBRANCH   2   3
ENDBRANCH   1   2
BRANCH   1  64
ATOM     64  C   UNL A   1      32.037  28.674  26.768  1.00  0.00     0.261 C 
BRANCH  64  65
ATOM     65  O   UNL A   1      33.193  27.835  26.776  1.00  0.00    -0.460 OA
BRANCH  65  66
ATOM     66  C   UNL A   1      33.511  27.271  25.585  1.00  0.00     0.338 C 
ATOM     67  O   UNL A   1      33.688  27.830  24.513  1.00  0.00    -0.246 OA
BRANCH  66  68
ATOM     68  C   UNL A   1      33.709  25.823  25.804  1.00  0.00     0.061 A 
ATOM     69  C   UNL A   1      34.791  25.158  25.225  1.00  0.00     0.016 A 
ATOM     70  C   UNL A   1      32.732  25.112  26.486  1.00  0.00     0.038 A 
ATOM     71  C   UNL A   1      34.836  23.765  25.260  1.00  0.00     0.002 A 
ATOM     72  C   UNL A   1      32.626  23.760  26.240  1.00  0.00     0.088 A 
ATOM     73  C   UNL A   1      33.713  23.060  25.703  1.00  0.00     0.022 A 
BRANCH  72  74
ATOM     74  S   UNL A   1      30.992  23.061  26.076  1.00  0.00     0.261 S 
ATOM     75  O   UNL A   1      31.183  21.649  25.827  1.00  0.00    -0.201 OA
ATOM     76  O   UNL A   1      30.234  23.534  27.214  1.00  0.00    -0.201 OA
BRANCH  74  77
ATOM     77  N   UNL A   1      30.247  23.739  24.735  1.00  0.00    -0.280 N 
ATOM     78  H   UNL A   1      29.377  23.350  24.486  1.00  0.00     0.180 HD
BRANCH  77  79
ATOM     79  C   UNL A   1      30.708  24.808  23.905  1.00  0.00     0.050 A 
ATOM     80  C   UNL A   1      31.676  24.461  22.947  1.00  0.00     0.027 A 
ATOM     81  C   UNL A   1      30.204  26.110  23.919  1.00  0.00     0.041 A 
ATOM     82  C   UNL A   1      32.103  25.380  21.986  1.00  0.00     0.003 A 
ATOM     83  C   UNL A   1      30.641  27.031  22.953  1.00  0.00     0.015 A 
ATOM     84  C   UNL A   1      31.582  26.670  21.985  1.00  0.00     0.015 A 
ATOM     85  I   UNL A   1      29.841  28.954  22.903  1.00  0.00    -0.044 I 
ENDBRANCH  77  79
ENDBRANCH  74  77
ENDBRANCH  72  74
ENDBRANCH  66  68
ENDBRANCH  65  66
ENDBRANCH  64  65
ENDBRANCH   1  64
TORSDOF 17
ENDMDL
MODEL 2
REMARK VINA RESULT:     -11.0      2.200      3.284
REMARK SMILES O=C(OCCOCCOC(=O)c1cccc(S(=O)(=O)Nc2cccc(I)c2)c1)c1ccc(-c2c3nc(c(-c4c(F)cccc4F)c4ccc([nH]4)c(-c4c(F)cccc4F)c4nc(c(-c5c(F)cccc5F)c5ccc2[nH]5)C=C4)C=C3)cc1
REMARK SMILES IDX 7 1 6 2 5 3 4 4 3 5 2 6 1 7 29 8 30 9 82 10 31 11 81 12
REMARK SMILES IDX 32 13 33 14 34 15 75 16 35 17 80 18 74 19 76 20 36 21 79 22
REMARK SMILES IDX 73 23 72 24 37 26 63 27 46 28 62 29 47 30 50 31 61 32 77 33
REMARK SMILES IDX 48 34 49 35 60 37 78 38 51 39 38 40 39 41 44 42 40 43 41 44
REMARK SMILES IDX 43 45 45 46 42 47 64 48 65 49 70 50 66 51 67 52 69 53 71 54
REMARK SMILES IDX 68 55 52 56 53 57 58 58 54 59 55 60 57 61 59 62 56 63 8 64
REMARK SMILES IDX 9 65 10 66 11 67 12 68 13 69 28 70 14 71 16 72 15 73 17 74
REMARK SMILES IDX 18 75 19 76 20 77 21 79 22 80 27 81 23 82 25 83 24 84 26 85
REMARK H PARENT 76 25 50 36 20 78
REMARK Flexibility Score: inf
ROOT
ATOM      1  C   UNL A   1      33.220  29.042  26.413  1.00  0.00     0.202 C 
ENDROOT
BRANCH   1   2
ATOM      2  O   UNL A   1      32.479  30.065  27.078  1.00  0.00    -0.374 OA
BRANCH   2   3
ATOM      3  C   UNL A   1      31.778  31.007  26.265  1.00  0.00     0.202 C 
BRANCH   3   4
ATOM      4  C   UNL A   1      31.402  32.293  26.999  1.00  0.00     0.261 C 
BRANCH   4   5
ATOM      5  O   UNL A   1      32.495  33.225  26.959  1.00  0.00    -0.460 OA
BRANCH   5   6
ATOM      6  C   UNL A   1      33.249  33.653  28.000  1.00  0.00     0.338 C 
ATOM      7  O   UNL A   1      32.876  34.636  28.638  1.00  0.00    -0.246 OA
BRANCH   6   8
ATOM      8  C   UNL A   1      34.495  32.964  28.443  1.00  0.00     0.060 A 
ATOM      9  C   UNL A   1      34.558  31.648  28.898  1.00  0.00     0.016 A 
ATOM     10  C   UNL A   1      35.699  33.677  28.328  1.00  0.00     0.016 A 
ATOM     11  C   UNL A   1      35.740  31.056  29.273  1.00  0.00     0.010 A 
ATOM     12  C   UNL A   1      36.911  33.089  28.701  1.00  0.00     0.010 A 
ATOM     13  C   UNL A   1      36.917  31.780  29.195  1.00  0.00    -0.014 A 
BRANCH  13  14
ATOM     14  C   UNL A   1      38.061  31.168  29.873  1.00  0.00     0.031 A 
ATOM     15  C   UNL A   1      38.206  31.437  31.336  1.00  0.00     0.074 A 
ATOM     16  C   UNL A   1      38.757  30.211  29.238  1.00  0.00     0.049 A 
ATOM     17  N   UNL A   1      39.107  31.005  32.171  1.00  0.00    -0.248 NA
ATOM     18  C   UNL A   1      37.172  32.292  31.952  1.00  0.00     0.031 C 
ATOM     19  C   UNL A   1      38.508  29.755  27.864  1.00  0.00     0.029 A 
ATOM     20  N   UNL A   1      39.767  29.407  29.677  1.00  0.00    -0.354 N 
ATOM     21  C   UNL A   1      38.783  31.576  33.393  1.00  0.00     0.074 A 
ATOM     22  C   UNL A   1      37.597  32.375  33.201  1.00  0.00     0.031 C 
ATOM     23  C   UNL A   1      39.333  28.734  27.586  1.00  0.00     0.029 A 
ATOM     24  C   UNL A   1      40.214  28.524  28.726  1.00  0.00     0.049 A 
ATOM     25  H   UNL A   1      40.139  29.455  30.587  1.00  0.00     0.167 HD
ATOM     26  C   UNL A   1      39.442  31.445  34.565  1.00  0.00     0.037 A 
ATOM     27  C   UNL A   1      41.254  27.674  28.779  1.00  0.00     0.037 A 
ATOM     28  C   UNL A   1      40.613  30.625  34.701  1.00  0.00     0.049 A 
ATOM     29  C   UNL A   1      42.046  27.642  30.057  1.00  0.00     0.074 A 
ATOM     30  C   UNL A   1      41.433  30.458  35.798  1.00  0.00     0.029 A 
ATOM     31  N   UNL A   1      41.124  29.826  33.685  1.00  0.00    -0.354 N 
ATOM     32  N   UNL A   1      41.816  28.270  31.189  1.00  0.00    -0.248 NA
ATOM     33  C   UNL A   1      43.247  26.802  30.067  1.00  0.00     0.031 C 
ATOM     34  C   UNL A   1      42.475  29.601  35.425  1.00  0.00     0.029 A 
ATOM     35  C   UNL A   1      42.264  29.177  34.120  1.00  0.00     0.049 A 
ATOM     36  H   UNL A   1      40.731  29.735  32.786  1.00  0.00     0.167 HD
ATOM     37  C   UNL A   1      42.823  27.876  32.057  1.00  0.00     0.074 A 
ATOM     38  C   UNL A   1      43.657  26.945  31.319  1.00  0.00     0.031 C 
ATOM     39  C   UNL A   1      43.046  28.244  33.344  1.00  0.00     0.037 A 
BRANCH  26  40
ATOM     40  C   UNL A   1      38.971  32.295  35.708  1.00  0.00     0.057 A 
ATOM     41  C   UNL A   1      39.357  33.632  35.871  1.00  0.00     0.134 A 
ATOM     42  C   UNL A   1      38.169  31.730  36.709  1.00  0.00     0.134 A 
ATOM     43  F   UNL A   1      40.158  34.224  34.972  1.00  0.00    -0.206 F 
ATOM     44  C   UNL A   1      38.992  34.364  37.004  1.00  0.00     0.040 A 
ATOM     45  C   UNL A   1      37.774  32.461  37.831  1.00  0.00     0.040 A 
ATOM     46  F   UNL A   1      37.777  30.450  36.626  1.00  0.00    -0.206 F 
ATOM     47  C   UNL A   1      38.195  33.779  37.987  1.00  0.00     0.006 A 
ENDBRANCH  26  40
BRANCH  27  48
ATOM     48  C   UNL A   1      41.633  26.859  27.597  1.00  0.00     0.057 A 
ATOM     49  C   UNL A   1      41.212  25.532  27.458  1.00  0.00     0.134 A 
ATOM     50  C   UNL A   1      42.451  27.379  26.584  1.00  0.00     0.134 A 
ATOM     51  F   UNL A   1      40.441  24.965  28.398  1.00  0.00    -0.206 F 
ATOM     52  C   UNL A   1      41.609  24.746  26.372  1.00  0.00     0.040 A 
ATOM     53  C   UNL A   1      42.830  26.617  25.478  1.00  0.00     0.040 A 
ATOM     54  F   UNL A   1      42.889  28.645  26.649  1.00  0.00    -0.206 F 
ATOM     55  C   UNL A   1      42.418  25.291  25.376  1.00  0.00     0.006 A 
ENDBRANCH  27  48
BRANCH  39  56
ATOM     56  C   UNL A   1      44.194  27.579  34.040  1.00  0.00     0.057 A 
ATOM     57  C   UNL A   1      45.484  28.120  34.035  1.00  0.00     0.134 A 
ATOM     58  C   UNL A   1      43.983  26.395  34.759  1.00  0.00     0.134 A 
ATOM     59  F   UNL A   1      45.748  29.245  33.354  1.00  0.00    -0.206 F 
ATOM     60  C   UNL A   1      46.536  27.488  34.696  1.00  0.00     0.040 A 
ATOM     61  C   UNL A   1      45.019  25.773  35.453  1.00  0.00     0.040 A 
ATOM     62  F   UNL A   1      42.765  25.835  34.811  1.00  0.00    -0.206 F 
ATOM     63  C   UNL A   1      46.302  26.315  35.415  1.00  0.00     0.006 A 
ENDBRANCH  39  56
ENDBRANCH  13  14
ENDBRANCH   6   8
ENDBRANCH   5   6
ENDBRANCH   4   5
ENDBRANCH   3   4
ENDBRANCH   2   3
ENDBRANCH   1   2
BRANCH   1  64
ATOM     64  C   UNL A   1      32.273  27.909  26.044  1.00  0.00     0.261 C 
BRANCH  64  65
ATOM     65  O   UNL A   1      32.874  26.697  26.502  1.00  0.00    -0.460 OA
BRANCH  65  66
ATOM     66  C   UNL A   1      32.309  25.556  26.040  1.00  0.00     0.338 C 
ATOM     67  O   UNL A   1      31.263  25.036  26.400  1.00  0.00    -0.246 OA
BRANCH  66  68
ATOM     68  C   UNL A   1      33.137  25.055  24.923  1.00  0.00     0.061 A 
ATOM     69  C   UNL A   1      32.545  24.646  23.726  1.00  0.00     0.016 A 
ATOM     70  C   UNL A   1      34.497  24.877  25.129  1.00  0.00     0.038 A 
ATOM     71  C   UNL A   1      33.315  23.975  22.777  1.00  0.00     0.002 A 
ATOM     72  C   UNL A   1      35.155  23.954  24.344  1.00  0.00     0.088 A 
ATOM     73  C   UNL A   1      34.606  23.561  23.118  1.00  0.00     0.022 A 
BRANCH  72  74
ATOM     74  S   UNL A   1      36.352  22.886  25.127  1.00  0.00     0.261 S 
ATOM     75  O   UNL A   1      37.082  22.246  24.054  1.00  0.00    -0.201 OA
ATOM     76  O   UNL A   1      37.024  23.694  26.123  1.00  0.00    -0.201 OA
BRANCH  74  77
ATOM     77  N   UNL A   1      35.538  21.703  25.992  1.00  0.00    -0.280 N 
ATOM     78  H   UNL A   1      35.791  21.615  26.940  1.00  0.00     0.180 HD
BRANCH  77  79
ATOM     79  C   UNL A   1      34.524  20.805  25.536  1.00  0.00     0.050 A 
ATOM     80  C   UNL A   1      33.212  21.308  25.554  1.00  0.00     0.027 A 
ATOM     81  C   UNL A   1      34.757  19.537  24.999  1.00  0.00     0.041 A 
ATOM     82  C   UNL A   1      32.153  20.582  25.004  1.00  0.00     0.003 A 
ATOM     83  C   UNL A   1      33.687  18.811  24.450  1.00  0.00     0.015 A 
ATOM     84  C   UNL A   1      32.389  19.330  24.446  1.00  0.00     0.015 A 
ATOM     85  I   UNL A   1      34.026  16.954  23.568  1.00  0.00    -0.044 I 
ENDBRANCH  77  79
ENDBRANCH  74  77
ENDBRANCH  72  74
ENDBRANCH  66  68
ENDBRANCH  65  66
ENDBRANCH  64  65
ENDBRANCH   1  64
TORSDOF 17
ENDMDL
MODEL 3
REMARK VINA RESULT:     -11.0      1.473      2.729
REMARK SMILES O=C(OCCOCCOC(=O)c1cccc(S(=O)(=O)Nc2cccc(I)c2)c1)c1ccc(-c2c3nc(c(-c4c(F)cccc4F)c4ccc([nH]4)c(-c4c(F)cccc4F)c4nc(c(-c5c(F)cccc5F)c5ccc2[nH]5)C=C4)C=C3)cc1
REMARK SMILES IDX 7 1 6 2 5 3 4 4 3 5 2 6 1 7 29 8 30 9 82 10 31 11 81 12
REMARK SMILES IDX 32 13 33 14 34 15 75 16 35 17 80 18 74 19 76 20 36 21 79 22
REMARK SMILES IDX 73 23 72 24 37 26 63 27 46 28 62 29 47 30 50 31 61 32 77 33
REMARK SMILES IDX 48 34 49 35 60 37 78 38 51 39 38 40 39 41 44 42 40 43 41 44
REMARK SMILES IDX 43 45 45 46 42 47 64 48 65 49 70 50 66 51 67 52 69 53 71 54
REMARK SMILES IDX 68 55 52 56 53 57 58 58 54 59 55 60 57 61 59 62 56 63 8 64
REMARK SMILES IDX 9 65 10 66 11 67 12 68 13 69 28 70 14 71 16 72 15 73 17 74
REMARK SMILES IDX 18 75 19 76 20 77 21 79 22 80 27 81 23 82 25 83 24 84 26 85
REMARK H PARENT 76 25 50 36 20 78
REMARK Flexibility Score: inf
ROOT
ATOM      1  C   UNL A   1      32.574  30.524  26.369  1.00  0.00     0.202 C 
ENDROOT
BRANCH   1   2
ATOM      2  O   UNL A   1      31.299  31.147  26.212  1.00  0.00    -0.374 OA
BRANCH   2   3
ATOM      3  C   UNL A   1      31.190  32.526  26.570  1.00  0.00     0.202 C 
BRANCH   3   4
ATOM      4  C   UNL A   1      32.526  33.176  26.928  1.00  0.00     0.261 C 
BRANCH   4   5
ATOM      5  O   UNL A   1      32.331  34.189  27.929  1.00  0.00    -0.460 OA
BRANCH   5   6
ATOM      6  C   UNL A   1      33.198  34.561  28.900  1.00  0.00     0.338 C 
ATOM      7  O   UNL A   1      32.958  35.575  29.553  1.00  0.00    -0.246 OA
BRANCH   6   8
ATOM      8  C   UNL A   1      34.416  33.775  29.253  1.00  0.00     0.060 A 
ATOM      9  C   UNL A   1      34.410  32.453  29.694  1.00  0.00     0.016 A 
ATOM     10  C   UNL A   1      35.659  34.397  29.061  1.00  0.00     0.016 A 
ATOM     11  C   UNL A   1      35.565  31.769  29.983  1.00  0.00     0.010 A 
ATOM     12  C   UNL A   1      36.846  33.716  29.346  1.00  0.00     0.010 A 
ATOM     13  C   UNL A   1      36.786  32.405  29.830  1.00  0.00    -0.014 A 
BRANCH  13  14
ATOM     14  C   UNL A   1      37.924  31.700  30.423  1.00  0.00     0.031 A 
ATOM     15  C   UNL A   1      38.124  31.855  31.897  1.00  0.00     0.074 A 
ATOM     16  C   UNL A   1      38.560  30.765  29.699  1.00  0.00     0.049 A 
ATOM     17  N   UNL A   1      39.031  31.328  32.667  1.00  0.00    -0.248 NA
ATOM     18  C   UNL A   1      37.145  32.702  32.606  1.00  0.00     0.031 C 
ATOM     19  C   UNL A   1      38.251  30.422  28.304  1.00  0.00     0.029 A 
ATOM     20  N   UNL A   1      39.549  29.892  30.045  1.00  0.00    -0.354 N 
ATOM     21  C   UNL A   1      38.767  31.821  33.938  1.00  0.00     0.074 A 
ATOM     22  C   UNL A   1      37.610  32.678  33.843  1.00  0.00     0.031 C 
ATOM     23  C   UNL A   1      39.024  29.391  27.927  1.00  0.00     0.029 A 
ATOM     24  C   UNL A   1      39.930  29.065  29.019  1.00  0.00     0.049 A 
ATOM     25  H   UNL A   1      39.950  29.860  30.944  1.00  0.00     0.167 HD
ATOM     26  C   UNL A   1      39.456  31.579  35.075  1.00  0.00     0.037 A 
ATOM     27  C   UNL A   1      40.935  28.173  28.977  1.00  0.00     0.037 A 
ATOM     28  C   UNL A   1      40.596  30.706  35.113  1.00  0.00     0.049 A 
ATOM     29  C   UNL A   1      41.763  28.017  30.222  1.00  0.00     0.074 A 
ATOM     30  C   UNL A   1      41.441  30.428  36.167  1.00  0.00     0.029 A 
ATOM     31  N   UNL A   1      41.043  29.964  34.025  1.00  0.00    -0.354 N 
ATOM     32  N   UNL A   1      41.594  28.569  31.403  1.00  0.00    -0.248 NA
ATOM     33  C   UNL A   1      42.928  27.132  30.132  1.00  0.00     0.031 C 
ATOM     34  C   UNL A   1      42.435  29.560  35.700  1.00  0.00     0.029 A 
ATOM     35  C   UNL A   1      42.167  29.242  34.375  1.00  0.00     0.049 A 
ATOM     36  H   UNL A   1      40.619  29.954  33.136  1.00  0.00     0.167 HD
ATOM     37  C   UNL A   1      42.609  28.074  32.206  1.00  0.00     0.074 A 
ATOM     38  C   UNL A   1      43.381  27.167  31.376  1.00  0.00     0.031 C 
ATOM     39  C   UNL A   1      42.886  28.338  33.509  1.00  0.00     0.037 A 
BRANCH  26  40
ATOM     40  C   UNL A   1      39.055  32.361  36.291  1.00  0.00     0.057 A 
ATOM     41  C   UNL A   1      39.611  33.606  36.611  1.00  0.00     0.134 A 
ATOM     42  C   UNL A   1      38.142  31.811  37.200  1.00  0.00     0.134 A 
ATOM     43  F   UNL A   1      40.523  34.173  35.807  1.00  0.00    -0.206 F 
ATOM     44  C   UNL A   1      39.300  34.259  37.808  1.00  0.00     0.040 A 
ATOM     45  C   UNL A   1      37.801  32.467  38.384  1.00  0.00     0.040 A 
ATOM     46  F   UNL A   1      37.583  30.615  36.965  1.00  0.00    -0.206 F 
ATOM     47  C   UNL A   1      38.389  33.690  38.697  1.00  0.00     0.006 A 
ENDBRANCH  26  40
BRANCH  27  48
ATOM     48  C   UNL A   1      41.244  27.432  27.727  1.00  0.00     0.057 A 
ATOM     49  C   UNL A   1      42.155  27.928  26.787  1.00  0.00     0.134 A 
ATOM     50  C   UNL A   1      40.614  26.216  27.426  1.00  0.00     0.134 A 
ATOM     51  F   UNL A   1      42.782  29.095  27.004  1.00  0.00    -0.206 F 
ATOM     52  C   UNL A   1      42.409  27.259  25.587  1.00  0.00     0.040 A 
ATOM     53  C   UNL A   1      40.881  25.521  26.246  1.00  0.00     0.040 A 
ATOM     54  F   UNL A   1      39.732  25.679  28.281  1.00  0.00    -0.206 F 
ATOM     55  C   UNL A   1      41.773  26.049  25.316  1.00  0.00     0.006 A 
ENDBRANCH  27  48
BRANCH  39  56
ATOM     56  C   UNL A   1      44.026  27.579  34.117  1.00  0.00     0.057 A 
ATOM     57  C   UNL A   1      45.328  28.091  34.153  1.00  0.00     0.134 A 
ATOM     58  C   UNL A   1      43.797  26.330  34.710  1.00  0.00     0.134 A 
ATOM     59  F   UNL A   1      45.610  29.276  33.590  1.00  0.00    -0.206 F 
ATOM     60  C   UNL A   1      46.372  27.371  34.731  1.00  0.00     0.040 A 
ATOM     61  C   UNL A   1      44.825  25.618  35.321  1.00  0.00     0.040 A 
ATOM     62  F   UNL A   1      42.567  25.794  34.717  1.00  0.00    -0.206 F 
ATOM     63  C   UNL A   1      46.119  26.134  35.325  1.00  0.00     0.006 A 
ENDBRANCH  39  56
ENDBRANCH  13  14
ENDBRANCH   6   8
ENDBRANCH   5   6
ENDBRANCH   4   5
ENDBRANCH   3   4
ENDBRANCH   2   3
ENDBRANCH   1   2
BRANCH   1  64
ATOM     64  C   UNL A   1      32.661  29.336  25.423  1.00  0.00     0.261 C 
BRANCH  64  65
ATOM     65  O   UNL A   1      31.397  28.673  25.469  1.00  0.00    -0.460 OA
BRANCH  65  66
ATOM     66  C   UNL A   1      31.336  27.588  26.279  1.00  0.00     0.338 C 
ATOM     67  O   UNL A   1      31.242  27.565  27.497  1.00  0.00    -0.246 OA
BRANCH  66  68
ATOM     68  C   UNL A   1      31.311  26.382  25.426  1.00  0.00     0.061 A 
ATOM     69  C   UNL A   1      30.705  26.412  24.168  1.00  0.00     0.016 A 
ATOM     70  C   UNL A   1      31.783  25.186  25.948  1.00  0.00     0.038 A 
ATOM     71  C   UNL A   1      30.497  25.218  23.480  1.00  0.00     0.002 A 
ATOM     72  C   UNL A   1      31.295  24.011  25.417  1.00  0.00     0.088 A 
ATOM     73  C   UNL A   1      30.725  24.005  24.138  1.00  0.00     0.022 A 
BRANCH  72  74
ATOM     74  S   UNL A   1      30.890  22.685  26.540  1.00  0.00     0.261 S 
ATOM     75  O   UNL A   1      30.094  23.279  27.593  1.00  0.00    -0.201 OA
ATOM     76  O   UNL A   1      30.380  21.604  25.724  1.00  0.00    -0.201 OA
BRANCH  74  77
ATOM     77  N   UNL A   1      32.308  22.097  27.217  1.00  0.00    -0.280 N 
ATOM     78  H   UNL A   1      32.285  21.939  28.188  1.00  0.00     0.180 HD
BRANCH  77  79
ATOM     79  C   UNL A   1      33.546  21.796  26.568  1.00  0.00     0.050 A 
ATOM     80  C   UNL A   1      33.543  20.651  25.753  1.00  0.00     0.027 A 
ATOM     81  C   UNL A   1      34.691  22.593  26.614  1.00  0.00     0.041 A 
ATOM     82  C   UNL A   1      34.644  20.329  24.957  1.00  0.00     0.003 A 
ATOM     83  C   UNL A   1      35.797  22.262  25.814  1.00  0.00     0.015 A 
ATOM     84  C   UNL A   1      35.776  21.138  24.983  1.00  0.00     0.015 A 
ATOM     85  I   UNL A   1      37.484  23.484  25.802  1.00  0.00    -0.044 I 
ENDBRANCH  77  79
ENDBRANCH  74  77
ENDBRANCH  72  74
ENDBRANCH  66  68
ENDBRANCH  65  66
ENDBRANCH  64  65
ENDBRANCH   1  64
TORSDOF 17
ENDMDL
