MODEL 1
REMARK VINA RESULT:     -12.3      0.000      0.000
REMARK SMILES Cc1c(C(=O)OCCOCCOC(=O)c2ccc(-c3c4nc(c(-c5c(F)cccc5F)c5ccc([nH]5)c(-c5c(F)cccc5F)c5nc(c(-c6c(F)cccc6F)c6ccc3[nH]6)C=C5)C=C4)cc2)sc2c1=C(CSc1nncn1-c1ccccc1)CC(=O)N=2
REMARK SMILES IDX 8 1 7 2 6 3 4 4 5 5 3 6 1 7 2 8 71 9 69 10 70 11 72 12 89 13
REMARK SMILES IDX 86 14 87 15 88 16 73 17 74 18 75 19 76 20 79 21 77 22 78 23
REMARK SMILES IDX 80 24 81 25 85 26 82 27 84 28 83 29 9 30 10 31 11 32 12 33
REMARK SMILES IDX 13 34 14 35 15 36 16 37 68 38 17 39 67 40 18 41 19 42 20 43
REMARK SMILES IDX 61 44 21 45 66 46 60 47 62 48 22 49 65 50 59 51 58 52 23 54
REMARK SMILES IDX 49 55 32 56 48 57 33 58 36 59 47 60 63 61 34 62 35 63 46 65
REMARK SMILES IDX 64 66 37 67 24 68 25 69 30 70 26 71 27 72 29 73 31 74 28 75
REMARK SMILES IDX 50 76 51 77 56 78 52 79 53 80 55 81 57 82 54 83 38 84 39 85
REMARK SMILES IDX 44 86 40 87 41 88 43 89 45 90 42 91
REMARK H PARENT 62 53 36 64
REMARK Flexibility Score: inf
ROOT
ATOM      1  C   UNL A   1      34.213  33.594  28.028  1.00  0.00     0.202 C 
ENDROOT
BRANCH   1   2
ATOM      2  C   UNL A   1      34.414  32.079  28.134  1.00  0.00     0.261 C 
BRANCH   2   3
ATOM      3  O   UNL A   1      33.336  31.268  27.624  1.00  0.00    -0.459 OA
BRANCH   3   4
ATOM      4  C   UNL A   1      33.743  30.135  26.985  1.00  0.00     0.348 C 
ATOM      5  O   UNL A   1      34.707  29.456  27.315  1.00  0.00    -0.245 OA
BRANCH   4   6
ATOM      6  C   UNL A   1      32.848  29.734  25.865  1.00  0.00     0.118 A 
ATOM      7  C   UNL A   1      34.188  28.033  24.485  1.00  0.00     0.047 C 
ATOM      8  C   UNL A   1      32.981  28.799  24.904  1.00  0.00    -0.016 A 
ATOM      9  C   UNL A   1      31.807  28.684  24.057  1.00  0.00     0.016 A 
ATOM     10  S   UNL A   1      31.353  30.660  25.717  1.00  0.00    -0.108 S 
ATOM     11  C   UNL A   1      30.832  29.783  24.296  1.00  0.00     0.128 A 
ATOM     12  C   UNL A   1      31.123  27.628  23.564  1.00  0.00    -0.040 C 
ATOM     13  N   UNL A   1      29.752  30.048  23.651  1.00  0.00    -0.202 NA
ATOM     14  C   UNL A   1      30.349  28.013  22.313  1.00  0.00     0.135 C 
ATOM     15  C   UNL A   1      29.428  29.205  22.602  1.00  0.00     0.251 C 
ATOM     16  O   UNL A   1      28.447  29.395  21.889  1.00  0.00    -0.272 OA
BRANCH  12  17
ATOM     17  C   UNL A   1      30.277  26.658  24.398  1.00  0.00     0.110 C 
BRANCH  17  18
ATOM     18  S   UNL A   1      30.422  24.915  24.013  1.00  0.00    -0.081 SA
BRANCH  18  19
ATOM     19  C   UNL A   1      30.897  24.276  25.551  1.00  0.00     0.195 A 
ATOM     20  N   UNL A   1      30.062  24.025  26.536  1.00  0.00    -0.123 NA
ATOM     21  N   UNL A   1      32.146  23.751  25.836  1.00  0.00    -0.277 N 
ATOM     22  N   UNL A   1      30.730  23.288  27.476  1.00  0.00    -0.138 NA
ATOM     23  C   UNL A   1      31.955  23.111  27.040  1.00  0.00     0.231 A 
BRANCH  21  24
ATOM     24  C   UNL A   1      33.327  23.728  25.047  1.00  0.00     0.049 A 
ATOM     25  C   UNL A   1      33.350  23.102  23.793  1.00  0.00     0.027 A 
ATOM     26  C   UNL A   1      34.514  24.260  25.573  1.00  0.00     0.027 A 
ATOM     27  C   UNL A   1      34.553  22.943  23.108  1.00  0.00     0.002 A 
ATOM     28  C   UNL A   1      35.717  24.088  24.885  1.00  0.00     0.002 A 
ATOM     29  C   UNL A   1      35.733  23.430  23.656  1.00  0.00     0.000 A 
ENDBRANCH  21  24
ENDBRANCH  18  19
ENDBRANCH  17  18
ENDBRANCH  12  17
ENDBRANCH   4   6
ENDBRANCH   3   4
ENDBRANCH   2   3
ENDBRANCH   1   2
BRANCH   1  30
ATOM     30  O   UNL A   1      33.276  34.229  28.885  1.00  0.00    -0.374 OA
BRANCH  30  31
ATOM     31  C   UNL A   1      33.339  35.636  29.067  1.00  0.00     0.202 C 
BRANCH  31  32
ATOM     32  C   UNL A   1      32.670  36.249  30.290  1.00  0.00     0.261 C 
BRANCH  32  33
ATOM     33  O   UNL A   1      32.366  35.319  31.323  1.00  0.00    -0.460 OA
BRANCH  33  34
ATOM     34  C   UNL A   1      32.902  35.670  32.519  1.00  0.00     0.338 C 
ATOM     35  O   UNL A   1      32.580  36.606  33.224  1.00  0.00    -0.246 OA
BRANCH  34  36
ATOM     36  C   UNL A   1      34.101  34.861  32.762  1.00  0.00     0.060 A 
ATOM     37  C   UNL A   1      35.292  35.554  32.986  1.00  0.00     0.016 A 
ATOM     38  C   UNL A   1      34.083  33.484  32.490  1.00  0.00     0.016 A 
ATOM     39  C   UNL A   1      36.483  34.897  32.765  1.00  0.00     0.010 A 
ATOM     40  C   UNL A   1      35.273  32.835  32.256  1.00  0.00     0.010 A 
ATOM     41  C   UNL A   1      36.455  33.565  32.330  1.00  0.00    -0.014 A 
BRANCH  41  42
ATOM     42  C   UNL A   1      37.722  32.887  32.146  1.00  0.00     0.031 A 
ATOM     43  C   UNL A   1      38.517  32.899  33.394  1.00  0.00     0.074 A 
ATOM     44  C   UNL A   1      38.067  32.244  31.013  1.00  0.00     0.049 A 
ATOM     45  N   UNL A   1      39.595  33.569  33.621  1.00  0.00    -0.248 NA
ATOM     46  C   UNL A   1      37.935  32.273  34.596  1.00  0.00     0.031 C 
ATOM     47  C   UNL A   1      37.223  31.987  29.842  1.00  0.00     0.029 A 
ATOM     48  N   UNL A   1      39.229  31.601  30.699  1.00  0.00    -0.354 N 
ATOM     49  C   UNL A   1      39.967  33.229  34.916  1.00  0.00     0.074 A 
ATOM     50  C   UNL A   1      38.818  32.626  35.532  1.00  0.00     0.031 C 
ATOM     51  C   UNL A   1      37.818  31.060  29.055  1.00  0.00     0.029 A 
ATOM     52  C   UNL A   1      39.136  30.763  29.590  1.00  0.00     0.049 A 
ATOM     53  H   UNL A   1      40.060  31.719  31.212  1.00  0.00     0.167 HD
ATOM     54  C   UNL A   1      41.285  33.138  35.233  1.00  0.00     0.037 A 
ATOM     55  C   UNL A   1      40.068  29.868  29.172  1.00  0.00     0.037 A 
ATOM     56  C   UNL A   1      42.091  33.836  34.262  1.00  0.00     0.049 A 
ATOM     57  C   UNL A   1      41.362  30.271  29.764  1.00  0.00     0.074 A 
ATOM     58  C   UNL A   1      42.283  35.147  33.881  1.00  0.00     0.029 A 
ATOM     59  N   UNL A   1      42.520  33.045  33.230  1.00  0.00    -0.354 N 
ATOM     60  N   UNL A   1      42.019  31.333  29.398  1.00  0.00    -0.248 NA
ATOM     61  C   UNL A   1      41.779  29.684  31.031  1.00  0.00     0.031 C 
ATOM     62  C   UNL A   1      42.623  35.106  32.494  1.00  0.00     0.029 A 
ATOM     63  C   UNL A   1      42.687  33.775  32.085  1.00  0.00     0.049 A 
ATOM     64  H   UNL A   1      42.686  32.078  33.302  1.00  0.00     0.167 HD
ATOM     65  C   UNL A   1      42.581  31.804  30.569  1.00  0.00     0.074 A 
ATOM     66  C   UNL A   1      42.566  30.665  31.480  1.00  0.00     0.031 C 
ATOM     67  C   UNL A   1      42.694  33.148  30.782  1.00  0.00     0.037 A 
BRANCH  54  68
ATOM     68  C   UNL A   1      41.851  31.994  36.049  1.00  0.00     0.057 A 
ATOM     69  C   UNL A   1      42.714  32.283  37.120  1.00  0.00     0.134 A 
ATOM     70  C   UNL A   1      41.841  30.641  35.641  1.00  0.00     0.134 A 
ATOM     71  F   UNL A   1      42.853  33.539  37.569  1.00  0.00    -0.206 F 
ATOM     72  C   UNL A   1      43.531  31.308  37.708  1.00  0.00     0.040 A 
ATOM     73  C   UNL A   1      42.611  29.652  36.256  1.00  0.00     0.040 A 
ATOM     74  F   UNL A   1      41.178  30.217  34.559  1.00  0.00    -0.206 F 
ATOM     75  C   UNL A   1      43.480  29.987  37.277  1.00  0.00     0.006 A 
ENDBRANCH  54  68
BRANCH  55  76
ATOM     76  C   UNL A   1      39.919  28.568  28.479  1.00  0.00     0.057 A 
ATOM     77  C   UNL A   1      40.551  28.327  27.246  1.00  0.00     0.134 A 
ATOM     78  C   UNL A   1      39.423  27.438  29.147  1.00  0.00     0.134 A 
ATOM     79  F   UNL A   1      41.084  29.336  26.543  1.00  0.00    -0.206 F 
ATOM     80  C   UNL A   1      40.724  27.033  26.735  1.00  0.00     0.040 A 
ATOM     81  C   UNL A   1      39.585  26.141  28.645  1.00  0.00     0.040 A 
ATOM     82  F   UNL A   1      38.853  27.546  30.356  1.00  0.00    -0.206 F 
ATOM     83  C   UNL A   1      40.255  25.933  27.445  1.00  0.00     0.006 A 
ENDBRANCH  55  76
BRANCH  67  84
ATOM     84  C   UNL A   1      42.669  34.030  29.567  1.00  0.00     0.057 A 
ATOM     85  C   UNL A   1      41.561  34.777  29.135  1.00  0.00     0.134 A 
ATOM     86  C   UNL A   1      43.845  34.153  28.819  1.00  0.00     0.134 A 
ATOM     87  F   UNL A   1      40.419  34.794  29.835  1.00  0.00    -0.206 F 
ATOM     88  C   UNL A   1      41.609  35.556  27.975  1.00  0.00     0.040 A 
ATOM     89  C   UNL A   1      43.917  34.958  27.683  1.00  0.00     0.040 A 
ATOM     90  F   UNL A   1      44.957  33.504  29.198  1.00  0.00    -0.206 F 
ATOM     91  C   UNL A   1      42.791  35.650  27.246  1.00  0.00     0.006 A 
ENDBRANCH  67  84
ENDBRANCH  41  42
ENDBRANCH  34  36
ENDBRANCH  33  34
ENDBRANCH  32  33
ENDBRANCH  31  32
ENDBRANCH  30  31
ENDBRANCH   1  30
TORSDOF 18
ENDMDL
MODEL 2
REMARK VINA RESULT:     -11.5      4.976      8.924
REMARK SMILES Cc1c(C(=O)OCCOCCOC(=O)c2ccc(-c3c4nc(c(-c5c(F)cccc5F)c5ccc([nH]5)c(-c5c(F)cccc5F)c5nc(c(-c6c(F)cccc6F)c6ccc3[nH]6)C=C5)C=C4)cc2)sc2c1=C(CSc1nncn1-c1ccccc1)CC(=O)N=2
REMARK SMILES IDX 8 1 7 2 6 3 4 4 5 5 3 6 1 7 2 8 71 9 69 10 70 11 72 12 89 13
REMARK SMILES IDX 86 14 87 15 88 16 73 17 74 18 75 19 76 20 79 21 77 22 78 23
REMARK SMILES IDX 80 24 81 25 85 26 82 27 84 28 83 29 9 30 10 31 11 32 12 33
REMARK SMILES IDX 13 34 14 35 15 36 16 37 68 38 17 39 67 40 18 41 19 42 20 43
REMARK SMILES IDX 61 44 21 45 66 46 60 47 62 48 22 49 65 50 59 51 58 52 23 54
REMARK SMILES IDX 49 55 32 56 48 57 33 58 36 59 47 60 63 61 34 62 35 63 46 65
REMARK SMILES IDX 64 66 37 67 24 68 25 69 30 70 26 71 27 72 29 73 31 74 28 75
REMARK SMILES IDX 50 76 51 77 56 78 52 79 53 80 55 81 57 82 54 83 38 84 39 85
REMARK SMILES IDX 44 86 40 87 41 88 43 89 45 90 42 91
REMARK H PARENT 62 53 36 64
REMARK Flexibility Score: inf
ROOT
ATOM      1  C   UNL A   1      33.195  36.143  30.776  1.00  0.00     0.202 C 
ENDROOT
BRANCH   1   2
ATOM      2  C   UNL A   1      33.855  35.676  32.076  1.00  0.00     0.261 C 
BRANCH   2   3
ATOM      3  O   UNL A   1      35.048  34.880  31.920  1.00  0.00    -0.459 OA
BRANCH   3   4
ATOM      4  C   UNL A   1      34.877  33.556  32.192  1.00  0.00     0.348 C 
ATOM      5  O   UNL A   1      34.108  32.814  31.593  1.00  0.00    -0.245 OA
BRANCH   4   6
ATOM      6  C   UNL A   1      35.782  33.050  33.259  1.00  0.00     0.118 A 
ATOM      7  C   UNL A   1      36.612  30.763  32.437  1.00  0.00     0.047 C 
ATOM      8  C   UNL A   1      36.577  31.963  33.319  1.00  0.00    -0.016 A 
ATOM      9  C   UNL A   1      37.368  31.903  34.535  1.00  0.00     0.016 A 
ATOM     10  S   UNL A   1      35.812  34.001  34.746  1.00  0.00    -0.108 S 
ATOM     11  C   UNL A   1      36.943  32.923  35.532  1.00  0.00     0.128 A 
ATOM     12  C   UNL A   1      38.662  31.602  34.782  1.00  0.00    -0.040 C 
ATOM     13  N   UNL A   1      37.349  33.075  36.743  1.00  0.00    -0.202 NA
ATOM     14  C   UNL A   1      38.852  31.138  36.218  1.00  0.00     0.135 C 
ATOM     15  C   UNL A   1      38.316  32.193  37.193  1.00  0.00     0.251 C 
ATOM     16  O   UNL A   1      38.737  32.217  38.346  1.00  0.00    -0.272 OA
BRANCH  12  17
ATOM     17  C   UNL A   1      39.863  32.463  34.370  1.00  0.00     0.110 C 
BRANCH  17  18
ATOM     18  S   UNL A   1      39.556  33.782  33.199  1.00  0.00    -0.081 SA
BRANCH  18  19
ATOM     19  C   UNL A   1      40.728  34.952  33.705  1.00  0.00     0.195 A 
ATOM     20  N   UNL A   1      40.798  35.449  34.921  1.00  0.00    -0.123 NA
ATOM     21  N   UNL A   1      41.844  35.318  32.973  1.00  0.00    -0.277 N 
ATOM     22  N   UNL A   1      41.986  36.119  35.034  1.00  0.00    -0.138 NA
ATOM     23  C   UNL A   1      42.608  36.014  33.882  1.00  0.00     0.231 A 
BRANCH  21  24
ATOM     24  C   UNL A   1      42.223  34.967  31.649  1.00  0.00     0.049 A 
ATOM     25  C   UNL A   1      41.413  34.140  30.859  1.00  0.00     0.027 A 
ATOM     26  C   UNL A   1      43.471  35.380  31.159  1.00  0.00     0.027 A 
ATOM     27  C   UNL A   1      41.873  33.670  29.630  1.00  0.00     0.002 A 
ATOM     28  C   UNL A   1      43.930  34.898  29.932  1.00  0.00     0.002 A 
ATOM     29  C   UNL A   1      43.132  34.045  29.172  1.00  0.00     0.000 A 
ENDBRANCH  21  24
ENDBRANCH  18  19
ENDBRANCH  17  18
ENDBRANCH  12  17
ENDBRANCH   4   6
ENDBRANCH   3   4
ENDBRANCH   2   3
ENDBRANCH   1   2
BRANCH   1  30
ATOM     30  O   UNL A   1      33.757  35.747  29.533  1.00  0.00    -0.374 OA
BRANCH  30  31
ATOM     31  C   UNL A   1      33.242  34.604  28.867  1.00  0.00     0.202 C 
BRANCH  31  32
ATOM     32  C   UNL A   1      34.137  33.861  27.885  1.00  0.00     0.261 C 
BRANCH  32  33
ATOM     33  O   UNL A   1      35.189  33.119  28.492  1.00  0.00    -0.460 OA
BRANCH  33  34
ATOM     34  C   UNL A   1      35.246  31.836  28.055  1.00  0.00     0.338 C 
ATOM     35  O   UNL A   1      34.440  31.262  27.349  1.00  0.00    -0.246 OA
BRANCH  34  36
ATOM     36  C   UNL A   1      36.346  31.146  28.737  1.00  0.00     0.060 A 
ATOM     37  C   UNL A   1      37.446  31.925  29.101  1.00  0.00     0.016 A 
ATOM     38  C   UNL A   1      36.393  29.744  28.748  1.00  0.00     0.016 A 
ATOM     39  C   UNL A   1      38.653  31.294  29.311  1.00  0.00     0.010 A 
ATOM     40  C   UNL A   1      37.602  29.118  28.944  1.00  0.00     0.010 A 
ATOM     41  C   UNL A   1      38.731  29.904  29.156  1.00  0.00    -0.014 A 
BRANCH  41  42
ATOM     42  C   UNL A   1      40.002  29.263  29.423  1.00  0.00     0.031 A 
ATOM     43  C   UNL A   1      40.304  29.265  30.872  1.00  0.00     0.074 A 
ATOM     44  C   UNL A   1      40.746  28.657  28.477  1.00  0.00     0.049 A 
ATOM     45  N   UNL A   1      41.210  29.957  31.475  1.00  0.00    -0.248 NA
ATOM     46  C   UNL A   1      39.356  28.595  31.781  1.00  0.00     0.031 C 
ATOM     47  C   UNL A   1      40.380  28.406  27.080  1.00  0.00     0.029 A 
ATOM     48  N   UNL A   1      41.965  28.051  28.586  1.00  0.00    -0.354 N 
ATOM     49  C   UNL A   1      41.111  29.595  32.813  1.00  0.00     0.074 A 
ATOM     50  C   UNL A   1      39.839  28.949  32.974  1.00  0.00     0.031 C 
ATOM     51  C   UNL A   1      41.245  27.515  26.542  1.00  0.00     0.029 A 
ATOM     52  C   UNL A   1      42.297  27.238  27.505  1.00  0.00     0.049 A 
ATOM     53  H   UNL A   1      42.557  28.178  29.362  1.00  0.00     0.167 HD
ATOM     54  C   UNL A   1      42.234  29.531  33.575  1.00  0.00     0.037 A 
ATOM     55  C   UNL A   1      43.346  26.378  27.432  1.00  0.00     0.037 A 
ATOM     56  C   UNL A   1      43.308  30.272  32.962  1.00  0.00     0.049 A 
ATOM     57  C   UNL A   1      44.333  26.800  28.449  1.00  0.00     0.074 A 
ATOM     58  C   UNL A   1      43.579  31.597  32.691  1.00  0.00     0.029 A 
ATOM     59  N   UNL A   1      44.100  29.519  32.137  1.00  0.00    -0.354 N 
ATOM     60  N   UNL A   1      45.042  27.887  28.354  1.00  0.00    -0.248 NA
ATOM     61  C   UNL A   1      44.294  26.193  29.774  1.00  0.00     0.031 C 
ATOM     62  C   UNL A   1      44.389  31.598  31.514  1.00  0.00     0.029 A 
ATOM     63  C   UNL A   1      44.637  30.279  31.136  1.00  0.00     0.049 A 
ATOM     64  H   UNL A   1      44.261  28.554  32.251  1.00  0.00     0.167 HD
ATOM     65  C   UNL A   1      45.138  28.344  29.654  1.00  0.00     0.074 A 
ATOM     66  C   UNL A   1      44.839  27.184  30.485  1.00  0.00     0.031 C 
ATOM     67  C   UNL A   1      45.124  29.684  29.911  1.00  0.00     0.037 A 
BRANCH  54  68
ATOM     68  C   UNL A   1      42.512  28.382  34.523  1.00  0.00     0.057 A 
ATOM     69  C   UNL A   1      42.639  27.084  34.000  1.00  0.00     0.134 A 
ATOM     70  C   UNL A   1      42.348  28.446  35.925  1.00  0.00     0.134 A 
ATOM     71  F   UNL A   1      42.751  26.884  32.679  1.00  0.00    -0.206 F 
ATOM     72  C   UNL A   1      42.566  25.940  34.808  1.00  0.00     0.040 A 
ATOM     73  C   UNL A   1      42.327  27.316  36.744  1.00  0.00     0.040 A 
ATOM     74  F   UNL A   1      42.084  29.589  36.570  1.00  0.00    -0.206 F 
ATOM     75  C   UNL A   1      42.411  26.055  36.185  1.00  0.00     0.006 A 
ENDBRANCH  54  68
BRANCH  55  76
ATOM     76  C   UNL A   1      43.494  25.092  26.713  1.00  0.00     0.057 A 
ATOM     77  C   UNL A   1      42.788  23.947  27.121  1.00  0.00     0.134 A 
ATOM     78  C   UNL A   1      44.078  25.033  25.438  1.00  0.00     0.134 A 
ATOM     79  F   UNL A   1      42.170  23.913  28.310  1.00  0.00    -0.206 F 
ATOM     80  C   UNL A   1      42.628  22.831  26.288  1.00  0.00     0.040 A 
ATOM     81  C   UNL A   1      43.930  23.922  24.599  1.00  0.00     0.040 A 
ATOM     82  F   UNL A   1      44.726  26.090  24.927  1.00  0.00    -0.206 F 
ATOM     83  C   UNL A   1      43.187  22.824  25.015  1.00  0.00     0.006 A 
ENDBRANCH  55  76
BRANCH  67  84
ATOM     84  C   UNL A   1      45.502  30.594  28.778  1.00  0.00     0.057 A 
ATOM     85  C   UNL A   1      44.609  31.104  27.821  1.00  0.00     0.134 A 
ATOM     86  C   UNL A   1      46.836  31.003  28.679  1.00  0.00     0.134 A 
ATOM     87  F   UNL A   1      43.297  30.841  27.885  1.00  0.00    -0.206 F 
ATOM     88  C   UNL A   1      45.044  31.927  26.778  1.00  0.00     0.040 A 
ATOM     89  C   UNL A   1      47.275  31.856  27.666  1.00  0.00     0.040 A 
ATOM     90  F   UNL A   1      47.737  30.593  29.586  1.00  0.00    -0.206 F 
ATOM     91  C   UNL A   1      46.380  32.307  26.700  1.00  0.00     0.006 A 
ENDBRANCH  67  84
ENDBRANCH  41  42
ENDBRANCH  34  36
ENDBRANCH  33  34
ENDBRANCH  32  33
ENDBRANCH  31  32
ENDBRANCH  30  31
ENDBRANCH   1  30
TORSDOF 18
ENDMDL
MODEL 3
REMARK VINA RESULT:     -11.4      5.054      9.317
REMARK SMILES Cc1c(C(=O)OCCOCCOC(=O)c2ccc(-c3c4nc(c(-c5c(F)cccc5F)c5ccc([nH]5)c(-c5c(F)cccc5F)c5nc(c(-c6c(F)cccc6F)c6ccc3[nH]6)C=C5)C=C4)cc2)sc2c1=C(CSc1nncn1-c1ccccc1)CC(=O)N=2
REMARK SMILES IDX 8 1 7 2 6 3 4 4 5 5 3 6 1 7 2 8 71 9 69 10 70 11 72 12 89 13
REMARK SMILES IDX 86 14 87 15 88 16 73 17 74 18 75 19 76 20 79 21 77 22 78 23
REMARK SMILES IDX 80 24 81 25 85 26 82 27 84 28 83 29 9 30 10 31 11 32 12 33
REMARK SMILES IDX 13 34 14 35 15 36 16 37 68 38 17 39 67 40 18 41 19 42 20 43
REMARK SMILES IDX 61 44 21 45 66 46 60 47 62 48 22 49 65 50 59 51 58 52 23 54
REMARK SMILES IDX 49 55 32 56 48 57 33 58 36 59 47 60 63 61 34 62 35 63 46 65
REMARK SMILES IDX 64 66 37 67 24 68 25 69 30 70 26 71 27 72 29 73 31 74 28 75
REMARK SMILES IDX 50 76 51 77 56 78 52 79 53 80 55 81 57 82 54 83 38 84 39 85
REMARK SMILES IDX 44 86 40 87 41 88 43 89 45 90 42 91
REMARK H PARENT 62 53 36 64
REMARK Flexibility Score: inf
ROOT
ATOM      1  C   UNL A   1      32.973  35.936  30.703  1.00  0.00     0.202 C 
ENDROOT
BRANCH   1   2
ATOM      2  C   UNL A   1      33.676  35.515  31.997  1.00  0.00     0.261 C 
BRANCH   2   3
ATOM      3  O   UNL A   1      34.927  34.815  31.830  1.00  0.00    -0.459 OA
BRANCH   3   4
ATOM      4  C   UNL A   1      34.857  33.477  32.080  1.00  0.00     0.348 C 
ATOM      5  O   UNL A   1      34.148  32.690  31.466  1.00  0.00    -0.245 OA
BRANCH   4   6
ATOM      6  C   UNL A   1      35.796  33.025  33.142  1.00  0.00     0.118 A 
ATOM      7  C   UNL A   1      36.551  30.673  32.441  1.00  0.00     0.047 C 
ATOM      8  C   UNL A   1      36.573  31.928  33.242  1.00  0.00    -0.016 A 
ATOM      9  C   UNL A   1      37.413  31.933  34.427  1.00  0.00     0.016 A 
ATOM     10  S   UNL A   1      35.904  34.071  34.559  1.00  0.00    -0.108 S 
ATOM     11  C   UNL A   1      37.047  33.025  35.370  1.00  0.00     0.128 A 
ATOM     12  C   UNL A   1      38.710  31.622  34.641  1.00  0.00    -0.040 C 
ATOM     13  N   UNL A   1      37.505  33.248  36.550  1.00  0.00    -0.202 NA
ATOM     14  C   UNL A   1      38.951  31.251  36.096  1.00  0.00     0.135 C 
ATOM     15  C   UNL A   1      38.474  32.378  37.019  1.00  0.00     0.251 C 
ATOM     16  O   UNL A   1      38.943  32.469  38.150  1.00  0.00    -0.272 OA
BRANCH  12  17
ATOM     17  C   UNL A   1      39.908  32.429  34.125  1.00  0.00     0.110 C 
BRANCH  17  18
ATOM     18  S   UNL A   1      39.555  33.798  33.026  1.00  0.00    -0.081 SA
BRANCH  18  19
ATOM     19  C   UNL A   1      41.130  34.496  32.851  1.00  0.00     0.195 A 
ATOM     20  N   UNL A   1      41.747  34.646  31.700  1.00  0.00    -0.123 NA
ATOM     21  N   UNL A   1      41.810  35.170  33.851  1.00  0.00    -0.277 N 
ATOM     22  N   UNL A   1      42.826  35.463  31.904  1.00  0.00    -0.138 NA
ATOM     23  C   UNL A   1      42.840  35.786  33.176  1.00  0.00     0.231 A 
BRANCH  21  24
ATOM     24  C   UNL A   1      41.485  35.335  35.224  1.00  0.00     0.049 A 
ATOM     25  C   UNL A   1      42.159  34.614  36.220  1.00  0.00     0.027 A 
ATOM     26  C   UNL A   1      40.411  36.164  35.581  1.00  0.00     0.027 A 
ATOM     27  C   UNL A   1      41.719  34.661  37.542  1.00  0.00     0.002 A 
ATOM     28  C   UNL A   1      39.970  36.199  36.905  1.00  0.00     0.002 A 
ATOM     29  C   UNL A   1      40.623  35.447  37.881  1.00  0.00     0.000 A 
ENDBRANCH  21  24
ENDBRANCH  18  19
ENDBRANCH  17  18
ENDBRANCH  12  17
ENDBRANCH   4   6
ENDBRANCH   3   4
ENDBRANCH   2   3
ENDBRANCH   1   2
BRANCH   1  30
ATOM     30  O   UNL A   1      33.617  35.702  29.458  1.00  0.00    -0.374 OA
BRANCH  30  31
ATOM     31  C   UNL A   1      33.287  34.542  28.710  1.00  0.00     0.202 C 
BRANCH  31  32
ATOM     32  C   UNL A   1      34.343  33.932  27.798  1.00  0.00     0.261 C 
BRANCH  32  33
ATOM     33  O   UNL A   1      35.316  33.141  28.471  1.00  0.00    -0.460 OA
BRANCH  33  34
ATOM     34  C   UNL A   1      35.290  31.839  28.088  1.00  0.00     0.338 C 
ATOM     35  O   UNL A   1      34.427  31.279  27.441  1.00  0.00    -0.246 OA
BRANCH  34  36
ATOM     36  C   UNL A   1      36.383  31.123  28.755  1.00  0.00     0.060 A 
ATOM     37  C   UNL A   1      37.461  31.892  29.197  1.00  0.00     0.016 A 
ATOM     38  C   UNL A   1      36.451  29.724  28.678  1.00  0.00     0.016 A 
ATOM     39  C   UNL A   1      38.671  31.267  29.400  1.00  0.00     0.010 A 
ATOM     40  C   UNL A   1      37.665  29.104  28.866  1.00  0.00     0.010 A 
ATOM     41  C   UNL A   1      38.775  29.890  29.158  1.00  0.00    -0.014 A 
BRANCH  41  42
ATOM     42  C   UNL A   1      40.049  29.252  29.418  1.00  0.00     0.031 A 
ATOM     43  C   UNL A   1      40.352  29.242  30.867  1.00  0.00     0.074 A 
ATOM     44  C   UNL A   1      40.794  28.655  28.467  1.00  0.00     0.049 A 
ATOM     45  N   UNL A   1      41.257  29.932  31.474  1.00  0.00    -0.248 NA
ATOM     46  C   UNL A   1      39.408  28.561  31.771  1.00  0.00     0.031 C 
ATOM     47  C   UNL A   1      40.427  28.415  27.068  1.00  0.00     0.029 A 
ATOM     48  N   UNL A   1      42.014  28.053  28.569  1.00  0.00    -0.354 N 
ATOM     49  C   UNL A   1      41.160  29.559  32.810  1.00  0.00     0.074 A 
ATOM     50  C   UNL A   1      39.890  28.907  32.967  1.00  0.00     0.031 C 
ATOM     51  C   UNL A   1      41.294  27.531  26.522  1.00  0.00     0.029 A 
ATOM     52  C   UNL A   1      42.348  27.250  27.481  1.00  0.00     0.049 A 
ATOM     53  H   UNL A   1      42.607  28.175  29.346  1.00  0.00     0.167 HD
ATOM     54  C   UNL A   1      42.285  29.492  33.570  1.00  0.00     0.037 A 
ATOM     55  C   UNL A   1      43.400  26.394  27.400  1.00  0.00     0.037 A 
ATOM     56  C   UNL A   1      43.355  30.242  32.962  1.00  0.00     0.049 A 
ATOM     57  C   UNL A   1      44.386  26.811  28.419  1.00  0.00     0.074 A 
ATOM     58  C   UNL A   1      43.621  31.569  32.702  1.00  0.00     0.029 A 
ATOM     59  N   UNL A   1      44.149  29.498  32.130  1.00  0.00    -0.354 N 
ATOM     60  N   UNL A   1      45.092  27.901  28.333  1.00  0.00    -0.248 NA
ATOM     61  C   UNL A   1      44.351  26.193  29.739  1.00  0.00     0.031 C 
ATOM     62  C   UNL A   1      44.430  31.583  31.524  1.00  0.00     0.029 A 
ATOM     63  C   UNL A   1      44.682  30.269  31.135  1.00  0.00     0.049 A 
ATOM     64  H   UNL A   1      44.313  28.533  32.236  1.00  0.00     0.167 HD
ATOM     65  C   UNL A   1      45.188  28.348  29.636  1.00  0.00     0.074 A 
ATOM     66  C   UNL A   1      44.894  27.179  30.458  1.00  0.00     0.031 C 
ATOM     67  C   UNL A   1      45.170  29.686  29.905  1.00  0.00     0.037 A 
BRANCH  54  68
ATOM     68  C   UNL A   1      42.568  28.336  34.508  1.00  0.00     0.057 A 
ATOM     69  C   UNL A   1      42.719  27.046  33.972  1.00  0.00     0.134 A 
ATOM     70  C   UNL A   1      42.385  28.381  35.908  1.00  0.00     0.134 A 
ATOM     71  F   UNL A   1      42.851  26.864  32.649  1.00  0.00    -0.206 F 
ATOM     72  C   UNL A   1      42.653  25.892  34.765  1.00  0.00     0.040 A 
ATOM     73  C   UNL A   1      42.371  27.242  36.714  1.00  0.00     0.040 A 
ATOM     74  F   UNL A   1      42.097  29.512  36.563  1.00  0.00    -0.206 F 
ATOM     75  C   UNL A   1      42.479  25.988  36.141  1.00  0.00     0.006 A 
ENDBRANCH  54  68
BRANCH  55  76
ATOM     76  C   UNL A   1      43.552  25.115  26.670  1.00  0.00     0.057 A 
ATOM     77  C   UNL A   1      42.771  23.993  27.001  1.00  0.00     0.134 A 
ATOM     78  C   UNL A   1      44.229  25.053  25.442  1.00  0.00     0.134 A 
ATOM     79  F   UNL A   1      42.063  23.966  28.139  1.00  0.00    -0.206 F 
ATOM     80  C   UNL A   1      42.632  22.898  26.138  1.00  0.00     0.040 A 
ATOM     81  C   UNL A   1      44.101  23.962  24.573  1.00  0.00     0.040 A 
ATOM     82  F   UNL A   1      44.955  26.089  25.001  1.00  0.00    -0.206 F 
ATOM     83  C   UNL A   1      43.285  22.889  24.910  1.00  0.00     0.006 A 
ENDBRANCH  55  76
BRANCH  67  84
ATOM     84  C   UNL A   1      45.543  30.606  28.778  1.00  0.00     0.057 A 
ATOM     85  C   UNL A   1      46.857  30.930  28.404  1.00  0.00     0.134 A 
ATOM     86  C   UNL A   1      44.512  31.161  28.013  1.00  0.00     0.134 A 
ATOM     87  F   UNL A   1      47.911  30.379  29.019  1.00  0.00    -0.206 F 
ATOM     88  C   UNL A   1      47.123  31.819  27.357  1.00  0.00     0.040 A 
ATOM     89  C   UNL A   1      44.765  32.018  26.941  1.00  0.00     0.040 A 
ATOM     90  F   UNL A   1      43.232  30.860  28.284  1.00  0.00    -0.206 F 
ATOM     91  C   UNL A   1      46.075  32.364  26.622  1.00  0.00     0.006 A 
ENDBRANCH  67  84
ENDBRANCH  41  42
ENDBRANCH  34  36
ENDBRANCH  33  34
ENDBRANCH  32  33
ENDBRANCH  31  32
ENDBRANCH  30  31
ENDBRANCH   1  30
TORSDOF 18
ENDMDL
