MODEL 1
REMARK VINA RESULT:     -10.5      0.000      0.000
REMARK SMILES CCSc1cccc(-c2ccc([C@@H](C)C(=O)OCCOCCOC(=O)c3ccc(-c4c5nc(c(-c6c(F)cccc6F)c6ccc([nH]6)c(-c6c(F)cccc6F)c6nc(c(-c7c(F)cccc7F)c7ccc4[nH]7)C=C6)C=C5)cc3)cc2)c1
REMARK SMILES IDX 19 1 18 2 17 3 15 4 16 5 13 6 14 7 12 8 9 9 10 10 81 11
REMARK SMILES IDX 11 12 80 13 8 14 4 15 5 16 82 17 6 18 7 19 3 20 2 21 1 22
REMARK SMILES IDX 20 23 21 24 22 25 23 26 24 27 25 28 26 29 27 30 79 31 28 32
REMARK SMILES IDX 78 33 29 34 30 35 31 36 72 37 32 38 77 39 71 40 73 41 33 42
REMARK SMILES IDX 76 43 70 44 69 45 34 47 60 48 43 49 59 50 44 51 47 52 58 53
REMARK SMILES IDX 74 54 45 55 46 56 57 58 75 59 48 60 35 61 36 62 41 63 37 64
REMARK SMILES IDX 38 65 40 66 42 67 39 68 61 69 62 70 67 71 63 72 64 73 66 74
REMARK SMILES IDX 68 75 65 76 49 77 50 78 55 79 51 80 52 81 54 82 56 83 53 84
REMARK H PARENT 73 46 47 57
REMARK Flexibility Score: inf
ROOT
ATOM      1  C   UNL A   1      31.265  27.480  24.703  1.00  0.00     0.202 C 
ENDROOT
BRANCH   1   2
ATOM      2  C   UNL A   1      32.006  27.589  23.369  1.00  0.00     0.261 C 
BRANCH   2   3
ATOM      3  O   UNL A   1      31.790  26.419  22.557  1.00  0.00    -0.463 OA
BRANCH   3   4
ATOM      4  C   UNL A   1      32.908  25.781  22.122  1.00  0.00     0.313 C 
ATOM      5  O   UNL A   1      33.760  26.292  21.400  1.00  0.00    -0.252 OA
BRANCH   4   6
ATOM      6  C   UNL A   1      32.999  24.328  22.563  1.00  0.00     0.126 C 
ATOM      7  C   UNL A   1      31.651  23.900  23.141  1.00  0.00     0.025 C 
BRANCH   6   8
ATOM      8  C   UNL A   1      34.160  23.926  23.468  1.00  0.00    -0.034 A 
ATOM      9  C   UNL A   1      36.462  23.429  25.079  1.00  0.00    -0.018 A 
ATOM     10  C   UNL A   1      36.231  22.718  23.889  1.00  0.00     0.009 A 
ATOM     11  C   UNL A   1      35.485  24.348  25.482  1.00  0.00     0.009 A 
ATOM     12  C   UNL A   1      35.104  22.963  23.094  1.00  0.00     0.005 A 
ATOM     13  C   UNL A   1      34.354  24.594  24.690  1.00  0.00     0.005 A 
BRANCH   9  14
ATOM     14  C   UNL A   1      37.726  23.264  25.824  1.00  0.00    -0.017 A 
ATOM     15  C   UNL A   1      39.666  21.942  26.519  1.00  0.00     0.008 A 
ATOM     16  C   UNL A   1      40.164  23.042  27.222  1.00  0.00     0.015 A 
ATOM     17  C   UNL A   1      38.457  22.061  25.815  1.00  0.00     0.023 A 
ATOM     18  C   UNL A   1      39.441  24.230  27.270  1.00  0.00     0.002 A 
ATOM     19  C   UNL A   1      38.233  24.336  26.580  1.00  0.00     0.009 A 
BRANCH  15  20
ATOM     20  S   UNL A   1      40.615  20.434  26.418  1.00  0.00    -0.126 SA
BRANCH  20  21
ATOM     21  C   UNL A   1      42.266  21.001  26.968  1.00  0.00     0.071 C 
ATOM     22  C   UNL A   1      43.196  21.373  25.825  1.00  0.00     0.016 C 
ENDBRANCH  20  21
ENDBRANCH  15  20
ENDBRANCH   9  14
ENDBRANCH   6   8
ENDBRANCH   4   6
ENDBRANCH   3   4
ENDBRANCH   2   3
ENDBRANCH   1   2
BRANCH   1  23
ATOM     23  O   UNL A   1      32.084  27.297  25.857  1.00  0.00    -0.374 OA
BRANCH  23  24
ATOM     24  C   UNL A   1      31.719  28.018  27.035  1.00  0.00     0.202 C 
BRANCH  24  25
ATOM     25  C   UNL A   1      31.656  29.544  26.900  1.00  0.00     0.261 C 
BRANCH  25  26
ATOM     26  O   UNL A   1      32.908  30.102  26.464  1.00  0.00    -0.460 OA
BRANCH  26  27
ATOM     27  C   UNL A   1      33.284  31.239  27.090  1.00  0.00     0.338 C 
ATOM     28  O   UNL A   1      32.604  32.236  27.298  1.00  0.00    -0.246 OA
BRANCH  27  29
ATOM     29  C   UNL A   1      34.623  31.062  27.679  1.00  0.00     0.060 A 
ATOM     30  C   UNL A   1      34.985  29.772  28.093  1.00  0.00     0.016 A 
ATOM     31  C   UNL A   1      35.489  32.139  27.875  1.00  0.00     0.016 A 
ATOM     32  C   UNL A   1      36.207  29.560  28.727  1.00  0.00     0.010 A 
ATOM     33  C   UNL A   1      36.710  31.925  28.524  1.00  0.00     0.010 A 
ATOM     34  C   UNL A   1      37.066  30.640  28.971  1.00  0.00    -0.014 A 
BRANCH  34  35
ATOM     35  C   UNL A   1      38.292  30.441  29.780  1.00  0.00     0.031 A 
ATOM     36  C   UNL A   1      39.423  29.625  29.218  1.00  0.00     0.074 A 
ATOM     37  C   UNL A   1      38.399  30.988  31.004  1.00  0.00     0.049 A 
ATOM     38  N   UNL A   1      40.550  29.274  29.781  1.00  0.00    -0.248 NA
ATOM     39  C   UNL A   1      39.261  29.144  27.838  1.00  0.00     0.031 C 
ATOM     40  C   UNL A   1      37.391  31.834  31.640  1.00  0.00     0.029 A 
ATOM     41  N   UNL A   1      39.404  30.901  31.933  1.00  0.00    -0.354 N 
ATOM     42  C   UNL A   1      41.231  28.527  28.829  1.00  0.00     0.074 A 
ATOM     43  C   UNL A   1      40.382  28.458  27.659  1.00  0.00     0.031 C 
ATOM     44  C   UNL A   1      37.820  32.172  32.868  1.00  0.00     0.029 A 
ATOM     45  C   UNL A   1      39.114  31.538  33.115  1.00  0.00     0.049 A 
ATOM     46  H   UNL A   1      40.250  30.425  31.771  1.00  0.00     0.167 HD
ATOM     47  C   UNL A   1      42.455  27.957  28.921  1.00  0.00     0.037 A 
ATOM     48  C   UNL A   1      39.801  31.580  34.273  1.00  0.00     0.037 A 
ATOM     49  C   UNL A   1      43.300  28.026  30.084  1.00  0.00     0.049 A 
ATOM     50  C   UNL A   1      41.117  30.858  34.381  1.00  0.00     0.074 A 
ATOM     51  C   UNL A   1      44.572  27.509  30.258  1.00  0.00     0.029 A 
ATOM     52  N   UNL A   1      42.950  28.640  31.277  1.00  0.00    -0.354 N 
ATOM     53  N   UNL A   1      41.767  30.180  33.465  1.00  0.00    -0.248 NA
ATOM     54  C   UNL A   1      41.793  30.899  35.687  1.00  0.00     0.031 C 
ATOM     55  C   UNL A   1      44.973  27.767  31.573  1.00  0.00     0.029 A 
ATOM     56  C   UNL A   1      43.967  28.483  32.204  1.00  0.00     0.049 A 
ATOM     57  H   UNL A   1      42.105  29.117  31.441  1.00  0.00     0.167 HD
ATOM     58  C   UNL A   1      42.930  29.730  34.076  1.00  0.00     0.074 A 
ATOM     59  C   UNL A   1      42.907  30.225  35.437  1.00  0.00     0.031 C 
ATOM     60  C   UNL A   1      43.928  28.975  33.557  1.00  0.00     0.037 A 
BRANCH  47  61
ATOM     61  C   UNL A   1      42.950  27.184  27.735  1.00  0.00     0.057 A 
ATOM     62  C   UNL A   1      42.841  25.790  27.664  1.00  0.00     0.134 A 
ATOM     63  C   UNL A   1      43.501  27.849  26.633  1.00  0.00     0.134 A 
ATOM     64  F   UNL A   1      42.332  25.094  28.692  1.00  0.00    -0.206 F 
ATOM     65  C   UNL A   1      43.278  25.082  26.542  1.00  0.00     0.040 A 
ATOM     66  C   UNL A   1      43.923  27.154  25.498  1.00  0.00     0.040 A 
ATOM     67  F   UNL A   1      43.629  29.184  26.636  1.00  0.00    -0.206 F 
ATOM     68  C   UNL A   1      43.815  25.765  25.452  1.00  0.00     0.006 A 
ENDBRANCH  47  61
BRANCH  48  69
ATOM     69  C   UNL A   1      39.240  32.300  35.443  1.00  0.00     0.057 A 
ATOM     70  C   UNL A   1      39.519  33.652  35.665  1.00  0.00     0.134 A 
ATOM     71  C   UNL A   1      38.430  31.645  36.379  1.00  0.00     0.134 A 
ATOM     72  F   UNL A   1      40.310  34.327  34.818  1.00  0.00    -0.206 F 
ATOM     73  C   UNL A   1      39.023  34.326  36.783  1.00  0.00     0.040 A 
ATOM     74  C   UNL A   1      37.908  32.312  37.488  1.00  0.00     0.040 A 
ATOM     75  F   UNL A   1      38.128  30.347  36.222  1.00  0.00    -0.206 F 
ATOM     76  C   UNL A   1      38.211  33.656  37.696  1.00  0.00     0.006 A 
ENDBRANCH  48  69
BRANCH  60  77
ATOM     77  C   UNL A   1      45.082  28.644  34.456  1.00  0.00     0.057 A 
ATOM     78  C   UNL A   1      46.184  29.500  34.580  1.00  0.00     0.134 A 
ATOM     79  C   UNL A   1      45.071  27.485  35.242  1.00  0.00     0.134 A 
ATOM     80  F   UNL A   1      46.262  30.619  33.844  1.00  0.00    -0.206 F 
ATOM     81  C   UNL A   1      47.240  29.208  35.445  1.00  0.00     0.040 A 
ATOM     82  C   UNL A   1      46.110  27.193  36.127  1.00  0.00     0.040 A 
ATOM     83  F   UNL A   1      44.041  26.627  35.176  1.00  0.00    -0.206 F 
ATOM     84  C   UNL A   1      47.200  28.055  36.228  1.00  0.00     0.006 A 
ENDBRANCH  60  77
ENDBRANCH  34  35
ENDBRANCH  27  29
ENDBRANCH  26  27
ENDBRANCH  25  26
ENDBRANCH  24  25
ENDBRANCH  23  24
ENDBRANCH   1  23
TORSDOF 18
ENDMDL
MODEL 2
REMARK VINA RESULT:     -10.1      0.742      6.166
REMARK SMILES CCSc1cccc(-c2ccc([C@@H](C)C(=O)OCCOCCOC(=O)c3ccc(-c4c5nc(c(-c6c(F)cccc6F)c6ccc([nH]6)c(-c6c(F)cccc6F)c6nc(c(-c7c(F)cccc7F)c7ccc4[nH]7)C=C6)C=C5)cc3)cc2)c1
REMARK SMILES IDX 19 1 18 2 17 3 15 4 16 5 13 6 14 7 12 8 9 9 10 10 81 11
REMARK SMILES IDX 11 12 80 13 8 14 4 15 5 16 82 17 6 18 7 19 3 20 2 21 1 22
REMARK SMILES IDX 20 23 21 24 22 25 23 26 24 27 25 28 26 29 27 30 79 31 28 32
REMARK SMILES IDX 78 33 29 34 30 35 31 36 72 37 32 38 77 39 71 40 73 41 33 42
REMARK SMILES IDX 76 43 70 44 69 45 34 47 60 48 43 49 59 50 44 51 47 52 58 53
REMARK SMILES IDX 74 54 45 55 46 56 57 58 75 59 48 60 35 61 36 62 41 63 37 64
REMARK SMILES IDX 38 65 40 66 42 67 39 68 61 69 62 70 67 71 63 72 64 73 66 74
REMARK SMILES IDX 68 75 65 76 49 77 50 78 55 79 51 80 52 81 54 82 56 83 53 84
REMARK H PARENT 73 46 47 57
REMARK Flexibility Score: inf
ROOT
ATOM      1  C   UNL A   1      32.193  27.627  24.093  1.00  0.00     0.202 C 
ENDROOT
BRANCH   1   2
ATOM      2  C   UNL A   1      32.025  26.115  24.259  1.00  0.00     0.261 C 
BRANCH   2   3
ATOM      3  O   UNL A   1      31.888  25.465  22.981  1.00  0.00    -0.463 OA
BRANCH   3   4
ATOM      4  C   UNL A   1      33.047  25.139  22.351  1.00  0.00     0.313 C 
ATOM      5  O   UNL A   1      33.682  25.904  21.630  1.00  0.00    -0.252 OA
BRANCH   4   6
ATOM      6  C   UNL A   1      33.481  23.697  22.566  1.00  0.00     0.126 C 
ATOM      7  C   UNL A   1      32.257  22.862  22.940  1.00  0.00     0.025 C 
BRANCH   6   8
ATOM      8  C   UNL A   1      34.657  23.435  23.502  1.00  0.00    -0.034 A 
ATOM      9  C   UNL A   1      36.912  23.238  25.240  1.00  0.00    -0.018 A 
ATOM     10  C   UNL A   1      36.963  22.773  23.914  1.00  0.00     0.009 A 
ATOM     11  C   UNL A   1      35.689  23.743  25.700  1.00  0.00     0.009 A 
ATOM     12  C   UNL A   1      35.859  22.873  23.058  1.00  0.00     0.005 A 
ATOM     13  C   UNL A   1      34.580  23.842  24.846  1.00  0.00     0.005 A 
BRANCH   9  14
ATOM     14  C   UNL A   1      38.125  23.262  26.079  1.00  0.00    -0.017 A 
ATOM     15  C   UNL A   1      40.133  22.207  27.003  1.00  0.00     0.008 A 
ATOM     16  C   UNL A   1      40.460  23.400  27.653  1.00  0.00     0.015 A 
ATOM     17  C   UNL A   1      38.975  22.147  26.211  1.00  0.00     0.023 A 
ATOM     18  C   UNL A   1      39.618  24.503  27.561  1.00  0.00     0.002 A 
ATOM     19  C   UNL A   1      38.462  24.431  26.785  1.00  0.00     0.009 A 
BRANCH  15  20
ATOM     20  S   UNL A   1      41.237  20.808  27.081  1.00  0.00    -0.126 SA
BRANCH  20  21
ATOM     21  C   UNL A   1      42.872  21.621  26.968  1.00  0.00     0.071 C 
ATOM     22  C   UNL A   1      43.579  21.389  25.642  1.00  0.00     0.016 C 
ENDBRANCH  20  21
ENDBRANCH  15  20
ENDBRANCH   9  14
ENDBRANCH   6   8
ENDBRANCH   4   6
ENDBRANCH   3   4
ENDBRANCH   2   3
ENDBRANCH   1   2
BRANCH   1  23
ATOM     23  O   UNL A   1      31.020  28.410  24.308  1.00  0.00    -0.374 OA
BRANCH  23  24
ATOM     24  C   UNL A   1      31.183  29.650  24.998  1.00  0.00     0.202 C 
BRANCH  24  25
ATOM     25  C   UNL A   1      32.607  29.984  25.460  1.00  0.00     0.261 C 
BRANCH  25  26
ATOM     26  O   UNL A   1      32.681  30.186  26.882  1.00  0.00    -0.460 OA
BRANCH  26  27
ATOM     27  C   UNL A   1      33.253  31.347  27.272  1.00  0.00     0.338 C 
ATOM     28  O   UNL A   1      32.725  32.449  27.353  1.00  0.00    -0.246 OA
BRANCH  27  29
ATOM     29  C   UNL A   1      34.610  31.085  27.784  1.00  0.00     0.060 A 
ATOM     30  C   UNL A   1      34.930  29.765  28.132  1.00  0.00     0.016 A 
ATOM     31  C   UNL A   1      35.537  32.113  27.972  1.00  0.00     0.016 A 
ATOM     32  C   UNL A   1      36.170  29.472  28.693  1.00  0.00     0.010 A 
ATOM     33  C   UNL A   1      36.777  31.817  28.549  1.00  0.00     0.010 A 
ATOM     34  C   UNL A   1      37.092  30.500  28.930  1.00  0.00    -0.014 A 
BRANCH  34  35
ATOM     35  C   UNL A   1      38.346  30.213  29.666  1.00  0.00     0.031 A 
ATOM     36  C   UNL A   1      38.529  30.756  31.055  1.00  0.00     0.074 A 
ATOM     37  C   UNL A   1      39.313  29.468  29.100  1.00  0.00     0.049 A 
ATOM     38  N   UNL A   1      39.570  30.679  31.844  1.00  0.00    -0.248 NA
ATOM     39  C   UNL A   1      37.386  31.479  31.632  1.00  0.00     0.031 C 
ATOM     40  C   UNL A   1      39.237  28.849  27.778  1.00  0.00     0.029 A 
ATOM     41  N   UNL A   1      40.554  29.117  29.567  1.00  0.00    -0.354 N 
ATOM     42  C   UNL A   1      39.211  31.347  33.007  1.00  0.00     0.074 A 
ATOM     43  C   UNL A   1      37.865  31.840  32.814  1.00  0.00     0.031 C 
ATOM     44  C   UNL A   1      40.393  28.210  27.530  1.00  0.00     0.029 A 
ATOM     45  C   UNL A   1      41.300  28.405  28.660  1.00  0.00     0.049 A 
ATOM     46  H   UNL A   1      40.880  29.354  30.466  1.00  0.00     0.167 HD
ATOM     47  C   UNL A   1      39.938  31.526  34.136  1.00  0.00     0.037 A 
ATOM     48  C   UNL A   1      42.578  27.986  28.722  1.00  0.00     0.037 A 
ATOM     49  C   UNL A   1      41.277  31.034  34.328  1.00  0.00     0.049 A 
ATOM     50  C   UNL A   1      43.397  28.279  29.951  1.00  0.00     0.074 A 
ATOM     51  C   UNL A   1      42.080  31.136  35.450  1.00  0.00     0.029 A 
ATOM     52  N   UNL A   1      42.015  30.360  33.368  1.00  0.00    -0.354 N 
ATOM     53  N   UNL A   1      43.039  28.884  31.058  1.00  0.00    -0.248 NA
ATOM     54  C   UNL A   1      44.800  27.839  29.936  1.00  0.00     0.031 C 
ATOM     55  C   UNL A   1      43.322  30.567  35.153  1.00  0.00     0.029 A 
ATOM     56  C   UNL A   1      43.278  30.072  33.859  1.00  0.00     0.049 A 
ATOM     57  H   UNL A   1      41.690  30.121  32.470  1.00  0.00     0.167 HD
ATOM     58  C   UNL A   1      44.163  28.883  31.874  1.00  0.00     0.074 A 
ATOM     59  C   UNL A   1      45.211  28.203  31.143  1.00  0.00     0.031 C 
ATOM     60  C   UNL A   1      44.313  29.400  33.118  1.00  0.00     0.037 A 
BRANCH  47  61
ATOM     61  C   UNL A   1      39.307  32.308  35.248  1.00  0.00     0.057 A 
ATOM     62  C   UNL A   1      38.600  31.684  36.283  1.00  0.00     0.134 A 
ATOM     63  C   UNL A   1      39.448  33.701  35.306  1.00  0.00     0.134 A 
ATOM     64  F   UNL A   1      38.420  30.355  36.278  1.00  0.00    -0.206 F 
ATOM     65  C   UNL A   1      38.041  32.420  37.330  1.00  0.00     0.040 A 
ATOM     66  C   UNL A   1      38.911  34.444  36.359  1.00  0.00     0.040 A 
ATOM     67  F   UNL A   1      40.118  34.358  34.349  1.00  0.00    -0.206 F 
ATOM     68  C   UNL A   1      38.201  33.803  37.373  1.00  0.00     0.006 A 
ENDBRANCH  47  61
BRANCH  48  69
ATOM     69  C   UNL A   1      43.183  27.274  27.569  1.00  0.00     0.057 A 
ATOM     70  C   UNL A   1      43.310  25.881  27.560  1.00  0.00     0.134 A 
ATOM     71  C   UNL A   1      43.669  27.974  26.457  1.00  0.00     0.134 A 
ATOM     72  F   UNL A   1      42.886  25.158  28.607  1.00  0.00    -0.206 F 
ATOM     73  C   UNL A   1      43.909  25.209  26.493  1.00  0.00     0.040 A 
ATOM     74  C   UNL A   1      44.250  27.314  25.374  1.00  0.00     0.040 A 
ATOM     75  F   UNL A   1      43.580  29.312  26.408  1.00  0.00    -0.206 F 
ATOM     76  C   UNL A   1      44.377  25.926  25.393  1.00  0.00     0.006 A 
ENDBRANCH  48  69
BRANCH  60  77
ATOM     77  C   UNL A   1      45.653  29.242  33.773  1.00  0.00     0.057 A 
ATOM     78  C   UNL A   1      46.651  30.215  33.648  1.00  0.00     0.134 A 
ATOM     79  C   UNL A   1      45.931  28.130  34.579  1.00  0.00     0.134 A 
ATOM     80  F   UNL A   1      46.453  31.297  32.879  1.00  0.00    -0.206 F 
ATOM     81  C   UNL A   1      47.884  30.083  34.289  1.00  0.00     0.040 A 
ATOM     82  C   UNL A   1      47.150  27.997  35.244  1.00  0.00     0.040 A 
ATOM     83  F   UNL A   1      45.014  27.164  34.747  1.00  0.00    -0.206 F 
ATOM     84  C   UNL A   1      48.133  28.974  35.097  1.00  0.00     0.006 A 
ENDBRANCH  60  77
ENDBRANCH  34  35
ENDBRANCH  27  29
ENDBRANCH  26  27
ENDBRANCH  25  26
ENDBRANCH  24  25
ENDBRANCH  23  24
ENDBRANCH   1  23
TORSDOF 18
ENDMDL
MODEL 3
REMARK VINA RESULT:     -10.1      3.464      8.529
REMARK SMILES CCSc1cccc(-c2ccc([C@@H](C)C(=O)OCCOCCOC(=O)c3ccc(-c4c5nc(c(-c6c(F)cccc6F)c6ccc([nH]6)c(-c6c(F)cccc6F)c6nc(c(-c7c(F)cccc7F)c7ccc4[nH]7)C=C6)C=C5)cc3)cc2)c1
REMARK SMILES IDX 19 1 18 2 17 3 15 4 16 5 13 6 14 7 12 8 9 9 10 10 81 11
REMARK SMILES IDX 11 12 80 13 8 14 4 15 5 16 82 17 6 18 7 19 3 20 2 21 1 22
REMARK SMILES IDX 20 23 21 24 22 25 23 26 24 27 25 28 26 29 27 30 79 31 28 32
REMARK SMILES IDX 78 33 29 34 30 35 31 36 72 37 32 38 77 39 71 40 73 41 33 42
REMARK SMILES IDX 76 43 70 44 69 45 34 47 60 48 43 49 59 50 44 51 47 52 58 53
REMARK SMILES IDX 74 54 45 55 46 56 57 58 75 59 48 60 35 61 36 62 41 63 37 64
REMARK SMILES IDX 38 65 40 66 42 67 39 68 61 69 62 70 67 71 63 72 64 73 66 74
REMARK SMILES IDX 68 75 65 76 49 77 50 78 55 79 51 80 52 81 54 82 56 83 53 84
REMARK H PARENT 73 46 47 57
REMARK Flexibility Score: inf
ROOT
ATOM      1  C   UNL A   1      45.123  21.645  25.697  1.00  0.00     0.202 C 
ENDROOT
BRANCH   1   2
ATOM      2  C   UNL A   1      43.635  21.597  25.341  1.00  0.00     0.261 C 
BRANCH   2   3
ATOM      3  O   UNL A   1      43.032  20.371  25.793  1.00  0.00    -0.463 OA
BRANCH   3   4
ATOM      4  C   UNL A   1      42.245  20.465  26.896  1.00  0.00     0.313 C 
ATOM      5  O   UNL A   1      41.903  19.509  27.586  1.00  0.00    -0.252 OA
BRANCH   4   6
ATOM      6  C   UNL A   1      41.758  21.876  27.186  1.00  0.00     0.126 C 
ATOM      7  C   UNL A   1      42.039  22.208  28.650  1.00  0.00     0.025 C 
BRANCH   6   8
ATOM      8  C   UNL A   1      40.330  22.237  26.785  1.00  0.00    -0.034 A 
ATOM      9  C   UNL A   1      37.760  22.926  25.753  1.00  0.00    -0.018 A 
ATOM     10  C   UNL A   1      38.533  23.850  26.477  1.00  0.00     0.009 A 
ATOM     11  C   UNL A   1      38.270  21.629  25.612  1.00  0.00     0.009 A 
ATOM     12  C   UNL A   1      39.796  23.516  26.980  1.00  0.00     0.005 A 
ATOM     13  C   UNL A   1      39.534  21.290  26.117  1.00  0.00     0.005 A 
BRANCH   9  14
ATOM     14  C   UNL A   1      36.501  23.338  25.103  1.00  0.00    -0.017 A 
ATOM     15  C   UNL A   1      34.362  24.529  25.101  1.00  0.00     0.008 A 
ATOM     16  C   UNL A   1      34.145  24.139  23.778  1.00  0.00     0.015 A 
ATOM     17  C   UNL A   1      35.542  24.138  25.753  1.00  0.00     0.023 A 
ATOM     18  C   UNL A   1      35.064  23.322  23.128  1.00  0.00     0.002 A 
ATOM     19  C   UNL A   1      36.228  22.924  23.787  1.00  0.00     0.009 A 
BRANCH  15  20
ATOM     20  S   UNL A   1      33.206  25.616  25.919  1.00  0.00    -0.126 SA
BRANCH  20  21
ATOM     21  C   UNL A   1      33.513  27.199  25.055  1.00  0.00     0.071 C 
ATOM     22  C   UNL A   1      33.583  28.399  25.985  1.00  0.00     0.016 C 
ENDBRANCH  20  21
ENDBRANCH  15  20
ENDBRANCH   9  14
ENDBRANCH   6   8
ENDBRANCH   4   6
ENDBRANCH   3   4
ENDBRANCH   2   3
ENDBRANCH   1   2
BRANCH   1  23
ATOM     23  O   UNL A   1      46.013  21.918  24.615  1.00  0.00    -0.374 OA
BRANCH  23  24
ATOM     24  C   UNL A   1      46.342  23.286  24.372  1.00  0.00     0.202 C 
BRANCH  24  25
ATOM     25  C   UNL A   1      46.023  24.269  25.505  1.00  0.00     0.261 C 
BRANCH  25  26
ATOM     26  O   UNL A   1      45.287  25.414  25.038  1.00  0.00    -0.460 OA
BRANCH  26  27
ATOM     27  C   UNL A   1      43.949  25.355  25.219  1.00  0.00     0.338 C 
ATOM     28  O   UNL A   1      43.133  24.731  24.552  1.00  0.00    -0.246 OA
BRANCH  27  29
ATOM     29  C   UNL A   1      43.589  26.019  26.484  1.00  0.00     0.060 A 
ATOM     30  C   UNL A   1      42.687  25.359  27.331  1.00  0.00     0.016 A 
ATOM     31  C   UNL A   1      44.079  27.284  26.816  1.00  0.00     0.016 A 
ATOM     32  C   UNL A   1      42.252  25.974  28.503  1.00  0.00     0.010 A 
ATOM     33  C   UNL A   1      43.629  27.904  27.987  1.00  0.00     0.010 A 
ATOM     34  C   UNL A   1      42.700  27.262  28.824  1.00  0.00    -0.014 A 
BRANCH  34  35
ATOM     35  C   UNL A   1      42.121  27.976  29.988  1.00  0.00     0.031 A 
ATOM     36  C   UNL A   1      40.877  28.800  29.804  1.00  0.00     0.074 A 
ATOM     37  C   UNL A   1      42.697  27.885  31.200  1.00  0.00     0.049 A 
ATOM     38  N   UNL A   1      40.248  29.554  30.669  1.00  0.00    -0.248 NA
ATOM     39  C   UNL A   1      40.262  28.769  28.469  1.00  0.00     0.031 C 
ATOM     40  C   UNL A   1      43.878  27.084  31.514  1.00  0.00     0.029 A 
ATOM     41  N   UNL A   1      42.368  28.484  32.389  1.00  0.00    -0.354 N 
ATOM     42  C   UNL A   1      39.166  30.090  29.985  1.00  0.00     0.074 A 
ATOM     43  C   UNL A   1      39.235  29.593  28.628  1.00  0.00     0.031 C 
ATOM     44  C   UNL A   1      44.189  27.258  32.811  1.00  0.00     0.029 A 
ATOM     45  C   UNL A   1      43.250  28.208  33.404  1.00  0.00     0.049 A 
ATOM     46  H   UNL A   1      41.576  29.059  32.503  1.00  0.00     0.167 HD
ATOM     47  C   UNL A   1      38.200  30.917  30.449  1.00  0.00     0.037 A 
ATOM     48  C   UNL A   1      43.311  28.691  34.660  1.00  0.00     0.037 A 
ATOM     49  C   UNL A   1      38.131  31.411  31.799  1.00  0.00     0.049 A 
ATOM     50  C   UNL A   1      42.278  29.683  35.125  1.00  0.00     0.074 A 
ATOM     51  C   UNL A   1      37.170  32.226  32.372  1.00  0.00     0.029 A 
ATOM     52  N   UNL A   1      39.070  31.147  32.784  1.00  0.00    -0.354 N 
ATOM     53  N   UNL A   1      41.242  30.161  34.480  1.00  0.00    -0.248 NA
ATOM     54  C   UNL A   1      42.429  30.211  36.489  1.00  0.00     0.031 C 
ATOM     55  C   UNL A   1      37.552  32.495  33.689  1.00  0.00     0.029 A 
ATOM     56  C   UNL A   1      38.731  31.813  33.950  1.00  0.00     0.049 A 
ATOM     57  H   UNL A   1      39.861  30.572  32.671  1.00  0.00     0.167 HD
ATOM     58  C   UNL A   1      40.609  31.029  35.361  1.00  0.00     0.074 A 
ATOM     59  C   UNL A   1      41.370  31.001  36.594  1.00  0.00     0.031 C 
ATOM     60  C   UNL A   1      39.500  31.782  35.167  1.00  0.00     0.037 A 
BRANCH  47  61
ATOM     61  C   UNL A   1      37.145  31.362  29.480  1.00  0.00     0.057 A 
ATOM     62  C   UNL A   1      36.036  30.563  29.176  1.00  0.00     0.134 A 
ATOM     63  C   UNL A   1      37.220  32.625  28.879  1.00  0.00     0.134 A 
ATOM     64  F   UNL A   1      35.913  29.339  29.711  1.00  0.00    -0.206 F 
ATOM     65  C   UNL A   1      35.045  30.999  28.295  1.00  0.00     0.040 A 
ATOM     66  C   UNL A   1      36.224  33.079  28.012  1.00  0.00     0.040 A 
ATOM     67  F   UNL A   1      38.254  33.440  29.132  1.00  0.00    -0.206 F 
ATOM     68  C   UNL A   1      35.134  32.263  27.715  1.00  0.00     0.006 A 
ENDBRANCH  47  61
BRANCH  48  69
ATOM     69  C   UNL A   1      44.413  28.275  35.563  1.00  0.00     0.057 A 
ATOM     70  C   UNL A   1      44.289  27.156  36.392  1.00  0.00     0.134 A 
ATOM     71  C   UNL A   1      45.608  29.002  35.634  1.00  0.00     0.134 A 
ATOM     72  F   UNL A   1      43.158  26.434  36.389  1.00  0.00    -0.206 F 
ATOM     73  C   UNL A   1      45.308  26.780  37.269  1.00  0.00     0.040 A 
ATOM     74  C   UNL A   1      46.644  28.625  36.488  1.00  0.00     0.040 A 
ATOM     75  F   UNL A   1      45.786  30.088  34.865  1.00  0.00    -0.206 F 
ATOM     76  C   UNL A   1      46.493  27.513  37.314  1.00  0.00     0.006 A 
ENDBRANCH  48  69
BRANCH  60  77
ATOM     77  C   UNL A   1      39.032  32.628  36.313  1.00  0.00     0.057 A 
ATOM     78  C   UNL A   1      38.156  32.130  37.285  1.00  0.00     0.134 A 
ATOM     79  C   UNL A   1      39.500  33.939  36.475  1.00  0.00     0.134 A 
ATOM     80  F   UNL A   1      37.660  30.887  37.179  1.00  0.00    -0.206 F 
ATOM     81  C   UNL A   1      37.751  32.908  38.370  1.00  0.00     0.040 A 
ATOM     82  C   UNL A   1      39.120  34.719  37.568  1.00  0.00     0.040 A 
ATOM     83  F   UNL A   1      40.348  34.474  35.584  1.00  0.00    -0.206 F 
ATOM     84  C   UNL A   1      38.240  34.205  38.518  1.00  0.00     0.006 A 
ENDBRANCH  60  77
ENDBRANCH  34  35
ENDBRANCH  27  29
ENDBRANCH  26  27
ENDBRANCH  25  26
ENDBRANCH  24  25
ENDBRANCH  23  24
ENDBRANCH   1  23
TORSDOF 18
ENDMDL
