MODEL 1
REMARK VINA RESULT:     -10.4      0.000      0.000
REMARK SMILES [NH3+][C@]1(C(=O)OCCOCCOC(=O)c2ccc(-c3c4nc(c(-c5c(F)cccc5F)c5ccc([nH]5)c(-c5c(F)cccc5F)c5nc(c(-c6c(F)cccc6F)c6ccc3[nH]6)C=C5)C=C4)cc2)CCC[C@@H](Oc2ccc3c(c2)CCC3)C1
REMARK SMILES IDX 8 1 7 2 6 3 5 4 3 5 4 6 2 7 68 8 82 9 69 10 71 11 70 12 1 13
REMARK SMILES IDX 72 17 73 18 74 19 78 20 75 21 77 22 76 23 79 24 81 25 80 26
REMARK SMILES IDX 9 27 10 28 11 29 12 30 13 31 14 32 15 33 67 34 16 35 66 36
REMARK SMILES IDX 17 37 18 38 19 39 60 40 20 41 65 42 59 43 61 44 21 45 64 46
REMARK SMILES IDX 58 47 57 48 22 50 48 51 31 52 47 53 32 54 35 55 46 56 62 57
REMARK SMILES IDX 33 58 34 59 45 61 63 62 36 63 23 64 24 65 29 66 25 67 26 68
REMARK SMILES IDX 28 69 30 70 27 71 49 72 50 73 55 74 51 75 52 76 54 77 56 78
REMARK SMILES IDX 53 79 37 80 38 81 43 82 39 83 40 84 42 85 44 86 41 87
REMARK H PARENT 1 14 1 15 1 16 61 49 35 60
REMARK Flexibility Score: inf
ROOT
ATOM      1  O   UNL A   1      42.623  18.813  27.481  1.00  0.00    -0.374 OA
ENDROOT
BRANCH   1   2
ATOM      2  C   UNL A   1      42.651  18.336  26.119  1.00  0.00     0.202 C 
BRANCH   2   3
ATOM      3  C   UNL A   1      43.905  18.611  25.250  1.00  0.00     0.261 C 
BRANCH   3   4
ATOM      4  O   UNL A   1      44.111  20.043  25.138  1.00  0.00    -0.459 OA
BRANCH   4   5
ATOM      5  C   UNL A   1      45.253  20.575  24.582  1.00  0.00     0.368 C 
ATOM      6  O   UNL A   1      46.281  19.941  24.395  1.00  0.00    -0.245 OA
BRANCH   5   7
ATOM      7  C   UNL A   1      44.984  22.117  24.122  1.00  0.00     0.196 C 
ATOM      8  C   UNL A   1      43.794  22.834  24.867  1.00  0.00     0.081 C 
ATOM      9  C   UNL A   1      46.312  22.935  24.192  1.00  0.00     0.126 C 
ATOM     10  C   UNL A   1      43.970  24.268  25.439  1.00  0.00     0.011 C 
ATOM     11  C   UNL A   1      46.441  24.029  25.283  1.00  0.00     0.180 C 
ATOM     12  C   UNL A   1      45.275  24.978  25.140  1.00  0.00     0.046 C 
BRANCH   7  13
ATOM     13  N   UNL A   1      44.513  21.993  22.714  1.00  0.00    -0.343 N 
ATOM     14  H   UNL A   1      43.548  22.317  22.649  1.00  0.00     0.345 HD
ATOM     15  H   UNL A   1      44.564  21.017  22.423  1.00  0.00     0.345 HD
ATOM     16  H   UNL A   1      45.104  22.562  22.107  1.00  0.00     0.345 HD
ENDBRANCH   7  13
BRANCH  11  17
ATOM     17  O   UNL A   1      46.788  23.796  26.668  1.00  0.00    -0.490 OA
BRANCH  17  18
ATOM     18  C   UNL A   1      46.141  24.302  27.763  1.00  0.00     0.120 A 
ATOM     19  C   UNL A   1      46.708  25.339  28.505  1.00  0.00     0.047 A 
ATOM     20  C   UNL A   1      45.105  23.616  28.359  1.00  0.00     0.050 A 
ATOM     21  C   UNL A   1      46.254  25.622  29.819  1.00  0.00     0.008 A 
ATOM     22  C   UNL A   1      44.624  23.884  29.616  1.00  0.00    -0.041 A 
ATOM     23  C   UNL A   1      45.240  24.854  30.377  1.00  0.00    -0.045 A 
ATOM     24  C   UNL A   1      43.552  23.162  30.368  1.00  0.00     0.036 C 
ATOM     25  C   UNL A   1      44.683  24.804  31.769  1.00  0.00     0.036 C 
ATOM     26  C   UNL A   1      44.050  23.394  31.791  1.00  0.00     0.010 C 
ENDBRANCH  17  18
ENDBRANCH  11  17
ENDBRANCH   5   7
ENDBRANCH   4   5
ENDBRANCH   3   4
ENDBRANCH   2   3
ENDBRANCH   1   2
BRANCH   1  27
ATOM     27  C   UNL A   1      41.677  19.848  27.759  1.00  0.00     0.202 C 
BRANCH  27  28
ATOM     28  C   UNL A   1      41.158  20.769  26.638  1.00  0.00     0.261 C 
BRANCH  28  29
ATOM     29  O   UNL A   1      41.043  22.111  27.085  1.00  0.00    -0.460 OA
BRANCH  29  30
ATOM     30  C   UNL A   1      39.993  22.735  26.500  1.00  0.00     0.338 C 
ATOM     31  O   UNL A   1      39.074  22.241  25.887  1.00  0.00    -0.246 OA
BRANCH  30  32
ATOM     32  C   UNL A   1      39.984  24.101  27.025  1.00  0.00     0.060 A 
ATOM     33  C   UNL A   1      40.351  25.100  26.119  1.00  0.00     0.016 A 
ATOM     34  C   UNL A   1      39.555  24.400  28.322  1.00  0.00     0.016 A 
ATOM     35  C   UNL A   1      40.382  26.414  26.538  1.00  0.00     0.010 A 
ATOM     36  C   UNL A   1      39.592  25.723  28.748  1.00  0.00     0.010 A 
ATOM     37  C   UNL A   1      40.067  26.711  27.870  1.00  0.00    -0.014 A 
BRANCH  37  38
ATOM     38  C   UNL A   1      40.515  28.011  28.386  1.00  0.00     0.031 A 
ATOM     39  C   UNL A   1      41.985  28.303  28.325  1.00  0.00     0.074 A 
ATOM     40  C   UNL A   1      39.616  28.929  28.770  1.00  0.00     0.049 A 
ATOM     41  N   UNL A   1      42.630  29.383  28.669  1.00  0.00    -0.248 NA
ATOM     42  C   UNL A   1      42.848  27.230  27.795  1.00  0.00     0.031 C 
ATOM     43  C   UNL A   1      38.166  28.738  28.778  1.00  0.00     0.029 A 
ATOM     44  N   UNL A   1      39.796  30.209  29.209  1.00  0.00    -0.354 N 
ATOM     45  C   UNL A   1      43.966  29.120  28.398  1.00  0.00     0.074 A 
ATOM     46  C   UNL A   1      44.051  27.770  27.895  1.00  0.00     0.031 C 
ATOM     47  C   UNL A   1      37.585  29.869  29.210  1.00  0.00     0.029 A 
ATOM     48  C   UNL A   1      38.625  30.840  29.539  1.00  0.00     0.049 A 
ATOM     49  H   UNL A   1      40.679  30.638  29.280  1.00  0.00     0.167 HD
ATOM     50  C   UNL A   1      45.026  29.945  28.555  1.00  0.00     0.037 A 
ATOM     51  C   UNL A   1      38.434  32.059  30.074  1.00  0.00     0.037 A 
ATOM     52  C   UNL A   1      44.908  31.285  29.060  1.00  0.00     0.049 A 
ATOM     53  C   UNL A   1      39.640  32.923  30.324  1.00  0.00     0.074 A 
ATOM     54  C   UNL A   1      45.903  32.220  29.263  1.00  0.00     0.029 A 
ATOM     55  N   UNL A   1      43.712  31.872  29.451  1.00  0.00    -0.354 N 
ATOM     56  N   UNL A   1      40.903  32.677  30.062  1.00  0.00    -0.248 NA
ATOM     57  C   UNL A   1      39.399  34.231  30.942  1.00  0.00     0.031 C 
ATOM     58  C   UNL A   1      45.318  33.352  29.839  1.00  0.00     0.029 A 
ATOM     59  C   UNL A   1      43.949  33.146  29.934  1.00  0.00     0.049 A 
ATOM     60  H   UNL A   1      42.827  31.445  29.393  1.00  0.00     0.167 HD
ATOM     61  C   UNL A   1      41.605  33.804  30.467  1.00  0.00     0.074 A 
ATOM     62  C   UNL A   1      40.621  34.743  30.969  1.00  0.00     0.031 C 
ATOM     63  C   UNL A   1      42.940  34.047  30.432  1.00  0.00     0.037 A 
BRANCH  50  64
ATOM     64  C   UNL A   1      46.385  29.403  28.227  1.00  0.00     0.057 A 
ATOM     65  C   UNL A   1      46.881  29.363  26.917  1.00  0.00     0.134 A 
ATOM     66  C   UNL A   1      47.217  28.922  29.246  1.00  0.00     0.134 A 
ATOM     67  F   UNL A   1      46.127  29.782  25.890  1.00  0.00    -0.206 F 
ATOM     68  C   UNL A   1      48.150  28.853  26.632  1.00  0.00     0.040 A 
ATOM     69  C   UNL A   1      48.497  28.436  28.978  1.00  0.00     0.040 A 
ATOM     70  F   UNL A   1      46.800  28.922  30.522  1.00  0.00    -0.206 F 
ATOM     71  C   UNL A   1      48.965  28.395  27.667  1.00  0.00     0.006 A 
ENDBRANCH  50  64
BRANCH  51  72
ATOM     72  C   UNL A   1      37.066  32.505  30.437  1.00  0.00     0.057 A 
ATOM     73  C   UNL A   1      36.251  33.185  29.528  1.00  0.00     0.134 A 
ATOM     74  C   UNL A   1      36.541  32.257  31.713  1.00  0.00     0.134 A 
ATOM     75  F   UNL A   1      36.699  33.466  28.296  1.00  0.00    -0.206 F 
ATOM     76  C   UNL A   1      34.971  33.621  29.879  1.00  0.00     0.040 A 
ATOM     77  C   UNL A   1      35.254  32.661  32.068  1.00  0.00     0.040 A 
ATOM     78  F   UNL A   1      37.270  31.604  32.631  1.00  0.00    -0.206 F 
ATOM     79  C   UNL A   1      34.467  33.353  31.150  1.00  0.00     0.006 A 
ENDBRANCH  51  72
BRANCH  63  80
ATOM     80  C   UNL A   1      43.398  35.382  30.938  1.00  0.00     0.057 A 
ATOM     81  C   UNL A   1      43.716  35.591  32.286  1.00  0.00     0.134 A 
ATOM     82  C   UNL A   1      43.564  36.458  30.057  1.00  0.00     0.134 A 
ATOM     83  F   UNL A   1      43.568  34.603  33.181  1.00  0.00    -0.206 F 
ATOM     84  C   UNL A   1      44.155  36.833  32.745  1.00  0.00     0.040 A 
ATOM     85  C   UNL A   1      44.035  37.694  30.499  1.00  0.00     0.040 A 
ATOM     86  F   UNL A   1      43.291  36.320  28.751  1.00  0.00    -0.206 F 
ATOM     87  C   UNL A   1      44.323  37.886  31.848  1.00  0.00     0.006 A 
ENDBRANCH  63  80
ENDBRANCH  37  38
ENDBRANCH  30  32
ENDBRANCH  29  30
ENDBRANCH  28  29
ENDBRANCH  27  28
ENDBRANCH   1  27
TORSDOF 17
ENDMDL
MODEL 2
REMARK VINA RESULT:     -10.3      5.976     11.498
REMARK SMILES [NH3+][C@]1(C(=O)OCCOCCOC(=O)c2ccc(-c3c4nc(c(-c5c(F)cccc5F)c5ccc([nH]5)c(-c5c(F)cccc5F)c5nc(c(-c6c(F)cccc6F)c6ccc3[nH]6)C=C5)C=C4)cc2)CCC[C@@H](Oc2ccc3c(c2)CCC3)C1
REMARK SMILES IDX 8 1 7 2 6 3 5 4 3 5 4 6 2 7 68 8 82 9 69 10 71 11 70 12 1 13
REMARK SMILES IDX 72 17 73 18 74 19 78 20 75 21 77 22 76 23 79 24 81 25 80 26
REMARK SMILES IDX 9 27 10 28 11 29 12 30 13 31 14 32 15 33 67 34 16 35 66 36
REMARK SMILES IDX 17 37 18 38 19 39 60 40 20 41 65 42 59 43 61 44 21 45 64 46
REMARK SMILES IDX 58 47 57 48 22 50 48 51 31 52 47 53 32 54 35 55 46 56 62 57
REMARK SMILES IDX 33 58 34 59 45 61 63 62 36 63 23 64 24 65 29 66 25 67 26 68
REMARK SMILES IDX 28 69 30 70 27 71 49 72 50 73 55 74 51 75 52 76 54 77 56 78
REMARK SMILES IDX 53 79 37 80 38 81 43 82 39 83 40 84 42 85 44 86 41 87
REMARK H PARENT 1 14 1 15 1 16 61 49 35 60
REMARK Flexibility Score: inf
ROOT
ATOM      1  O   UNL A   1      32.523  29.696  26.198  1.00  0.00    -0.374 OA
ENDROOT
BRANCH   1   2
ATOM      2  C   UNL A   1      32.141  28.652  27.118  1.00  0.00     0.202 C 
BRANCH   2   3
ATOM      3  C   UNL A   1      31.413  27.396  26.573  1.00  0.00     0.261 C 
BRANCH   3   4
ATOM      4  O   UNL A   1      32.280  26.240  26.704  1.00  0.00    -0.459 OA
BRANCH   4   5
ATOM      5  C   UNL A   1      31.842  24.964  26.427  1.00  0.00     0.368 C 
ATOM      6  O   UNL A   1      30.751  24.528  26.764  1.00  0.00    -0.245 OA
BRANCH   5   7
ATOM      7  C   UNL A   1      32.939  24.185  25.505  1.00  0.00     0.196 C 
ATOM      8  C   UNL A   1      32.433  22.834  24.869  1.00  0.00     0.081 C 
ATOM      9  C   UNL A   1      33.532  25.162  24.440  1.00  0.00     0.126 C 
ATOM     10  C   UNL A   1      32.684  22.525  23.366  1.00  0.00     0.011 C 
ATOM     11  C   UNL A   1      33.165  24.931  22.951  1.00  0.00     0.180 C 
ATOM     12  C   UNL A   1      33.532  23.511  22.589  1.00  0.00     0.046 C 
BRANCH   7  13
ATOM     13  N   UNL A   1      33.987  23.763  26.476  1.00  0.00    -0.343 N 
ATOM     14  H   UNL A   1      34.887  24.155  26.196  1.00  0.00     0.345 HD
ATOM     15  H   UNL A   1      34.049  22.745  26.488  1.00  0.00     0.345 HD
ATOM     16  H   UNL A   1      33.744  24.102  27.406  1.00  0.00     0.345 HD
ENDBRANCH   7  13
BRANCH  11  17
ATOM     17  O   UNL A   1      31.939  25.356  22.313  1.00  0.00    -0.490 OA
BRANCH  17  18
ATOM     18  C   UNL A   1      31.022  26.235  22.822  1.00  0.00     0.120 A 
ATOM     19  C   UNL A   1      29.922  25.773  23.545  1.00  0.00     0.047 A 
ATOM     20  C   UNL A   1      30.961  27.539  22.378  1.00  0.00     0.050 A 
ATOM     21  C   UNL A   1      28.793  26.605  23.758  1.00  0.00     0.008 A 
ATOM     22  C   UNL A   1      29.895  28.378  22.592  1.00  0.00    -0.041 A 
ATOM     23  C   UNL A   1      28.778  27.893  23.235  1.00  0.00    -0.045 A 
ATOM     24  C   UNL A   1      29.710  29.779  22.102  1.00  0.00     0.036 C 
ATOM     25  C   UNL A   1      27.686  28.917  23.149  1.00  0.00     0.036 C 
ATOM     26  C   UNL A   1      28.189  29.799  21.985  1.00  0.00     0.010 C 
ENDBRANCH  17  18
ENDBRANCH  11  17
ENDBRANCH   5   7
ENDBRANCH   4   5
ENDBRANCH   3   4
ENDBRANCH   2   3
ENDBRANCH   1   2
BRANCH   1  27
ATOM     27  C   UNL A   1      31.606  30.785  26.076  1.00  0.00     0.202 C 
BRANCH  27  28
ATOM     28  C   UNL A   1      31.885  32.137  26.762  1.00  0.00     0.261 C 
BRANCH  28  29
ATOM     29  O   UNL A   1      32.824  31.996  27.816  1.00  0.00    -0.460 OA
BRANCH  29  30
ATOM     30  C   UNL A   1      33.677  33.047  27.856  1.00  0.00     0.338 C 
ATOM     31  O   UNL A   1      33.411  34.227  27.900  1.00  0.00    -0.246 OA
BRANCH  30  32
ATOM     32  C   UNL A   1      34.994  32.495  28.176  1.00  0.00     0.060 A 
ATOM     33  C   UNL A   1      35.055  31.103  28.291  1.00  0.00     0.016 A 
ATOM     34  C   UNL A   1      36.135  33.296  28.278  1.00  0.00     0.016 A 
ATOM     35  C   UNL A   1      36.257  30.503  28.605  1.00  0.00     0.010 A 
ATOM     36  C   UNL A   1      37.346  32.693  28.601  1.00  0.00     0.010 A 
ATOM     37  C   UNL A   1      37.382  31.307  28.824  1.00  0.00    -0.014 A 
BRANCH  37  38
ATOM     38  C   UNL A   1      38.501  30.702  29.558  1.00  0.00     0.031 A 
ATOM     39  C   UNL A   1      38.644  31.062  31.007  1.00  0.00     0.074 A 
ATOM     40  C   UNL A   1      39.267  29.772  28.970  1.00  0.00     0.049 A 
ATOM     41  N   UNL A   1      39.509  30.635  31.885  1.00  0.00    -0.248 NA
ATOM     42  C   UNL A   1      37.672  32.034  31.543  1.00  0.00     0.031 C 
ATOM     43  C   UNL A   1      39.129  29.316  27.587  1.00  0.00     0.029 A 
ATOM     44  N   UNL A   1      40.300  29.034  29.473  1.00  0.00    -0.354 N 
ATOM     45  C   UNL A   1      39.186  31.283  33.070  1.00  0.00     0.074 A 
ATOM     46  C   UNL A   1      38.071  32.158  32.798  1.00  0.00     0.031 C 
ATOM     47  C   UNL A   1      40.056  28.373  27.350  1.00  0.00     0.029 A 
ATOM     48  C   UNL A   1      40.866  28.192  28.552  1.00  0.00     0.049 A 
ATOM     49  H   UNL A   1      40.608  29.099  30.406  1.00  0.00     0.167 HD
ATOM     50  C   UNL A   1      39.774  31.148  34.280  1.00  0.00     0.037 A 
ATOM     51  C   UNL A   1      41.938  27.389  28.674  1.00  0.00     0.037 A 
ATOM     52  C   UNL A   1      40.885  30.268  34.517  1.00  0.00     0.049 A 
ATOM     53  C   UNL A   1      42.631  27.328  30.008  1.00  0.00     0.074 A 
ATOM     54  C   UNL A   1      41.567  30.040  35.697  1.00  0.00     0.029 A 
ATOM     55  N   UNL A   1      41.480  29.477  33.544  1.00  0.00    -0.354 N 
ATOM     56  N   UNL A   1      42.323  27.935  31.130  1.00  0.00    -0.248 NA
ATOM     57  C   UNL A   1      43.819  26.471  30.096  1.00  0.00     0.031 C 
ATOM     58  C   UNL A   1      42.618  29.160  35.421  1.00  0.00     0.029 A 
ATOM     59  C   UNL A   1      42.550  28.788  34.086  1.00  0.00     0.049 A 
ATOM     60  H   UNL A   1      41.185  29.416  32.607  1.00  0.00     0.167 HD
ATOM     61  C   UNL A   1      43.265  27.523  32.062  1.00  0.00     0.074 A 
ATOM     62  C   UNL A   1      44.142  26.593  31.376  1.00  0.00     0.031 C 
ATOM     63  C   UNL A   1      43.403  27.877  33.365  1.00  0.00     0.037 A 
BRANCH  50  64
ATOM     64  C   UNL A   1      39.262  32.001  35.402  1.00  0.00     0.057 A 
ATOM     65  C   UNL A   1      38.337  31.527  36.342  1.00  0.00     0.134 A 
ATOM     66  C   UNL A   1      39.715  33.318  35.551  1.00  0.00     0.134 A 
ATOM     67  F   UNL A   1      37.841  30.285  36.243  1.00  0.00    -0.206 F 
ATOM     68  C   UNL A   1      37.870  32.338  37.379  1.00  0.00     0.040 A 
ATOM     69  C   UNL A   1      39.278  34.128  36.600  1.00  0.00     0.040 A 
ATOM     70  F   UNL A   1      40.594  33.838  34.681  1.00  0.00    -0.206 F 
ATOM     71  C   UNL A   1      38.349  33.640  37.515  1.00  0.00     0.006 A 
ENDBRANCH  50  64
BRANCH  51  72
ATOM     72  C   UNL A   1      42.432  26.626  27.502  1.00  0.00     0.057 A 
ATOM     73  C   UNL A   1      42.035  25.306  27.266  1.00  0.00     0.134 A 
ATOM     74  C   UNL A   1      43.320  27.204  26.585  1.00  0.00     0.134 A 
ATOM     75  F   UNL A   1      41.198  24.690  28.113  1.00  0.00    -0.206 F 
ATOM     76  C   UNL A   1      42.517  24.583  26.172  1.00  0.00     0.040 A 
ATOM     77  C   UNL A   1      43.787  26.504  25.473  1.00  0.00     0.040 A 
ATOM     78  F   UNL A   1      43.737  28.469  26.751  1.00  0.00    -0.206 F 
ATOM     79  C   UNL A   1      43.390  25.185  25.269  1.00  0.00     0.006 A 
ENDBRANCH  51  72
BRANCH  63  80
ATOM     80  C   UNL A   1      44.531  27.243  34.123  1.00  0.00     0.057 A 
ATOM     81  C   UNL A   1      45.762  27.889  34.291  1.00  0.00     0.134 A 
ATOM     82  C   UNL A   1      44.366  25.991  34.728  1.00  0.00     0.134 A 
ATOM     83  F   UNL A   1      45.985  29.086  33.727  1.00  0.00    -0.206 F 
ATOM     84  C   UNL A   1      46.801  27.297  35.010  1.00  0.00     0.040 A 
ATOM     85  C   UNL A   1      45.385  25.405  35.478  1.00  0.00     0.040 A 
ATOM     86  F   UNL A   1      43.206  25.326  34.617  1.00  0.00    -0.206 F 
ATOM     87  C   UNL A   1      46.610  26.055  35.612  1.00  0.00     0.006 A 
ENDBRANCH  63  80
ENDBRANCH  37  38
ENDBRANCH  30  32
ENDBRANCH  29  30
ENDBRANCH  28  29
ENDBRANCH  27  28
ENDBRANCH   1  27
TORSDOF 17
ENDMDL
MODEL 3
REMARK VINA RESULT:     -10.3      6.173     10.696
REMARK SMILES [NH3+][C@]1(C(=O)OCCOCCOC(=O)c2ccc(-c3c4nc(c(-c5c(F)cccc5F)c5ccc([nH]5)c(-c5c(F)cccc5F)c5nc(c(-c6c(F)cccc6F)c6ccc3[nH]6)C=C5)C=C4)cc2)CCC[C@@H](Oc2ccc3c(c2)CCC3)C1
REMARK SMILES IDX 8 1 7 2 6 3 5 4 3 5 4 6 2 7 68 8 82 9 69 10 71 11 70 12 1 13
REMARK SMILES IDX 72 17 73 18 74 19 78 20 75 21 77 22 76 23 79 24 81 25 80 26
REMARK SMILES IDX 9 27 10 28 11 29 12 30 13 31 14 32 15 33 67 34 16 35 66 36
REMARK SMILES IDX 17 37 18 38 19 39 60 40 20 41 65 42 59 43 61 44 21 45 64 46
REMARK SMILES IDX 58 47 57 48 22 50 48 51 31 52 47 53 32 54 35 55 46 56 62 57
REMARK SMILES IDX 33 58 34 59 45 61 63 62 36 63 23 64 24 65 29 66 25 67 26 68
REMARK SMILES IDX 28 69 30 70 27 71 49 72 50 73 55 74 51 75 52 76 54 77 56 78
REMARK SMILES IDX 53 79 37 80 38 81 43 82 39 83 40 84 42 85 44 86 41 87
REMARK H PARENT 1 14 1 15 1 16 61 49 35 60
REMARK Flexibility Score: inf
ROOT
ATOM      1  O   UNL A   1      32.445  30.696  26.936  1.00  0.00    -0.374 OA
ENDROOT
BRANCH   1   2
ATOM      2  C   UNL A   1      31.844  29.385  26.891  1.00  0.00     0.202 C 
BRANCH   2   3
ATOM      3  C   UNL A   1      32.741  28.137  27.097  1.00  0.00     0.261 C 
BRANCH   3   4
ATOM      4  O   UNL A   1      32.527  27.203  26.007  1.00  0.00    -0.459 OA
BRANCH   4   5
ATOM      5  C   UNL A   1      32.121  25.906  26.227  1.00  0.00     0.368 C 
ATOM      6  O   UNL A   1      31.150  25.600  26.904  1.00  0.00    -0.245 OA
BRANCH   5   7
ATOM      7  C   UNL A   1      33.052  24.876  25.372  1.00  0.00     0.196 C 
ATOM      8  C   UNL A   1      32.346  23.528  24.959  1.00  0.00     0.081 C 
ATOM      9  C   UNL A   1      33.686  25.617  24.151  1.00  0.00     0.126 C 
ATOM     10  C   UNL A   1      32.457  22.991  23.505  1.00  0.00     0.011 C 
ATOM     11  C   UNL A   1      33.195  25.237  22.731  1.00  0.00     0.180 C 
ATOM     12  C   UNL A   1      33.364  23.746  22.555  1.00  0.00     0.046 C 
BRANCH   7  13
ATOM     13  N   UNL A   1      34.104  24.457  26.340  1.00  0.00    -0.343 N 
ATOM     14  H   UNL A   1      34.845  25.158  26.361  1.00  0.00     0.345 HD
ATOM     15  H   UNL A   1      34.494  23.560  26.051  1.00  0.00     0.345 HD
ATOM     16  H   UNL A   1      33.694  24.368  27.269  1.00  0.00     0.345 HD
ENDBRANCH   7  13
BRANCH  11  17
ATOM     17  O   UNL A   1      31.990  25.727  22.100  1.00  0.00    -0.490 OA
BRANCH  17  18
ATOM     18  C   UNL A   1      31.030  26.509  22.683  1.00  0.00     0.120 A 
ATOM     19  C   UNL A   1      29.995  25.931  23.419  1.00  0.00     0.047 A 
ATOM     20  C   UNL A   1      30.854  27.823  22.305  1.00  0.00     0.050 A 
ATOM     21  C   UNL A   1      28.815  26.663  23.711  1.00  0.00     0.008 A 
ATOM     22  C   UNL A   1      29.738  28.568  22.597  1.00  0.00    -0.041 A 
ATOM     23  C   UNL A   1      28.685  27.968  23.253  1.00  0.00    -0.045 A 
ATOM     24  C   UNL A   1      29.430  29.971  22.184  1.00  0.00     0.036 C 
ATOM     25  C   UNL A   1      27.516  28.909  23.255  1.00  0.00     0.036 C 
ATOM     26  C   UNL A   1      27.908  29.881  22.119  1.00  0.00     0.010 C 
ENDBRANCH  17  18
ENDBRANCH  11  17
ENDBRANCH   5   7
ENDBRANCH   4   5
ENDBRANCH   3   4
ENDBRANCH   2   3
ENDBRANCH   1   2
BRANCH   1  27
ATOM     27  C   UNL A   1      31.578  31.790  26.628  1.00  0.00     0.202 C 
BRANCH  27  28
ATOM     28  C   UNL A   1      32.009  33.245  26.899  1.00  0.00     0.261 C 
BRANCH  28  29
ATOM     29  O   UNL A   1      32.297  33.449  28.274  1.00  0.00    -0.460 OA
BRANCH  29  30
ATOM     30  C   UNL A   1      33.276  34.371  28.437  1.00  0.00     0.338 C 
ATOM     31  O   UNL A   1      33.167  35.571  28.541  1.00  0.00    -0.246 OA
BRANCH  30  32
ATOM     32  C   UNL A   1      34.483  33.626  28.802  1.00  0.00     0.060 A 
ATOM     33  C   UNL A   1      34.273  32.325  29.267  1.00  0.00     0.016 A 
ATOM     34  C   UNL A   1      35.766  34.150  28.621  1.00  0.00     0.016 A 
ATOM     35  C   UNL A   1      35.357  31.560  29.646  1.00  0.00     0.010 A 
ATOM     36  C   UNL A   1      36.859  33.382  29.009  1.00  0.00     0.010 A 
ATOM     37  C   UNL A   1      36.639  32.117  29.578  1.00  0.00    -0.014 A 
BRANCH  37  38
ATOM     38  C   UNL A   1      37.691  31.466  30.369  1.00  0.00     0.031 A 
ATOM     39  C   UNL A   1      38.568  30.476  29.661  1.00  0.00     0.074 A 
ATOM     40  C   UNL A   1      37.921  31.852  31.632  1.00  0.00     0.049 A 
ATOM     41  N   UNL A   1      39.590  29.802  30.112  1.00  0.00    -0.248 NA
ATOM     42  C   UNL A   1      38.253  30.214  28.243  1.00  0.00     0.031 C 
ATOM     43  C   UNL A   1      37.156  32.868  32.356  1.00  0.00     0.029 A 
ATOM     44  N   UNL A   1      38.875  31.446  32.520  1.00  0.00    -0.354 N 
ATOM     45  C   UNL A   1      40.036  29.042  29.039  1.00  0.00     0.074 A 
ATOM     46  C   UNL A   1      39.160  29.305  27.923  1.00  0.00     0.031 C 
ATOM     47  C   UNL A   1      37.674  33.001  33.588  1.00  0.00     0.029 A 
ATOM     48  C   UNL A   1      38.777  32.056  33.743  1.00  0.00     0.049 A 
ATOM     49  H   UNL A   1      39.568  30.780  32.302  1.00  0.00     0.167 HD
ATOM     50  C   UNL A   1      41.094  28.201  28.998  1.00  0.00     0.037 A 
ATOM     51  C   UNL A   1      39.489  31.842  34.863  1.00  0.00     0.037 A 
ATOM     52  C   UNL A   1      41.948  27.960  30.128  1.00  0.00     0.049 A 
ATOM     53  C   UNL A   1      40.603  30.832  34.815  1.00  0.00     0.074 A 
ATOM     54  C   UNL A   1      43.052  27.134  30.213  1.00  0.00     0.029 A 
ATOM     55  N   UNL A   1      41.779  28.543  31.376  1.00  0.00    -0.354 N 
ATOM     56  N   UNL A   1      41.030  30.118  33.800  1.00  0.00    -0.248 NA
ATOM     57  C   UNL A   1      41.336  30.597  36.065  1.00  0.00     0.031 C 
ATOM     58  C   UNL A   1      43.511  27.167  31.533  1.00  0.00     0.029 A 
ATOM     59  C   UNL A   1      42.735  28.065  32.253  1.00  0.00     0.049 A 
ATOM     60  H   UNL A   1      41.082  29.200  31.603  1.00  0.00     0.167 HD
ATOM     61  C   UNL A   1      42.090  29.362  34.280  1.00  0.00     0.074 A 
ATOM     62  C   UNL A   1      42.256  29.725  35.675  1.00  0.00     0.031 C 
ATOM     63  C   UNL A   1      42.859  28.447  33.637  1.00  0.00     0.037 A 
BRANCH  50  64
ATOM     64  C   UNL A   1      41.343  27.458  27.720  1.00  0.00     0.057 A 
ATOM     65  C   UNL A   1      42.120  27.990  26.681  1.00  0.00     0.134 A 
ATOM     66  C   UNL A   1      40.804  26.179  27.530  1.00  0.00     0.134 A 
ATOM     67  F   UNL A   1      42.644  29.221  26.784  1.00  0.00    -0.206 F 
ATOM     68  C   UNL A   1      42.339  27.283  25.497  1.00  0.00     0.040 A 
ATOM     69  C   UNL A   1      41.040  25.451  26.363  1.00  0.00     0.040 A 
ATOM     70  F   UNL A   1      40.043  25.614  28.480  1.00  0.00    -0.206 F 
ATOM     71  C   UNL A   1      41.804  26.005  25.340  1.00  0.00     0.006 A 
ENDBRANCH  50  64
BRANCH  51  72
ATOM     72  C   UNL A   1      39.143  32.564  36.112  1.00  0.00     0.057 A 
ATOM     73  C   UNL A   1      39.660  33.831  36.394  1.00  0.00     0.134 A 
ATOM     74  C   UNL A   1      38.281  31.995  37.060  1.00  0.00     0.134 A 
ATOM     75  F   UNL A   1      40.501  34.425  35.536  1.00  0.00    -0.206 F 
ATOM     76  C   UNL A   1      39.348  34.500  37.580  1.00  0.00     0.040 A 
ATOM     77  C   UNL A   1      37.938  32.663  38.235  1.00  0.00     0.040 A 
ATOM     78  F   UNL A   1      37.746  30.782  36.848  1.00  0.00    -0.206 F 
ATOM     79  C   UNL A   1      38.479  33.918  38.501  1.00  0.00     0.006 A 
ENDBRANCH  51  72
BRANCH  63  80
ATOM     80  C   UNL A   1      43.949  27.798  34.436  1.00  0.00     0.057 A 
ATOM     81  C   UNL A   1      45.222  28.370  34.551  1.00  0.00     0.134 A 
ATOM     82  C   UNL A   1      43.707  26.608  35.135  1.00  0.00     0.134 A 
ATOM     83  F   UNL A   1      45.519  29.504  33.898  1.00  0.00    -0.206 F 
ATOM     84  C   UNL A   1      46.226  27.766  35.309  1.00  0.00     0.040 A 
ATOM     85  C   UNL A   1      44.692  26.013  35.922  1.00  0.00     0.040 A 
ATOM     86  F   UNL A   1      42.505  26.015  35.079  1.00  0.00    -0.206 F 
ATOM     87  C   UNL A   1      45.958  26.588  36.003  1.00  0.00     0.006 A 
ENDBRANCH  63  80
ENDBRANCH  37  38
ENDBRANCH  30  32
ENDBRANCH  29  30
ENDBRANCH  28  29
ENDBRANCH  27  28
ENDBRANCH   1  27
TORSDOF 17
ENDMDL
