MODEL 1
REMARK VINA RESULT:     -12.2      0.000      0.000
REMARK SMILES O=C(OCCOCCOC(=O)c1ccc(-c2c3nc(c(-c4c(F)cccc4F)c4ccc([nH]4)c(-c4c(F)cccc4F)c4nc(c(-c5c(F)cccc5F)c5ccc2[nH]5)C=C4)C=C3)cc1)C1=Cc2cc(S(F)(F)(F)(F)F)ccc2O[C@@H]1C(F)(F)F
REMARK SMILES IDX 7 1 6 2 5 3 4 4 3 5 2 6 1 7 66 8 67 9 81 10 68 11 80 12
REMARK SMILES IDX 69 13 79 14 70 15 78 16 77 17 82 18 83 19 84 20 85 21 71 22
REMARK SMILES IDX 72 23 73 24 74 25 75 26 76 27 8 28 9 29 10 30 11 31 12 32
REMARK SMILES IDX 13 33 65 34 14 35 64 36 15 37 16 38 17 39 58 40 18 41 63 42
REMARK SMILES IDX 57 43 59 44 19 45 62 46 56 47 55 48 20 50 46 51 29 52 45 53
REMARK SMILES IDX 30 54 33 55 44 56 60 57 31 58 32 59 43 61 61 62 34 63 21 64
REMARK SMILES IDX 22 65 27 66 23 67 24 68 26 69 28 70 25 71 47 72 48 73 53 74
REMARK SMILES IDX 49 75 50 76 52 77 54 78 51 79 35 80 36 81 41 82 37 83 38 84
REMARK SMILES IDX 40 85 42 86 39 87
REMARK H PARENT 59 49 33 60
REMARK Flexibility Score: inf
ROOT
ATOM      1  C   UNL A   1      38.247  19.605  24.957  1.00  0.00     0.202 C 
ENDROOT
BRANCH   1   2
ATOM      2  O   UNL A   1      37.284  20.645  25.044  1.00  0.00    -0.374 OA
BRANCH   2   3
ATOM      3  C   UNL A   1      37.932  21.862  25.385  1.00  0.00     0.202 C 
BRANCH   3   4
ATOM      4  C   UNL A   1      36.889  22.904  25.756  1.00  0.00     0.261 C 
BRANCH   4   5
ATOM      5  O   UNL A   1      36.443  23.566  24.582  1.00  0.00    -0.460 OA
BRANCH   5   6
ATOM      6  C   UNL A   1      35.414  22.991  23.791  1.00  0.00     0.338 C 
ATOM      7  O   UNL A   1      35.522  22.970  22.525  1.00  0.00    -0.246 OA
BRANCH   6   8
ATOM      8  C   UNL A   1      34.182  22.400  24.458  1.00  0.00     0.087 C 
ATOM      9  C   UNL A   1      33.243  23.221  25.000  1.00  0.00     0.027 C 
ATOM     10  C   UNL A   1      34.001  20.892  24.521  1.00  0.00     0.316 C 
ATOM     11  C   UNL A   1      33.424  24.729  24.937  1.00  0.00     0.019 A 
ATOM     12  O   UNL A   1      34.281  24.562  22.727  1.00  0.00    -0.475 OA
ATOM     13  C   UNL A   1      33.108  25.452  26.075  1.00  0.00     0.036 A 
ATOM     14  C   UNL A   1      33.812  25.336  23.821  1.00  0.00     0.128 A 
ATOM     15  C   UNL A   1      32.955  26.840  25.849  1.00  0.00     0.107 A 
ATOM     16  C   UNL A   1      33.766  26.705  23.717  1.00  0.00     0.048 A 
ATOM     17  C   UNL A   1      33.405  27.479  24.785  1.00  0.00     0.028 A 
BRANCH  10  18
ATOM     18  C   UNL A   1      32.719  20.506  23.802  1.00  0.00     0.430 C 
ATOM     19  F   UNL A   1      32.816  19.254  23.363  1.00  0.00    -0.167 F 
ATOM     20  F   UNL A   1      31.693  20.601  24.643  1.00  0.00    -0.167 F 
ATOM     21  F   UNL A   1      32.524  21.323  22.771  1.00  0.00    -0.167 F 
ENDBRANCH  10  18
BRANCH  15  22
ATOM     22  S   UNL A   1      32.083  27.808  27.106  1.00  0.00     0.310 S 
ATOM     23  F   UNL A   1      31.986  29.069  26.150  1.00  0.00    -0.094 F 
ATOM     24  F   UNL A   1      33.472  28.370  27.592  1.00  0.00    -0.094 F 
ATOM     25  F   UNL A   1      31.336  28.643  28.184  1.00  0.00    -0.094 F 
ATOM     26  F   UNL A   1      30.694  27.344  26.515  1.00  0.00    -0.094 F 
ATOM     27  F   UNL A   1      32.821  27.043  25.935  1.00  0.00    -0.094 F 
ENDBRANCH  15  22
ENDBRANCH   6   8
ENDBRANCH   5   6
ENDBRANCH   4   5
ENDBRANCH   3   4
ENDBRANCH   2   3
ENDBRANCH   1   2
BRANCH   1  28
ATOM     28  C   UNL A   1      39.421  19.923  25.869  1.00  0.00     0.261 C 
BRANCH  28  29
ATOM     29  O   UNL A   1      40.423  18.929  25.713  1.00  0.00    -0.460 OA
BRANCH  29  30
ATOM     30  C   UNL A   1      41.778  19.234  26.011  1.00  0.00     0.338 C 
ATOM     31  O   UNL A   1      42.669  18.333  25.912  1.00  0.00    -0.246 OA
BRANCH  30  32
ATOM     32  C   UNL A   1      42.163  20.638  26.448  1.00  0.00     0.060 A 
ATOM     33  C   UNL A   1      42.074  20.932  27.798  1.00  0.00     0.016 A 
ATOM     34  C   UNL A   1      42.473  21.573  25.558  1.00  0.00     0.016 A 
ATOM     35  C   UNL A   1      42.048  22.317  28.082  1.00  0.00     0.010 A 
ATOM     36  C   UNL A   1      42.565  22.893  25.931  1.00  0.00     0.010 A 
ATOM     37  C   UNL A   1      42.430  23.262  27.241  1.00  0.00    -0.014 A 
BRANCH  37  38
ATOM     38  C   UNL A   1      42.703  24.684  27.704  1.00  0.00     0.031 A 
ATOM     39  C   UNL A   1      41.660  25.586  27.925  1.00  0.00     0.074 A 
ATOM     40  C   UNL A   1      44.036  24.969  27.944  1.00  0.00     0.049 A 
ATOM     41  N   UNL A   1      41.745  26.823  28.416  1.00  0.00    -0.248 NA
ATOM     42  C   UNL A   1      40.246  25.297  27.640  1.00  0.00     0.031 C 
ATOM     43  C   UNL A   1      45.092  24.061  27.732  1.00  0.00     0.029 A 
ATOM     44  N   UNL A   1      44.578  26.145  28.414  1.00  0.00    -0.354 N 
ATOM     45  C   UNL A   1      40.531  27.370  28.499  1.00  0.00     0.074 A 
ATOM     46  C   UNL A   1      39.550  26.399  27.995  1.00  0.00     0.031 C 
ATOM     47  C   UNL A   1      46.255  24.685  28.059  1.00  0.00     0.029 A 
ATOM     48  C   UNL A   1      45.945  25.991  28.482  1.00  0.00     0.049 A 
ATOM     49  H   UNL A   1      44.075  26.954  28.660  1.00  0.00     0.167 HD
ATOM     50  C   UNL A   1      40.202  28.640  28.976  1.00  0.00     0.037 A 
ATOM     51  C   UNL A   1      46.885  26.927  28.884  1.00  0.00     0.037 A 
ATOM     52  C   UNL A   1      41.139  29.560  29.420  1.00  0.00     0.049 A 
ATOM     53  C   UNL A   1      46.562  28.219  29.307  1.00  0.00     0.074 A 
ATOM     54  C   UNL A   1      40.824  30.842  29.912  1.00  0.00     0.029 A 
ATOM     55  N   UNL A   1      42.508  29.416  29.464  1.00  0.00    -0.354 N 
ATOM     56  N   UNL A   1      45.345  28.751  29.426  1.00  0.00    -0.248 NA
ATOM     57  C   UNL A   1      47.552  29.228  29.704  1.00  0.00     0.031 C 
ATOM     58  C   UNL A   1      41.987  31.465  30.239  1.00  0.00     0.029 A 
ATOM     59  C   UNL A   1      43.047  30.583  29.956  1.00  0.00     0.049 A 
ATOM     60  H   UNL A   1      43.013  28.616  29.190  1.00  0.00     0.167 HD
ATOM     61  C   UNL A   1      45.434  30.003  29.879  1.00  0.00     0.074 A 
ATOM     62  C   UNL A   1      46.854  30.332  30.057  1.00  0.00     0.031 C 
ATOM     63  C   UNL A   1      44.387  30.885  30.154  1.00  0.00     0.037 A 
BRANCH  50  64
ATOM     64  C   UNL A   1      38.735  29.036  29.013  1.00  0.00     0.057 A 
ATOM     65  C   UNL A   1      38.197  29.580  27.857  1.00  0.00     0.134 A 
ATOM     66  C   UNL A   1      37.975  28.776  30.069  1.00  0.00     0.134 A 
ATOM     67  F   UNL A   1      38.854  29.622  26.701  1.00  0.00    -0.206 F 
ATOM     68  C   UNL A   1      36.886  30.086  28.018  1.00  0.00     0.040 A 
ATOM     69  C   UNL A   1      36.662  29.180  30.104  1.00  0.00     0.040 A 
ATOM     70  F   UNL A   1      38.489  28.117  31.105  1.00  0.00    -0.206 F 
ATOM     71  C   UNL A   1      36.081  29.778  29.019  1.00  0.00     0.006 A 
ENDBRANCH  50  64
BRANCH  51  72
ATOM     72  C   UNL A   1      48.351  26.525  28.863  1.00  0.00     0.057 A 
ATOM     73  C   UNL A   1      49.110  26.741  27.725  1.00  0.00     0.134 A 
ATOM     74  C   UNL A   1      48.845  25.871  29.908  1.00  0.00     0.134 A 
ATOM     75  F   UNL A   1      48.757  27.594  26.769  1.00  0.00    -0.206 F 
ATOM     76  C   UNL A   1      50.296  25.970  27.673  1.00  0.00     0.040 A 
ATOM     77  C   UNL A   1      50.072  25.256  29.831  1.00  0.00     0.040 A 
ATOM     78  F   UNL A   1      48.148  25.811  31.039  1.00  0.00    -0.206 F 
ATOM     79  C   UNL A   1      50.851  25.377  28.714  1.00  0.00     0.006 A 
ENDBRANCH  51  72
BRANCH  63  80
ATOM     80  C   UNL A   1      44.735  32.258  30.704  1.00  0.00     0.057 A 
ATOM     81  C   UNL A   1      44.779  32.389  32.082  1.00  0.00     0.134 A 
ATOM     82  C   UNL A   1      44.909  33.306  29.906  1.00  0.00     0.134 A 
ATOM     83  F   UNL A   1      44.864  31.349  32.907  1.00  0.00    -0.206 F 
ATOM     84  C   UNL A   1      44.725  33.729  32.533  1.00  0.00     0.040 A 
ATOM     85  C   UNL A   1      44.984  34.575  30.427  1.00  0.00     0.040 A 
ATOM     86  F   UNL A   1      45.012  33.126  28.593  1.00  0.00    -0.206 F 
ATOM     87  C   UNL A   1      44.974  34.784  31.778  1.00  0.00     0.006 A 
ENDBRANCH  63  80
ENDBRANCH  37  38
ENDBRANCH  30  32
ENDBRANCH  29  30
ENDBRANCH  28  29
ENDBRANCH   1  28
TORSDOF 16
ENDMDL
MODEL 2
REMARK VINA RESULT:     -12.1      0.558      6.028
REMARK SMILES O=C(OCCOCCOC(=O)c1ccc(-c2c3nc(c(-c4c(F)cccc4F)c4ccc([nH]4)c(-c4c(F)cccc4F)c4nc(c(-c5c(F)cccc5F)c5ccc2[nH]5)C=C4)C=C3)cc1)C1=Cc2cc(S(F)(F)(F)(F)F)ccc2O[C@@H]1C(F)(F)F
REMARK SMILES IDX 7 1 6 2 5 3 4 4 3 5 2 6 1 7 66 8 67 9 81 10 68 11 80 12
REMARK SMILES IDX 69 13 79 14 70 15 78 16 77 17 82 18 83 19 84 20 85 21 71 22
REMARK SMILES IDX 72 23 73 24 74 25 75 26 76 27 8 28 9 29 10 30 11 31 12 32
REMARK SMILES IDX 13 33 65 34 14 35 64 36 15 37 16 38 17 39 58 40 18 41 63 42
REMARK SMILES IDX 57 43 59 44 19 45 62 46 56 47 55 48 20 50 46 51 29 52 45 53
REMARK SMILES IDX 30 54 33 55 44 56 60 57 31 58 32 59 43 61 61 62 34 63 21 64
REMARK SMILES IDX 22 65 27 66 23 67 24 68 26 69 28 70 25 71 47 72 48 73 53 74
REMARK SMILES IDX 49 75 50 76 52 77 54 78 51 79 35 80 36 81 41 82 37 83 38 84
REMARK SMILES IDX 40 85 42 86 39 87
REMARK H PARENT 59 49 33 60
REMARK Flexibility Score: inf
ROOT
ATOM      1  C   UNL A   1      38.147  21.082  25.649  1.00  0.00     0.202 C 
ENDROOT
BRANCH   1   2
ATOM      2  O   UNL A   1      38.752  22.335  25.364  1.00  0.00    -0.374 OA
BRANCH   2   3
ATOM      3  C   UNL A   1      38.158  23.341  26.171  1.00  0.00     0.202 C 
BRANCH   3   4
ATOM      4  C   UNL A   1      36.653  23.341  25.956  1.00  0.00     0.261 C 
BRANCH   4   5
ATOM      5  O   UNL A   1      36.365  23.761  24.631  1.00  0.00    -0.460 OA
BRANCH   5   6
ATOM      6  C   UNL A   1      35.411  23.053  23.854  1.00  0.00     0.338 C 
ATOM      7  O   UNL A   1      35.573  22.939  22.598  1.00  0.00    -0.246 OA
BRANCH   6   8
ATOM      8  C   UNL A   1      34.196  22.432  24.523  1.00  0.00     0.087 C 
ATOM      9  C   UNL A   1      33.229  23.229  25.052  1.00  0.00     0.027 C 
ATOM     10  C   UNL A   1      34.061  20.920  24.600  1.00  0.00     0.316 C 
ATOM     11  C   UNL A   1      33.365  24.741  24.974  1.00  0.00     0.019 A 
ATOM     12  O   UNL A   1      34.234  24.578  22.769  1.00  0.00    -0.475 OA
ATOM     13  C   UNL A   1      33.022  25.466  26.104  1.00  0.00     0.036 A 
ATOM     14  C   UNL A   1      33.738  25.348  23.854  1.00  0.00     0.128 A 
ATOM     15  C   UNL A   1      32.827  26.846  25.862  1.00  0.00     0.107 A 
ATOM     16  C   UNL A   1      33.650  26.714  23.735  1.00  0.00     0.048 A 
ATOM     17  C   UNL A   1      33.262  27.487  24.793  1.00  0.00     0.028 A 
BRANCH  10  18
ATOM     18  C   UNL A   1      32.793  20.487  23.881  1.00  0.00     0.430 C 
ATOM     19  F   UNL A   1      32.923  19.227  23.473  1.00  0.00    -0.167 F 
ATOM     20  F   UNL A   1      31.758  20.578  24.711  1.00  0.00    -0.167 F 
ATOM     21  F   UNL A   1      32.589  21.274  22.829  1.00  0.00    -0.167 F 
ENDBRANCH  10  18
BRANCH  15  22
ATOM     22  S   UNL A   1      31.921  27.799  27.106  1.00  0.00     0.310 S 
ATOM     23  F   UNL A   1      31.713  29.013  26.107  1.00  0.00    -0.094 F 
ATOM     24  F   UNL A   1      33.279  28.474  27.534  1.00  0.00    -0.094 F 
ATOM     25  F   UNL A   1      31.144  28.623  28.173  1.00  0.00    -0.094 F 
ATOM     26  F   UNL A   1      30.554  27.218  26.571  1.00  0.00    -0.094 F 
ATOM     27  F   UNL A   1      32.681  27.042  25.945  1.00  0.00    -0.094 F 
ENDBRANCH  15  22
ENDBRANCH   6   8
ENDBRANCH   5   6
ENDBRANCH   4   5
ENDBRANCH   3   4
ENDBRANCH   2   3
ENDBRANCH   1   2
BRANCH   1  28
ATOM     28  C   UNL A   1      38.919  19.975  24.949  1.00  0.00     0.261 C 
BRANCH  28  29
ATOM     29  O   UNL A   1      39.689  19.259  25.904  1.00  0.00    -0.460 OA
BRANCH  29  30
ATOM     30  C   UNL A   1      41.090  19.473  25.992  1.00  0.00     0.338 C 
ATOM     31  O   UNL A   1      41.896  18.575  25.593  1.00  0.00    -0.246 OA
BRANCH  30  32
ATOM     32  C   UNL A   1      41.626  20.776  26.562  1.00  0.00     0.060 A 
ATOM     33  C   UNL A   1      41.440  21.002  27.915  1.00  0.00     0.016 A 
ATOM     34  C   UNL A   1      42.158  21.703  25.775  1.00  0.00     0.016 A 
ATOM     35  C   UNL A   1      41.585  22.358  28.295  1.00  0.00     0.010 A 
ATOM     36  C   UNL A   1      42.400  22.970  26.249  1.00  0.00     0.010 A 
ATOM     37  C   UNL A   1      42.184  23.280  27.563  1.00  0.00    -0.014 A 
BRANCH  37  38
ATOM     38  C   UNL A   1      42.610  24.616  28.151  1.00  0.00     0.031 A 
ATOM     39  C   UNL A   1      43.946  24.877  28.460  1.00  0.00     0.074 A 
ATOM     40  C   UNL A   1      41.590  25.543  28.281  1.00  0.00     0.049 A 
ATOM     41  N   UNL A   1      44.473  26.026  28.889  1.00  0.00    -0.248 NA
ATOM     42  C   UNL A   1      45.026  23.885  28.355  1.00  0.00     0.031 C 
ATOM     43  C   UNL A   1      40.242  25.289  27.961  1.00  0.00     0.029 A 
ATOM     44  N   UNL A   1      41.681  26.842  28.730  1.00  0.00    -0.354 N 
ATOM     45  C   UNL A   1      45.789  25.893  29.060  1.00  0.00     0.074 A 
ATOM     46  C   UNL A   1      46.163  24.513  28.724  1.00  0.00     0.031 C 
ATOM     47  C   UNL A   1      39.528  26.416  28.225  1.00  0.00     0.029 A 
ATOM     48  C   UNL A   1      40.418  27.392  28.713  1.00  0.00     0.049 A 
ATOM     49  H   UNL A   1      42.505  27.299  29.013  1.00  0.00     0.167 HD
ATOM     50  C   UNL A   1      46.694  26.870  29.479  1.00  0.00     0.037 A 
ATOM     51  C   UNL A   1      40.043  28.669  29.098  1.00  0.00     0.037 A 
ATOM     52  C   UNL A   1      46.325  28.161  29.824  1.00  0.00     0.049 A 
ATOM     53  C   UNL A   1      40.939  29.629  29.575  1.00  0.00     0.074 A 
ATOM     54  C   UNL A   1      47.224  29.161  30.242  1.00  0.00     0.029 A 
ATOM     55  N   UNL A   1      45.059  28.704  29.830  1.00  0.00    -0.354 N 
ATOM     56  N   UNL A   1      42.261  29.509  29.707  1.00  0.00    -0.248 NA
ATOM     57  C   UNL A   1      40.549  30.974  30.017  1.00  0.00     0.031 C 
ATOM     58  C   UNL A   1      46.511  30.287  30.505  1.00  0.00     0.029 A 
ATOM     59  C   UNL A   1      45.153  30.009  30.257  1.00  0.00     0.049 A 
ATOM     60  H   UNL A   1      44.230  28.238  29.574  1.00  0.00     0.167 HD
ATOM     61  C   UNL A   1      42.781  30.645  30.175  1.00  0.00     0.074 A 
ATOM     62  C   UNL A   1      41.687  31.602  30.388  1.00  0.00     0.031 C 
ATOM     63  C   UNL A   1      44.125  30.924  30.431  1.00  0.00     0.037 A 
BRANCH  50  64
ATOM     64  C   UNL A   1      48.165  26.498  29.564  1.00  0.00     0.057 A 
ATOM     65  C   UNL A   1      48.605  25.919  30.743  1.00  0.00     0.134 A 
ATOM     66  C   UNL A   1      48.971  26.625  28.517  1.00  0.00     0.134 A 
ATOM     67  F   UNL A   1      47.782  25.543  31.718  1.00  0.00    -0.206 F 
ATOM     68  C   UNL A   1      50.009  25.764  30.817  1.00  0.00     0.040 A 
ATOM     69  C   UNL A   1      50.308  26.326  28.623  1.00  0.00     0.040 A 
ATOM     70  F   UNL A   1      48.480  27.045  27.354  1.00  0.00    -0.206 F 
ATOM     71  C   UNL A   1      50.823  25.806  29.778  1.00  0.00     0.006 A 
ENDBRANCH  50  64
BRANCH  51  72
ATOM     72  C   UNL A   1      38.575  29.046  28.998  1.00  0.00     0.057 A 
ATOM     73  C   UNL A   1      38.098  29.672  27.858  1.00  0.00     0.134 A 
ATOM     74  C   UNL A   1      37.798  28.865  30.061  1.00  0.00     0.134 A 
ATOM     75  F   UNL A   1      38.744  29.651  26.696  1.00  0.00    -0.206 F 
ATOM     76  C   UNL A   1      36.861  30.335  28.042  1.00  0.00     0.040 A 
ATOM     77  C   UNL A   1      36.546  29.430  30.116  1.00  0.00     0.040 A 
ATOM     78  F   UNL A   1      38.235  28.132  31.080  1.00  0.00    -0.206 F 
ATOM     79  C   UNL A   1      36.035  30.113  29.047  1.00  0.00     0.006 A 
ENDBRANCH  51  72
BRANCH  63  80
ATOM     80  C   UNL A   1      44.484  32.315  30.927  1.00  0.00     0.057 A 
ATOM     81  C   UNL A   1      44.797  33.262  29.967  1.00  0.00     0.134 A 
ATOM     82  C   UNL A   1      44.574  32.591  32.224  1.00  0.00     0.134 A 
ATOM     83  F   UNL A   1      44.486  33.123  28.681  1.00  0.00    -0.206 F 
ATOM     84  C   UNL A   1      45.480  34.392  30.477  1.00  0.00     0.040 A 
ATOM     85  C   UNL A   1      45.129  33.775  32.649  1.00  0.00     0.040 A 
ATOM     86  F   UNL A   1      44.124  31.716  33.118  1.00  0.00    -0.206 F 
ATOM     87  C   UNL A   1      45.516  34.732  31.753  1.00  0.00     0.006 A 
ENDBRANCH  63  80
ENDBRANCH  37  38
ENDBRANCH  30  32
ENDBRANCH  29  30
ENDBRANCH  28  29
ENDBRANCH   1  28
TORSDOF 16
ENDMDL
MODEL 3
REMARK VINA RESULT:     -12.1      4.433      9.093
REMARK SMILES O=C(OCCOCCOC(=O)c1ccc(-c2c3nc(c(-c4c(F)cccc4F)c4ccc([nH]4)c(-c4c(F)cccc4F)c4nc(c(-c5c(F)cccc5F)c5ccc2[nH]5)C=C4)C=C3)cc1)C1=Cc2cc(S(F)(F)(F)(F)F)ccc2O[C@@H]1C(F)(F)F
REMARK SMILES IDX 7 1 6 2 5 3 4 4 3 5 2 6 1 7 66 8 67 9 81 10 68 11 80 12
REMARK SMILES IDX 69 13 79 14 70 15 78 16 77 17 82 18 83 19 84 20 85 21 71 22
REMARK SMILES IDX 72 23 73 24 74 25 75 26 76 27 8 28 9 29 10 30 11 31 12 32
REMARK SMILES IDX 13 33 65 34 14 35 64 36 15 37 16 38 17 39 58 40 18 41 63 42
REMARK SMILES IDX 57 43 59 44 19 45 62 46 56 47 55 48 20 50 46 51 29 52 45 53
REMARK SMILES IDX 30 54 33 55 44 56 60 57 31 58 32 59 43 61 61 62 34 63 21 64
REMARK SMILES IDX 22 65 27 66 23 67 24 68 26 69 28 70 25 71 47 72 48 73 53 74
REMARK SMILES IDX 49 75 50 76 52 77 54 78 51 79 35 80 36 81 41 82 37 83 38 84
REMARK SMILES IDX 40 85 42 86 39 87
REMARK H PARENT 59 49 33 60
REMARK Flexibility Score: inf
ROOT
ATOM      1  C   UNL A   1      31.642  31.905  26.819  1.00  0.00     0.202 C 
ENDROOT
BRANCH   1   2
ATOM      2  O   UNL A   1      32.229  30.728  26.284  1.00  0.00    -0.374 OA
BRANCH   2   3
ATOM      3  C   UNL A   1      33.118  30.167  27.239  1.00  0.00     0.202 C 
BRANCH   3   4
ATOM      4  C   UNL A   1      33.669  28.853  26.707  1.00  0.00     0.261 C 
BRANCH   4   5
ATOM      5  O   UNL A   1      32.900  27.776  27.223  1.00  0.00    -0.460 OA
BRANCH   5   6
ATOM      6  C   UNL A   1      31.714  27.368  26.558  1.00  0.00     0.338 C 
ATOM      7  O   UNL A   1      30.673  27.086  27.230  1.00  0.00    -0.246 OA
BRANCH   6   8
ATOM      8  C   UNL A   1      31.689  27.268  25.041  1.00  0.00     0.087 C 
ATOM      9  C   UNL A   1      32.357  26.263  24.415  1.00  0.00     0.027 C 
ATOM     10  C   UNL A   1      30.917  28.292  24.225  1.00  0.00     0.316 C 
ATOM     11  C   UNL A   1      33.130  25.239  25.231  1.00  0.00     0.019 A 
ATOM     12  O   UNL A   1      31.405  25.201  26.865  1.00  0.00    -0.475 OA
ATOM     13  C   UNL A   1      34.377  24.864  24.758  1.00  0.00     0.036 A 
ATOM     14  C   UNL A   1      32.608  24.683  26.318  1.00  0.00     0.128 A 
ATOM     15  C   UNL A   1      34.878  23.678  25.345  1.00  0.00     0.107 A 
ATOM     16  C   UNL A   1      33.224  23.612  26.920  1.00  0.00     0.048 A 
ATOM     17  C   UNL A   1      34.430  23.151  26.469  1.00  0.00     0.028 A 
BRANCH  10  18
ATOM     18  C   UNL A   1      29.842  27.587  23.413  1.00  0.00     0.430 C 
ATOM     19  F   UNL A   1      30.375  27.112  22.290  1.00  0.00    -0.167 F 
ATOM     20  F   UNL A   1      29.337  26.582  24.123  1.00  0.00    -0.167 F 
ATOM     21  F   UNL A   1      28.874  28.449  23.114  1.00  0.00    -0.167 F 
ENDBRANCH  10  18
BRANCH  15  22
ATOM     22  S   UNL A   1      36.228  22.824  24.493  1.00  0.00     0.310 S 
ATOM     23  F   UNL A   1      36.040  23.706  23.189  1.00  0.00    -0.094 F 
ATOM     24  F   UNL A   1      35.172  21.825  23.886  1.00  0.00    -0.094 F 
ATOM     25  F   UNL A   1      37.386  22.091  23.758  1.00  0.00    -0.094 F 
ATOM     26  F   UNL A   1      37.251  23.915  24.997  1.00  0.00    -0.094 F 
ATOM     27  F   UNL A   1      35.049  23.643  25.155  1.00  0.00    -0.094 F 
ENDBRANCH  15  22
ENDBRANCH   6   8
ENDBRANCH   5   6
ENDBRANCH   4   5
ENDBRANCH   3   4
ENDBRANCH   2   3
ENDBRANCH   1   2
BRANCH   1  28
ATOM     28  C   UNL A   1      32.738  32.851  27.284  1.00  0.00     0.261 C 
BRANCH  28  29
ATOM     29  O   UNL A   1      32.151  34.038  27.799  1.00  0.00    -0.460 OA
BRANCH  29  30
ATOM     30  C   UNL A   1      32.908  34.899  28.636  1.00  0.00     0.338 C 
ATOM     31  O   UNL A   1      32.522  36.094  28.833  1.00  0.00    -0.246 OA
BRANCH  30  32
ATOM     32  C   UNL A   1      34.180  34.393  29.296  1.00  0.00     0.060 A 
ATOM     33  C   UNL A   1      35.377  34.644  28.648  1.00  0.00     0.016 A 
ATOM     34  C   UNL A   1      34.135  33.652  30.397  1.00  0.00     0.016 A 
ATOM     35  C   UNL A   1      36.446  33.823  29.080  1.00  0.00     0.010 A 
ATOM     36  C   UNL A   1      35.252  32.985  30.839  1.00  0.00     0.010 A 
ATOM     37  C   UNL A   1      36.457  33.141  30.211  1.00  0.00    -0.014 A 
BRANCH  37  38
ATOM     38  C   UNL A   1      37.739  32.559  30.784  1.00  0.00     0.031 A 
ATOM     39  C   UNL A   1      38.355  33.127  31.901  1.00  0.00     0.074 A 
ATOM     40  C   UNL A   1      38.186  31.411  30.153  1.00  0.00     0.049 A 
ATOM     41  N   UNL A   1      39.421  32.671  32.561  1.00  0.00    -0.248 NA
ATOM     42  C   UNL A   1      37.902  34.365  32.553  1.00  0.00     0.031 C 
ATOM     43  C   UNL A   1      37.565  30.829  29.031  1.00  0.00     0.029 A 
ATOM     44  N   UNL A   1      39.280  30.640  30.478  1.00  0.00    -0.354 N 
ATOM     45  C   UNL A   1      39.704  33.475  33.589  1.00  0.00     0.074 A 
ATOM     46  C   UNL A   1      38.735  34.578  33.594  1.00  0.00     0.031 C 
ATOM     47  C   UNL A   1      38.281  29.729  28.678  1.00  0.00     0.029 A 
ATOM     48  C   UNL A   1      39.360  29.605  29.573  1.00  0.00     0.049 A 
ATOM     49  H   UNL A   1      39.898  30.800  31.227  1.00  0.00     0.167 HD
ATOM     50  C   UNL A   1      40.731  33.329  34.523  1.00  0.00     0.037 A 
ATOM     51  C   UNL A   1      40.314  28.601  29.514  1.00  0.00     0.037 A 
ATOM     52  C   UNL A   1      41.659  32.300  34.489  1.00  0.00     0.049 A 
ATOM     53  C   UNL A   1      41.377  28.488  30.413  1.00  0.00     0.074 A 
ATOM     54  C   UNL A   1      42.697  32.133  35.427  1.00  0.00     0.029 A 
ATOM     55  N   UNL A   1      41.755  31.279  33.569  1.00  0.00    -0.354 N 
ATOM     56  N   UNL A   1      41.636  29.268  31.464  1.00  0.00    -0.248 NA
ATOM     57  C   UNL A   1      42.412  27.448  30.341  1.00  0.00     0.031 C 
ATOM     58  C   UNL A   1      43.412  31.033  35.074  1.00  0.00     0.029 A 
ATOM     59  C   UNL A   1      42.835  30.495  33.908  1.00  0.00     0.049 A 
ATOM     60  H   UNL A   1      41.154  31.135  32.803  1.00  0.00     0.167 HD
ATOM     61  C   UNL A   1      42.727  28.836  32.099  1.00  0.00     0.074 A 
ATOM     62  C   UNL A   1      43.247  27.663  31.382  1.00  0.00     0.031 C 
ATOM     63  C   UNL A   1      43.310  29.370  33.250  1.00  0.00     0.037 A 
BRANCH  50  64
ATOM     64  C   UNL A   1      40.837  34.354  35.639  1.00  0.00     0.057 A 
ATOM     65  C   UNL A   1      41.582  35.494  35.383  1.00  0.00     0.134 A 
ATOM     66  C   UNL A   1      40.161  34.214  36.773  1.00  0.00     0.134 A 
ATOM     67  F   UNL A   1      42.063  35.791  34.179  1.00  0.00    -0.206 F 
ATOM     68  C   UNL A   1      41.784  36.314  36.517  1.00  0.00     0.040 A 
ATOM     69  C   UNL A   1      40.303  35.128  37.789  1.00  0.00     0.040 A 
ATOM     70  F   UNL A   1      39.338  33.181  36.926  1.00  0.00    -0.206 F 
ATOM     71  C   UNL A   1      41.071  36.248  37.626  1.00  0.00     0.006 A 
ENDBRANCH  50  64
BRANCH  51  72
ATOM     72  C   UNL A   1      40.199  27.566  28.407  1.00  0.00     0.057 A 
ATOM     73  C   UNL A   1      39.649  26.324  28.679  1.00  0.00     0.134 A 
ATOM     74  C   UNL A   1      40.732  27.840  27.222  1.00  0.00     0.134 A 
ATOM     75  F   UNL A   1      38.888  26.084  29.742  1.00  0.00    -0.206 F 
ATOM     76  C   UNL A   1      39.971  25.333  27.721  1.00  0.00     0.040 A 
ATOM     77  C   UNL A   1      40.893  26.850  26.282  1.00  0.00     0.040 A 
ATOM     78  F   UNL A   1      41.115  29.082  26.942  1.00  0.00    -0.206 F 
ATOM     79  C   UNL A   1      40.427  25.584  26.507  1.00  0.00     0.006 A 
ENDBRANCH  51  72
BRANCH  63  80
ATOM     80  C   UNL A   1      44.537  28.676  33.818  1.00  0.00     0.057 A 
ATOM     81  C   UNL A   1      45.768  29.079  33.329  1.00  0.00     0.134 A 
ATOM     82  C   UNL A   1      44.433  27.671  34.681  1.00  0.00     0.134 A 
ATOM     83  F   UNL A   1      45.948  30.221  32.671  1.00  0.00    -0.206 F 
ATOM     84  C   UNL A   1      46.817  28.166  33.591  1.00  0.00     0.040 A 
ATOM     85  C   UNL A   1      45.530  26.905  34.995  1.00  0.00     0.040 A 
ATOM     86  F   UNL A   1      43.260  27.405  35.247  1.00  0.00    -0.206 F 
ATOM     87  C   UNL A   1      46.767  27.211  34.501  1.00  0.00     0.006 A 
ENDBRANCH  63  80
ENDBRANCH  37  38
ENDBRANCH  30  32
ENDBRANCH  29  30
ENDBRANCH  28  29
ENDBRANCH   1  28
TORSDOF 16
ENDMDL
