MODEL 1
REMARK VINA RESULT:     -12.8      0.000      0.000
REMARK SMILES Cc1cc(C)cc(Oc2nc3ccccn3c(=O)c2/C=C2\SC(=S)N(CCC(=O)OCCOCCOC(=O)c3ccc(-c4c5nc(c(-c6c(F)cccc6F)c6ccc([nH]6)c(-c6c(F)cccc6F)c6nc(c(-c7c(F)cccc7F)c7ccc4[nH]7)C=C6)C=C5)cc3)C2=O)c1
REMARK SMILES IDX 31 1 30 2 28 3 29 4 27 5 26 6 25 7 20 8 21 9 22 10 93 11
REMARK SMILES IDX 23 12 94 13 24 14 19 15 9 16 10 17 11 18 17 19 12 20 16 21
REMARK SMILES IDX 18 22 13 23 15 24 14 25 8 26 7 27 1 28 2 29 3 30 95 31 4 32
REMARK SMILES IDX 5 33 6 34 32 35 33 36 34 37 35 38 36 39 37 40 38 41 39 42
REMARK SMILES IDX 40 43 92 44 41 45 91 46 42 47 43 48 44 49 85 50 45 51 90 52
REMARK SMILES IDX 84 53 86 54 46 55 89 56 83 57 82 58 47 60 73 61 56 62 72 63
REMARK SMILES IDX 57 64 60 65 71 66 87 67 58 68 59 69 70 71 88 72 61 73 48 74
REMARK SMILES IDX 49 75 54 76 50 77 51 78 53 79 55 80 52 81 74 82 75 83 80 84
REMARK SMILES IDX 76 85 77 86 79 87 81 88 78 89 62 90 63 91 68 92 64 93 65 94
REMARK SMILES IDX 67 95 69 96 66 97
REMARK H PARENT 86 59 60 70
REMARK Flexibility Score: inf
ROOT
ATOM      1  C   UNL A   1      43.450  18.800  25.636  1.00  0.00     0.261 C 
ENDROOT
BRANCH   1   2
ATOM      2  O   UNL A   1      42.378  19.731  25.371  1.00  0.00    -0.463 OA
BRANCH   2   3
ATOM      3  C   UNL A   1      42.302  20.832  26.155  1.00  0.00     0.307 C 
ATOM      4  O   UNL A   1      43.103  21.131  27.031  1.00  0.00    -0.252 OA
BRANCH   3   5
ATOM      5  C   UNL A   1      41.076  21.663  25.844  1.00  0.00     0.144 C 
BRANCH   5   6
ATOM      6  C   UNL A   1      39.769  21.192  26.491  1.00  0.00     0.139 C 
BRANCH   6   7
ATOM      7  N   UNL A   1      38.585  21.984  26.122  1.00  0.00    -0.292 N 
ATOM      8  C   UNL A   1      35.367  21.829  24.563  1.00  0.00     0.041 C 
ATOM      9  C   UNL A   1      36.496  22.317  25.095  1.00  0.00     0.081 C 
ATOM     10  S   UNL A   1      36.810  23.841  25.803  1.00  0.00    -0.054 SA
ATOM     11  C   UNL A   1      37.680  21.459  25.231  1.00  0.00     0.266 C 
ATOM     12  C   UNL A   1      38.333  23.287  26.505  1.00  0.00     0.148 C 
ATOM     13  O   UNL A   1      37.822  20.440  24.575  1.00  0.00    -0.268 OA
ATOM     14  S   UNL A   1      39.257  24.267  27.486  1.00  0.00    -0.052 S 
BRANCH   8  15
ATOM     15  C   UNL A   1      34.121  22.549  24.395  1.00  0.00     0.104 A 
ATOM     16  C   UNL A   1      32.933  22.171  24.915  1.00  0.00     0.234 A 
ATOM     17  N   UNL A   1      31.765  22.837  24.656  1.00  0.00    -0.194 NA
ATOM     18  C   UNL A   1      31.764  23.810  23.806  1.00  0.00     0.143 A 
ATOM     19  C   UNL A   1      34.124  23.723  23.465  1.00  0.00     0.269 A 
ATOM     20  C   UNL A   1      30.473  24.469  23.462  1.00  0.00     0.048 A 
ATOM     21  N   UNL A   1      32.899  24.294  23.184  1.00  0.00    -0.267 N 
ATOM     22  O   UNL A   1      35.182  24.088  22.943  1.00  0.00    -0.268 OA
ATOM     23  C   UNL A   1      30.451  25.477  22.583  1.00  0.00     0.005 A 
ATOM     24  C   UNL A   1      32.829  25.348  22.279  1.00  0.00     0.096 A 
ATOM     25  C   UNL A   1      31.669  25.938  21.972  1.00  0.00     0.019 A 
BRANCH  16  26
ATOM     26  O   UNL A   1      32.730  20.975  25.609  1.00  0.00    -0.438 OA
BRANCH  26  27
ATOM     27  C   UNL A   1      32.708  19.741  25.011  1.00  0.00     0.130 A 
ATOM     28  C   UNL A   1      33.226  16.061  25.725  1.00  0.00     0.044 C 
ATOM     29  C   UNL A   1      32.931  17.336  24.997  1.00  0.00    -0.047 A 
ATOM     30  C   UNL A   1      32.722  17.333  23.612  1.00  0.00     0.007 A 
ATOM     31  C   UNL A   1      32.859  18.543  25.697  1.00  0.00     0.050 A 
ATOM     32  C   UNL A   1      32.458  18.524  22.923  1.00  0.00    -0.047 A 
ATOM     33  C   UNL A   1      32.124  18.481  21.460  1.00  0.00     0.044 C 
ATOM     34  C   UNL A   1      32.476  19.731  23.630  1.00  0.00     0.050 A 
ENDBRANCH  26  27
ENDBRANCH  16  26
ENDBRANCH   8  15
ENDBRANCH   6   7
ENDBRANCH   5   6
ENDBRANCH   3   5
ENDBRANCH   2   3
ENDBRANCH   1   2
BRANCH   1  35
ATOM     35  C   UNL A   1      44.659  18.963  24.697  1.00  0.00     0.202 C 
BRANCH  35  36
ATOM     36  O   UNL A   1      44.597  20.055  23.777  1.00  0.00    -0.374 OA
BRANCH  36  37
ATOM     37  C   UNL A   1      45.299  21.234  24.164  1.00  0.00     0.202 C 
BRANCH  37  38
ATOM     38  C   UNL A   1      44.741  22.570  23.644  1.00  0.00     0.261 C 
BRANCH  38  39
ATOM     39  O   UNL A   1      44.110  23.363  24.667  1.00  0.00    -0.460 OA
BRANCH  39  40
ATOM     40  C   UNL A   1      44.809  24.445  25.075  1.00  0.00     0.338 C 
ATOM     41  O   UNL A   1      45.896  24.811  24.659  1.00  0.00    -0.246 OA
BRANCH  40  42
ATOM     42  C   UNL A   1      44.009  25.261  26.021  1.00  0.00     0.060 A 
ATOM     43  C   UNL A   1      44.252  26.641  26.052  1.00  0.00     0.016 A 
ATOM     44  C   UNL A   1      43.082  24.708  26.901  1.00  0.00     0.016 A 
ATOM     45  C   UNL A   1      43.610  27.464  26.987  1.00  0.00     0.010 A 
ATOM     46  C   UNL A   1      42.436  25.540  27.832  1.00  0.00     0.010 A 
ATOM     47  C   UNL A   1      42.705  26.924  27.909  1.00  0.00    -0.014 A 
BRANCH  47  48
ATOM     48  C   UNL A   1      42.141  27.748  29.027  1.00  0.00     0.031 A 
ATOM     49  C   UNL A   1      42.716  27.590  30.415  1.00  0.00     0.074 A 
ATOM     50  C   UNL A   1      41.139  28.638  28.853  1.00  0.00     0.049 A 
ATOM     51  N   UNL A   1      42.318  28.114  31.550  1.00  0.00    -0.248 NA
ATOM     52  C   UNL A   1      43.906  26.732  30.541  1.00  0.00     0.031 C 
ATOM     53  C   UNL A   1      40.507  28.981  27.582  1.00  0.00     0.029 A 
ATOM     54  N   UNL A   1      40.431  29.381  29.777  1.00  0.00    -0.354 N 
ATOM     55  C   UNL A   1      43.229  27.680  32.505  1.00  0.00     0.074 A 
ATOM     56  C   UNL A   1      44.122  26.754  31.847  1.00  0.00     0.031 C 
ATOM     57  C   UNL A   1      39.449  29.781  27.812  1.00  0.00     0.029 A 
ATOM     58  C   UNL A   1      39.329  30.015  29.246  1.00  0.00     0.049 A 
ATOM     59  H   UNL A   1      40.690  29.452  30.724  1.00  0.00     0.167 HD
ATOM     60  C   UNL A   1      43.366  28.066  33.796  1.00  0.00     0.037 A 
ATOM     61  C   UNL A   1      38.317  30.679  29.842  1.00  0.00     0.037 A 
ATOM     62  C   UNL A   1      42.505  29.003  34.466  1.00  0.00     0.049 A 
ATOM     63  C   UNL A   1      38.371  30.946  31.321  1.00  0.00     0.074 A 
ATOM     64  C   UNL A   1      42.603  29.490  35.757  1.00  0.00     0.029 A 
ATOM     65  N   UNL A   1      41.386  29.592  33.900  1.00  0.00    -0.354 N 
ATOM     66  N   UNL A   1      39.267  30.570  32.198  1.00  0.00    -0.248 NA
ATOM     67  C   UNL A   1      37.296  31.778  31.886  1.00  0.00     0.031 C 
ATOM     68  C   UNL A   1      41.513  30.333  35.992  1.00  0.00     0.029 A 
ATOM     69  C   UNL A   1      40.769  30.416  34.827  1.00  0.00     0.049 A 
ATOM     70  H   UNL A   1      41.076  29.447  32.977  1.00  0.00     0.167 HD
ATOM     71  C   UNL A   1      38.922  31.200  33.388  1.00  0.00     0.074 A 
ATOM     72  C   UNL A   1      37.711  31.947  33.133  1.00  0.00     0.031 C 
ATOM     73  C   UNL A   1      39.578  31.184  34.574  1.00  0.00     0.037 A 
BRANCH  60  74
ATOM     74  C   UNL A   1      44.530  27.503  34.559  1.00  0.00     0.057 A 
ATOM     75  C   UNL A   1      44.417  26.310  35.287  1.00  0.00     0.134 A 
ATOM     76  C   UNL A   1      45.780  28.131  34.537  1.00  0.00     0.134 A 
ATOM     77  F   UNL A   1      43.242  25.664  35.355  1.00  0.00    -0.206 F 
ATOM     78  C   UNL A   1      45.497  25.778  35.991  1.00  0.00     0.040 A 
ATOM     79  C   UNL A   1      46.877  27.592  35.212  1.00  0.00     0.040 A 
ATOM     80  F   UNL A   1      45.959  29.270  33.852  1.00  0.00    -0.206 F 
ATOM     81  C   UNL A   1      46.734  26.417  35.948  1.00  0.00     0.006 A 
ENDBRANCH  60  74
BRANCH  61  82
ATOM     82  C   UNL A   1      37.154  31.171  29.052  1.00  0.00     0.057 A 
ATOM     83  C   UNL A   1      37.056  32.510  28.654  1.00  0.00     0.134 A 
ATOM     84  C   UNL A   1      36.067  30.338  28.766  1.00  0.00     0.134 A 
ATOM     85  F   UNL A   1      38.044  33.371  28.942  1.00  0.00    -0.206 F 
ATOM     86  C   UNL A   1      35.911  33.006  28.027  1.00  0.00     0.040 A 
ATOM     87  C   UNL A   1      34.928  30.813  28.111  1.00  0.00     0.040 A 
ATOM     88  F   UNL A   1      36.068  29.060  29.162  1.00  0.00    -0.206 F 
ATOM     89  C   UNL A   1      34.843  32.155  27.750  1.00  0.00     0.006 A 
ENDBRANCH  61  82
BRANCH  73  90
ATOM     90  C   UNL A   1      39.062  32.072  35.670  1.00  0.00     0.057 A 
ATOM     91  C   UNL A   1      38.209  31.605  36.676  1.00  0.00     0.134 A 
ATOM     92  C   UNL A   1      39.460  33.415  35.735  1.00  0.00     0.134 A 
ATOM     93  F   UNL A   1      37.778  30.334  36.666  1.00  0.00    -0.206 F 
ATOM     94  C   UNL A   1      37.750  32.446  37.692  1.00  0.00     0.040 A 
ATOM     95  C   UNL A   1      39.034  34.257  36.763  1.00  0.00     0.040 A 
ATOM     96  F   UNL A   1      40.284  33.928  34.808  1.00  0.00    -0.206 F 
ATOM     97  C   UNL A   1      38.169  33.774  37.741  1.00  0.00     0.006 A 
ENDBRANCH  73  90
ENDBRANCH  47  48
ENDBRANCH  40  42
ENDBRANCH  39  40
ENDBRANCH  38  39
ENDBRANCH  37  38
ENDBRANCH  36  37
ENDBRANCH  35  36
ENDBRANCH   1  35
TORSDOF 19
ENDMDL
MODEL 2
REMARK VINA RESULT:     -12.0      2.657      5.810
REMARK SMILES Cc1cc(C)cc(Oc2nc3ccccn3c(=O)c2/C=C2\SC(=S)N(CCC(=O)OCCOCCOC(=O)c3ccc(-c4c5nc(c(-c6c(F)cccc6F)c6ccc([nH]6)c(-c6c(F)cccc6F)c6nc(c(-c7c(F)cccc7F)c7ccc4[nH]7)C=C6)C=C5)cc3)C2=O)c1
REMARK SMILES IDX 31 1 30 2 28 3 29 4 27 5 26 6 25 7 20 8 21 9 22 10 93 11
REMARK SMILES IDX 23 12 94 13 24 14 19 15 9 16 10 17 11 18 17 19 12 20 16 21
REMARK SMILES IDX 18 22 13 23 15 24 14 25 8 26 7 27 1 28 2 29 3 30 95 31 4 32
REMARK SMILES IDX 5 33 6 34 32 35 33 36 34 37 35 38 36 39 37 40 38 41 39 42
REMARK SMILES IDX 40 43 92 44 41 45 91 46 42 47 43 48 44 49 85 50 45 51 90 52
REMARK SMILES IDX 84 53 86 54 46 55 89 56 83 57 82 58 47 60 73 61 56 62 72 63
REMARK SMILES IDX 57 64 60 65 71 66 87 67 58 68 59 69 70 71 88 72 61 73 48 74
REMARK SMILES IDX 49 75 54 76 50 77 51 78 53 79 55 80 52 81 74 82 75 83 80 84
REMARK SMILES IDX 76 85 77 86 79 87 81 88 78 89 62 90 63 91 68 92 64 93 65 94
REMARK SMILES IDX 67 95 69 96 66 97
REMARK H PARENT 86 59 60 70
REMARK Flexibility Score: inf
ROOT
ATOM      1  C   UNL A   1      36.549  21.929  25.021  1.00  0.00     0.261 C 
ENDROOT
BRANCH   1   2
ATOM      2  O   UNL A   1      35.736  21.512  26.140  1.00  0.00    -0.463 OA
BRANCH   2   3
ATOM      3  C   UNL A   1      34.545  20.933  25.862  1.00  0.00     0.307 C 
ATOM      4  O   UNL A   1      34.374  20.012  25.073  1.00  0.00    -0.252 OA
BRANCH   3   5
ATOM      5  C   UNL A   1      33.411  21.578  26.629  1.00  0.00     0.144 C 
BRANCH   5   6
ATOM      6  C   UNL A   1      32.017  21.435  26.007  1.00  0.00     0.139 C 
BRANCH   6   7
ATOM      7  N   UNL A   1      31.623  22.550  25.131  1.00  0.00    -0.292 N 
ATOM      8  C   UNL A   1      30.642  25.991  25.086  1.00  0.00     0.041 C 
ATOM      9  C   UNL A   1      30.855  24.728  24.691  1.00  0.00     0.081 C 
ATOM     10  S   UNL A   1      31.075  24.088  23.122  1.00  0.00    -0.054 SA
ATOM     11  C   UNL A   1      31.046  23.665  25.687  1.00  0.00     0.266 C 
ATOM     12  C   UNL A   1      31.674  22.549  23.751  1.00  0.00     0.148 C 
ATOM     13  O   UNL A   1      30.673  23.785  26.844  1.00  0.00    -0.268 OA
ATOM     14  S   UNL A   1      32.211  21.337  22.742  1.00  0.00    -0.052 S 
BRANCH   8  15
ATOM     15  C   UNL A   1      30.467  27.139  24.219  1.00  0.00     0.104 A 
ATOM     16  C   UNL A   1      31.407  28.079  23.981  1.00  0.00     0.234 A 
ATOM     17  N   UNL A   1      31.167  29.193  23.222  1.00  0.00    -0.194 NA
ATOM     18  C   UNL A   1      29.971  29.419  22.789  1.00  0.00     0.143 A 
ATOM     19  C   UNL A   1      29.101  27.372  23.652  1.00  0.00     0.269 A 
ATOM     20  C   UNL A   1      29.699  30.679  22.043  1.00  0.00     0.048 A 
ATOM     21  N   UNL A   1      28.907  28.556  22.969  1.00  0.00    -0.267 N 
ATOM     22  O   UNL A   1      28.201  26.554  23.867  1.00  0.00    -0.268 OA
ATOM     23  C   UNL A   1      28.467  30.932  21.585  1.00  0.00     0.005 A 
ATOM     24  C   UNL A   1      27.643  28.859  22.474  1.00  0.00     0.096 A 
ATOM     25  C   UNL A   1      27.402  29.990  21.803  1.00  0.00     0.019 A 
BRANCH  16  26
ATOM     26  O   UNL A   1      32.650  28.120  24.621  1.00  0.00    -0.438 OA
BRANCH  26  27
ATOM     27  C   UNL A   1      32.977  29.031  25.591  1.00  0.00     0.130 A 
ATOM     28  C   UNL A   1      31.823  32.274  27.165  1.00  0.00     0.044 C 
ATOM     29  C   UNL A   1      32.633  31.048  26.876  1.00  0.00    -0.047 A 
ATOM     30  C   UNL A   1      33.853  30.831  27.529  1.00  0.00     0.007 A 
ATOM     31  C   UNL A   1      32.174  30.105  25.952  1.00  0.00     0.050 A 
ATOM     32  C   UNL A   1      34.621  29.692  27.255  1.00  0.00    -0.047 A 
ATOM     33  C   UNL A   1      35.866  29.423  28.050  1.00  0.00     0.044 C 
ATOM     34  C   UNL A   1      34.185  28.806  26.264  1.00  0.00     0.050 A 
ENDBRANCH  26  27
ENDBRANCH  16  26
ENDBRANCH   8  15
ENDBRANCH   6   7
ENDBRANCH   5   6
ENDBRANCH   3   5
ENDBRANCH   2   3
ENDBRANCH   1   2
BRANCH   1  35
ATOM     35  C   UNL A   1      37.906  22.529  25.429  1.00  0.00     0.202 C 
BRANCH  35  36
ATOM     36  O   UNL A   1      39.012  21.623  25.455  1.00  0.00    -0.374 OA
BRANCH  36  37
ATOM     37  C   UNL A   1      39.743  21.572  26.678  1.00  0.00     0.202 C 
BRANCH  37  38
ATOM     38  C   UNL A   1      41.156  22.182  26.661  1.00  0.00     0.261 C 
BRANCH  38  39
ATOM     39  O   UNL A   1      41.161  23.603  26.435  1.00  0.00    -0.460 OA
BRANCH  39  40
ATOM     40  C   UNL A   1      42.258  24.257  26.880  1.00  0.00     0.338 C 
ATOM     41  O   UNL A   1      43.416  24.037  26.566  1.00  0.00    -0.246 OA
BRANCH  40  42
ATOM     42  C   UNL A   1      41.872  25.419  27.718  1.00  0.00     0.060 A 
ATOM     43  C   UNL A   1      42.857  26.381  27.982  1.00  0.00     0.016 A 
ATOM     44  C   UNL A   1      40.607  25.559  28.284  1.00  0.00     0.016 A 
ATOM     45  C   UNL A   1      42.600  27.454  28.846  1.00  0.00     0.010 A 
ATOM     46  C   UNL A   1      40.354  26.641  29.143  1.00  0.00     0.010 A 
ATOM     47  C   UNL A   1      41.349  27.592  29.459  1.00  0.00    -0.014 A 
BRANCH  47  48
ATOM     48  C   UNL A   1      41.106  28.626  30.517  1.00  0.00     0.031 A 
ATOM     49  C   UNL A   1      41.840  28.515  31.833  1.00  0.00     0.074 A 
ATOM     50  C   UNL A   1      40.258  29.666  30.350  1.00  0.00     0.049 A 
ATOM     51  N   UNL A   1      41.708  29.225  32.927  1.00  0.00    -0.248 NA
ATOM     52  C   UNL A   1      42.868  27.465  31.926  1.00  0.00     0.031 C 
ATOM     53  C   UNL A   1      39.518  29.982  29.131  1.00  0.00     0.029 A 
ATOM     54  N   UNL A   1      39.833  30.627  31.245  1.00  0.00    -0.354 N 
ATOM     55  C   UNL A   1      42.658  28.733  33.813  1.00  0.00     0.074 A 
ATOM     56  C   UNL A   1      43.272  27.587  33.181  1.00  0.00     0.031 C 
ATOM     57  C   UNL A   1      38.660  30.988  29.379  1.00  0.00     0.029 A 
ATOM     58  C   UNL A   1      38.792  31.397  30.773  1.00  0.00     0.049 A 
ATOM     59  H   UNL A   1      40.234  30.750  32.135  1.00  0.00     0.167 HD
ATOM     60  C   UNL A   1      43.046  29.225  35.013  1.00  0.00     0.037 A 
ATOM     61  C   UNL A   1      38.008  32.303  31.394  1.00  0.00     0.037 A 
ATOM     62  C   UNL A   1      42.467  30.376  35.652  1.00  0.00     0.049 A 
ATOM     63  C   UNL A   1      38.321  32.714  32.806  1.00  0.00     0.074 A 
ATOM     64  C   UNL A   1      42.836  30.974  36.845  1.00  0.00     0.029 A 
ATOM     65  N   UNL A   1      41.398  31.102  35.154  1.00  0.00    -0.354 N 
ATOM     66  N   UNL A   1      39.257  32.273  33.609  1.00  0.00    -0.248 NA
ATOM     67  C   UNL A   1      37.501  33.793  33.382  1.00  0.00     0.031 C 
ATOM     68  C   UNL A   1      41.954  32.030  37.096  1.00  0.00     0.029 A 
ATOM     69  C   UNL A   1      41.074  32.125  36.031  1.00  0.00     0.049 A 
ATOM     70  H   UNL A   1      40.937  30.919  34.304  1.00  0.00     0.167 HD
ATOM     71  C   UNL A   1      39.203  33.084  34.737  1.00  0.00     0.074 A 
ATOM     72  C   UNL A   1      38.116  34.015  34.534  1.00  0.00     0.031 C 
ATOM     73  C   UNL A   1      40.011  33.073  35.824  1.00  0.00     0.037 A 
BRANCH  60  74
ATOM     74  C   UNL A   1      44.193  28.538  35.697  1.00  0.00     0.057 A 
ATOM     75  C   UNL A   1      45.522  28.905  35.441  1.00  0.00     0.134 A 
ATOM     76  C   UNL A   1      43.971  27.532  36.644  1.00  0.00     0.134 A 
ATOM     77  F   UNL A   1      45.802  29.857  34.537  1.00  0.00    -0.206 F 
ATOM     78  C   UNL A   1      46.590  28.276  36.079  1.00  0.00     0.040 A 
ATOM     79  C   UNL A   1      45.030  26.916  37.312  1.00  0.00     0.040 A 
ATOM     80  F   UNL A   1      42.724  27.139  36.942  1.00  0.00    -0.206 F 
ATOM     81  C   UNL A   1      46.344  27.283  37.024  1.00  0.00     0.006 A 
ENDBRANCH  60  74
BRANCH  61  82
ATOM     82  C   UNL A   1      36.846  32.917  30.694  1.00  0.00     0.057 A 
ATOM     83  C   UNL A   1      35.540  32.467  30.916  1.00  0.00     0.134 A 
ATOM     84  C   UNL A   1      37.026  33.899  29.713  1.00  0.00     0.134 A 
ATOM     85  F   UNL A   1      35.306  31.494  31.809  1.00  0.00    -0.206 F 
ATOM     86  C   UNL A   1      34.461  32.950  30.171  1.00  0.00     0.040 A 
ATOM     87  C   UNL A   1      35.953  34.413  28.981  1.00  0.00     0.040 A 
ATOM     88  F   UNL A   1      38.253  34.340  29.410  1.00  0.00    -0.206 F 
ATOM     89  C   UNL A   1      34.666  33.929  29.201  1.00  0.00     0.006 A 
ENDBRANCH  61  82
BRANCH  73  90
ATOM     90  C   UNL A   1      39.822  34.157  36.847  1.00  0.00     0.057 A 
ATOM     91  C   UNL A   1      40.399  35.425  36.713  1.00  0.00     0.134 A 
ATOM     92  C   UNL A   1      39.015  33.932  37.972  1.00  0.00     0.134 A 
ATOM     93  F   UNL A   1      41.194  35.704  35.668  1.00  0.00    -0.206 F 
ATOM     94  C   UNL A   1      40.202  36.421  37.672  1.00  0.00     0.040 A 
ATOM     95  C   UNL A   1      38.784  34.929  38.920  1.00  0.00     0.040 A 
ATOM     96  F   UNL A   1      38.425  32.742  38.159  1.00  0.00    -0.206 F 
ATOM     97  C   UNL A   1      39.385  36.176  38.775  1.00  0.00     0.006 A 
ENDBRANCH  73  90
ENDBRANCH  47  48
ENDBRANCH  40  42
ENDBRANCH  39  40
ENDBRANCH  38  39
ENDBRANCH  37  38
ENDBRANCH  36  37
ENDBRANCH  35  36
ENDBRANCH   1  35
TORSDOF 19
ENDMDL
MODEL 3
REMARK VINA RESULT:     -11.9      4.666     10.110
REMARK SMILES Cc1cc(C)cc(Oc2nc3ccccn3c(=O)c2/C=C2\SC(=S)N(CCC(=O)OCCOCCOC(=O)c3ccc(-c4c5nc(c(-c6c(F)cccc6F)c6ccc([nH]6)c(-c6c(F)cccc6F)c6nc(c(-c7c(F)cccc7F)c7ccc4[nH]7)C=C6)C=C5)cc3)C2=O)c1
REMARK SMILES IDX 31 1 30 2 28 3 29 4 27 5 26 6 25 7 20 8 21 9 22 10 93 11
REMARK SMILES IDX 23 12 94 13 24 14 19 15 9 16 10 17 11 18 17 19 12 20 16 21
REMARK SMILES IDX 18 22 13 23 15 24 14 25 8 26 7 27 1 28 2 29 3 30 95 31 4 32
REMARK SMILES IDX 5 33 6 34 32 35 33 36 34 37 35 38 36 39 37 40 38 41 39 42
REMARK SMILES IDX 40 43 92 44 41 45 91 46 42 47 43 48 44 49 85 50 45 51 90 52
REMARK SMILES IDX 84 53 86 54 46 55 89 56 83 57 82 58 47 60 73 61 56 62 72 63
REMARK SMILES IDX 57 64 60 65 71 66 87 67 58 68 59 69 70 71 88 72 61 73 48 74
REMARK SMILES IDX 49 75 54 76 50 77 51 78 53 79 55 80 52 81 74 82 75 83 80 84
REMARK SMILES IDX 76 85 77 86 79 87 81 88 78 89 62 90 63 91 68 92 64 93 65 94
REMARK SMILES IDX 67 95 69 96 66 97
REMARK H PARENT 86 59 60 70
REMARK Flexibility Score: inf
ROOT
ATOM      1  C   UNL A   1      33.606  28.817  25.939  1.00  0.00     0.261 C 
ENDROOT
BRANCH   1   2
ATOM      2  O   UNL A   1      33.563  29.659  24.766  1.00  0.00    -0.463 OA
BRANCH   2   3
ATOM      3  C   UNL A   1      33.325  29.059  23.577  1.00  0.00     0.307 C 
ATOM      4  O   UNL A   1      34.181  28.758  22.754  1.00  0.00    -0.252 OA
BRANCH   3   5
ATOM      5  C   UNL A   1      31.848  28.817  23.351  1.00  0.00     0.144 C 
BRANCH   5   6
ATOM      6  C   UNL A   1      31.496  27.817  22.244  1.00  0.00     0.139 C 
BRANCH   6   7
ATOM      7  N   UNL A   1      31.403  26.418  22.692  1.00  0.00    -0.292 N 
ATOM      8  C   UNL A   1      33.230  23.362  23.042  1.00  0.00     0.041 C 
ATOM      9  C   UNL A   1      32.211  24.229  22.983  1.00  0.00     0.081 C 
ATOM     10  S   UNL A   1      30.651  24.146  23.677  1.00  0.00    -0.054 SA
ATOM     11  C   UNL A   1      32.388  25.533  22.328  1.00  0.00     0.266 C 
ATOM     12  C   UNL A   1      30.339  25.858  23.371  1.00  0.00     0.148 C 
ATOM     13  O   UNL A   1      33.286  25.740  21.528  1.00  0.00    -0.268 OA
ATOM     14  S   UNL A   1      28.937  26.600  23.880  1.00  0.00    -0.052 S 
BRANCH   8  15
ATOM     15  C   UNL A   1      33.207  22.059  23.678  1.00  0.00     0.104 A 
ATOM     16  C   UNL A   1      33.830  21.753  24.836  1.00  0.00     0.234 A 
ATOM     17  N   UNL A   1      33.852  20.485  25.354  1.00  0.00    -0.194 NA
ATOM     18  C   UNL A   1      33.343  19.513  24.672  1.00  0.00     0.143 A 
ATOM     19  C   UNL A   1      32.556  20.938  22.928  1.00  0.00     0.269 A 
ATOM     20  C   UNL A   1      33.452  18.125  25.200  1.00  0.00     0.048 A 
ATOM     21  N   UNL A   1      32.688  19.674  23.466  1.00  0.00    -0.267 N 
ATOM     22  O   UNL A   1      31.998  21.165  21.849  1.00  0.00    -0.268 OA
ATOM     23  C   UNL A   1      32.933  17.104  24.509  1.00  0.00     0.005 A 
ATOM     24  C   UNL A   1      32.161  18.583  22.782  1.00  0.00     0.096 A 
ATOM     25  C   UNL A   1      32.260  17.338  23.260  1.00  0.00     0.019 A 
BRANCH  16  26
ATOM     26  O   UNL A   1      34.667  22.633  25.529  1.00  0.00    -0.438 OA
BRANCH  26  27
ATOM     27  C   UNL A   1      36.026  22.481  25.618  1.00  0.00     0.130 A 
ATOM     28  C   UNL A   1      38.792  19.943  25.140  1.00  0.00     0.044 C 
ATOM     29  C   UNL A   1      38.083  21.226  25.447  1.00  0.00    -0.047 A 
ATOM     30  C   UNL A   1      38.787  22.324  25.957  1.00  0.00     0.007 A 
ATOM     31  C   UNL A   1      36.709  21.338  25.222  1.00  0.00     0.050 A 
ATOM     32  C   UNL A   1      38.127  23.523  26.257  1.00  0.00    -0.047 A 
ATOM     33  C   UNL A   1      38.919  24.722  26.692  1.00  0.00     0.044 C 
ATOM     34  C   UNL A   1      36.737  23.585  26.105  1.00  0.00     0.050 A 
ENDBRANCH  26  27
ENDBRANCH  16  26
ENDBRANCH   8  15
ENDBRANCH   6   7
ENDBRANCH   5   6
ENDBRANCH   3   5
ENDBRANCH   2   3
ENDBRANCH   1   2
BRANCH   1  35
ATOM     35  C   UNL A   1      34.696  29.215  26.949  1.00  0.00     0.202 C 
BRANCH  35  36
ATOM     36  O   UNL A   1      34.270  30.026  28.046  1.00  0.00    -0.374 OA
BRANCH  36  37
ATOM     37  C   UNL A   1      34.902  31.299  28.159  1.00  0.00     0.202 C 
BRANCH  37  38
ATOM     38  C   UNL A   1      34.920  31.937  29.559  1.00  0.00     0.261 C 
BRANCH  38  39
ATOM     39  O   UNL A   1      36.238  32.020  30.133  1.00  0.00    -0.460 OA
BRANCH  39  40
ATOM     40  C   UNL A   1      36.688  30.887  30.716  1.00  0.00     0.338 C 
ATOM     41  O   UNL A   1      36.035  30.100  31.381  1.00  0.00    -0.246 OA
BRANCH  40  42
ATOM     42  C   UNL A   1      38.092  30.614  30.320  1.00  0.00     0.060 A 
ATOM     43  C   UNL A   1      38.357  30.442  28.955  1.00  0.00     0.016 A 
ATOM     44  C   UNL A   1      39.126  30.474  31.243  1.00  0.00     0.016 A 
ATOM     45  C   UNL A   1      39.637  30.083  28.511  1.00  0.00     0.010 A 
ATOM     46  C   UNL A   1      40.408  30.121  30.790  1.00  0.00     0.010 A 
ATOM     47  C   UNL A   1      40.682  29.895  29.423  1.00  0.00    -0.014 A 
BRANCH  47  48
ATOM     48  C   UNL A   1      42.008  29.343  28.993  1.00  0.00     0.031 A 
ATOM     49  C   UNL A   1      43.160  30.295  28.771  1.00  0.00     0.074 A 
ATOM     50  C   UNL A   1      42.227  28.024  28.797  1.00  0.00     0.049 A 
ATOM     51  N   UNL A   1      44.359  30.059  28.295  1.00  0.00    -0.248 NA
ATOM     52  C   UNL A   1      42.933  31.702  29.141  1.00  0.00     0.031 C 
ATOM     53  C   UNL A   1      41.265  26.950  29.029  1.00  0.00     0.029 A 
ATOM     54  N   UNL A   1      43.332  27.365  28.296  1.00  0.00    -0.354 N 
ATOM     55  C   UNL A   1      45.031  31.273  28.350  1.00  0.00     0.074 A 
ATOM     56  C   UNL A   1      44.075  32.267  28.783  1.00  0.00     0.031 C 
ATOM     57  C   UNL A   1      41.777  25.789  28.581  1.00  0.00     0.029 A 
ATOM     58  C   UNL A   1      43.107  26.031  28.035  1.00  0.00     0.049 A 
ATOM     59  H   UNL A   1      44.198  27.806  28.141  1.00  0.00     0.167 HD
ATOM     60  C   UNL A   1      46.342  31.537  28.134  1.00  0.00     0.037 A 
ATOM     61  C   UNL A   1      43.864  25.113  27.399  1.00  0.00     0.037 A 
ATOM     62  C   UNL A   1      47.317  30.563  27.726  1.00  0.00     0.049 A 
ATOM     63  C   UNL A   1      45.265  25.465  26.981  1.00  0.00     0.074 A 
ATOM     64  C   UNL A   1      48.677  30.734  27.536  1.00  0.00     0.029 A 
ATOM     65  N   UNL A   1      47.037  29.236  27.443  1.00  0.00    -0.354 N 
ATOM     66  N   UNL A   1      45.900  26.605  27.088  1.00  0.00    -0.248 NA
ATOM     67  C   UNL A   1      46.078  24.382  26.401  1.00  0.00     0.031 C 
ATOM     68  C   UNL A   1      49.212  29.524  27.084  1.00  0.00     0.029 A 
ATOM     69  C   UNL A   1      48.195  28.585  27.050  1.00  0.00     0.049 A 
ATOM     70  H   UNL A   1      46.149  28.819  27.510  1.00  0.00     0.167 HD
ATOM     71  C   UNL A   1      47.206  26.352  26.686  1.00  0.00     0.074 A 
ATOM     72  C   UNL A   1      47.264  24.962  26.293  1.00  0.00     0.031 C 
ATOM     73  C   UNL A   1      48.267  27.194  26.682  1.00  0.00     0.037 A 
BRANCH  60  74
ATOM     74  C   UNL A   1      46.808  32.943  28.385  1.00  0.00     0.057 A 
ATOM     75  C   UNL A   1      46.794  33.908  27.368  1.00  0.00     0.134 A 
ATOM     76  C   UNL A   1      47.234  33.347  29.655  1.00  0.00     0.134 A 
ATOM     77  F   UNL A   1      46.405  33.582  26.126  1.00  0.00    -0.206 F 
ATOM     78  C   UNL A   1      47.218  35.217  27.598  1.00  0.00     0.040 A 
ATOM     79  C   UNL A   1      47.631  34.662  29.905  1.00  0.00     0.040 A 
ATOM     80  F   UNL A   1      47.262  32.476  30.674  1.00  0.00    -0.206 F 
ATOM     81  C   UNL A   1      47.630  35.598  28.872  1.00  0.00     0.006 A 
ENDBRANCH  60  74
BRANCH  61  82
ATOM     82  C   UNL A   1      43.339  23.747  27.122  1.00  0.00     0.057 A 
ATOM     83  C   UNL A   1      42.826  23.405  25.865  1.00  0.00     0.134 A 
ATOM     84  C   UNL A   1      43.246  22.786  28.134  1.00  0.00     0.134 A 
ATOM     85  F   UNL A   1      42.841  24.299  24.865  1.00  0.00    -0.206 F 
ATOM     86  C   UNL A   1      42.215  22.169  25.635  1.00  0.00     0.040 A 
ATOM     87  C   UNL A   1      42.666  21.535  27.910  1.00  0.00     0.040 A 
ATOM     88  F   UNL A   1      43.669  23.062  29.373  1.00  0.00    -0.206 F 
ATOM     89  C   UNL A   1      42.138  21.228  26.659  1.00  0.00     0.006 A 
ENDBRANCH  61  82
BRANCH  73  90
ATOM     90  C   UNL A   1      49.612  26.625  26.331  1.00  0.00     0.057 A 
ATOM     91  C   UNL A   1      50.366  25.867  27.233  1.00  0.00     0.134 A 
ATOM     92  C   UNL A   1      50.143  26.813  25.046  1.00  0.00     0.134 A 
ATOM     93  F   UNL A   1      49.925  25.660  28.483  1.00  0.00    -0.206 F 
ATOM     94  C   UNL A   1      51.610  25.339  26.880  1.00  0.00     0.040 A 
ATOM     95  C   UNL A   1      51.369  26.264  24.671  1.00  0.00     0.040 A 
ATOM     96  F   UNL A   1      49.469  27.523  24.128  1.00  0.00    -0.206 F 
ATOM     97  C   UNL A   1      52.111  25.530  25.594  1.00  0.00     0.006 A 
ENDBRANCH  73  90
ENDBRANCH  47  48
ENDBRANCH  40  42
ENDBRANCH  39  40
ENDBRANCH  38  39
ENDBRANCH  37  38
ENDBRANCH  36  37
ENDBRANCH  35  36
ENDBRANCH   1  35
TORSDOF 19
ENDMDL
