MODEL 1
REMARK VINA RESULT:     -12.5      0.000      0.000
REMARK SMILES Cc1ccccc1/[NH+]=C1\S[C@@H](CC(=O)Nc2ccc(C(=O)OCCOCCOC(=O)c3ccc(-c4c5nc(c(-c6c(F)cccc6F)c6ccc([nH]6)c(-c6c(F)cccc6F)c6nc(c(-c7c(F)cccc7F)c7ccc4[nH]7)C=C6)C=C5)cc3)cc2)C(=O)N1C
REMARK SMILES IDX 24 1 23 2 22 3 20 4 21 5 19 6 16 7 17 8 86 9 18 10 85 11
REMARK SMILES IDX 15 12 13 13 14 14 12 16 11 17 8 18 9 19 10 21 89 22 87 23
REMARK SMILES IDX 90 24 88 25 7 26 1 27 2 28 3 29 4 30 6 31 5 32 25 33 26 34
REMARK SMILES IDX 27 35 28 36 29 37 30 38 31 39 32 40 84 41 33 42 83 43 34 44
REMARK SMILES IDX 35 45 36 46 77 47 37 48 82 49 76 50 78 51 38 52 81 53 75 54
REMARK SMILES IDX 74 55 39 57 65 58 48 59 64 60 49 61 52 62 63 63 79 64 50 65
REMARK SMILES IDX 51 66 62 68 80 69 53 70 40 71 41 72 46 73 42 74 43 75 45 76
REMARK SMILES IDX 47 77 44 78 66 79 67 80 72 81 68 82 69 83 71 84 73 85 70 86
REMARK SMILES IDX 54 87 55 88 60 89 56 90 57 91 59 92 61 93 58 94
REMARK H PARENT 15 15 8 20 78 56 52 67
REMARK Flexibility Score: inf
ROOT
ATOM      1  C   UNL A   1      35.101  31.396  28.105  1.00  0.00     0.202 C 
ENDROOT
BRANCH   1   2
ATOM      2  C   UNL A   1      33.778  31.098  27.486  1.00  0.00     0.261 C 
BRANCH   2   3
ATOM      3  O   UNL A   1      33.571  29.673  27.326  1.00  0.00    -0.460 OA
BRANCH   3   4
ATOM      4  C   UNL A   1      32.397  29.073  26.981  1.00  0.00     0.338 C 
ATOM      5  O   UNL A   1      31.431  28.796  27.670  1.00  0.00    -0.246 OA
BRANCH   4   6
ATOM      6  C   UNL A   1      32.504  28.798  25.533  1.00  0.00     0.060 A 
ATOM      7  C   UNL A   1      32.793  28.021  22.888  1.00  0.00     0.041 A 
ATOM      8  C   UNL A   1      33.855  27.928  23.767  1.00  0.00     0.027 A 
ATOM      9  C   UNL A   1      31.647  28.719  23.259  1.00  0.00     0.027 A 
ATOM     10  C   UNL A   1      33.704  28.249  25.089  1.00  0.00     0.018 A 
ATOM     11  C   UNL A   1      31.499  29.110  24.603  1.00  0.00     0.018 A 
BRANCH   7  12
ATOM     12  N   UNL A   1      32.911  27.304  21.692  1.00  0.00    -0.326 N 
ATOM     13  C   UNL A   1      32.726  25.927  21.617  1.00  0.00     0.226 C 
ATOM     14  O   UNL A   1      33.234  25.257  20.721  1.00  0.00    -0.275 OA
ATOM     15  H   UNL A   1      33.135  27.795  20.868  1.00  0.00     0.169 HD
BRANCH  13  16
ATOM     16  C   UNL A   1      31.664  25.339  22.552  1.00  0.00     0.128 C 
BRANCH  16  17
ATOM     17  C   UNL A   1      32.085  24.423  23.686  1.00  0.00     0.183 C 
ATOM     18  N   UNL A   1      32.333  21.246  25.447  1.00  0.00    -0.234 N 
ATOM     19  C   UNL A   1      31.768  22.220  24.832  1.00  0.00     0.319 C 
ATOM     20  H   UNL A   1      32.145  21.207  26.412  1.00  0.00     0.313 HD
ATOM     21  S   UNL A   1      31.741  22.685  23.171  1.00  0.00    -0.022 SA
ATOM     22  N   UNL A   1      31.116  23.204  25.515  1.00  0.00    -0.193 N 
ATOM     23  C   UNL A   1      31.412  24.475  25.058  1.00  0.00     0.324 C 
ATOM     24  C   UNL A   1      30.330  22.955  26.707  1.00  0.00     0.301 C 
ATOM     25  O   UNL A   1      31.285  25.494  25.727  1.00  0.00    -0.245 OA
BRANCH  18  26
ATOM     26  C   UNL A   1      33.177  20.224  24.975  1.00  0.00     0.128 A 
ATOM     27  C   UNL A   1      35.538  21.180  25.493  1.00  0.00     0.049 C 
ATOM     28  C   UNL A   1      34.584  20.113  25.043  1.00  0.00    -0.004 A 
ATOM     29  C   UNL A   1      35.208  18.901  24.666  1.00  0.00     0.008 A 
ATOM     30  C   UNL A   1      34.472  17.782  24.298  1.00  0.00     0.001 A 
ATOM     31  C   UNL A   1      32.463  19.072  24.582  1.00  0.00     0.052 A 
ATOM     32  C   UNL A   1      33.091  17.865  24.259  1.00  0.00     0.004 A 
ENDBRANCH  18  26
ENDBRANCH  16  17
ENDBRANCH  13  16
ENDBRANCH   7  12
ENDBRANCH   4   6
ENDBRANCH   3   4
ENDBRANCH   2   3
ENDBRANCH   1   2
BRANCH   1  33
ATOM     33  O   UNL A   1      35.190  32.805  28.088  1.00  0.00    -0.374 OA
BRANCH  33  34
ATOM     34  C   UNL A   1      33.965  33.495  28.020  1.00  0.00     0.202 C 
BRANCH  34  35
ATOM     35  C   UNL A   1      33.744  34.352  29.267  1.00  0.00     0.261 C 
BRANCH  35  36
ATOM     36  O   UNL A   1      33.796  33.507  30.440  1.00  0.00    -0.460 OA
BRANCH  36  37
ATOM     37  C   UNL A   1      33.970  34.149  31.629  1.00  0.00     0.338 C 
ATOM     38  O   UNL A   1      33.226  35.006  32.084  1.00  0.00    -0.246 OA
BRANCH  37  39
ATOM     39  C   UNL A   1      35.341  33.885  32.163  1.00  0.00     0.060 A 
ATOM     40  C   UNL A   1      36.466  34.381  31.476  1.00  0.00     0.016 A 
ATOM     41  C   UNL A   1      35.503  32.884  33.117  1.00  0.00     0.016 A 
ATOM     42  C   UNL A   1      37.713  33.750  31.610  1.00  0.00     0.010 A 
ATOM     43  C   UNL A   1      36.709  32.212  33.175  1.00  0.00     0.010 A 
ATOM     44  C   UNL A   1      37.806  32.598  32.387  1.00  0.00    -0.014 A 
BRANCH  44  45
ATOM     45  C   UNL A   1      38.929  31.649  32.386  1.00  0.00     0.031 A 
ATOM     46  C   UNL A   1      38.836  30.444  31.543  1.00  0.00     0.074 A 
ATOM     47  C   UNL A   1      40.138  31.982  32.904  1.00  0.00     0.049 A 
ATOM     48  N   UNL A   1      39.679  29.471  31.590  1.00  0.00    -0.248 NA
ATOM     49  C   UNL A   1      37.741  30.189  30.611  1.00  0.00     0.031 C 
ATOM     50  C   UNL A   1      41.466  31.478  32.541  1.00  0.00     0.029 A 
ATOM     51  N   UNL A   1      40.442  32.917  33.893  1.00  0.00    -0.354 N 
ATOM     52  C   UNL A   1      39.484  28.710  30.465  1.00  0.00     0.074 A 
ATOM     53  C   UNL A   1      38.160  29.064  30.026  1.00  0.00     0.031 C 
ATOM     54  C   UNL A   1      42.368  31.867  33.461  1.00  0.00     0.029 A 
ATOM     55  C   UNL A   1      41.628  32.532  34.521  1.00  0.00     0.049 A 
ATOM     56  H   UNL A   1      39.908  33.715  34.113  1.00  0.00     0.167 HD
ATOM     57  C   UNL A   1      40.550  28.023  29.962  1.00  0.00     0.037 A 
ATOM     58  C   UNL A   1      41.676  32.298  35.856  1.00  0.00     0.037 A 
ATOM     59  C   UNL A   1      41.703  28.102  30.892  1.00  0.00     0.049 A 
ATOM     60  C   UNL A   1      42.098  30.876  36.013  1.00  0.00     0.074 A 
ATOM     61  C   UNL A   1      42.958  28.685  30.812  1.00  0.00     0.029 A 
ATOM     62  N   UNL A   1      41.532  27.764  32.244  1.00  0.00    -0.354 N 
ATOM     63  N   UNL A   1      41.749  29.947  35.160  1.00  0.00    -0.248 NA
ATOM     64  C   UNL A   1      43.116  30.446  36.964  1.00  0.00     0.031 C 
ATOM     65  C   UNL A   1      43.508  28.741  32.127  1.00  0.00     0.029 A 
ATOM     66  C   UNL A   1      42.605  28.173  33.015  1.00  0.00     0.049 A 
ATOM     67  H   UNL A   1      40.745  27.291  32.598  1.00  0.00     0.167 HD
ATOM     68  C   UNL A   1      42.586  28.887  35.325  1.00  0.00     0.074 A 
ATOM     69  C   UNL A   1      43.380  29.212  36.503  1.00  0.00     0.031 C 
ATOM     70  C   UNL A   1      42.689  27.858  34.441  1.00  0.00     0.037 A 
BRANCH  57  71
ATOM     71  C   UNL A   1      40.649  27.473  28.536  1.00  0.00     0.057 A 
ATOM     72  C   UNL A   1      40.058  26.235  28.208  1.00  0.00     0.134 A 
ATOM     73  C   UNL A   1      41.351  28.050  27.454  1.00  0.00     0.134 A 
ATOM     74  F   UNL A   1      39.337  25.541  29.098  1.00  0.00    -0.206 F 
ATOM     75  C   UNL A   1      40.176  25.627  26.943  1.00  0.00     0.040 A 
ATOM     76  C   UNL A   1      41.453  27.469  26.179  1.00  0.00     0.040 A 
ATOM     77  F   UNL A   1      42.016  29.201  27.542  1.00  0.00    -0.206 F 
ATOM     78  C   UNL A   1      40.871  26.246  25.918  1.00  0.00     0.006 A 
ENDBRANCH  57  71
BRANCH  58  79
ATOM     79  C   UNL A   1      40.674  33.095  36.619  1.00  0.00     0.057 A 
ATOM     80  C   UNL A   1      39.467  32.454  36.965  1.00  0.00     0.134 A 
ATOM     81  C   UNL A   1      41.023  34.208  37.390  1.00  0.00     0.134 A 
ATOM     82  F   UNL A   1      39.094  31.338  36.323  1.00  0.00    -0.206 F 
ATOM     83  C   UNL A   1      38.699  32.831  38.075  1.00  0.00     0.040 A 
ATOM     84  C   UNL A   1      40.274  34.579  38.522  1.00  0.00     0.040 A 
ATOM     85  F   UNL A   1      42.166  34.868  37.158  1.00  0.00    -0.206 F 
ATOM     86  C   UNL A   1      39.132  33.868  38.889  1.00  0.00     0.006 A 
ENDBRANCH  58  79
BRANCH  70  87
ATOM     87  C   UNL A   1      42.940  26.449  34.903  1.00  0.00     0.057 A 
ATOM     88  C   UNL A   1      41.913  25.535  35.204  1.00  0.00     0.134 A 
ATOM     89  C   UNL A   1      44.236  25.898  34.854  1.00  0.00     0.134 A 
ATOM     90  F   UNL A   1      40.619  25.880  35.179  1.00  0.00    -0.206 F 
ATOM     91  C   UNL A   1      42.161  24.192  35.490  1.00  0.00     0.040 A 
ATOM     92  C   UNL A   1      44.488  24.543  35.079  1.00  0.00     0.040 A 
ATOM     93  F   UNL A   1      45.313  26.632  34.539  1.00  0.00    -0.206 F 
ATOM     94  C   UNL A   1      43.451  23.688  35.413  1.00  0.00     0.006 A 
ENDBRANCH  70  87
ENDBRANCH  44  45
ENDBRANCH  37  39
ENDBRANCH  36  37
ENDBRANCH  35  36
ENDBRANCH  34  35
ENDBRANCH  33  34
ENDBRANCH   1  33
TORSDOF 18
ENDMDL
MODEL 2
REMARK VINA RESULT:     -12.2      4.758      8.622
REMARK SMILES Cc1ccccc1/[NH+]=C1\S[C@@H](CC(=O)Nc2ccc(C(=O)OCCOCCOC(=O)c3ccc(-c4c5nc(c(-c6c(F)cccc6F)c6ccc([nH]6)c(-c6c(F)cccc6F)c6nc(c(-c7c(F)cccc7F)c7ccc4[nH]7)C=C6)C=C5)cc3)cc2)C(=O)N1C
REMARK SMILES IDX 24 1 23 2 22 3 20 4 21 5 19 6 16 7 17 8 86 9 18 10 85 11
REMARK SMILES IDX 15 12 13 13 14 14 12 16 11 17 8 18 9 19 10 21 89 22 87 23
REMARK SMILES IDX 90 24 88 25 7 26 1 27 2 28 3 29 4 30 6 31 5 32 25 33 26 34
REMARK SMILES IDX 27 35 28 36 29 37 30 38 31 39 32 40 84 41 33 42 83 43 34 44
REMARK SMILES IDX 35 45 36 46 77 47 37 48 82 49 76 50 78 51 38 52 81 53 75 54
REMARK SMILES IDX 74 55 39 57 65 58 48 59 64 60 49 61 52 62 63 63 79 64 50 65
REMARK SMILES IDX 51 66 62 68 80 69 53 70 40 71 41 72 46 73 42 74 43 75 45 76
REMARK SMILES IDX 47 77 44 78 66 79 67 80 72 81 68 82 69 83 71 84 73 85 70 86
REMARK SMILES IDX 54 87 55 88 60 89 56 90 57 91 59 92 61 93 58 94
REMARK H PARENT 15 15 8 20 78 56 52 67
REMARK Flexibility Score: inf
ROOT
ATOM      1  C   UNL A   1      34.040  31.360  28.026  1.00  0.00     0.202 C 
ENDROOT
BRANCH   1   2
ATOM      2  C   UNL A   1      33.229  30.933  26.849  1.00  0.00     0.261 C 
BRANCH   2   3
ATOM      3  O   UNL A   1      32.056  30.184  27.251  1.00  0.00    -0.460 OA
BRANCH   3   4
ATOM      4  C   UNL A   1      31.867  28.846  27.078  1.00  0.00     0.338 C 
ATOM      5  O   UNL A   1      31.565  27.989  27.890  1.00  0.00    -0.246 OA
BRANCH   4   6
ATOM      6  C   UNL A   1      32.108  28.595  25.642  1.00  0.00     0.060 A 
ATOM      7  C   UNL A   1      32.623  27.856  23.020  1.00  0.00     0.041 A 
ATOM      8  C   UNL A   1      33.581  27.679  24.001  1.00  0.00     0.027 A 
ATOM      9  C   UNL A   1      31.489  28.616  23.290  1.00  0.00     0.027 A 
ATOM     10  C   UNL A   1      33.313  27.981  25.308  1.00  0.00     0.018 A 
ATOM     11  C   UNL A   1      31.225  28.987  24.623  1.00  0.00     0.018 A 
BRANCH   7  12
ATOM     12  N   UNL A   1      32.822  27.158  21.824  1.00  0.00    -0.326 N 
ATOM     13  C   UNL A   1      32.704  25.775  21.729  1.00  0.00     0.226 C 
ATOM     14  O   UNL A   1      33.278  25.139  20.849  1.00  0.00    -0.275 OA
ATOM     15  H   UNL A   1      33.056  27.667  21.014  1.00  0.00     0.169 HD
BRANCH  13  16
ATOM     16  C   UNL A   1      31.634  25.128  22.616  1.00  0.00     0.128 C 
BRANCH  16  17
ATOM     17  C   UNL A   1      32.051  24.220  23.757  1.00  0.00     0.183 C 
ATOM     18  N   UNL A   1      32.315  21.049  25.528  1.00  0.00    -0.234 N 
ATOM     19  C   UNL A   1      31.746  22.015  24.903  1.00  0.00     0.319 C 
ATOM     20  H   UNL A   1      32.116  21.010  26.490  1.00  0.00     0.313 HD
ATOM     21  S   UNL A   1      31.735  22.477  23.241  1.00  0.00    -0.022 SA
ATOM     22  N   UNL A   1      31.074  22.993  25.576  1.00  0.00    -0.193 N 
ATOM     23  C   UNL A   1      31.360  24.266  25.120  1.00  0.00     0.324 C 
ATOM     24  C   UNL A   1      30.276  22.736  26.758  1.00  0.00     0.301 C 
ATOM     25  O   UNL A   1      31.213  25.285  25.785  1.00  0.00    -0.245 OA
BRANCH  18  26
ATOM     26  C   UNL A   1      33.178  20.036  25.068  1.00  0.00     0.128 A 
ATOM     27  C   UNL A   1      35.486  21.231  25.092  1.00  0.00     0.049 C 
ATOM     28  C   UNL A   1      34.584  20.042  24.934  1.00  0.00    -0.004 A 
ATOM     29  C   UNL A   1      35.261  18.839  24.626  1.00  0.00     0.008 A 
ATOM     30  C   UNL A   1      34.590  17.627  24.523  1.00  0.00     0.001 A 
ATOM     31  C   UNL A   1      32.528  18.790  24.941  1.00  0.00     0.052 A 
ATOM     32  C   UNL A   1      33.216  17.600  24.684  1.00  0.00     0.004 A 
ENDBRANCH  18  26
ENDBRANCH  16  17
ENDBRANCH  13  16
ENDBRANCH   7  12
ENDBRANCH   4   6
ENDBRANCH   3   4
ENDBRANCH   2   3
ENDBRANCH   1   2
BRANCH   1  33
ATOM     33  O   UNL A   1      35.376  31.113  27.643  1.00  0.00    -0.374 OA
BRANCH  33  34
ATOM     34  C   UNL A   1      36.364  31.633  28.499  1.00  0.00     0.202 C 
BRANCH  34  35
ATOM     35  C   UNL A   1      36.629  30.691  29.673  1.00  0.00     0.261 C 
BRANCH  35  36
ATOM     36  O   UNL A   1      36.926  29.370  29.166  1.00  0.00    -0.460 OA
BRANCH  36  37
ATOM     37  C   UNL A   1      38.055  28.783  29.655  1.00  0.00     0.338 C 
ATOM     38  O   UNL A   1      38.118  28.120  30.679  1.00  0.00    -0.246 OA
BRANCH  37  39
ATOM     39  C   UNL A   1      39.258  29.303  28.937  1.00  0.00     0.060 A 
ATOM     40  C   UNL A   1      39.475  28.951  27.589  1.00  0.00     0.016 A 
ATOM     41  C   UNL A   1      40.306  29.831  29.686  1.00  0.00     0.016 A 
ATOM     42  C   UNL A   1      40.774  28.955  27.056  1.00  0.00     0.010 A 
ATOM     43  C   UNL A   1      41.590  29.746  29.185  1.00  0.00     0.010 A 
ATOM     44  C   UNL A   1      41.845  29.258  27.893  1.00  0.00    -0.014 A 
BRANCH  44  45
ATOM     45  C   UNL A   1      43.263  29.008  27.596  1.00  0.00     0.031 A 
ATOM     46  C   UNL A   1      44.136  30.157  27.293  1.00  0.00     0.074 A 
ATOM     47  C   UNL A   1      43.843  27.811  27.865  1.00  0.00     0.049 A 
ATOM     48  N   UNL A   1      45.343  30.044  26.859  1.00  0.00    -0.248 NA
ATOM     49  C   UNL A   1      43.704  31.548  27.384  1.00  0.00     0.031 C 
ATOM     50  C   UNL A   1      45.246  27.517  28.175  1.00  0.00     0.029 A 
ATOM     51  N   UNL A   1      43.254  26.551  27.953  1.00  0.00    -0.354 N 
ATOM     52  C   UNL A   1      45.947  31.267  27.014  1.00  0.00     0.074 A 
ATOM     53  C   UNL A   1      44.848  32.189  27.128  1.00  0.00     0.031 C 
ATOM     54  C   UNL A   1      45.454  26.189  28.122  1.00  0.00     0.029 A 
ATOM     55  C   UNL A   1      44.218  25.586  27.651  1.00  0.00     0.049 A 
ATOM     56  H   UNL A   1      42.315  26.370  28.189  1.00  0.00     0.167 HD
ATOM     57  C   UNL A   1      47.297  31.296  27.208  1.00  0.00     0.037 A 
ATOM     58  C   UNL A   1      44.044  24.711  26.629  1.00  0.00     0.037 A 
ATOM     59  C   UNL A   1      47.878  29.945  27.015  1.00  0.00     0.049 A 
ATOM     60  C   UNL A   1      45.173  24.947  25.684  1.00  0.00     0.074 A 
ATOM     61  C   UNL A   1      48.500  29.042  27.863  1.00  0.00     0.029 A 
ATOM     62  N   UNL A   1      47.596  29.227  25.842  1.00  0.00    -0.354 N 
ATOM     63  N   UNL A   1      45.688  26.135  25.496  1.00  0.00    -0.248 NA
ATOM     64  C   UNL A   1      45.951  23.869  25.086  1.00  0.00     0.031 C 
ATOM     65  C   UNL A   1      48.538  27.773  27.212  1.00  0.00     0.029 A 
ATOM     66  C   UNL A   1      47.960  27.897  25.955  1.00  0.00     0.049 A 
ATOM     67  H   UNL A   1      47.189  29.622  25.038  1.00  0.00     0.167 HD
ATOM     68  C   UNL A   1      46.912  25.977  24.924  1.00  0.00     0.074 A 
ATOM     69  C   UNL A   1      47.010  24.555  24.624  1.00  0.00     0.031 C 
ATOM     70  C   UNL A   1      47.838  26.970  24.829  1.00  0.00     0.037 A 
BRANCH  57  71
ATOM     71  C   UNL A   1      48.075  32.476  27.797  1.00  0.00     0.057 A 
ATOM     72  C   UNL A   1      48.071  32.709  29.188  1.00  0.00     0.134 A 
ATOM     73  C   UNL A   1      48.790  33.461  27.078  1.00  0.00     0.134 A 
ATOM     74  F   UNL A   1      47.457  31.876  30.039  1.00  0.00    -0.206 F 
ATOM     75  C   UNL A   1      48.693  33.817  29.794  1.00  0.00     0.040 A 
ATOM     76  C   UNL A   1      49.440  34.556  27.671  1.00  0.00     0.040 A 
ATOM     77  F   UNL A   1      48.899  33.464  25.750  1.00  0.00    -0.206 F 
ATOM     78  C   UNL A   1      49.387  34.746  29.037  1.00  0.00     0.006 A 
ENDBRANCH  57  71
BRANCH  58  79
ATOM     79  C   UNL A   1      42.608  24.415  26.361  1.00  0.00     0.057 A 
ATOM     80  C   UNL A   1      42.006  23.394  27.125  1.00  0.00     0.134 A 
ATOM     81  C   UNL A   1      41.739  25.347  25.786  1.00  0.00     0.134 A 
ATOM     82  F   UNL A   1      42.770  22.501  27.769  1.00  0.00    -0.206 F 
ATOM     83  C   UNL A   1      40.630  23.355  27.388  1.00  0.00     0.040 A 
ATOM     84  C   UNL A   1      40.360  25.333  26.065  1.00  0.00     0.040 A 
ATOM     85  F   UNL A   1      42.217  26.371  25.066  1.00  0.00    -0.206 F 
ATOM     86  C   UNL A   1      39.809  24.360  26.897  1.00  0.00     0.006 A 
ENDBRANCH  58  79
BRANCH  70  87
ATOM     87  C   UNL A   1      48.750  27.083  23.639  1.00  0.00     0.057 A 
ATOM     88  C   UNL A   1      48.383  27.715  22.437  1.00  0.00     0.134 A 
ATOM     89  C   UNL A   1      50.112  26.740  23.744  1.00  0.00     0.134 A 
ATOM     90  F   UNL A   1      47.152  28.201  22.231  1.00  0.00    -0.206 F 
ATOM     91  C   UNL A   1      49.288  27.938  21.398  1.00  0.00     0.040 A 
ATOM     92  C   UNL A   1      51.037  27.013  22.735  1.00  0.00     0.040 A 
ATOM     93  F   UNL A   1      50.623  26.169  24.844  1.00  0.00    -0.206 F 
ATOM     94  C   UNL A   1      50.624  27.601  21.550  1.00  0.00     0.006 A 
ENDBRANCH  70  87
ENDBRANCH  44  45
ENDBRANCH  37  39
ENDBRANCH  36  37
ENDBRANCH  35  36
ENDBRANCH  34  35
ENDBRANCH  33  34
ENDBRANCH   1  33
TORSDOF 18
ENDMDL
MODEL 3
REMARK VINA RESULT:     -11.7      5.065     10.491
REMARK SMILES Cc1ccccc1/[NH+]=C1\S[C@@H](CC(=O)Nc2ccc(C(=O)OCCOCCOC(=O)c3ccc(-c4c5nc(c(-c6c(F)cccc6F)c6ccc([nH]6)c(-c6c(F)cccc6F)c6nc(c(-c7c(F)cccc7F)c7ccc4[nH]7)C=C6)C=C5)cc3)cc2)C(=O)N1C
REMARK SMILES IDX 24 1 23 2 22 3 20 4 21 5 19 6 16 7 17 8 86 9 18 10 85 11
REMARK SMILES IDX 15 12 13 13 14 14 12 16 11 17 8 18 9 19 10 21 89 22 87 23
REMARK SMILES IDX 90 24 88 25 7 26 1 27 2 28 3 29 4 30 6 31 5 32 25 33 26 34
REMARK SMILES IDX 27 35 28 36 29 37 30 38 31 39 32 40 84 41 33 42 83 43 34 44
REMARK SMILES IDX 35 45 36 46 77 47 37 48 82 49 76 50 78 51 38 52 81 53 75 54
REMARK SMILES IDX 74 55 39 57 65 58 48 59 64 60 49 61 52 62 63 63 79 64 50 65
REMARK SMILES IDX 51 66 62 68 80 69 53 70 40 71 41 72 46 73 42 74 43 75 45 76
REMARK SMILES IDX 47 77 44 78 66 79 67 80 72 81 68 82 69 83 71 84 73 85 70 86
REMARK SMILES IDX 54 87 55 88 60 89 56 90 57 91 59 92 61 93 58 94
REMARK H PARENT 15 15 8 20 78 56 52 67
REMARK Flexibility Score: inf
ROOT
ATOM      1  C   UNL A   1      40.161  21.225  26.861  1.00  0.00     0.202 C 
ENDROOT
BRANCH   1   2
ATOM      2  C   UNL A   1      39.520  22.320  26.078  1.00  0.00     0.261 C 
BRANCH   2   3
ATOM      3  O   UNL A   1      38.075  22.241  26.132  1.00  0.00    -0.460 OA
BRANCH   3   4
ATOM      4  C   UNL A   1      37.292  21.433  25.362  1.00  0.00     0.338 C 
ATOM      5  O   UNL A   1      37.611  20.590  24.541  1.00  0.00    -0.246 OA
BRANCH   4   6
ATOM      6  C   UNL A   1      35.900  21.776  25.717  1.00  0.00     0.060 A 
ATOM      7  C   UNL A   1      33.255  22.147  26.461  1.00  0.00     0.041 A 
ATOM      8  C   UNL A   1      33.595  21.179  25.534  1.00  0.00     0.027 A 
ATOM      9  C   UNL A   1      34.199  23.092  26.851  1.00  0.00     0.027 A 
ATOM     10  C   UNL A   1      34.903  20.946  25.209  1.00  0.00     0.018 A 
ATOM     11  C   UNL A   1      35.543  22.901  26.476  1.00  0.00     0.018 A 
BRANCH   7  12
ATOM     12  N   UNL A   1      31.981  22.042  27.030  1.00  0.00    -0.326 N 
ATOM     13  C   UNL A   1      30.942  22.914  26.718  1.00  0.00     0.226 C 
ATOM     14  O   UNL A   1      30.008  23.105  27.493  1.00  0.00    -0.275 OA
ATOM     15  H   UNL A   1      31.812  21.321  27.679  1.00  0.00     0.169 HD
BRANCH  13  16
ATOM     16  C   UNL A   1      30.901  23.423  25.273  1.00  0.00     0.128 C 
BRANCH  16  17
ATOM     17  C   UNL A   1      31.850  24.521  24.834  1.00  0.00     0.183 C 
ATOM     18  N   UNL A   1      32.789  27.941  24.009  1.00  0.00    -0.234 N 
ATOM     19  C   UNL A   1      32.101  26.859  23.974  1.00  0.00     0.319 C 
ATOM     20  H   UNL A   1      33.312  28.120  23.195  1.00  0.00     0.313 HD
ATOM     21  S   UNL A   1      31.007  26.141  25.099  1.00  0.00    -0.022 SA
ATOM     22  N   UNL A   1      32.243  25.964  22.954  1.00  0.00    -0.193 N 
ATOM     23  C   UNL A   1      32.318  24.653  23.385  1.00  0.00     0.324 C 
ATOM     24  C   UNL A   1      32.464  26.359  21.578  1.00  0.00     0.301 C 
ATOM     25  O   UNL A   1      32.831  23.745  22.740  1.00  0.00    -0.245 OA
BRANCH  18  26
ATOM     26  C   UNL A   1      32.924  28.915  25.016  1.00  0.00     0.128 A 
ATOM     27  C   UNL A   1      30.758  30.320  24.711  1.00  0.00     0.049 C 
ATOM     28  C   UNL A   1      32.025  29.930  25.414  1.00  0.00    -0.004 A 
ATOM     29  C   UNL A   1      32.293  30.681  26.582  1.00  0.00     0.008 A 
ATOM     30  C   UNL A   1      33.381  30.402  27.399  1.00  0.00     0.001 A 
ATOM     31  C   UNL A   1      34.027  28.670  25.862  1.00  0.00     0.052 A 
ATOM     32  C   UNL A   1      34.252  29.388  27.040  1.00  0.00     0.004 A 
ENDBRANCH  18  26
ENDBRANCH  16  17
ENDBRANCH  13  16
ENDBRANCH   7  12
ENDBRANCH   4   6
ENDBRANCH   3   4
ENDBRANCH   2   3
ENDBRANCH   1   2
BRANCH   1  33
ATOM     33  O   UNL A   1      40.803  20.426  25.890  1.00  0.00    -0.374 OA
BRANCH  33  34
ATOM     34  C   UNL A   1      41.803  19.561  26.372  1.00  0.00     0.202 C 
BRANCH  34  35
ATOM     35  C   UNL A   1      43.121  19.769  25.624  1.00  0.00     0.261 C 
BRANCH  35  36
ATOM     36  O   UNL A   1      43.172  21.123  25.119  1.00  0.00    -0.460 OA
BRANCH  36  37
ATOM     37  C   UNL A   1      44.381  21.537  24.644  1.00  0.00     0.338 C 
ATOM     38  O   UNL A   1      45.047  20.950  23.804  1.00  0.00    -0.246 OA
BRANCH  37  39
ATOM     39  C   UNL A   1      44.921  22.639  25.497  1.00  0.00     0.060 A 
ATOM     40  C   UNL A   1      44.658  22.644  26.882  1.00  0.00     0.016 A 
ATOM     41  C   UNL A   1      45.373  23.801  24.879  1.00  0.00     0.016 A 
ATOM     42  C   UNL A   1      44.668  23.850  27.600  1.00  0.00     0.010 A 
ATOM     43  C   UNL A   1      45.292  24.994  25.570  1.00  0.00     0.010 A 
ATOM     44  C   UNL A   1      44.888  25.042  26.914  1.00  0.00    -0.014 A 
BRANCH  44  45
ATOM     45  C   UNL A   1      44.627  26.392  27.433  1.00  0.00     0.031 A 
ATOM     46  C   UNL A   1      43.245  26.906  27.406  1.00  0.00     0.074 A 
ATOM     47  C   UNL A   1      45.547  27.055  28.179  1.00  0.00     0.049 A 
ATOM     48  N   UNL A   1      42.930  28.124  27.677  1.00  0.00    -0.248 NA
ATOM     49  C   UNL A   1      42.092  26.107  27.002  1.00  0.00     0.031 C 
ATOM     50  C   UNL A   1      45.334  28.077  29.208  1.00  0.00     0.029 A 
ATOM     51  N   UNL A   1      46.934  26.914  28.190  1.00  0.00    -0.354 N 
ATOM     52  C   UNL A   1      41.573  28.156  27.885  1.00  0.00     0.074 A 
ATOM     53  C   UNL A   1      41.093  26.958  27.249  1.00  0.00     0.031 C 
ATOM     54  C   UNL A   1      46.506  28.660  29.519  1.00  0.00     0.029 A 
ATOM     55  C   UNL A   1      47.501  28.120  28.607  1.00  0.00     0.049 A 
ATOM     56  H   UNL A   1      47.431  26.100  27.944  1.00  0.00     0.167 HD
ATOM     57  C   UNL A   1      41.075  29.105  28.729  1.00  0.00     0.037 A 
ATOM     58  C   UNL A   1      48.380  28.794  27.824  1.00  0.00     0.037 A 
ATOM     59  C   UNL A   1      42.138  30.064  29.116  1.00  0.00     0.049 A 
ATOM     60  C   UNL A   1      47.764  30.126  27.560  1.00  0.00     0.074 A 
ATOM     61  C   UNL A   1      42.769  30.360  30.315  1.00  0.00     0.029 A 
ATOM     62  N   UNL A   1      42.908  30.689  28.122  1.00  0.00    -0.354 N 
ATOM     63  N   UNL A   1      46.470  30.284  27.441  1.00  0.00    -0.248 NA
ATOM     64  C   UNL A   1      48.501  31.380  27.655  1.00  0.00     0.031 C 
ATOM     65  C   UNL A   1      43.944  31.116  30.025  1.00  0.00     0.029 A 
ATOM     66  C   UNL A   1      44.027  31.306  28.652  1.00  0.00     0.049 A 
ATOM     67  H   UNL A   1      42.678  30.689  27.165  1.00  0.00     0.167 HD
ATOM     68  C   UNL A   1      46.190  31.604  27.613  1.00  0.00     0.074 A 
ATOM     69  C   UNL A   1      47.488  32.262  27.678  1.00  0.00     0.031 C 
ATOM     70  C   UNL A   1      44.936  32.092  27.818  1.00  0.00     0.037 A 
BRANCH  57  71
ATOM     71  C   UNL A   1      39.698  29.051  29.398  1.00  0.00     0.057 A 
ATOM     72  C   UNL A   1      38.537  29.372  28.664  1.00  0.00     0.134 A 
ATOM     73  C   UNL A   1      39.428  28.765  30.755  1.00  0.00     0.134 A 
ATOM     74  F   UNL A   1      38.587  29.659  27.357  1.00  0.00    -0.206 F 
ATOM     75  C   UNL A   1      37.248  29.424  29.230  1.00  0.00     0.040 A 
ATOM     76  C   UNL A   1      38.145  28.785  31.327  1.00  0.00     0.040 A 
ATOM     77  F   UNL A   1      40.375  28.469  31.644  1.00  0.00    -0.206 F 
ATOM     78  C   UNL A   1      37.045  29.125  30.567  1.00  0.00     0.006 A 
ENDBRANCH  57  71
BRANCH  58  79
ATOM     79  C   UNL A   1      49.158  27.896  26.924  1.00  0.00     0.057 A 
ATOM     80  C   UNL A   1      48.760  27.835  25.573  1.00  0.00     0.134 A 
ATOM     81  C   UNL A   1      50.474  27.508  27.197  1.00  0.00     0.134 A 
ATOM     82  F   UNL A   1      47.539  28.255  25.216  1.00  0.00    -0.206 F 
ATOM     83  C   UNL A   1      49.643  27.504  24.537  1.00  0.00     0.040 A 
ATOM     84  C   UNL A   1      51.376  27.201  26.162  1.00  0.00     0.040 A 
ATOM     85  F   UNL A   1      50.955  27.560  28.446  1.00  0.00    -0.206 F 
ATOM     86  C   UNL A   1      50.973  27.236  24.828  1.00  0.00     0.006 A 
ENDBRANCH  58  79
BRANCH  70  87
ATOM     87  C   UNL A   1      44.511  33.423  27.260  1.00  0.00     0.057 A 
ATOM     88  C   UNL A   1      43.902  33.578  26.002  1.00  0.00     0.134 A 
ATOM     89  C   UNL A   1      44.509  34.574  28.072  1.00  0.00     0.134 A 
ATOM     90  F   UNL A   1      43.724  32.550  25.161  1.00  0.00    -0.206 F 
ATOM     91  C   UNL A   1      43.382  34.797  25.563  1.00  0.00     0.040 A 
ATOM     92  C   UNL A   1      43.939  35.782  27.666  1.00  0.00     0.040 A 
ATOM     93  F   UNL A   1      45.015  34.573  29.314  1.00  0.00    -0.206 F 
ATOM     94  C   UNL A   1      43.386  35.901  26.402  1.00  0.00     0.006 A 
ENDBRANCH  70  87
ENDBRANCH  44  45
ENDBRANCH  37  39
ENDBRANCH  36  37
ENDBRANCH  35  36
ENDBRANCH  34  35
ENDBRANCH  33  34
ENDBRANCH   1  33
TORSDOF 18
ENDMDL
