MODEL 1
REMARK VINA RESULT:      -9.9      0.000      0.000
REMARK SMILES CC(C)[C@H](NC(=O)[C@H](C)NC(=O)CNC(=O)OCc1ccccc1)C(=O)OCCOCCOC(=O)c1ccc(-c2c3nc(c(-c4c(F)cccc4F)c4ccc([nH]4)c(-c4c(F)cccc4F)c4nc(c(-c5c(F)cccc5F)c5ccc2[nH]5)C=C4)C=C3)cc1
REMARK SMILES IDX 27 1 25 2 26 3 4 4 2 5 1 6 3 7 5 8 6 9 7 11 8 12 9 13 10 14
REMARK SMILES IDX 11 15 12 17 13 18 14 19 15 20 16 22 17 23 18 24 19 25 20 26
REMARK SMILES IDX 24 27 21 28 23 29 22 30 28 31 29 32 30 33 31 34 32 35 33 36
REMARK SMILES IDX 34 37 35 38 36 39 37 40 89 41 38 42 88 43 39 44 40 45 41 46
REMARK SMILES IDX 82 47 42 48 87 49 81 50 83 51 43 52 86 53 80 54 79 55 44 57
REMARK SMILES IDX 70 58 53 59 69 60 54 61 57 62 68 63 84 64 55 65 56 66 67 68
REMARK SMILES IDX 85 69 58 70 45 71 46 72 51 73 47 74 48 75 50 76 52 77 49 78
REMARK SMILES IDX 71 79 72 80 77 81 73 82 74 83 76 84 78 85 75 86 59 87 60 88
REMARK SMILES IDX 65 89 61 90 62 91 64 92 66 93 63 94
REMARK H PARENT 5 10 10 16 14 21 83 56 57 67
REMARK Flexibility Score: inf
ROOT
ATOM      1  O   UNL A   1      33.199  26.691  22.838  1.00  0.00    -0.462 OA
ENDROOT
BRANCH   1   2
ATOM      2  C   UNL A   1      31.957  26.416  22.333  1.00  0.00     0.328 C 
ATOM      3  O   UNL A   1      31.758  26.080  21.170  1.00  0.00    -0.250 OA
BRANCH   2   4
ATOM      4  C   UNL A   1      30.814  26.543  23.380  1.00  0.00     0.194 C 
BRANCH   4   5
ATOM      5  C   UNL A   1      29.823  27.638  22.877  1.00  0.00     0.017 C 
ATOM      6  C   UNL A   1      28.469  27.468  23.580  1.00  0.00     0.010 C 
ATOM      7  C   UNL A   1      30.296  29.084  23.056  1.00  0.00     0.010 C 
ENDBRANCH   4   5
BRANCH   4   8
ATOM      8  N   UNL A   1      31.248  26.783  24.767  1.00  0.00    -0.341 N 
ATOM      9  C   UNL A   1      30.804  26.274  25.954  1.00  0.00     0.242 C 
ATOM     10  H   UNL A   1      31.989  27.425  24.853  1.00  0.00     0.164 HD
ATOM     11  O   UNL A   1      30.950  26.993  26.948  1.00  0.00    -0.273 OA
BRANCH   9  12
ATOM     12  C   UNL A   1      30.092  24.896  26.061  1.00  0.00     0.168 C 
ATOM     13  C   UNL A   1      28.675  25.177  26.574  1.00  0.00     0.041 C 
BRANCH  12  14
ATOM     14  N   UNL A   1      30.824  24.039  26.986  1.00  0.00    -0.343 N 
ATOM     15  C   UNL A   1      31.919  23.248  26.812  1.00  0.00     0.240 C 
ATOM     16  H   UNL A   1      30.463  24.031  27.901  1.00  0.00     0.164 HD
ATOM     17  O   UNL A   1      32.533  22.894  27.821  1.00  0.00    -0.273 OA
BRANCH  15  18
ATOM     18  C   UNL A   1      32.360  22.789  25.429  1.00  0.00     0.219 C 
BRANCH  18  19
ATOM     19  N   UNL A   1      31.908  21.428  25.236  1.00  0.00    -0.312 N 
ATOM     20  C   UNL A   1      32.680  20.315  25.326  1.00  0.00     0.407 C 
ATOM     21  H   UNL A   1      30.957  21.297  25.020  1.00  0.00     0.167 HD
ATOM     22  O   UNL A   1      32.271  19.225  24.955  1.00  0.00    -0.225 OA
BRANCH  20  23
ATOM     23  O   UNL A   1      33.904  20.574  25.839  1.00  0.00    -0.445 OA
BRANCH  23  24
ATOM     24  C   UNL A   1      34.999  20.466  24.920  1.00  0.00     0.270 C 
BRANCH  24  25
ATOM     25  C   UNL A   1      36.145  21.401  25.230  1.00  0.00    -0.011 A 
ATOM     26  C   UNL A   1      37.454  20.894  25.223  1.00  0.00     0.007 A 
ATOM     27  C   UNL A   1      35.949  22.734  25.622  1.00  0.00     0.007 A 
ATOM     28  C   UNL A   1      38.531  21.701  25.596  1.00  0.00     0.000 A 
ATOM     29  C   UNL A   1      37.024  23.537  26.001  1.00  0.00     0.000 A 
ATOM     30  C   UNL A   1      38.315  23.020  25.990  1.00  0.00     0.000 A 
ENDBRANCH  24  25
ENDBRANCH  23  24
ENDBRANCH  20  23
ENDBRANCH  18  19
ENDBRANCH  15  18
ENDBRANCH  12  14
ENDBRANCH   9  12
ENDBRANCH   4   8
ENDBRANCH   2   4
ENDBRANCH   1   2
BRANCH   1  31
ATOM     31  C   UNL A   1      33.732  27.955  22.364  1.00  0.00     0.261 C 
BRANCH  31  32
ATOM     32  C   UNL A   1      34.063  28.915  23.514  1.00  0.00     0.202 C 
BRANCH  32  33
ATOM     33  O   UNL A   1      33.243  28.821  24.685  1.00  0.00    -0.374 OA
BRANCH  33  34
ATOM     34  C   UNL A   1      33.926  28.800  25.933  1.00  0.00     0.202 C 
BRANCH  34  35
ATOM     35  C   UNL A   1      33.406  29.795  26.977  1.00  0.00     0.261 C 
BRANCH  35  36
ATOM     36  O   UNL A   1      34.164  31.012  26.978  1.00  0.00    -0.460 OA
BRANCH  36  37
ATOM     37  C   UNL A   1      34.742  31.288  28.173  1.00  0.00     0.338 C 
ATOM     38  O   UNL A   1      34.316  32.004  29.062  1.00  0.00    -0.246 OA
BRANCH  37  39
ATOM     39  C   UNL A   1      35.919  30.432  28.359  1.00  0.00     0.060 A 
ATOM     40  C   UNL A   1      35.994  29.702  29.552  1.00  0.00     0.016 A 
ATOM     41  C   UNL A   1      36.968  30.420  27.438  1.00  0.00     0.016 A 
ATOM     42  C   UNL A   1      37.152  28.996  29.857  1.00  0.00     0.010 A 
ATOM     43  C   UNL A   1      38.135  29.719  27.752  1.00  0.00     0.010 A 
ATOM     44  C   UNL A   1      38.243  29.041  28.980  1.00  0.00    -0.014 A 
BRANCH  44  45
ATOM     45  C   UNL A   1      39.554  28.544  29.455  1.00  0.00     0.031 A 
ATOM     46  C   UNL A   1      40.197  29.236  30.626  1.00  0.00     0.074 A 
ATOM     47  C   UNL A   1      40.119  27.460  28.898  1.00  0.00     0.049 A 
ATOM     48  N   UNL A   1      41.315  28.957  31.243  1.00  0.00    -0.248 NA
ATOM     49  C   UNL A   1      39.475  30.395  31.178  1.00  0.00     0.031 C 
ATOM     50  C   UNL A   1      39.557  26.692  27.788  1.00  0.00     0.029 A 
ATOM     51  N   UNL A   1      41.289  26.811  29.199  1.00  0.00    -0.354 N 
ATOM     52  C   UNL A   1      41.425  29.898  32.261  1.00  0.00     0.074 A 
ATOM     53  C   UNL A   1      40.282  30.776  32.157  1.00  0.00     0.031 C 
ATOM     54  C   UNL A   1      40.386  25.673  27.500  1.00  0.00     0.029 A 
ATOM     55  C   UNL A   1      41.542  25.730  28.393  1.00  0.00     0.049 A 
ATOM     56  H   UNL A   1      41.891  27.095  29.925  1.00  0.00     0.167 HD
ATOM     57  C   UNL A   1      42.388  30.008  33.205  1.00  0.00     0.037 A 
ATOM     58  C   UNL A   1      42.594  24.889  28.379  1.00  0.00     0.037 A 
ATOM     59  C   UNL A   1      43.529  29.139  33.291  1.00  0.00     0.049 A 
ATOM     60  C   UNL A   1      43.685  25.075  29.400  1.00  0.00     0.074 A 
ATOM     61  C   UNL A   1      44.581  29.175  34.188  1.00  0.00     0.029 A 
ATOM     62  N   UNL A   1      43.765  28.072  32.436  1.00  0.00    -0.354 N 
ATOM     63  N   UNL A   1      43.774  25.959  30.364  1.00  0.00    -0.248 NA
ATOM     64  C   UNL A   1      44.819  24.142  29.336  1.00  0.00     0.031 C 
ATOM     65  C   UNL A   1      45.470  28.148  33.857  1.00  0.00     0.029 A 
ATOM     66  C   UNL A   1      44.952  27.448  32.778  1.00  0.00     0.049 A 
ATOM     67  H   UNL A   1      43.176  27.800  31.695  1.00  0.00     0.167 HD
ATOM     68  C   UNL A   1      44.953  25.671  31.039  1.00  0.00     0.074 A 
ATOM     69  C   UNL A   1      45.543  24.525  30.378  1.00  0.00     0.031 C 
ATOM     70  C   UNL A   1      45.501  26.296  32.110  1.00  0.00     0.037 A 
BRANCH  57  71
ATOM     71  C   UNL A   1      42.247  31.119  34.203  1.00  0.00     0.057 A 
ATOM     72  C   UNL A   1      41.574  30.934  35.419  1.00  0.00     0.134 A 
ATOM     73  C   UNL A   1      42.795  32.382  33.952  1.00  0.00     0.134 A 
ATOM     74  F   UNL A   1      41.010  29.753  35.710  1.00  0.00    -0.206 F 
ATOM     75  C   UNL A   1      41.433  31.974  36.340  1.00  0.00     0.040 A 
ATOM     76  C   UNL A   1      42.680  33.424  34.875  1.00  0.00     0.040 A 
ATOM     77  F   UNL A   1      43.451  32.625  32.808  1.00  0.00    -0.206 F 
ATOM     78  C   UNL A   1      41.993  33.222  36.071  1.00  0.00     0.006 A 
ENDBRANCH  57  71
BRANCH  58  79
ATOM     79  C   UNL A   1      42.665  23.796  27.376  1.00  0.00     0.057 A 
ATOM     80  C   UNL A   1      42.160  22.520  27.653  1.00  0.00     0.134 A 
ATOM     81  C   UNL A   1      43.259  23.997  26.124  1.00  0.00     0.134 A 
ATOM     82  F   UNL A   1      41.599  22.260  28.842  1.00  0.00    -0.206 F 
ATOM     83  C   UNL A   1      42.258  21.479  26.728  1.00  0.00     0.040 A 
ATOM     84  C   UNL A   1      43.342  22.971  25.181  1.00  0.00     0.040 A 
ATOM     85  F   UNL A   1      43.760  25.197  25.795  1.00  0.00    -0.206 F 
ATOM     86  C   UNL A   1      42.847  21.705  25.485  1.00  0.00     0.006 A 
ENDBRANCH  58  79
BRANCH  70  87
ATOM     87  C   UNL A   1      46.775  25.727  32.657  1.00  0.00     0.057 A 
ATOM     88  C   UNL A   1      48.026  26.102  32.152  1.00  0.00     0.134 A 
ATOM     89  C   UNL A   1      46.748  24.837  33.737  1.00  0.00     0.134 A 
ATOM     90  F   UNL A   1      48.115  26.944  31.112  1.00  0.00    -0.206 F 
ATOM     91  C   UNL A   1      49.208  25.597  32.694  1.00  0.00     0.040 A 
ATOM     92  C   UNL A   1      47.923  24.342  34.302  1.00  0.00     0.040 A 
ATOM     93  F   UNL A   1      45.580  24.447  34.270  1.00  0.00    -0.206 F 
ATOM     94  C   UNL A   1      49.158  24.720  33.777  1.00  0.00     0.006 A 
ENDBRANCH  70  87
ENDBRANCH  44  45
ENDBRANCH  37  39
ENDBRANCH  36  37
ENDBRANCH  35  36
ENDBRANCH  34  35
ENDBRANCH  33  34
ENDBRANCH  32  33
ENDBRANCH  31  32
ENDBRANCH   1  31
TORSDOF 23
ENDMDL
MODEL 2
REMARK VINA RESULT:      -9.6      3.075      8.647
REMARK SMILES CC(C)[C@H](NC(=O)[C@H](C)NC(=O)CNC(=O)OCc1ccccc1)C(=O)OCCOCCOC(=O)c1ccc(-c2c3nc(c(-c4c(F)cccc4F)c4ccc([nH]4)c(-c4c(F)cccc4F)c4nc(c(-c5c(F)cccc5F)c5ccc2[nH]5)C=C4)C=C3)cc1
REMARK SMILES IDX 27 1 25 2 26 3 4 4 2 5 1 6 3 7 5 8 6 9 7 11 8 12 9 13 10 14
REMARK SMILES IDX 11 15 12 17 13 18 14 19 15 20 16 22 17 23 18 24 19 25 20 26
REMARK SMILES IDX 24 27 21 28 23 29 22 30 28 31 29 32 30 33 31 34 32 35 33 36
REMARK SMILES IDX 34 37 35 38 36 39 37 40 89 41 38 42 88 43 39 44 40 45 41 46
REMARK SMILES IDX 82 47 42 48 87 49 81 50 83 51 43 52 86 53 80 54 79 55 44 57
REMARK SMILES IDX 70 58 53 59 69 60 54 61 57 62 68 63 84 64 55 65 56 66 67 68
REMARK SMILES IDX 85 69 58 70 45 71 46 72 51 73 47 74 48 75 50 76 52 77 49 78
REMARK SMILES IDX 71 79 72 80 77 81 73 82 74 83 76 84 78 85 75 86 59 87 60 88
REMARK SMILES IDX 65 89 61 90 62 91 64 92 66 93 63 94
REMARK H PARENT 5 10 10 16 14 21 83 56 57 67
REMARK Flexibility Score: inf
ROOT
ATOM      1  O   UNL A   1      35.000  21.466  26.672  1.00  0.00    -0.462 OA
ENDROOT
BRANCH   1   2
ATOM      2  C   UNL A   1      33.900  22.246  26.911  1.00  0.00     0.328 C 
ATOM      3  O   UNL A   1      33.276  22.232  27.967  1.00  0.00    -0.250 OA
BRANCH   2   4
ATOM      4  C   UNL A   1      33.524  23.178  25.723  1.00  0.00     0.194 C 
BRANCH   4   5
ATOM      5  C   UNL A   1      34.498  24.396  25.745  1.00  0.00     0.017 C 
ATOM      6  C   UNL A   1      35.513  24.262  24.601  1.00  0.00     0.010 C 
ATOM      7  C   UNL A   1      33.831  25.772  25.655  1.00  0.00     0.010 C 
ENDBRANCH   4   5
BRANCH   4   8
ATOM      8  N   UNL A   1      32.112  23.597  25.668  1.00  0.00    -0.341 N 
ATOM      9  C   UNL A   1      31.283  23.841  24.612  1.00  0.00     0.242 C 
ATOM     10  H   UNL A   1      31.694  23.723  26.550  1.00  0.00     0.164 HD
ATOM     11  O   UNL A   1      30.372  24.653  24.805  1.00  0.00    -0.273 OA
BRANCH   9  12
ATOM     12  C   UNL A   1      31.494  23.195  23.213  1.00  0.00     0.168 C 
ATOM     13  C   UNL A   1      31.879  21.732  23.463  1.00  0.00     0.041 C 
BRANCH  12  14
ATOM     14  N   UNL A   1      32.551  23.902  22.502  1.00  0.00    -0.343 N 
ATOM     15  C   UNL A   1      32.672  25.205  22.125  1.00  0.00     0.240 C 
ATOM     16  H   UNL A   1      33.316  23.337  22.250  1.00  0.00     0.164 HD
ATOM     17  O   UNL A   1      33.799  25.613  21.837  1.00  0.00    -0.273 OA
BRANCH  15  18
ATOM     18  C   UNL A   1      31.462  26.124  22.030  1.00  0.00     0.219 C 
BRANCH  18  19
ATOM     19  N   UNL A   1      31.932  27.491  21.979  1.00  0.00    -0.312 N 
ATOM     20  C   UNL A   1      31.313  28.564  22.534  1.00  0.00     0.407 C 
ATOM     21  H   UNL A   1      32.775  27.659  21.498  1.00  0.00     0.167 HD
ATOM     22  O   UNL A   1      31.667  29.705  22.278  1.00  0.00    -0.225 OA
BRANCH  20  23
ATOM     23  O   UNL A   1      30.296  28.210  23.350  1.00  0.00    -0.445 OA
BRANCH  23  24
ATOM     24  C   UNL A   1      28.978  28.434  22.836  1.00  0.00     0.270 C 
BRANCH  24  25
ATOM     25  C   UNL A   1      28.660  29.892  22.597  1.00  0.00    -0.011 A 
ATOM     26  C   UNL A   1      28.320  30.309  21.300  1.00  0.00     0.007 A 
ATOM     27  C   UNL A   1      28.786  30.867  23.598  1.00  0.00     0.007 A 
ATOM     28  C   UNL A   1      28.113  31.661  21.019  1.00  0.00     0.000 A 
ATOM     29  C   UNL A   1      28.585  32.217  23.315  1.00  0.00     0.000 A 
ATOM     30  C   UNL A   1      28.251  32.615  22.025  1.00  0.00     0.000 A 
ENDBRANCH  24  25
ENDBRANCH  23  24
ENDBRANCH  20  23
ENDBRANCH  18  19
ENDBRANCH  15  18
ENDBRANCH  12  14
ENDBRANCH   9  12
ENDBRANCH   4   8
ENDBRANCH   2   4
ENDBRANCH   1   2
BRANCH   1  31
ATOM     31  C   UNL A   1      34.947  20.796  25.387  1.00  0.00     0.261 C 
BRANCH  31  32
ATOM     32  C   UNL A   1      36.318  20.269  24.948  1.00  0.00     0.202 C 
BRANCH  32  33
ATOM     33  O   UNL A   1      37.307  21.251  24.615  1.00  0.00    -0.374 OA
BRANCH  33  34
ATOM     34  C   UNL A   1      38.493  21.244  25.400  1.00  0.00     0.202 C 
BRANCH  34  35
ATOM     35  C   UNL A   1      39.248  19.910  25.428  1.00  0.00     0.261 C 
BRANCH  35  36
ATOM     36  O   UNL A   1      40.199  19.859  26.500  1.00  0.00    -0.460 OA
BRANCH  36  37
ATOM     37  C   UNL A   1      41.488  19.853  26.081  1.00  0.00     0.338 C 
ATOM     38  O   UNL A   1      42.026  19.061  25.326  1.00  0.00    -0.246 OA
BRANCH  37  39
ATOM     39  C   UNL A   1      42.152  21.086  26.519  1.00  0.00     0.060 A 
ATOM     40  C   UNL A   1      42.242  21.305  27.899  1.00  0.00     0.016 A 
ATOM     41  C   UNL A   1      42.585  22.048  25.606  1.00  0.00     0.016 A 
ATOM     42  C   UNL A   1      42.719  22.521  28.375  1.00  0.00     0.010 A 
ATOM     43  C   UNL A   1      43.053  23.274  26.086  1.00  0.00     0.010 A 
ATOM     44  C   UNL A   1      43.081  23.526  27.470  1.00  0.00    -0.014 A 
BRANCH  44  45
ATOM     45  C   UNL A   1      43.293  24.898  27.983  1.00  0.00     0.031 A 
ATOM     46  C   UNL A   1      44.706  25.376  28.179  1.00  0.00     0.074 A 
ATOM     47  C   UNL A   1      42.251  25.717  28.202  1.00  0.00     0.049 A 
ATOM     48  N   UNL A   1      45.141  26.543  28.575  1.00  0.00    -0.248 NA
ATOM     49  C   UNL A   1      45.772  24.404  27.880  1.00  0.00     0.031 C 
ATOM     50  C   UNL A   1      40.846  25.366  28.002  1.00  0.00     0.029 A 
ATOM     51  N   UNL A   1      42.216  27.019  28.631  1.00  0.00    -0.354 N 
ATOM     52  C   UNL A   1      46.528  26.450  28.562  1.00  0.00     0.074 A 
ATOM     53  C   UNL A   1      46.862  25.104  28.156  1.00  0.00     0.031 C 
ATOM     54  C   UNL A   1      40.084  26.430  28.310  1.00  0.00     0.029 A 
ATOM     55  C   UNL A   1      40.946  27.527  28.744  1.00  0.00     0.049 A 
ATOM     56  H   UNL A   1      43.026  27.540  28.839  1.00  0.00     0.167 HD
ATOM     57  C   UNL A   1      47.439  27.408  28.851  1.00  0.00     0.037 A 
ATOM     58  C   UNL A   1      40.535  28.740  29.159  1.00  0.00     0.037 A 
ATOM     59  C   UNL A   1      47.096  28.739  29.269  1.00  0.00     0.049 A 
ATOM     60  C   UNL A   1      41.569  29.768  29.538  1.00  0.00     0.074 A 
ATOM     61  C   UNL A   1      47.936  29.782  29.614  1.00  0.00     0.029 A 
ATOM     62  N   UNL A   1      45.797  29.207  29.401  1.00  0.00    -0.354 N 
ATOM     63  N   UNL A   1      42.877  29.674  29.511  1.00  0.00    -0.248 NA
ATOM     64  C   UNL A   1      41.071  31.072  29.998  1.00  0.00     0.031 C 
ATOM     65  C   UNL A   1      47.143  30.873  29.985  1.00  0.00     0.029 A 
ATOM     66  C   UNL A   1      45.811  30.521  29.832  1.00  0.00     0.049 A 
ATOM     67  H   UNL A   1      44.985  28.681  29.215  1.00  0.00     0.167 HD
ATOM     68  C   UNL A   1      43.357  30.911  29.920  1.00  0.00     0.074 A 
ATOM     69  C   UNL A   1      42.200  31.742  30.182  1.00  0.00     0.031 C 
ATOM     70  C   UNL A   1      44.639  31.326  30.065  1.00  0.00     0.037 A 
BRANCH  57  71
ATOM     71  C   UNL A   1      48.887  27.035  28.737  1.00  0.00     0.057 A 
ATOM     72  C   UNL A   1      49.600  27.209  27.543  1.00  0.00     0.134 A 
ATOM     73  C   UNL A   1      49.579  26.504  29.832  1.00  0.00     0.134 A 
ATOM     74  F   UNL A   1      48.989  27.695  26.452  1.00  0.00    -0.206 F 
ATOM     75  C   UNL A   1      50.945  26.849  27.437  1.00  0.00     0.040 A 
ATOM     76  C   UNL A   1      50.930  26.161  29.745  1.00  0.00     0.040 A 
ATOM     77  F   UNL A   1      48.955  26.312  31.004  1.00  0.00    -0.206 F 
ATOM     78  C   UNL A   1      51.614  26.328  28.542  1.00  0.00     0.006 A 
ENDBRANCH  57  71
BRANCH  58  79
ATOM     79  C   UNL A   1      39.086  29.055  29.232  1.00  0.00     0.057 A 
ATOM     80  C   UNL A   1      38.363  28.888  30.419  1.00  0.00     0.134 A 
ATOM     81  C   UNL A   1      38.383  29.511  28.109  1.00  0.00     0.134 A 
ATOM     82  F   UNL A   1      38.974  28.434  31.523  1.00  0.00    -0.206 F 
ATOM     83  C   UNL A   1      36.993  29.147  30.484  1.00  0.00     0.040 A 
ATOM     84  C   UNL A   1      37.018  29.796  28.166  1.00  0.00     0.040 A 
ATOM     85  F   UNL A   1      39.017  29.695  26.942  1.00  0.00    -0.206 F 
ATOM     86  C   UNL A   1      36.317  29.607  29.355  1.00  0.00     0.006 A 
ENDBRANCH  58  79
BRANCH  70  87
ATOM     87  C   UNL A   1      44.855  32.749  30.483  1.00  0.00     0.057 A 
ATOM     88  C   UNL A   1      44.929  33.789  29.549  1.00  0.00     0.134 A 
ATOM     89  C   UNL A   1      44.932  33.085  31.840  1.00  0.00     0.134 A 
ATOM     90  F   UNL A   1      44.871  33.527  28.235  1.00  0.00    -0.206 F 
ATOM     91  C   UNL A   1      45.090  35.115  29.950  1.00  0.00     0.040 A 
ATOM     92  C   UNL A   1      45.072  34.409  32.255  1.00  0.00     0.040 A 
ATOM     93  F   UNL A   1      44.858  32.133  32.783  1.00  0.00    -0.206 F 
ATOM     94  C   UNL A   1      45.155  35.429  31.308  1.00  0.00     0.006 A 
ENDBRANCH  70  87
ENDBRANCH  44  45
ENDBRANCH  37  39
ENDBRANCH  36  37
ENDBRANCH  35  36
ENDBRANCH  34  35
ENDBRANCH  33  34
ENDBRANCH  32  33
ENDBRANCH  31  32
ENDBRANCH   1  31
TORSDOF 23
ENDMDL
MODEL 3
REMARK VINA RESULT:      -9.5      2.508      4.030
REMARK SMILES CC(C)[C@H](NC(=O)[C@H](C)NC(=O)CNC(=O)OCc1ccccc1)C(=O)OCCOCCOC(=O)c1ccc(-c2c3nc(c(-c4c(F)cccc4F)c4ccc([nH]4)c(-c4c(F)cccc4F)c4nc(c(-c5c(F)cccc5F)c5ccc2[nH]5)C=C4)C=C3)cc1
REMARK SMILES IDX 27 1 25 2 26 3 4 4 2 5 1 6 3 7 5 8 6 9 7 11 8 12 9 13 10 14
REMARK SMILES IDX 11 15 12 17 13 18 14 19 15 20 16 22 17 23 18 24 19 25 20 26
REMARK SMILES IDX 24 27 21 28 23 29 22 30 28 31 29 32 30 33 31 34 32 35 33 36
REMARK SMILES IDX 34 37 35 38 36 39 37 40 89 41 38 42 88 43 39 44 40 45 41 46
REMARK SMILES IDX 82 47 42 48 87 49 81 50 83 51 43 52 86 53 80 54 79 55 44 57
REMARK SMILES IDX 70 58 53 59 69 60 54 61 57 62 68 63 84 64 55 65 56 66 67 68
REMARK SMILES IDX 85 69 58 70 45 71 46 72 51 73 47 74 48 75 50 76 52 77 49 78
REMARK SMILES IDX 71 79 72 80 77 81 73 82 74 83 76 84 78 85 75 86 59 87 60 88
REMARK SMILES IDX 65 89 61 90 62 91 64 92 66 93 63 94
REMARK H PARENT 5 10 10 16 14 21 83 56 57 67
REMARK Flexibility Score: inf
ROOT
ATOM      1  O   UNL A   1      30.857  29.700  24.549  1.00  0.00    -0.462 OA
ENDROOT
BRANCH   1   2
ATOM      2  C   UNL A   1      30.841  29.194  23.278  1.00  0.00     0.328 C 
ATOM      3  O   UNL A   1      31.855  28.910  22.649  1.00  0.00    -0.250 OA
BRANCH   2   4
ATOM      4  C   UNL A   1      29.409  28.982  22.707  1.00  0.00     0.194 C 
BRANCH   4   5
ATOM      5  C   UNL A   1      28.775  30.389  22.473  1.00  0.00     0.017 C 
ATOM      6  C   UNL A   1      28.168  30.450  21.064  1.00  0.00     0.010 C 
ATOM      7  C   UNL A   1      27.708  30.806  23.490  1.00  0.00     0.010 C 
ENDBRANCH   4   5
BRANCH   4   8
ATOM      8  N   UNL A   1      28.533  28.104  23.501  1.00  0.00    -0.341 N 
ATOM      9  C   UNL A   1      28.706  26.829  23.957  1.00  0.00     0.242 C 
ATOM     10  H   UNL A   1      27.669  28.509  23.745  1.00  0.00     0.164 HD
ATOM     11  O   UNL A   1      27.680  26.160  24.119  1.00  0.00    -0.273 OA
BRANCH   9  12
ATOM     12  C   UNL A   1      30.110  26.210  24.204  1.00  0.00     0.168 C 
ATOM     13  C   UNL A   1      30.465  25.418  22.940  1.00  0.00     0.041 C 
BRANCH  12  14
ATOM     14  N   UNL A   1      30.062  25.339  25.372  1.00  0.00    -0.343 N 
ATOM     15  C   UNL A   1      30.989  24.504  25.917  1.00  0.00     0.240 C 
ATOM     16  H   UNL A   1      29.204  25.358  25.855  1.00  0.00     0.164 HD
ATOM     17  O   UNL A   1      30.815  24.141  27.083  1.00  0.00    -0.273 OA
BRANCH  15  18
ATOM     18  C   UNL A   1      32.185  24.008  25.116  1.00  0.00     0.219 C 
BRANCH  18  19
ATOM     19  N   UNL A   1      33.182  23.519  26.043  1.00  0.00    -0.312 N 
ATOM     20  C   UNL A   1      33.630  22.240  26.125  1.00  0.00     0.407 C 
ATOM     21  H   UNL A   1      33.570  24.171  26.670  1.00  0.00     0.167 HD
ATOM     22  O   UNL A   1      34.322  21.867  27.059  1.00  0.00    -0.225 OA
BRANCH  20  23
ATOM     23  O   UNL A   1      33.209  21.478  25.091  1.00  0.00    -0.445 OA
BRANCH  23  24
ATOM     24  C   UNL A   1      32.274  20.444  25.421  1.00  0.00     0.270 C 
BRANCH  24  25
ATOM     25  C   UNL A   1      32.698  19.070  24.955  1.00  0.00    -0.011 A 
ATOM     26  C   UNL A   1      33.033  18.885  23.605  1.00  0.00     0.007 A 
ATOM     27  C   UNL A   1      32.675  17.947  25.796  1.00  0.00     0.007 A 
ATOM     28  C   UNL A   1      33.337  17.613  23.116  1.00  0.00     0.000 A 
ATOM     29  C   UNL A   1      32.973  16.676  25.305  1.00  0.00     0.000 A 
ATOM     30  C   UNL A   1      33.301  16.509  23.964  1.00  0.00     0.000 A 
ENDBRANCH  24  25
ENDBRANCH  23  24
ENDBRANCH  20  23
ENDBRANCH  18  19
ENDBRANCH  15  18
ENDBRANCH  12  14
ENDBRANCH   9  12
ENDBRANCH   4   8
ENDBRANCH   2   4
ENDBRANCH   1   2
BRANCH   1  31
ATOM     31  C   UNL A   1      32.014  29.271  25.311  1.00  0.00     0.261 C 
BRANCH  31  32
ATOM     32  C   UNL A   1      31.907  29.646  26.795  1.00  0.00     0.202 C 
BRANCH  32  33
ATOM     33  O   UNL A   1      32.670  30.780  27.227  1.00  0.00    -0.374 OA
BRANCH  33  34
ATOM     34  C   UNL A   1      32.042  32.050  27.094  1.00  0.00     0.202 C 
BRANCH  34  35
ATOM     35  C   UNL A   1      32.968  33.257  27.285  1.00  0.00     0.261 C 
BRANCH  35  36
ATOM     36  O   UNL A   1      32.410  34.219  28.190  1.00  0.00    -0.460 OA
BRANCH  36  37
ATOM     37  C   UNL A   1      33.332  34.812  28.986  1.00  0.00     0.338 C 
ATOM     38  O   UNL A   1      33.211  35.834  29.640  1.00  0.00    -0.246 OA
BRANCH  37  39
ATOM     39  C   UNL A   1      34.500  33.934  29.123  1.00  0.00     0.060 A 
ATOM     40  C   UNL A   1      34.308  32.719  29.791  1.00  0.00     0.016 A 
ATOM     41  C   UNL A   1      35.768  34.332  28.699  1.00  0.00     0.016 A 
ATOM     42  C   UNL A   1      35.402  31.915  30.089  1.00  0.00     0.010 A 
ATOM     43  C   UNL A   1      36.868  33.529  29.009  1.00  0.00     0.010 A 
ATOM     44  C   UNL A   1      36.690  32.341  29.741  1.00  0.00    -0.014 A 
BRANCH  44  45
ATOM     45  C   UNL A   1      37.852  31.633  30.326  1.00  0.00     0.031 A 
ATOM     46  C   UNL A   1      38.219  31.927  31.756  1.00  0.00     0.074 A 
ATOM     47  C   UNL A   1      38.515  30.703  29.620  1.00  0.00     0.049 A 
ATOM     48  N   UNL A   1      39.163  31.405  32.494  1.00  0.00    -0.248 NA
ATOM     49  C   UNL A   1      37.404  32.942  32.445  1.00  0.00     0.031 C 
ATOM     50  C   UNL A   1      38.212  30.314  28.244  1.00  0.00     0.029 A 
ATOM     51  N   UNL A   1      39.578  29.910  29.969  1.00  0.00    -0.354 N 
ATOM     52  C   UNL A   1      39.049  32.020  33.736  1.00  0.00     0.074 A 
ATOM     53  C   UNL A   1      37.971  32.978  33.642  1.00  0.00     0.031 C 
ATOM     54  C   UNL A   1      39.073  29.353  27.864  1.00  0.00     0.029 A 
ATOM     55  C   UNL A   1      39.994  29.074  28.963  1.00  0.00     0.049 A 
ATOM     56  H   UNL A   1      40.001  29.937  30.858  1.00  0.00     0.167 HD
ATOM     57  C   UNL A   1      39.772  31.793  34.857  1.00  0.00     0.037 A 
ATOM     58  C   UNL A   1      41.011  28.192  28.938  1.00  0.00     0.037 A 
ATOM     59  C   UNL A   1      40.852  30.849  34.936  1.00  0.00     0.049 A 
ATOM     60  C   UNL A   1      41.843  28.006  30.180  1.00  0.00     0.074 A 
ATOM     61  C   UNL A   1      41.672  30.557  36.011  1.00  0.00     0.029 A 
ATOM     62  N   UNL A   1      41.264  30.042  33.885  1.00  0.00    -0.354 N 
ATOM     63  N   UNL A   1      41.720  28.583  31.351  1.00  0.00    -0.248 NA
ATOM     64  C   UNL A   1      42.949  27.043  30.099  1.00  0.00     0.031 C 
ATOM     65  C   UNL A   1      42.600  29.595  35.602  1.00  0.00     0.029 A 
ATOM     66  C   UNL A   1      42.333  29.259  34.283  1.00  0.00     0.049 A 
ATOM     67  H   UNL A   1      40.857  30.029  32.989  1.00  0.00     0.167 HD
ATOM     68  C   UNL A   1      42.710  28.032  32.154  1.00  0.00     0.074 A 
ATOM     69  C   UNL A   1      43.421  27.069  31.338  1.00  0.00     0.031 C 
ATOM     70  C   UNL A   1      43.006  28.296  33.450  1.00  0.00     0.037 A 
BRANCH  57  71
ATOM     71  C   UNL A   1      39.421  32.595  36.075  1.00  0.00     0.057 A 
ATOM     72  C   UNL A   1      40.026  33.831  36.341  1.00  0.00     0.134 A 
ATOM     73  C   UNL A   1      38.464  32.133  36.987  1.00  0.00     0.134 A 
ATOM     74  F   UNL A   1      40.964  34.319  35.516  1.00  0.00    -0.206 F 
ATOM     75  C   UNL A   1      39.707  34.569  37.482  1.00  0.00     0.040 A 
ATOM     76  C   UNL A   1      38.120  32.873  38.120  1.00  0.00     0.040 A 
ATOM     77  F   UNL A   1      37.848  30.958  36.790  1.00  0.00    -0.206 F 
ATOM     78  C   UNL A   1      38.746  34.092  38.372  1.00  0.00     0.006 A 
ENDBRANCH  57  71
BRANCH  58  79
ATOM     79  C   UNL A   1      41.296  27.413  27.706  1.00  0.00     0.057 A 
ATOM     80  C   UNL A   1      40.763  26.133  27.515  1.00  0.00     0.134 A 
ATOM     81  C   UNL A   1      42.125  27.923  26.700  1.00  0.00     0.134 A 
ATOM     82  F   UNL A   1      39.978  25.581  28.451  1.00  0.00    -0.206 F 
ATOM     83  C   UNL A   1      41.057  25.382  26.375  1.00  0.00     0.040 A 
ATOM     84  C   UNL A   1      42.409  27.192  25.545  1.00  0.00     0.040 A 
ATOM     85  F   UNL A   1      42.666  29.144  26.820  1.00  0.00    -0.206 F 
ATOM     86  C   UNL A   1      41.880  25.913  25.384  1.00  0.00     0.006 A 
ENDBRANCH  58  79
BRANCH  70  87
ATOM     87  C   UNL A   1      44.115  27.503  34.074  1.00  0.00     0.057 A 
ATOM     88  C   UNL A   1      43.885  26.257  34.668  1.00  0.00     0.134 A 
ATOM     89  C   UNL A   1      45.434  27.971  34.027  1.00  0.00     0.134 A 
ATOM     90  F   UNL A   1      42.641  25.762  34.752  1.00  0.00    -0.206 F 
ATOM     91  C   UNL A   1      44.930  25.508  35.211  1.00  0.00     0.040 A 
ATOM     92  C   UNL A   1      46.490  27.222  34.548  1.00  0.00     0.040 A 
ATOM     93  F   UNL A   1      45.718  29.154  33.463  1.00  0.00    -0.206 F 
ATOM     94  C   UNL A   1      46.238  25.988  35.145  1.00  0.00     0.006 A 
ENDBRANCH  70  87
ENDBRANCH  44  45
ENDBRANCH  37  39
ENDBRANCH  36  37
ENDBRANCH  35  36
ENDBRANCH  34  35
ENDBRANCH  33  34
ENDBRANCH  32  33
ENDBRANCH  31  32
ENDBRANCH   1  31
TORSDOF 23
ENDMDL
