MODEL 1
REMARK VINA RESULT:     -11.8      0.000      0.000
REMARK SMILES O=C(OCCOCCOC(=O)c1cc(F)c(F)cc1NS(=O)(=O)c1ccc2c(c1)CCC2)c1ccc(-c2c3nc(c(-c4c(F)cccc4F)c4ccc([nH]4)c(-c4c(F)cccc4F)c4nc(c(-c5c(F)cccc5F)c5ccc2[nH]5)C=C4)C=C3)cc1
REMARK SMILES IDX 7 1 6 2 5 3 4 4 3 5 2 6 1 7 33 8 34 9 86 10 35 11 85 12
REMARK SMILES IDX 36 13 37 14 38 15 79 16 39 17 84 18 78 19 80 20 40 21 83 22
REMARK SMILES IDX 77 23 76 24 41 26 67 27 50 28 66 29 51 30 54 31 65 32 81 33
REMARK SMILES IDX 52 34 53 35 64 37 82 38 55 39 42 40 43 41 48 42 44 43 45 44
REMARK SMILES IDX 47 45 49 46 46 47 68 48 69 49 74 50 70 51 71 52 73 53 75 54
REMARK SMILES IDX 72 55 56 56 57 57 62 58 58 59 59 60 61 61 63 62 60 63 8 64
REMARK SMILES IDX 9 65 10 66 11 67 12 68 13 69 19 70 14 71 18 72 15 73 16 74
REMARK SMILES IDX 17 75 20 76 21 78 22 79 23 80 24 81 25 82 29 83 26 84 28 85
REMARK SMILES IDX 27 86 30 87 32 88 31 89
REMARK H PARENT 80 25 54 36 20 77
REMARK Flexibility Score: inf
ROOT
ATOM      1  C   UNL A   1      33.015  29.541  27.268  1.00  0.00     0.202 C 
ENDROOT
BRANCH   1   2
ATOM      2  O   UNL A   1      32.912  30.786  26.582  1.00  0.00    -0.374 OA
BRANCH   2   3
ATOM      3  C   UNL A   1      31.752  31.566  26.870  1.00  0.00     0.202 C 
BRANCH   3   4
ATOM      4  C   UNL A   1      31.920  33.066  26.626  1.00  0.00     0.261 C 
BRANCH   4   5
ATOM      5  O   UNL A   1      32.076  33.760  27.874  1.00  0.00    -0.460 OA
BRANCH   5   6
ATOM      6  C   UNL A   1      33.192  34.343  28.370  1.00  0.00     0.338 C 
ATOM      7  O   UNL A   1      33.226  35.570  28.442  1.00  0.00    -0.246 OA
BRANCH   6   8
ATOM      8  C   UNL A   1      34.387  33.588  28.861  1.00  0.00     0.060 A 
ATOM      9  C   UNL A   1      34.357  32.316  29.436  1.00  0.00     0.016 A 
ATOM     10  C   UNL A   1      35.646  34.181  28.656  1.00  0.00     0.016 A 
ATOM     11  C   UNL A   1      35.512  31.673  29.846  1.00  0.00     0.010 A 
ATOM     12  C   UNL A   1      36.823  33.529  29.041  1.00  0.00     0.010 A 
ATOM     13  C   UNL A   1      36.749  32.277  29.657  1.00  0.00    -0.014 A 
BRANCH  13  14
ATOM     14  C   UNL A   1      37.910  31.612  30.268  1.00  0.00     0.031 A 
ATOM     15  C   UNL A   1      38.153  31.826  31.729  1.00  0.00     0.074 A 
ATOM     16  C   UNL A   1      38.587  30.689  29.562  1.00  0.00     0.049 A 
ATOM     17  N   UNL A   1      39.073  31.314  32.500  1.00  0.00    -0.248 NA
ATOM     18  C   UNL A   1      37.214  32.726  32.423  1.00  0.00     0.031 C 
ATOM     19  C   UNL A   1      38.307  30.322  28.171  1.00  0.00     0.029 A 
ATOM     20  N   UNL A   1      39.608  29.857  29.930  1.00  0.00    -0.354 N 
ATOM     21  C   UNL A   1      38.841  31.849  33.759  1.00  0.00     0.074 A 
ATOM     22  C   UNL A   1      37.696  32.725  33.655  1.00  0.00     0.031 C 
ATOM     23  C   UNL A   1      39.113  29.309  27.816  1.00  0.00     0.029 A 
ATOM     24  C   UNL A   1      40.004  29.002  28.930  1.00  0.00     0.049 A 
ATOM     25  H   UNL A   1      40.020  29.869  30.823  1.00  0.00     0.167 HD
ATOM     26  C   UNL A   1      39.537  31.630  34.898  1.00  0.00     0.037 A 
ATOM     27  C   UNL A   1      40.993  28.089  28.924  1.00  0.00     0.037 A 
ATOM     28  C   UNL A   1      40.668  30.748  34.968  1.00  0.00     0.049 A 
ATOM     29  C   UNL A   1      41.805  27.928  30.180  1.00  0.00     0.074 A 
ATOM     30  C   UNL A   1      41.511  30.499  36.034  1.00  0.00     0.029 A 
ATOM     31  N   UNL A   1      41.107  29.959  33.911  1.00  0.00    -0.354 N 
ATOM     32  N   UNL A   1      41.643  28.505  31.348  1.00  0.00    -0.248 NA
ATOM     33  C   UNL A   1      42.946  27.007  30.116  1.00  0.00     0.031 C 
ATOM     34  C   UNL A   1      42.486  29.587  35.609  1.00  0.00     0.029 A 
ATOM     35  C   UNL A   1      42.219  29.232  34.294  1.00  0.00     0.049 A 
ATOM     36  H   UNL A   1      40.688  29.924  33.021  1.00  0.00     0.167 HD
ATOM     37  C   UNL A   1      42.646  28.002  32.165  1.00  0.00     0.074 A 
ATOM     38  C   UNL A   1      43.400  27.060  31.360  1.00  0.00     0.031 C 
ATOM     39  C   UNL A   1      42.928  28.293  33.459  1.00  0.00     0.037 A 
BRANCH  26  40
ATOM     40  C   UNL A   1      39.133  32.429  36.100  1.00  0.00     0.057 A 
ATOM     41  C   UNL A   1      39.646  33.705  36.363  1.00  0.00     0.134 A 
ATOM     42  C   UNL A   1      38.257  31.879  37.046  1.00  0.00     0.134 A 
ATOM     43  F   UNL A   1      40.516  34.276  35.515  1.00  0.00    -0.206 F 
ATOM     44  C   UNL A   1      39.329  34.392  37.537  1.00  0.00     0.040 A 
ATOM     45  C   UNL A   1      37.914  32.565  38.212  1.00  0.00     0.040 A 
ATOM     46  F   UNL A   1      37.737  30.656  36.862  1.00  0.00    -0.206 F 
ATOM     47  C   UNL A   1      38.459  33.822  38.464  1.00  0.00     0.006 A 
ENDBRANCH  26  40
BRANCH  27  48
ATOM     48  C   UNL A   1      41.288  27.301  27.699  1.00  0.00     0.057 A 
ATOM     49  C   UNL A   1      40.755  26.021  27.503  1.00  0.00     0.134 A 
ATOM     50  C   UNL A   1      42.130  27.803  26.697  1.00  0.00     0.134 A 
ATOM     51  F   UNL A   1      39.959  25.473  28.432  1.00  0.00    -0.206 F 
ATOM     52  C   UNL A   1      41.060  25.266  26.369  1.00  0.00     0.040 A 
ATOM     53  C   UNL A   1      42.420  27.071  25.544  1.00  0.00     0.040 A 
ATOM     54  F   UNL A   1      42.677  29.022  26.818  1.00  0.00    -0.206 F 
ATOM     55  C   UNL A   1      41.891  25.793  25.382  1.00  0.00     0.006 A 
ENDBRANCH  27  48
BRANCH  39  56
ATOM     56  C   UNL A   1      44.068  27.548  34.082  1.00  0.00     0.057 A 
ATOM     57  C   UNL A   1      45.371  28.062  34.085  1.00  0.00     0.134 A 
ATOM     58  C   UNL A   1      43.847  26.322  34.718  1.00  0.00     0.134 A 
ATOM     59  F   UNL A   1      45.645  29.226  33.479  1.00  0.00    -0.206 F 
ATOM     60  C   UNL A   1      46.421  27.365  34.682  1.00  0.00     0.040 A 
ATOM     61  C   UNL A   1      44.884  25.630  35.341  1.00  0.00     0.040 A 
ATOM     62  F   UNL A   1      42.617  25.785  34.756  1.00  0.00    -0.206 F 
ATOM     63  C   UNL A   1      46.177  26.149  35.319  1.00  0.00     0.006 A 
ENDBRANCH  39  56
ENDBRANCH  13  14
ENDBRANCH   6   8
ENDBRANCH   5   6
ENDBRANCH   4   5
ENDBRANCH   3   4
ENDBRANCH   2   3
ENDBRANCH   1   2
BRANCH   1  64
ATOM     64  C   UNL A   1      31.777  28.703  26.945  1.00  0.00     0.261 C 
BRANCH  64  65
ATOM     65  O   UNL A   1      32.151  27.639  26.054  1.00  0.00    -0.460 OA
BRANCH  65  66
ATOM     66  C   UNL A   1      32.401  27.967  24.761  1.00  0.00     0.340 C 
ATOM     67  O   UNL A   1      33.474  28.035  24.187  1.00  0.00    -0.246 OA
BRANCH  66  68
ATOM     68  C   UNL A   1      31.087  28.007  24.083  1.00  0.00     0.087 A 
ATOM     69  C   UNL A   1      30.660  29.233  23.543  1.00  0.00     0.060 A 
ATOM     70  C   UNL A   1      30.230  26.884  24.122  1.00  0.00     0.066 A 
ATOM     71  C   UNL A   1      29.362  29.357  23.079  1.00  0.00     0.159 A 
ATOM     72  C   UNL A   1      28.904  27.079  23.727  1.00  0.00     0.070 A 
ATOM     73  F   UNL A   1      28.960  30.519  22.548  1.00  0.00    -0.204 F 
ATOM     74  C   UNL A   1      28.483  28.296  23.194  1.00  0.00     0.160 A 
ATOM     75  F   UNL A   1      27.218  28.420  22.773  1.00  0.00    -0.204 F 
BRANCH  70  76
ATOM     76  N   UNL A   1      30.764  25.578  24.411  1.00  0.00    -0.279 N 
ATOM     77  H   UNL A   1      30.599  25.224  25.314  1.00  0.00     0.180 HD
BRANCH  76  78
ATOM     78  S   UNL A   1      31.640  24.593  23.365  1.00  0.00     0.261 S 
ATOM     79  O   UNL A   1      31.061  23.271  23.437  1.00  0.00    -0.201 OA
ATOM     80  O   UNL A   1      31.752  25.301  22.106  1.00  0.00    -0.201 OA
BRANCH  78  81
ATOM     81  C   UNL A   1      33.265  24.501  24.090  1.00  0.00     0.088 A 
ATOM     82  C   UNL A   1      33.348  24.396  25.495  1.00  0.00     0.022 A 
ATOM     83  C   UNL A   1      34.344  24.172  23.263  1.00  0.00     0.026 A 
ATOM     84  C   UNL A   1      34.477  23.829  26.085  1.00  0.00     0.005 A 
ATOM     85  C   UNL A   1      35.427  23.557  23.861  1.00  0.00    -0.043 A 
ATOM     86  C   UNL A   1      35.477  23.359  25.249  1.00  0.00    -0.045 A 
ATOM     87  C   UNL A   1      36.603  22.920  23.192  1.00  0.00     0.036 C 
ATOM     88  C   UNL A   1      36.678  22.546  25.623  1.00  0.00     0.036 C 
ATOM     89  C   UNL A   1      37.024  21.908  24.268  1.00  0.00     0.010 C 
ENDBRANCH  78  81
ENDBRANCH  76  78
ENDBRANCH  70  76
ENDBRANCH  66  68
ENDBRANCH  65  66
ENDBRANCH  64  65
ENDBRANCH   1  64
TORSDOF 17
ENDMDL
MODEL 2
REMARK VINA RESULT:     -11.8      4.583      9.033
REMARK SMILES O=C(OCCOCCOC(=O)c1cc(F)c(F)cc1NS(=O)(=O)c1ccc2c(c1)CCC2)c1ccc(-c2c3nc(c(-c4c(F)cccc4F)c4ccc([nH]4)c(-c4c(F)cccc4F)c4nc(c(-c5c(F)cccc5F)c5ccc2[nH]5)C=C4)C=C3)cc1
REMARK SMILES IDX 7 1 6 2 5 3 4 4 3 5 2 6 1 7 33 8 34 9 86 10 35 11 85 12
REMARK SMILES IDX 36 13 37 14 38 15 79 16 39 17 84 18 78 19 80 20 40 21 83 22
REMARK SMILES IDX 77 23 76 24 41 26 67 27 50 28 66 29 51 30 54 31 65 32 81 33
REMARK SMILES IDX 52 34 53 35 64 37 82 38 55 39 42 40 43 41 48 42 44 43 45 44
REMARK SMILES IDX 47 45 49 46 46 47 68 48 69 49 74 50 70 51 71 52 73 53 75 54
REMARK SMILES IDX 72 55 56 56 57 57 62 58 58 59 59 60 61 61 63 62 60 63 8 64
REMARK SMILES IDX 9 65 10 66 11 67 12 68 13 69 19 70 14 71 18 72 15 73 16 74
REMARK SMILES IDX 17 75 20 76 21 78 22 79 23 80 24 81 25 82 29 83 26 84 28 85
REMARK SMILES IDX 27 86 30 87 32 88 31 89
REMARK H PARENT 80 25 54 36 20 77
REMARK Flexibility Score: inf
ROOT
ATOM      1  C   UNL A   1      35.525  21.682  26.096  1.00  0.00     0.202 C 
ENDROOT
BRANCH   1   2
ATOM      2  O   UNL A   1      36.174  20.673  25.327  1.00  0.00    -0.374 OA
BRANCH   2   3
ATOM      3  C   UNL A   1      37.544  20.913  25.008  1.00  0.00     0.202 C 
BRANCH   3   4
ATOM      4  C   UNL A   1      38.364  19.649  24.744  1.00  0.00     0.261 C 
BRANCH   4   5
ATOM      5  O   UNL A   1      39.201  19.353  25.872  1.00  0.00    -0.460 OA
BRANCH   5   6
ATOM      6  C   UNL A   1      40.515  19.637  26.033  1.00  0.00     0.338 C 
ATOM      7  O   UNL A   1      41.341  18.792  25.690  1.00  0.00    -0.246 OA
BRANCH   6   8
ATOM      8  C   UNL A   1      41.034  20.929  26.581  1.00  0.00     0.060 A 
ATOM      9  C   UNL A   1      41.146  21.244  27.935  1.00  0.00     0.016 A 
ATOM     10  C   UNL A   1      41.515  21.869  25.651  1.00  0.00     0.016 A 
ATOM     11  C   UNL A   1      41.659  22.456  28.364  1.00  0.00     0.010 A 
ATOM     12  C   UNL A   1      42.062  23.086  26.072  1.00  0.00     0.010 A 
ATOM     13  C   UNL A   1      42.114  23.385  27.436  1.00  0.00    -0.014 A 
BRANCH  13  14
ATOM     14  C   UNL A   1      42.486  24.710  27.955  1.00  0.00     0.031 A 
ATOM     15  C   UNL A   1      43.934  25.087  27.940  1.00  0.00     0.074 A 
ATOM     16  C   UNL A   1      41.522  25.604  28.233  1.00  0.00     0.049 A 
ATOM     17  N   UNL A   1      44.503  26.207  28.294  1.00  0.00    -0.248 NA
ATOM     18  C   UNL A   1      44.871  24.067  27.433  1.00  0.00     0.031 C 
ATOM     19  C   UNL A   1      40.082  25.349  28.126  1.00  0.00     0.029 A 
ATOM     20  N   UNL A   1      41.602  26.917  28.606  1.00  0.00    -0.354 N 
ATOM     21  C   UNL A   1      45.861  26.018  28.080  1.00  0.00     0.074 A 
ATOM     22  C   UNL A   1      46.036  24.679  27.565  1.00  0.00     0.031 C 
ATOM     23  C   UNL A   1      39.417  26.484  28.391  1.00  0.00     0.029 A 
ATOM     24  C   UNL A   1      40.377  27.523  28.745  1.00  0.00     0.049 A 
ATOM     25  H   UNL A   1      42.455  27.383  28.761  1.00  0.00     0.167 HD
ATOM     26  C   UNL A   1      46.870  26.890  28.308  1.00  0.00     0.037 A 
ATOM     27  C   UNL A   1      40.079  28.777  29.135  1.00  0.00     0.037 A 
ATOM     28  C   UNL A   1      46.660  28.216  28.816  1.00  0.00     0.049 A 
ATOM     29  C   UNL A   1      41.223  29.698  29.463  1.00  0.00     0.074 A 
ATOM     30  C   UNL A   1      47.595  29.170  29.169  1.00  0.00     0.029 A 
ATOM     31  N   UNL A   1      45.406  28.776  29.036  1.00  0.00    -0.354 N 
ATOM     32  N   UNL A   1      42.514  29.487  29.348  1.00  0.00    -0.248 NA
ATOM     33  C   UNL A   1      40.874  31.023  29.990  1.00  0.00     0.031 C 
ATOM     34  C   UNL A   1      46.906  30.295  29.640  1.00  0.00     0.029 A 
ATOM     35  C   UNL A   1      45.543  30.059  29.534  1.00  0.00     0.049 A 
ATOM     36  H   UNL A   1      44.548  28.326  28.863  1.00  0.00     0.167 HD
ATOM     37  C   UNL A   1      43.131  30.656  29.767  1.00  0.00     0.074 A 
ATOM     38  C   UNL A   1      42.070  31.579  30.123  1.00  0.00     0.031 C 
ATOM     39  C   UNL A   1      44.453  30.945  29.859  1.00  0.00     0.037 A 
BRANCH  26  40
ATOM     40  C   UNL A   1      48.263  26.382  28.089  1.00  0.00     0.057 A 
ATOM     41  C   UNL A   1      48.917  26.486  26.855  1.00  0.00     0.134 A 
ATOM     42  C   UNL A   1      48.938  25.719  29.122  1.00  0.00     0.134 A 
ATOM     43  F   UNL A   1      48.313  27.080  25.814  1.00  0.00    -0.206 F 
ATOM     44  C   UNL A   1      50.177  25.922  26.647  1.00  0.00     0.040 A 
ATOM     45  C   UNL A   1      50.208  25.171  28.933  1.00  0.00     0.040 A 
ATOM     46  F   UNL A   1      48.365  25.574  30.327  1.00  0.00    -0.206 F 
ATOM     47  C   UNL A   1      50.826  25.263  27.689  1.00  0.00     0.006 A 
ENDBRANCH  26  40
BRANCH  27  48
ATOM     48  C   UNL A   1      38.665  29.211  29.272  1.00  0.00     0.057 A 
ATOM     49  C   UNL A   1      37.998  29.158  30.502  1.00  0.00     0.134 A 
ATOM     50  C   UNL A   1      37.936  29.674  28.168  1.00  0.00     0.134 A 
ATOM     51  F   UNL A   1      38.630  28.705  31.594  1.00  0.00    -0.206 F 
ATOM     52  C   UNL A   1      36.658  29.533  30.625  1.00  0.00     0.040 A 
ATOM     53  C   UNL A   1      36.605  30.080  28.283  1.00  0.00     0.040 A 
ATOM     54  F   UNL A   1      38.512  29.751  26.959  1.00  0.00    -0.206 F 
ATOM     55  C   UNL A   1      35.959  30.001  29.514  1.00  0.00     0.006 A 
ENDBRANCH  27  48
BRANCH  39  56
ATOM     56  C   UNL A   1      44.808  32.326  30.320  1.00  0.00     0.057 A 
ATOM     57  C   UNL A   1      44.931  33.394  29.423  1.00  0.00     0.134 A 
ATOM     58  C   UNL A   1      44.987  32.591  31.682  1.00  0.00     0.134 A 
ATOM     59  F   UNL A   1      44.783  33.197  28.106  1.00  0.00    -0.206 F 
ATOM     60  C   UNL A   1      45.246  34.677  29.867  1.00  0.00     0.040 A 
ATOM     61  C   UNL A   1      45.276  33.876  32.140  1.00  0.00     0.040 A 
ATOM     62  F   UNL A   1      44.872  31.609  32.590  1.00  0.00    -0.206 F 
ATOM     63  C   UNL A   1      45.412  34.922  31.230  1.00  0.00     0.006 A 
ENDBRANCH  39  56
ENDBRANCH  13  14
ENDBRANCH   6   8
ENDBRANCH   5   6
ENDBRANCH   4   5
ENDBRANCH   3   4
ENDBRANCH   2   3
ENDBRANCH   1   2
BRANCH   1  64
ATOM     64  C   UNL A   1      34.032  21.356  26.165  1.00  0.00     0.261 C 
BRANCH  64  65
ATOM     65  O   UNL A   1      33.292  22.424  25.548  1.00  0.00    -0.460 OA
BRANCH  65  66
ATOM     66  C   UNL A   1      31.988  22.191  25.252  1.00  0.00     0.340 C 
ATOM     67  O   UNL A   1      31.353  21.158  25.374  1.00  0.00    -0.246 OA
BRANCH  66  68
ATOM     68  C   UNL A   1      31.389  23.511  24.958  1.00  0.00     0.087 A 
ATOM     69  C   UNL A   1      30.866  24.253  26.032  1.00  0.00     0.060 A 
ATOM     70  C   UNL A   1      31.212  23.931  23.621  1.00  0.00     0.066 A 
ATOM     71  C   UNL A   1      30.128  25.395  25.775  1.00  0.00     0.159 A 
ATOM     72  C   UNL A   1      30.386  25.036  23.403  1.00  0.00     0.070 A 
ATOM     73  F   UNL A   1      29.644  26.111  26.797  1.00  0.00    -0.204 F 
ATOM     74  C   UNL A   1      29.867  25.769  24.469  1.00  0.00     0.160 A 
ATOM     75  F   UNL A   1      29.129  26.857  24.215  1.00  0.00    -0.204 F 
BRANCH  70  76
ATOM     76  N   UNL A   1      31.984  23.326  22.566  1.00  0.00    -0.279 N 
ATOM     77  H   UNL A   1      31.606  22.517  22.152  1.00  0.00     0.180 HD
BRANCH  76  78
ATOM     78  S   UNL A   1      33.463  23.858  21.965  1.00  0.00     0.261 S 
ATOM     79  O   UNL A   1      34.484  23.000  22.520  1.00  0.00    -0.201 OA
ATOM     80  O   UNL A   1      33.308  24.019  20.533  1.00  0.00    -0.201 OA
BRANCH  78  81
ATOM     81  C   UNL A   1      33.681  25.476  22.678  1.00  0.00     0.088 A 
ATOM     82  C   UNL A   1      33.192  26.582  21.951  1.00  0.00     0.022 A 
ATOM     83  C   UNL A   1      33.977  25.566  24.043  1.00  0.00     0.026 A 
ATOM     84  C   UNL A   1      32.865  27.763  22.616  1.00  0.00     0.005 A 
ATOM     85  C   UNL A   1      33.590  26.722  24.692  1.00  0.00    -0.043 A 
ATOM     86  C   UNL A   1      33.012  27.792  23.992  1.00  0.00    -0.045 A 
ATOM     87  C   UNL A   1      33.592  26.990  26.164  1.00  0.00     0.036 C 
ATOM     88  C   UNL A   1      32.551  28.855  24.942  1.00  0.00     0.036 C 
ATOM     89  C   UNL A   1      32.494  28.059  26.256  1.00  0.00     0.010 C 
ENDBRANCH  78  81
ENDBRANCH  76  78
ENDBRANCH  70  76
ENDBRANCH  66  68
ENDBRANCH  65  66
ENDBRANCH  64  65
ENDBRANCH   1  64
TORSDOF 17
ENDMDL
MODEL 3
REMARK VINA RESULT:     -11.6      4.696      9.601
REMARK SMILES O=C(OCCOCCOC(=O)c1cc(F)c(F)cc1NS(=O)(=O)c1ccc2c(c1)CCC2)c1ccc(-c2c3nc(c(-c4c(F)cccc4F)c4ccc([nH]4)c(-c4c(F)cccc4F)c4nc(c(-c5c(F)cccc5F)c5ccc2[nH]5)C=C4)C=C3)cc1
REMARK SMILES IDX 7 1 6 2 5 3 4 4 3 5 2 6 1 7 33 8 34 9 86 10 35 11 85 12
REMARK SMILES IDX 36 13 37 14 38 15 79 16 39 17 84 18 78 19 80 20 40 21 83 22
REMARK SMILES IDX 77 23 76 24 41 26 67 27 50 28 66 29 51 30 54 31 65 32 81 33
REMARK SMILES IDX 52 34 53 35 64 37 82 38 55 39 42 40 43 41 48 42 44 43 45 44
REMARK SMILES IDX 47 45 49 46 46 47 68 48 69 49 74 50 70 51 71 52 73 53 75 54
REMARK SMILES IDX 72 55 56 56 57 57 62 58 58 59 59 60 61 61 63 62 60 63 8 64
REMARK SMILES IDX 9 65 10 66 11 67 12 68 13 69 19 70 14 71 18 72 15 73 16 74
REMARK SMILES IDX 17 75 20 76 21 78 22 79 23 80 24 81 25 82 29 83 26 84 28 85
REMARK SMILES IDX 27 86 30 87 32 88 31 89
REMARK H PARENT 80 25 54 36 20 77
REMARK Flexibility Score: inf
ROOT
ATOM      1  C   UNL A   1      37.815  23.395  26.057  1.00  0.00     0.202 C 
ENDROOT
BRANCH   1   2
ATOM      2  O   UNL A   1      38.078  22.304  25.177  1.00  0.00    -0.374 OA
BRANCH   2   3
ATOM      3  C   UNL A   1      38.021  21.003  25.758  1.00  0.00     0.202 C 
BRANCH   3   4
ATOM      4  C   UNL A   1      38.729  19.915  24.948  1.00  0.00     0.261 C 
BRANCH   4   5
ATOM      5  O   UNL A   1      39.649  19.192  25.782  1.00  0.00    -0.460 OA
BRANCH   5   6
ATOM      6  C   UNL A   1      40.950  19.471  26.025  1.00  0.00     0.338 C 
ATOM      7  O   UNL A   1      41.788  18.602  25.787  1.00  0.00    -0.246 OA
BRANCH   6   8
ATOM      8  C   UNL A   1      41.445  20.785  26.543  1.00  0.00     0.060 A 
ATOM      9  C   UNL A   1      41.618  21.107  27.890  1.00  0.00     0.016 A 
ATOM     10  C   UNL A   1      41.836  21.742  25.589  1.00  0.00     0.016 A 
ATOM     11  C   UNL A   1      42.103  22.340  28.290  1.00  0.00     0.010 A 
ATOM     12  C   UNL A   1      42.353  22.982  25.980  1.00  0.00     0.010 A 
ATOM     13  C   UNL A   1      42.467  23.286  27.339  1.00  0.00    -0.014 A 
BRANCH  13  14
ATOM     14  C   UNL A   1      42.813  24.626  27.837  1.00  0.00     0.031 A 
ATOM     15  C   UNL A   1      44.249  25.044  27.786  1.00  0.00     0.074 A 
ATOM     16  C   UNL A   1      41.829  25.494  28.128  1.00  0.00     0.049 A 
ATOM     17  N   UNL A   1      44.792  26.183  28.117  1.00  0.00    -0.248 NA
ATOM     18  C   UNL A   1      45.203  24.047  27.267  1.00  0.00     0.031 C 
ATOM     19  C   UNL A   1      40.396  25.197  28.056  1.00  0.00     0.029 A 
ATOM     20  N   UNL A   1      41.880  26.813  28.487  1.00  0.00    -0.354 N 
ATOM     21  C   UNL A   1      46.150  26.031  27.874  1.00  0.00     0.074 A 
ATOM     22  C   UNL A   1      46.353  24.693  27.368  1.00  0.00     0.031 C 
ATOM     23  C   UNL A   1      39.703  26.315  28.325  1.00  0.00     0.029 A 
ATOM     24  C   UNL A   1      40.641  27.385  28.647  1.00  0.00     0.049 A 
ATOM     25  H   UNL A   1      42.722  27.305  28.618  1.00  0.00     0.167 HD
ATOM     26  C   UNL A   1      47.138  26.934  28.071  1.00  0.00     0.037 A 
ATOM     27  C   UNL A   1      40.316  28.633  29.032  1.00  0.00     0.037 A 
ATOM     28  C   UNL A   1      46.901  28.259  28.571  1.00  0.00     0.049 A 
ATOM     29  C   UNL A   1      41.439  29.590  29.326  1.00  0.00     0.074 A 
ATOM     30  C   UNL A   1      47.815  29.243  28.894  1.00  0.00     0.029 A 
ATOM     31  N   UNL A   1      45.637  28.785  28.814  1.00  0.00    -0.354 N 
ATOM     32  N   UNL A   1      42.732  29.415  29.184  1.00  0.00    -0.248 NA
ATOM     33  C   UNL A   1      41.063  30.909  29.848  1.00  0.00     0.031 C 
ATOM     34  C   UNL A   1      47.105  30.352  29.370  1.00  0.00     0.029 A 
ATOM     35  C   UNL A   1      45.747  30.075  29.297  1.00  0.00     0.049 A 
ATOM     36  H   UNL A   1      44.789  28.308  28.665  1.00  0.00     0.167 HD
ATOM     37  C   UNL A   1      43.325  30.606  29.578  1.00  0.00     0.074 A 
ATOM     38  C   UNL A   1      42.245  31.501  29.949  1.00  0.00     0.031 C 
ATOM     39  C   UNL A   1      44.640  30.934  29.638  1.00  0.00     0.037 A 
BRANCH  26  40
ATOM     40  C   UNL A   1      48.540  26.464  27.826  1.00  0.00     0.057 A 
ATOM     41  C   UNL A   1      49.187  26.637  26.595  1.00  0.00     0.134 A 
ATOM     42  C   UNL A   1      49.232  25.769  28.827  1.00  0.00     0.134 A 
ATOM     43  F   UNL A   1      48.568  27.264  25.584  1.00  0.00    -0.206 F 
ATOM     44  C   UNL A   1      50.458  26.107  26.359  1.00  0.00     0.040 A 
ATOM     45  C   UNL A   1      50.512  25.256  28.610  1.00  0.00     0.040 A 
ATOM     46  F   UNL A   1      48.667  25.560  30.025  1.00  0.00    -0.206 F 
ATOM     47  C   UNL A   1      51.124  25.416  27.369  1.00  0.00     0.006 A 
ENDBRANCH  26  40
BRANCH  27  48
ATOM     48  C   UNL A   1      38.892  29.028  29.197  1.00  0.00     0.057 A 
ATOM     49  C   UNL A   1      38.227  28.878  30.420  1.00  0.00     0.134 A 
ATOM     50  C   UNL A   1      38.154  29.549  28.126  1.00  0.00     0.134 A 
ATOM     51  F   UNL A   1      38.869  28.366  31.480  1.00  0.00    -0.206 F 
ATOM     52  C   UNL A   1      36.880  29.216  30.567  1.00  0.00     0.040 A 
ATOM     53  C   UNL A   1      36.815  29.918  28.267  1.00  0.00     0.040 A 
ATOM     54  F   UNL A   1      38.727  29.719  26.926  1.00  0.00    -0.206 F 
ATOM     55  C   UNL A   1      36.171  29.744  29.489  1.00  0.00     0.006 A 
ENDBRANCH  27  48
BRANCH  39  56
ATOM     56  C   UNL A   1      44.964  32.329  30.078  1.00  0.00     0.057 A 
ATOM     57  C   UNL A   1      45.216  32.640  31.419  1.00  0.00     0.134 A 
ATOM     58  C   UNL A   1      45.063  33.360  29.137  1.00  0.00     0.134 A 
ATOM     59  F   UNL A   1      45.123  31.695  32.366  1.00  0.00    -0.206 F 
ATOM     60  C   UNL A   1      45.532  33.939  31.813  1.00  0.00     0.040 A 
ATOM     61  C   UNL A   1      45.404  34.657  29.516  1.00  0.00     0.040 A 
ATOM     62  F   UNL A   1      44.841  33.120  27.835  1.00  0.00    -0.206 F 
ATOM     63  C   UNL A   1      45.634  34.951  30.858  1.00  0.00     0.006 A 
ENDBRANCH  39  56
ENDBRANCH  13  14
ENDBRANCH   6   8
ENDBRANCH   5   6
ENDBRANCH   4   5
ENDBRANCH   3   4
ENDBRANCH   2   3
ENDBRANCH   1   2
BRANCH   1  64
ATOM     64  C   UNL A   1      36.508  24.062  25.627  1.00  0.00     0.261 C 
BRANCH  64  65
ATOM     65  O   UNL A   1      36.048  23.448  24.411  1.00  0.00    -0.460 OA
BRANCH  65  66
ATOM     66  C   UNL A   1      34.714  23.475  24.163  1.00  0.00     0.340 C 
ATOM     67  O   UNL A   1      34.086  24.246  23.459  1.00  0.00    -0.246 OA
BRANCH  66  68
ATOM     68  C   UNL A   1      34.162  22.226  24.734  1.00  0.00     0.087 A 
ATOM     69  C   UNL A   1      34.803  21.016  24.419  1.00  0.00     0.060 A 
ATOM     70  C   UNL A   1      32.940  22.247  25.443  1.00  0.00     0.066 A 
ATOM     71  C   UNL A   1      34.207  19.818  24.770  1.00  0.00     0.159 A 
ATOM     72  C   UNL A   1      32.329  21.016  25.698  1.00  0.00     0.070 A 
ATOM     73  F   UNL A   1      34.825  18.665  24.485  1.00  0.00    -0.204 F 
ATOM     74  C   UNL A   1      32.966  19.817  25.382  1.00  0.00     0.160 A 
ATOM     75  F   UNL A   1      32.372  18.659  25.698  1.00  0.00    -0.204 F 
BRANCH  70  76
ATOM     76  N   UNL A   1      32.448  23.480  26.001  1.00  0.00    -0.279 N 
ATOM     77  H   UNL A   1      32.978  23.876  26.730  1.00  0.00     0.180 HD
BRANCH  76  78
ATOM     78  S   UNL A   1      31.065  24.318  25.535  1.00  0.00     0.261 S 
ATOM     79  O   UNL A   1      30.627  23.755  24.278  1.00  0.00    -0.201 OA
ATOM     80  O   UNL A   1      30.189  24.367  26.688  1.00  0.00    -0.201 OA
BRANCH  78  81
ATOM     81  C   UNL A   1      31.633  25.974  25.207  1.00  0.00     0.088 A 
ATOM     82  C   UNL A   1      30.823  26.792  24.391  1.00  0.00     0.022 A 
ATOM     83  C   UNL A   1      32.625  26.513  26.034  1.00  0.00     0.026 A 
ATOM     84  C   UNL A   1      30.909  28.180  24.493  1.00  0.00     0.005 A 
ATOM     85  C   UNL A   1      32.651  27.888  26.166  1.00  0.00    -0.043 A 
ATOM     86  C   UNL A   1      31.782  28.707  25.430  1.00  0.00    -0.045 A 
ATOM     87  C   UNL A   1      33.455  28.700  27.132  1.00  0.00     0.036 C 
ATOM     88  C   UNL A   1      31.911  30.135  25.863  1.00  0.00     0.036 C 
ATOM     89  C   UNL A   1      32.582  29.958  27.235  1.00  0.00     0.010 C 
ENDBRANCH  78  81
ENDBRANCH  76  78
ENDBRANCH  70  76
ENDBRANCH  66  68
ENDBRANCH  65  66
ENDBRANCH  64  65
ENDBRANCH   1  64
TORSDOF 17
ENDMDL
