MODEL 1
REMARK VINA RESULT:     -12.2      0.000      0.000
REMARK SMILES O=C(OCCOCCOC(=O)c1ccc2nc(-c3c[nH]nc3-c3ccc(F)cc3F)[nH]c2c1)c1ccc(-c2c3nc(c(-c4c(F)cccc4F)c4ccc([nH]4)c(-c4c(F)cccc4F)c4nc(c(-c5c(F)cccc5F)c5ccc2[nH]5)C=C4)C=C3)cc1
REMARK SMILES IDX 6 1 5 2 4 3 3 4 2 5 1 6 34 7 35 8 87 9 36 10 86 11 37 12
REMARK SMILES IDX 38 13 39 14 80 15 40 16 85 17 79 18 81 19 41 20 84 21 78 22
REMARK SMILES IDX 77 23 42 25 68 26 51 27 67 28 52 29 55 30 66 31 82 32 53 33
REMARK SMILES IDX 54 34 65 36 83 37 56 38 43 39 44 40 49 41 45 42 46 43 48 44
REMARK SMILES IDX 50 45 47 46 69 47 70 48 75 49 71 50 72 51 74 52 76 53 73 54
REMARK SMILES IDX 57 55 58 56 63 57 59 58 60 59 62 60 64 61 61 62 7 63 8 64
REMARK SMILES IDX 9 65 10 66 11 67 12 68 13 69 33 70 14 71 32 72 15 73 31 74
REMARK SMILES IDX 16 75 17 76 18 78 19 79 22 80 20 81 21 82 23 84 24 85 29 86
REMARK SMILES IDX 25 87 28 88 30 89 26 90 27 91
REMARK H PARENT 81 24 55 35 31 77 20 83
REMARK Flexibility Score: inf
ROOT
ATOM      1  O   UNL A   1      42.126  20.738  27.134  1.00  0.00    -0.374 OA
ENDROOT
BRANCH   1   2
ATOM      2  C   UNL A   1      42.813  20.215  25.999  1.00  0.00     0.202 C 
BRANCH   2   3
ATOM      3  C   UNL A   1      43.859  21.154  25.397  1.00  0.00     0.261 C 
BRANCH   3   4
ATOM      4  O   UNL A   1      43.943  22.361  26.170  1.00  0.00    -0.460 OA
BRANCH   4   5
ATOM      5  C   UNL A   1      43.540  23.601  25.807  1.00  0.00     0.338 C 
ATOM      6  O   UNL A   1      43.659  23.947  24.634  1.00  0.00    -0.246 OA
BRANCH   5   7
ATOM      7  C   UNL A   1      42.967  24.583  26.774  1.00  0.00     0.060 A 
ATOM      8  C   UNL A   1      42.087  24.247  27.803  1.00  0.00     0.016 A 
ATOM      9  C   UNL A   1      43.446  25.902  26.715  1.00  0.00     0.016 A 
ATOM     10  C   UNL A   1      41.649  25.190  28.720  1.00  0.00     0.010 A 
ATOM     11  C   UNL A   1      43.058  26.845  27.670  1.00  0.00     0.010 A 
ATOM     12  C   UNL A   1      42.160  26.484  28.681  1.00  0.00    -0.014 A 
BRANCH  12  13
ATOM     13  C   UNL A   1      41.745  27.426  29.733  1.00  0.00     0.031 A 
ATOM     14  C   UNL A   1      42.538  27.505  30.996  1.00  0.00     0.074 A 
ATOM     15  C   UNL A   1      40.718  28.261  29.486  1.00  0.00     0.049 A 
ATOM     16  N   UNL A   1      42.306  28.214  32.067  1.00  0.00    -0.248 NA
ATOM     17  C   UNL A   1      43.764  26.692  31.060  1.00  0.00     0.031 C 
ATOM     18  C   UNL A   1      39.962  28.316  28.230  1.00  0.00     0.029 A 
ATOM     19  N   UNL A   1      40.145  29.236  30.259  1.00  0.00    -0.354 N 
ATOM     20  C   UNL A   1      43.340  27.914  32.942  1.00  0.00     0.074 A 
ATOM     21  C   UNL A   1      44.207  26.966  32.279  1.00  0.00     0.031 C 
ATOM     22  C   UNL A   1      39.042  29.290  28.311  1.00  0.00     0.029 A 
ATOM     23  C   UNL A   1      39.090  29.870  29.647  1.00  0.00     0.049 A 
ATOM     24  H   UNL A   1      40.460  29.461  31.164  1.00  0.00     0.167 HD
ATOM     25  C   UNL A   1      43.529  28.390  34.192  1.00  0.00     0.037 A 
ATOM     26  C   UNL A   1      38.232  30.784  30.137  1.00  0.00     0.037 A 
ATOM     27  C   UNL A   1      42.649  29.339  34.817  1.00  0.00     0.049 A 
ATOM     28  C   UNL A   1      38.411  31.220  31.565  1.00  0.00     0.074 A 
ATOM     29  C   UNL A   1      42.712  29.864  36.094  1.00  0.00     0.029 A 
ATOM     30  N   UNL A   1      41.541  29.904  34.200  1.00  0.00    -0.354 N 
ATOM     31  N   UNL A   1      39.360  30.893  32.411  1.00  0.00    -0.248 NA
ATOM     32  C   UNL A   1      37.392  32.119  32.120  1.00  0.00     0.031 C 
ATOM     33  C   UNL A   1      41.617  30.717  36.262  1.00  0.00     0.029 A 
ATOM     34  C   UNL A   1      40.895  30.753  35.079  1.00  0.00     0.049 A 
ATOM     35  H   UNL A   1      41.259  29.728  33.273  1.00  0.00     0.167 HD
ATOM     36  C   UNL A   1      39.051  31.540  33.597  1.00  0.00     0.074 A 
ATOM     37  C   UNL A   1      37.844  32.305  33.353  1.00  0.00     0.031 C 
ATOM     38  C   UNL A   1      39.695  31.495  34.789  1.00  0.00     0.037 A 
BRANCH  25  39
ATOM     39  C   UNL A   1      44.685  27.853  34.975  1.00  0.00     0.057 A 
ATOM     40  C   UNL A   1      45.925  28.504  34.941  1.00  0.00     0.134 A 
ATOM     41  C   UNL A   1      44.589  26.680  35.732  1.00  0.00     0.134 A 
ATOM     42  F   UNL A   1      46.079  29.637  34.239  1.00  0.00    -0.206 F 
ATOM     43  C   UNL A   1      47.032  28.000  35.623  1.00  0.00     0.040 A 
ATOM     44  C   UNL A   1      45.687  26.174  36.432  1.00  0.00     0.040 A 
ATOM     45  F   UNL A   1      43.424  26.023  35.825  1.00  0.00    -0.206 F 
ATOM     46  C   UNL A   1      46.916  26.832  36.372  1.00  0.00     0.006 A 
ENDBRANCH  25  39
BRANCH  26  47
ATOM     47  C   UNL A   1      37.100  31.278  29.308  1.00  0.00     0.057 A 
ATOM     48  C   UNL A   1      35.977  30.476  29.057  1.00  0.00     0.134 A 
ATOM     49  C   UNL A   1      37.104  32.562  28.753  1.00  0.00     0.134 A 
ATOM     50  F   UNL A   1      35.904  29.234  29.559  1.00  0.00    -0.206 F 
ATOM     51  C   UNL A   1      34.914  30.924  28.273  1.00  0.00     0.040 A 
ATOM     52  C   UNL A   1      36.032  33.034  27.991  1.00  0.00     0.040 A 
ATOM     53  F   UNL A   1      38.137  33.389  28.973  1.00  0.00    -0.206 F 
ATOM     54  C   UNL A   1      34.936  32.211  27.742  1.00  0.00     0.006 A 
ENDBRANCH  26  47
BRANCH  38  55
ATOM     55  C   UNL A   1      39.101  32.286  35.912  1.00  0.00     0.057 A 
ATOM     56  C   UNL A   1      39.504  33.605  36.149  1.00  0.00     0.134 A 
ATOM     57  C   UNL A   1      38.200  31.704  36.811  1.00  0.00     0.134 A 
ATOM     58  F   UNL A   1      40.374  34.210  35.326  1.00  0.00    -0.206 F 
ATOM     59  C   UNL A   1      39.046  34.314  37.259  1.00  0.00     0.040 A 
ATOM     60  C   UNL A   1      37.719  32.410  37.912  1.00  0.00     0.040 A 
ATOM     61  F   UNL A   1      37.770  30.447  36.625  1.00  0.00    -0.206 F 
ATOM     62  C   UNL A   1      38.151  33.715  38.144  1.00  0.00     0.006 A 
ENDBRANCH  38  55
ENDBRANCH  12  13
ENDBRANCH   5   7
ENDBRANCH   4   5
ENDBRANCH   3   4
ENDBRANCH   2   3
ENDBRANCH   1   2
BRANCH   1  63
ATOM     63  C   UNL A   1      40.698  20.603  27.114  1.00  0.00     0.202 C 
BRANCH  63  64
ATOM     64  C   UNL A   1      40.126  21.442  25.964  1.00  0.00     0.261 C 
BRANCH  64  65
ATOM     65  O   UNL A   1      38.700  21.515  26.127  1.00  0.00    -0.460 OA
BRANCH  65  66
ATOM     66  C   UNL A   1      37.989  20.829  25.192  1.00  0.00     0.338 C 
ATOM     67  O   UNL A   1      38.183  19.702  24.788  1.00  0.00    -0.246 OA
BRANCH  66  68
ATOM     68  C   UNL A   1      36.748  21.600  24.953  1.00  0.00     0.062 A 
ATOM     69  C   UNL A   1      36.620  22.426  23.830  1.00  0.00     0.018 A 
ATOM     70  C   UNL A   1      35.763  21.556  25.957  1.00  0.00     0.044 A 
ATOM     71  C   UNL A   1      35.486  23.227  23.670  1.00  0.00     0.031 A 
ATOM     72  C   UNL A   1      34.687  22.429  25.807  1.00  0.00     0.067 A 
ATOM     73  C   UNL A   1      34.509  23.218  24.676  1.00  0.00     0.089 A 
ATOM     74  N   UNL A   1      33.617  22.744  26.611  1.00  0.00    -0.338 N 
ATOM     75  N   UNL A   1      33.313  23.874  24.727  1.00  0.00    -0.228 NA
ATOM     76  C   UNL A   1      32.787  23.563  25.891  1.00  0.00     0.142 A 
ATOM     77  H   UNL A   1      33.474  22.436  27.534  1.00  0.00     0.168 HD
BRANCH  76  78
ATOM     78  C   UNL A   1      31.391  23.871  26.253  1.00  0.00     0.063 A 
ATOM     79  C   UNL A   1      30.375  22.998  26.543  1.00  0.00     0.117 A 
ATOM     80  C   UNL A   1      30.830  25.172  26.330  1.00  0.00     0.106 A 
ATOM     81  N   UNL A   1      29.314  23.795  26.876  1.00  0.00    -0.284 N 
ATOM     82  N   UNL A   1      29.537  25.108  26.681  1.00  0.00    -0.175 NA
ATOM     83  H   UNL A   1      28.466  23.439  27.226  1.00  0.00     0.189 HD
BRANCH  80  84
ATOM     84  C   UNL A   1      31.476  26.404  25.908  1.00  0.00     0.039 A 
ATOM     85  C   UNL A   1      32.420  27.004  26.762  1.00  0.00     0.016 A 
ATOM     86  C   UNL A   1      31.114  27.054  24.728  1.00  0.00     0.135 A 
ATOM     87  C   UNL A   1      32.974  28.242  26.439  1.00  0.00     0.040 A 
ATOM     88  C   UNL A   1      31.670  28.288  24.398  1.00  0.00     0.079 A 
ATOM     89  F   UNL A   1      30.199  26.523  23.903  1.00  0.00    -0.206 F 
ATOM     90  C   UNL A   1      32.591  28.872  25.260  1.00  0.00     0.126 A 
ATOM     91  F   UNL A   1      33.115  30.066  24.957  1.00  0.00    -0.207 F 
ENDBRANCH  80  84
ENDBRANCH  76  78
ENDBRANCH  66  68
ENDBRANCH  65  66
ENDBRANCH  64  65
ENDBRANCH  63  64
ENDBRANCH   1  63
TORSDOF 16
ENDMDL
MODEL 2
REMARK VINA RESULT:     -12.2      0.534      6.016
REMARK SMILES O=C(OCCOCCOC(=O)c1ccc2nc(-c3c[nH]nc3-c3ccc(F)cc3F)[nH]c2c1)c1ccc(-c2c3nc(c(-c4c(F)cccc4F)c4ccc([nH]4)c(-c4c(F)cccc4F)c4nc(c(-c5c(F)cccc5F)c5ccc2[nH]5)C=C4)C=C3)cc1
REMARK SMILES IDX 6 1 5 2 4 3 3 4 2 5 1 6 34 7 35 8 87 9 36 10 86 11 37 12
REMARK SMILES IDX 38 13 39 14 80 15 40 16 85 17 79 18 81 19 41 20 84 21 78 22
REMARK SMILES IDX 77 23 42 25 68 26 51 27 67 28 52 29 55 30 66 31 82 32 53 33
REMARK SMILES IDX 54 34 65 36 83 37 56 38 43 39 44 40 49 41 45 42 46 43 48 44
REMARK SMILES IDX 50 45 47 46 69 47 70 48 75 49 71 50 72 51 74 52 76 53 73 54
REMARK SMILES IDX 57 55 58 56 63 57 59 58 60 59 62 60 64 61 61 62 7 63 8 64
REMARK SMILES IDX 9 65 10 66 11 67 12 68 13 69 33 70 14 71 32 72 15 73 31 74
REMARK SMILES IDX 16 75 17 76 18 78 19 79 22 80 20 81 21 82 23 84 24 85 29 86
REMARK SMILES IDX 25 87 28 88 30 89 26 90 27 91
REMARK H PARENT 81 24 55 35 31 77 20 83
REMARK Flexibility Score: inf
ROOT
ATOM      1  O   UNL A   1      42.076  21.680  27.046  1.00  0.00    -0.374 OA
ENDROOT
BRANCH   1   2
ATOM      2  C   UNL A   1      42.526  21.578  25.696  1.00  0.00     0.202 C 
BRANCH   2   3
ATOM      3  C   UNL A   1      43.814  22.344  25.392  1.00  0.00     0.261 C 
BRANCH   3   4
ATOM      4  O   UNL A   1      43.506  23.611  24.789  1.00  0.00    -0.460 OA
BRANCH   4   5
ATOM      5  C   UNL A   1      43.937  24.833  25.177  1.00  0.00     0.338 C 
ATOM      6  O   UNL A   1      44.922  25.320  24.627  1.00  0.00    -0.246 OA
BRANCH   5   7
ATOM      7  C   UNL A   1      43.279  25.619  26.261  1.00  0.00     0.060 A 
ATOM      8  C   UNL A   1      42.317  25.103  27.130  1.00  0.00     0.016 A 
ATOM      9  C   UNL A   1      43.754  26.920  26.495  1.00  0.00     0.016 A 
ATOM     10  C   UNL A   1      41.798  25.859  28.170  1.00  0.00     0.010 A 
ATOM     11  C   UNL A   1      43.282  27.669  27.577  1.00  0.00     0.010 A 
ATOM     12  C   UNL A   1      42.303  27.132  28.421  1.00  0.00    -0.014 A 
BRANCH  12  13
ATOM     13  C   UNL A   1      41.796  27.860  29.595  1.00  0.00     0.031 A 
ATOM     14  C   UNL A   1      40.560  28.687  29.464  1.00  0.00     0.074 A 
ATOM     15  C   UNL A   1      42.408  27.682  30.781  1.00  0.00     0.049 A 
ATOM     16  N   UNL A   1      39.987  29.455  30.350  1.00  0.00    -0.248 NA
ATOM     17  C   UNL A   1      39.862  28.633  28.167  1.00  0.00     0.031 C 
ATOM     18  C   UNL A   1      43.559  26.802  31.010  1.00  0.00     0.029 A 
ATOM     19  N   UNL A   1      42.140  28.204  32.019  1.00  0.00    -0.354 N 
ATOM     20  C   UNL A   1      38.879  29.995  29.714  1.00  0.00     0.074 A 
ATOM     21  C   UNL A   1      38.850  29.465  28.370  1.00  0.00     0.031 C 
ATOM     22  C   UNL A   1      43.883  26.829  32.312  1.00  0.00     0.029 A 
ATOM     23  C   UNL A   1      43.017  27.784  32.991  1.00  0.00     0.049 A 
ATOM     24  H   UNL A   1      41.392  28.819  32.195  1.00  0.00     0.167 HD
ATOM     25  C   UNL A   1      37.979  30.866  30.221  1.00  0.00     0.037 A 
ATOM     26  C   UNL A   1      43.130  28.171  34.276  1.00  0.00     0.037 A 
ATOM     27  C   UNL A   1      38.035  31.367  31.567  1.00  0.00     0.049 A 
ATOM     28  C   UNL A   1      42.173  29.215  34.780  1.00  0.00     0.074 A 
ATOM     29  C   UNL A   1      37.205  32.284  32.181  1.00  0.00     0.029 A 
ATOM     30  N   UNL A   1      38.983  30.983  32.506  1.00  0.00    -0.354 N 
ATOM     31  N   UNL A   1      41.157  29.768  34.160  1.00  0.00    -0.248 NA
ATOM     32  C   UNL A   1      42.392  29.717  36.143  1.00  0.00     0.031 C 
ATOM     33  C   UNL A   1      37.677  32.487  33.482  1.00  0.00     0.029 A 
ATOM     34  C   UNL A   1      38.776  31.667  33.689  1.00  0.00     0.049 A 
ATOM     35  H   UNL A   1      39.696  30.322  32.352  1.00  0.00     0.167 HD
ATOM     36  C   UNL A   1      40.618  30.683  35.050  1.00  0.00     0.074 A 
ATOM     37  C   UNL A   1      41.401  30.590  36.267  1.00  0.00     0.031 C 
ATOM     38  C   UNL A   1      39.582  31.539  34.876  1.00  0.00     0.037 A 
BRANCH  25  39
ATOM     39  C   UNL A   1      36.907  31.369  29.307  1.00  0.00     0.057 A 
ATOM     40  C   UNL A   1      36.973  32.670  28.790  1.00  0.00     0.134 A 
ATOM     41  C   UNL A   1      35.796  30.590  28.963  1.00  0.00     0.134 A 
ATOM     42  F   UNL A   1      38.016  33.463  29.076  1.00  0.00    -0.206 F 
ATOM     43  C   UNL A   1      35.964  33.181  27.973  1.00  0.00     0.040 A 
ATOM     44  C   UNL A   1      34.788  31.086  28.134  1.00  0.00     0.040 A 
ATOM     45  F   UNL A   1      35.687  29.329  29.406  1.00  0.00    -0.206 F 
ATOM     46  C   UNL A   1      34.868  32.390  27.642  1.00  0.00     0.006 A 
ENDBRANCH  25  39
BRANCH  26  47
ATOM     47  C   UNL A   1      44.220  27.634  35.132  1.00  0.00     0.057 A 
ATOM     48  C   UNL A   1      44.063  26.438  35.847  1.00  0.00     0.134 A 
ATOM     49  C   UNL A   1      45.449  28.292  35.252  1.00  0.00     0.134 A 
ATOM     50  F   UNL A   1      42.912  25.752  35.778  1.00  0.00    -0.206 F 
ATOM     51  C   UNL A   1      45.075  25.928  36.661  1.00  0.00     0.040 A 
ATOM     52  C   UNL A   1      46.482  27.778  36.040  1.00  0.00     0.040 A 
ATOM     53  F   UNL A   1      45.675  29.429  34.577  1.00  0.00    -0.206 F 
ATOM     54  C   UNL A   1      46.293  26.596  36.754  1.00  0.00     0.006 A 
ENDBRANCH  26  47
BRANCH  38  55
ATOM     55  C   UNL A   1      39.246  32.440  36.023  1.00  0.00     0.057 A 
ATOM     56  C   UNL A   1      38.318  32.046  36.993  1.00  0.00     0.134 A 
ATOM     57  C   UNL A   1      39.775  33.734  36.107  1.00  0.00     0.134 A 
ATOM     58  F   UNL A   1      37.771  30.822  36.956  1.00  0.00    -0.206 F 
ATOM     59  C   UNL A   1      37.909  32.920  38.000  1.00  0.00     0.040 A 
ATOM     60  C   UNL A   1      39.390  34.608  37.121  1.00  0.00     0.040 A 
ATOM     61  F   UNL A   1      40.678  34.158  35.210  1.00  0.00    -0.206 F 
ATOM     62  C   UNL A   1      38.445  34.205  38.065  1.00  0.00     0.006 A 
ENDBRANCH  38  55
ENDBRANCH  12  13
ENDBRANCH   5   7
ENDBRANCH   4   5
ENDBRANCH   3   4
ENDBRANCH   2   3
ENDBRANCH   1   2
BRANCH   1  63
ATOM     63  C   UNL A   1      40.656  21.777  27.222  1.00  0.00     0.202 C 
BRANCH  63  64
ATOM     64  C   UNL A   1      39.957  20.848  26.222  1.00  0.00     0.261 C 
BRANCH  64  65
ATOM     65  O   UNL A   1      38.850  21.560  25.645  1.00  0.00    -0.460 OA
BRANCH  65  66
ATOM     66  C   UNL A   1      37.929  20.770  25.031  1.00  0.00     0.338 C 
ATOM     67  O   UNL A   1      37.970  19.569  24.866  1.00  0.00    -0.246 OA
BRANCH  66  68
ATOM     68  C   UNL A   1      36.715  21.597  24.848  1.00  0.00     0.062 A 
ATOM     69  C   UNL A   1      36.639  22.543  23.818  1.00  0.00     0.018 A 
ATOM     70  C   UNL A   1      35.704  21.474  25.818  1.00  0.00     0.044 A 
ATOM     71  C   UNL A   1      35.530  23.389  23.719  1.00  0.00     0.031 A 
ATOM     72  C   UNL A   1      34.654  22.389  25.738  1.00  0.00     0.067 A 
ATOM     73  C   UNL A   1      34.527  23.300  24.695  1.00  0.00     0.089 A 
ATOM     74  N   UNL A   1      33.572  22.646  26.546  1.00  0.00    -0.338 N 
ATOM     75  N   UNL A   1      33.347  23.980  24.789  1.00  0.00    -0.228 NA
ATOM     76  C   UNL A   1      32.783  23.561  25.900  1.00  0.00     0.142 A 
ATOM     77  H   UNL A   1      33.397  22.245  27.427  1.00  0.00     0.168 HD
BRANCH  76  78
ATOM     78  C   UNL A   1      31.387  23.868  26.261  1.00  0.00     0.063 A 
ATOM     79  C   UNL A   1      30.368  22.995  26.539  1.00  0.00     0.117 A 
ATOM     80  C   UNL A   1      30.828  25.170  26.348  1.00  0.00     0.106 A 
ATOM     81  N   UNL A   1      29.308  23.791  26.876  1.00  0.00    -0.284 N 
ATOM     82  N   UNL A   1      29.534  25.105  26.695  1.00  0.00    -0.175 NA
ATOM     83  H   UNL A   1      28.457  23.433  27.220  1.00  0.00     0.189 HD
BRANCH  80  84
ATOM     84  C   UNL A   1      31.478  26.405  25.941  1.00  0.00     0.039 A 
ATOM     85  C   UNL A   1      32.309  27.071  26.861  1.00  0.00     0.016 A 
ATOM     86  C   UNL A   1      31.223  26.993  24.702  1.00  0.00     0.135 A 
ATOM     87  C   UNL A   1      32.857  28.313  26.541  1.00  0.00     0.040 A 
ATOM     88  C   UNL A   1      31.774  28.230  24.376  1.00  0.00     0.079 A 
ATOM     89  F   UNL A   1      30.416  26.397  23.811  1.00  0.00    -0.206 F 
ATOM     90  C   UNL A   1      32.582  28.880  25.302  1.00  0.00     0.126 A 
ATOM     91  F   UNL A   1      33.099  30.078  25.002  1.00  0.00    -0.207 F 
ENDBRANCH  80  84
ENDBRANCH  76  78
ENDBRANCH  66  68
ENDBRANCH  65  66
ENDBRANCH  64  65
ENDBRANCH  63  64
ENDBRANCH   1  63
TORSDOF 16
ENDMDL
MODEL 3
REMARK VINA RESULT:     -12.0      1.276      2.139
REMARK SMILES O=C(OCCOCCOC(=O)c1ccc2nc(-c3c[nH]nc3-c3ccc(F)cc3F)[nH]c2c1)c1ccc(-c2c3nc(c(-c4c(F)cccc4F)c4ccc([nH]4)c(-c4c(F)cccc4F)c4nc(c(-c5c(F)cccc5F)c5ccc2[nH]5)C=C4)C=C3)cc1
REMARK SMILES IDX 6 1 5 2 4 3 3 4 2 5 1 6 34 7 35 8 87 9 36 10 86 11 37 12
REMARK SMILES IDX 38 13 39 14 80 15 40 16 85 17 79 18 81 19 41 20 84 21 78 22
REMARK SMILES IDX 77 23 42 25 68 26 51 27 67 28 52 29 55 30 66 31 82 32 53 33
REMARK SMILES IDX 54 34 65 36 83 37 56 38 43 39 44 40 49 41 45 42 46 43 48 44
REMARK SMILES IDX 50 45 47 46 69 47 70 48 75 49 71 50 72 51 74 52 76 53 73 54
REMARK SMILES IDX 57 55 58 56 63 57 59 58 60 59 62 60 64 61 61 62 7 63 8 64
REMARK SMILES IDX 9 65 10 66 11 67 12 68 13 69 33 70 14 71 32 72 15 73 31 74
REMARK SMILES IDX 16 75 17 76 18 78 19 79 22 80 20 81 21 82 23 84 24 85 29 86
REMARK SMILES IDX 25 87 28 88 30 89 26 90 27 91
REMARK H PARENT 81 24 55 35 31 77 20 83
REMARK Flexibility Score: inf
ROOT
ATOM      1  O   UNL A   1      42.308  20.417  26.966  1.00  0.00    -0.374 OA
ENDROOT
BRANCH   1   2
ATOM      2  C   UNL A   1      43.009  20.083  25.769  1.00  0.00     0.202 C 
BRANCH   2   3
ATOM      3  C   UNL A   1      43.891  21.201  25.212  1.00  0.00     0.261 C 
BRANCH   3   4
ATOM      4  O   UNL A   1      43.831  22.352  26.068  1.00  0.00    -0.460 OA
BRANCH   4   5
ATOM      5  C   UNL A   1      43.491  23.616  25.726  1.00  0.00     0.338 C 
ATOM      6  O   UNL A   1      43.656  23.984  24.565  1.00  0.00    -0.246 OA
BRANCH   5   7
ATOM      7  C   UNL A   1      42.934  24.599  26.701  1.00  0.00     0.060 A 
ATOM      8  C   UNL A   1      42.029  24.274  27.711  1.00  0.00     0.016 A 
ATOM      9  C   UNL A   1      43.455  25.903  26.672  1.00  0.00     0.016 A 
ATOM     10  C   UNL A   1      41.607  25.214  28.638  1.00  0.00     0.010 A 
ATOM     11  C   UNL A   1      43.083  26.842  27.639  1.00  0.00     0.010 A 
ATOM     12  C   UNL A   1      42.159  26.492  28.629  1.00  0.00    -0.014 A 
BRANCH  12  13
ATOM     13  C   UNL A   1      41.758  27.429  29.692  1.00  0.00     0.031 A 
ATOM     14  C   UNL A   1      42.555  27.487  30.953  1.00  0.00     0.074 A 
ATOM     15  C   UNL A   1      40.739  28.277  29.456  1.00  0.00     0.049 A 
ATOM     16  N   UNL A   1      42.335  28.187  32.032  1.00  0.00    -0.248 NA
ATOM     17  C   UNL A   1      43.772  26.659  31.005  1.00  0.00     0.031 C 
ATOM     18  C   UNL A   1      39.980  28.353  28.203  1.00  0.00     0.029 A 
ATOM     19  N   UNL A   1      40.180  29.251  30.240  1.00  0.00    -0.354 N 
ATOM     20  C   UNL A   1      43.368  27.868  32.900  1.00  0.00     0.074 A 
ATOM     21  C   UNL A   1      44.223  26.917  32.225  1.00  0.00     0.031 C 
ATOM     22  C   UNL A   1      39.071  29.335  28.297  1.00  0.00     0.029 A 
ATOM     23  C   UNL A   1      39.130  29.903  29.638  1.00  0.00     0.049 A 
ATOM     24  H   UNL A   1      40.500  29.464  31.147  1.00  0.00     0.167 HD
ATOM     25  C   UNL A   1      43.566  28.330  34.154  1.00  0.00     0.037 A 
ATOM     26  C   UNL A   1      38.284  30.822  30.140  1.00  0.00     0.037 A 
ATOM     27  C   UNL A   1      42.699  29.283  34.791  1.00  0.00     0.049 A 
ATOM     28  C   UNL A   1      38.473  31.241  31.570  1.00  0.00     0.074 A 
ATOM     29  C   UNL A   1      42.773  29.794  36.072  1.00  0.00     0.029 A 
ATOM     30  N   UNL A   1      41.596  29.866  34.183  1.00  0.00    -0.354 N 
ATOM     31  N   UNL A   1      39.420  30.896  32.411  1.00  0.00    -0.248 NA
ATOM     32  C   UNL A   1      37.465  32.147  32.138  1.00  0.00     0.031 C 
ATOM     33  C   UNL A   1      41.688  30.658  36.253  1.00  0.00     0.029 A 
ATOM     34  C   UNL A   1      40.962  30.713  35.072  1.00  0.00     0.049 A 
ATOM     35  H   UNL A   1      41.308  29.702  33.255  1.00  0.00     0.167 HD
ATOM     36  C   UNL A   1      39.123  31.535  33.604  1.00  0.00     0.074 A 
ATOM     37  C   UNL A   1      37.923  32.315  33.371  1.00  0.00     0.031 C 
ATOM     38  C   UNL A   1      39.770  31.472  34.793  1.00  0.00     0.037 A 
BRANCH  25  39
ATOM     39  C   UNL A   1      44.719  27.772  34.928  1.00  0.00     0.057 A 
ATOM     40  C   UNL A   1      44.562  26.604  35.684  1.00  0.00     0.134 A 
ATOM     41  C   UNL A   1      45.970  28.400  34.955  1.00  0.00     0.134 A 
ATOM     42  F   UNL A   1      43.390  25.952  35.693  1.00  0.00    -0.206 F 
ATOM     43  C   UNL A   1      45.606  26.087  36.452  1.00  0.00     0.040 A 
ATOM     44  C   UNL A   1      47.027  27.883  35.708  1.00  0.00     0.040 A 
ATOM     45  F   UNL A   1      46.191  29.508  34.233  1.00  0.00    -0.206 F 
ATOM     46  C   UNL A   1      46.843  26.726  36.466  1.00  0.00     0.006 A 
ENDBRANCH  25  39
BRANCH  26  47
ATOM     47  C   UNL A   1      37.155  31.336  29.319  1.00  0.00     0.057 A 
ATOM     48  C   UNL A   1      36.009  30.560  29.089  1.00  0.00     0.134 A 
ATOM     49  C   UNL A   1      37.185  32.614  28.751  1.00  0.00     0.134 A 
ATOM     50  F   UNL A   1      35.911  29.326  29.605  1.00  0.00    -0.206 F 
ATOM     51  C   UNL A   1      34.948  31.027  28.314  1.00  0.00     0.040 A 
ATOM     52  C   UNL A   1      36.116  33.106  27.997  1.00  0.00     0.040 A 
ATOM     53  F   UNL A   1      38.241  33.416  28.951  1.00  0.00    -0.206 F 
ATOM     54  C   UNL A   1      34.996  32.308  27.770  1.00  0.00     0.006 A 
ENDBRANCH  26  47
BRANCH  38  55
ATOM     55  C   UNL A   1      39.188  32.259  35.926  1.00  0.00     0.057 A 
ATOM     56  C   UNL A   1      38.192  31.709  36.741  1.00  0.00     0.134 A 
ATOM     57  C   UNL A   1      39.553  33.592  36.144  1.00  0.00     0.134 A 
ATOM     58  F   UNL A   1      37.796  30.439  36.570  1.00  0.00    -0.206 F 
ATOM     59  C   UNL A   1      37.561  32.469  37.724  1.00  0.00     0.040 A 
ATOM     60  C   UNL A   1      38.944  34.355  37.138  1.00  0.00     0.040 A 
ATOM     61  F   UNL A   1      40.511  34.165  35.400  1.00  0.00    -0.206 F 
ATOM     62  C   UNL A   1      37.936  33.796  37.924  1.00  0.00     0.006 A 
ENDBRANCH  38  55
ENDBRANCH  12  13
ENDBRANCH   5   7
ENDBRANCH   4   5
ENDBRANCH   3   4
ENDBRANCH   2   3
ENDBRANCH   1   2
BRANCH   1  63
ATOM     63  C   UNL A   1      40.882  20.277  26.912  1.00  0.00     0.202 C 
BRANCH  63  64
ATOM     64  C   UNL A   1      40.290  21.435  26.099  1.00  0.00     0.261 C 
BRANCH  64  65
ATOM     65  O   UNL A   1      38.880  21.501  26.372  1.00  0.00    -0.460 OA
BRANCH  65  66
ATOM     66  C   UNL A   1      38.086  21.115  25.338  1.00  0.00     0.338 C 
ATOM     67  O   UNL A   1      37.964  20.004  24.869  1.00  0.00    -0.246 OA
BRANCH  66  68
ATOM     68  C   UNL A   1      37.169  22.244  25.063  1.00  0.00     0.062 A 
ATOM     69  C   UNL A   1      37.038  23.301  25.972  1.00  0.00     0.018 A 
ATOM     70  C   UNL A   1      36.357  22.145  23.919  1.00  0.00     0.044 A 
ATOM     71  C   UNL A   1      36.094  24.308  25.750  1.00  0.00     0.031 A 
ATOM     72  C   UNL A   1      35.370  23.120  23.774  1.00  0.00     0.067 A 
ATOM     73  C   UNL A   1      35.255  24.209  24.631  1.00  0.00     0.089 A 
ATOM     74  N   UNL A   1      34.345  23.289  22.873  1.00  0.00    -0.338 N 
ATOM     75  N   UNL A   1      34.298  25.074  24.186  1.00  0.00    -0.228 NA
ATOM     76  C   UNL A   1      33.774  24.509  23.121  1.00  0.00     0.142 A 
ATOM     77  H   UNL A   1      34.073  22.649  22.176  1.00  0.00     0.168 HD
BRANCH  76  78
ATOM     78  C   UNL A   1      32.866  25.214  22.199  1.00  0.00     0.063 A 
ATOM     79  C   UNL A   1      32.852  25.184  20.829  1.00  0.00     0.117 A 
ATOM     80  C   UNL A   1      31.834  26.109  22.585  1.00  0.00     0.106 A 
ATOM     81  N   UNL A   1      31.779  25.951  20.472  1.00  0.00    -0.284 N 
ATOM     82  N   UNL A   1      31.194  26.584  21.506  1.00  0.00    -0.175 NA
ATOM     83  H   UNL A   1      31.462  26.033  19.543  1.00  0.00     0.189 HD
BRANCH  80  84
ATOM     84  C   UNL A   1      31.602  26.612  23.929  1.00  0.00     0.039 A 
ATOM     85  C   UNL A   1      32.220  27.812  24.323  1.00  0.00     0.016 A 
ATOM     86  C   UNL A   1      30.863  25.886  24.864  1.00  0.00     0.135 A 
ATOM     87  C   UNL A   1      32.108  28.262  25.638  1.00  0.00     0.040 A 
ATOM     88  C   UNL A   1      30.744  26.335  26.177  1.00  0.00     0.079 A 
ATOM     89  F   UNL A   1      30.281  24.724  24.531  1.00  0.00    -0.206 F 
ATOM     90  C   UNL A   1      31.373  27.517  26.552  1.00  0.00     0.126 A 
ATOM     91  F   UNL A   1      31.277  27.944  27.818  1.00  0.00    -0.207 F 
ENDBRANCH  80  84
ENDBRANCH  76  78
ENDBRANCH  66  68
ENDBRANCH  65  66
ENDBRANCH  64  65
ENDBRANCH  63  64
ENDBRANCH   1  63
TORSDOF 16
ENDMDL
