MODEL 1
REMARK VINA RESULT:     -10.3      0.000      0.000
REMARK SMILES CCCCCN(C)S(=O)(=O)c1cc(Cl)cc(C(=O)OCCOCCOC(=O)c2ccc(-c3c4nc(c(-c5c(F)cccc5F)c5ccc([nH]5)c(-c5c(F)cccc5F)c5nc(c(-c6c(F)cccc6F)c6ccc3[nH]6)C=C5)C=C4)cc2)c1F
REMARK SMILES IDX 20 1 19 2 17 3 18 4 16 5 11 6 12 7 82 8 13 9 83 10 14 11
REMARK SMILES IDX 15 12 8 13 9 14 10 15 6 16 7 17 5 18 4 19 3 20 2 21 1 22
REMARK SMILES IDX 21 23 22 24 23 25 24 26 25 27 26 28 27 29 28 30 29 31 81 32
REMARK SMILES IDX 30 33 80 34 31 35 32 36 33 37 74 38 34 39 79 40 73 41 75 42
REMARK SMILES IDX 35 43 78 44 72 45 71 46 36 48 62 49 45 50 61 51 46 52 49 53
REMARK SMILES IDX 60 54 76 55 47 56 48 57 59 59 77 60 50 61 37 62 38 63 43 64
REMARK SMILES IDX 39 65 40 66 42 67 44 68 41 69 63 70 64 71 69 72 65 73 66 74
REMARK SMILES IDX 68 75 70 76 67 77 51 78 52 79 57 80 53 81 54 82 56 83 58 84
REMARK SMILES IDX 55 85
REMARK H PARENT 75 47 49 58
REMARK Flexibility Score: inf
ROOT
ATOM      1  C   UNL A   1      34.285  33.427  29.808  1.00  0.00     0.261 C 
ENDROOT
BRANCH   1   2
ATOM      2  O   UNL A   1      34.221  33.512  28.375  1.00  0.00    -0.460 OA
BRANCH   2   3
ATOM      3  C   UNL A   1      33.197  32.877  27.764  1.00  0.00     0.341 C 
ATOM      4  O   UNL A   1      32.160  33.365  27.350  1.00  0.00    -0.246 OA
BRANCH   3   5
ATOM      5  C   UNL A   1      33.610  31.493  27.466  1.00  0.00     0.098 A 
ATOM      6  C   UNL A   1      33.106  29.197  26.924  1.00  0.00     0.120 A 
ATOM      7  C   UNL A   1      34.428  28.828  27.182  1.00  0.00     0.045 A 
ATOM      8  C   UNL A   1      32.693  30.520  27.076  1.00  0.00     0.157 A 
ATOM      9  C   UNL A   1      35.350  29.817  27.525  1.00  0.00     0.043 A 
ATOM     10  F   UNL A   1      31.409  30.850  26.878  1.00  0.00    -0.205 F 
ATOM     11  Cl  UNL A   1      36.991  29.389  27.808  1.00  0.00    -0.084 Cl
ATOM     12  C   UNL A   1      34.953  31.147  27.663  1.00  0.00     0.039 A 
BRANCH   6  13
ATOM     13  S   UNL A   1      31.856  28.029  26.510  1.00  0.00     0.245 S 
ATOM     14  O   UNL A   1      31.240  28.466  25.275  1.00  0.00    -0.207 OA
ATOM     15  O   UNL A   1      31.105  27.869  27.732  1.00  0.00    -0.207 OA
BRANCH  13  16
ATOM     16  N   UNL A   1      32.639  26.533  26.142  1.00  0.00    -0.201 NA
ATOM     17  C   UNL A   1      33.017  26.415  24.695  1.00  0.00     0.124 C 
BRANCH  16  18
ATOM     18  C   UNL A   1      31.797  25.317  26.486  1.00  0.00     0.102 C 
BRANCH  18  19
ATOM     19  C   UNL A   1      30.863  24.809  25.386  1.00  0.00     0.017 C 
BRANCH  19  20
ATOM     20  C   UNL A   1      31.014  23.370  24.865  1.00  0.00     0.001 C 
BRANCH  20  21
ATOM     21  C   UNL A   1      31.817  22.383  25.716  1.00  0.00    -0.003 C 
ATOM     22  C   UNL A   1      32.582  21.362  24.892  1.00  0.00     0.004 C 
ENDBRANCH  20  21
ENDBRANCH  19  20
ENDBRANCH  18  19
ENDBRANCH  16  18
ENDBRANCH  13  16
ENDBRANCH   6  13
ENDBRANCH   3   5
ENDBRANCH   2   3
ENDBRANCH   1   2
BRANCH   1  23
ATOM     23  C   UNL A   1      34.100  34.831  30.392  1.00  0.00     0.202 C 
BRANCH  23  24
ATOM     24  O   UNL A   1      34.705  34.966  31.682  1.00  0.00    -0.374 OA
BRANCH  24  25
ATOM     25  C   UNL A   1      33.867  34.620  32.788  1.00  0.00     0.202 C 
BRANCH  25  26
ATOM     26  C   UNL A   1      34.414  33.451  33.611  1.00  0.00     0.261 C 
BRANCH  26  27
ATOM     27  O   UNL A   1      35.344  32.683  32.825  1.00  0.00    -0.460 OA
BRANCH  27  28
ATOM     28  C   UNL A   1      36.470  32.303  33.472  1.00  0.00     0.338 C 
ATOM     29  O   UNL A   1      36.698  32.388  34.667  1.00  0.00    -0.246 OA
BRANCH  28  30
ATOM     30  C   UNL A   1      37.381  31.616  32.533  1.00  0.00     0.060 A 
ATOM     31  C   UNL A   1      38.331  30.745  33.083  1.00  0.00     0.016 A 
ATOM     32  C   UNL A   1      37.346  31.840  31.153  1.00  0.00     0.016 A 
ATOM     33  C   UNL A   1      39.279  30.136  32.263  1.00  0.00     0.010 A 
ATOM     34  C   UNL A   1      38.302  31.231  30.331  1.00  0.00     0.010 A 
ATOM     35  C   UNL A   1      39.291  30.403  30.888  1.00  0.00    -0.014 A 
BRANCH  35  36
ATOM     36  C   UNL A   1      40.428  29.921  30.069  1.00  0.00     0.031 A 
ATOM     37  C   UNL A   1      41.574  30.852  29.790  1.00  0.00     0.074 A 
ATOM     38  C   UNL A   1      40.464  28.655  29.619  1.00  0.00     0.049 A 
ATOM     39  N   UNL A   1      42.682  30.630  29.129  1.00  0.00    -0.248 NA
ATOM     40  C   UNL A   1      41.458  32.216  30.331  1.00  0.00     0.031 C 
ATOM     41  C   UNL A   1      39.427  27.648  29.841  1.00  0.00     0.029 A 
ATOM     42  N   UNL A   1      41.416  28.002  28.878  1.00  0.00    -0.354 N 
ATOM     43  C   UNL A   1      43.395  31.820  29.180  1.00  0.00     0.074 A 
ATOM     44  C   UNL A   1      42.585  32.771  29.909  1.00  0.00     0.031 C 
ATOM     45  C   UNL A   1      39.800  26.502  29.245  1.00  0.00     0.029 A 
ATOM     46  C   UNL A   1      41.089  26.702  28.586  1.00  0.00     0.049 A 
ATOM     47  H   UNL A   1      42.255  28.426  28.584  1.00  0.00     0.167 HD
ATOM     48  C   UNL A   1      44.620  32.094  28.673  1.00  0.00     0.037 A 
ATOM     49  C   UNL A   1      41.754  25.781  27.862  1.00  0.00     0.037 A 
ATOM     50  C   UNL A   1      45.430  31.156  27.945  1.00  0.00     0.049 A 
ATOM     51  C   UNL A   1      43.088  26.127  27.261  1.00  0.00     0.074 A 
ATOM     52  C   UNL A   1      46.693  31.337  27.409  1.00  0.00     0.029 A 
ATOM     53  N   UNL A   1      45.048  29.858  27.641  1.00  0.00    -0.354 N 
ATOM     54  N   UNL A   1      43.769  27.244  27.345  1.00  0.00    -0.248 NA
ATOM     55  C   UNL A   1      43.749  25.082  26.464  1.00  0.00     0.031 C 
ATOM     56  C   UNL A   1      47.063  30.158  26.752  1.00  0.00     0.029 A 
ATOM     57  C   UNL A   1      46.043  29.234  26.908  1.00  0.00     0.049 A 
ATOM     58  H   UNL A   1      44.198  29.442  27.907  1.00  0.00     0.167 HD
ATOM     59  C   UNL A   1      44.943  27.030  26.634  1.00  0.00     0.074 A 
ATOM     60  C   UNL A   1      44.888  25.673  26.132  1.00  0.00     0.031 C 
ATOM     61  C   UNL A   1      45.975  27.881  26.419  1.00  0.00     0.037 A 
BRANCH  48  62
ATOM     62  C   UNL A   1      45.154  33.478  28.885  1.00  0.00     0.057 A 
ATOM     63  C   UNL A   1      45.951  33.797  29.990  1.00  0.00     0.134 A 
ATOM     64  C   UNL A   1      44.886  34.495  27.960  1.00  0.00     0.134 A 
ATOM     65  F   UNL A   1      46.230  32.869  30.917  1.00  0.00    -0.206 F 
ATOM     66  C   UNL A   1      46.452  35.086  30.178  1.00  0.00     0.040 A 
ATOM     67  C   UNL A   1      45.396  35.784  28.128  1.00  0.00     0.040 A 
ATOM     68  F   UNL A   1      44.129  34.253  26.880  1.00  0.00    -0.206 F 
ATOM     69  C   UNL A   1      46.179  36.082  29.242  1.00  0.00     0.006 A 
ENDBRANCH  48  62
BRANCH  49  70
ATOM     70  C   UNL A   1      41.166  24.435  27.658  1.00  0.00     0.057 A 
ATOM     71  C   UNL A   1      41.636  23.324  28.366  1.00  0.00     0.134 A 
ATOM     72  C   UNL A   1      40.133  24.228  26.737  1.00  0.00     0.134 A 
ATOM     73  F   UNL A   1      42.641  23.459  29.244  1.00  0.00    -0.206 F 
ATOM     74  C   UNL A   1      41.109  22.049  28.157  1.00  0.00     0.040 A 
ATOM     75  C   UNL A   1      39.583  22.962  26.531  1.00  0.00     0.040 A 
ATOM     76  F   UNL A   1      39.644  25.254  26.026  1.00  0.00    -0.206 F 
ATOM     77  C   UNL A   1      40.075  21.867  27.239  1.00  0.00     0.006 A 
ENDBRANCH  49  70
BRANCH  61  78
ATOM     78  C   UNL A   1      47.138  27.363  25.626  1.00  0.00     0.057 A 
ATOM     79  C   UNL A   1      47.237  27.570  24.246  1.00  0.00     0.134 A 
ATOM     80  C   UNL A   1      48.187  26.685  26.260  1.00  0.00     0.134 A 
ATOM     81  F   UNL A   1      46.258  28.203  23.581  1.00  0.00    -0.206 F 
ATOM     82  C   UNL A   1      48.334  27.107  23.518  1.00  0.00     0.040 A 
ATOM     83  C   UNL A   1      49.298  26.235  25.545  1.00  0.00     0.040 A 
ATOM     84  F   UNL A   1      48.154  26.461  27.582  1.00  0.00    -0.206 F 
ATOM     85  C   UNL A   1      49.371  26.442  24.170  1.00  0.00     0.006 A 
ENDBRANCH  61  78
ENDBRANCH  35  36
ENDBRANCH  28  30
ENDBRANCH  27  28
ENDBRANCH  26  27
ENDBRANCH  25  26
ENDBRANCH  24  25
ENDBRANCH  23  24
ENDBRANCH   1  23
TORSDOF 20
ENDMDL
MODEL 2
REMARK VINA RESULT:      -9.8      4.875     10.288
REMARK SMILES CCCCCN(C)S(=O)(=O)c1cc(Cl)cc(C(=O)OCCOCCOC(=O)c2ccc(-c3c4nc(c(-c5c(F)cccc5F)c5ccc([nH]5)c(-c5c(F)cccc5F)c5nc(c(-c6c(F)cccc6F)c6ccc3[nH]6)C=C5)C=C4)cc2)c1F
REMARK SMILES IDX 20 1 19 2 17 3 18 4 16 5 11 6 12 7 82 8 13 9 83 10 14 11
REMARK SMILES IDX 15 12 8 13 9 14 10 15 6 16 7 17 5 18 4 19 3 20 2 21 1 22
REMARK SMILES IDX 21 23 22 24 23 25 24 26 25 27 26 28 27 29 28 30 29 31 81 32
REMARK SMILES IDX 30 33 80 34 31 35 32 36 33 37 74 38 34 39 79 40 73 41 75 42
REMARK SMILES IDX 35 43 78 44 72 45 71 46 36 48 62 49 45 50 61 51 46 52 49 53
REMARK SMILES IDX 60 54 76 55 47 56 48 57 59 59 77 60 50 61 37 62 38 63 43 64
REMARK SMILES IDX 39 65 40 66 42 67 44 68 41 69 63 70 64 71 69 72 65 73 66 74
REMARK SMILES IDX 68 75 70 76 67 77 51 78 52 79 57 80 53 81 54 82 56 83 58 84
REMARK SMILES IDX 55 85
REMARK H PARENT 75 47 49 58
REMARK Flexibility Score: inf
ROOT
ATOM      1  C   UNL A   1      38.425  21.852  25.745  1.00  0.00     0.261 C 
ENDROOT
BRANCH   1   2
ATOM      2  O   UNL A   1      37.437  21.309  24.853  1.00  0.00    -0.460 OA
BRANCH   2   3
ATOM      3  C   UNL A   1      36.649  22.187  24.196  1.00  0.00     0.341 C 
ATOM      4  O   UNL A   1      36.942  22.871  23.230  1.00  0.00    -0.246 OA
BRANCH   3   5
ATOM      5  C   UNL A   1      35.267  22.049  24.694  1.00  0.00     0.098 A 
ATOM      6  C   UNL A   1      33.247  22.973  25.631  1.00  0.00     0.120 A 
ATOM      7  C   UNL A   1      32.757  21.689  25.885  1.00  0.00     0.045 A 
ATOM      8  C   UNL A   1      34.500  23.155  25.050  1.00  0.00     0.157 A 
ATOM      9  C   UNL A   1      33.511  20.587  25.481  1.00  0.00     0.043 A 
ATOM     10  F   UNL A   1      34.980  24.392  24.863  1.00  0.00    -0.205 F 
ATOM     11  Cl  UNL A   1      32.909  19.000  25.749  1.00  0.00    -0.084 Cl
ATOM     12  C   UNL A   1      34.759  20.757  24.882  1.00  0.00     0.039 A 
BRANCH   6  13
ATOM     13  S   UNL A   1      32.391  24.430  26.122  1.00  0.00     0.245 S 
ATOM     14  O   UNL A   1      33.379  25.466  26.339  1.00  0.00    -0.207 OA
ATOM     15  O   UNL A   1      31.500  23.982  27.166  1.00  0.00    -0.207 OA
BRANCH  13  16
ATOM     16  N   UNL A   1      31.444  24.960  24.776  1.00  0.00    -0.201 NA
ATOM     17  C   UNL A   1      30.880  23.822  23.977  1.00  0.00     0.124 C 
BRANCH  16  18
ATOM     18  C   UNL A   1      32.216  25.845  23.813  1.00  0.00     0.102 C 
BRANCH  18  19
ATOM     19  C   UNL A   1      31.569  27.185  23.461  1.00  0.00     0.017 C 
BRANCH  19  20
ATOM     20  C   UNL A   1      30.976  28.061  24.577  1.00  0.00     0.001 C 
BRANCH  20  21
ATOM     21  C   UNL A   1      31.932  28.599  25.644  1.00  0.00    -0.003 C 
ATOM     22  C   UNL A   1      31.799  30.095  25.872  1.00  0.00     0.004 C 
ENDBRANCH  20  21
ENDBRANCH  19  20
ENDBRANCH  18  19
ENDBRANCH  16  18
ENDBRANCH  13  16
ENDBRANCH   6  13
ENDBRANCH   3   5
ENDBRANCH   2   3
ENDBRANCH   1   2
BRANCH   1  23
ATOM     23  C   UNL A   1      39.590  20.864  25.847  1.00  0.00     0.202 C 
BRANCH  23  24
ATOM     24  O   UNL A   1      40.753  21.456  26.435  1.00  0.00    -0.374 OA
BRANCH  24  25
ATOM     25  C   UNL A   1      41.976  20.749  26.212  1.00  0.00     0.202 C 
BRANCH  25  26
ATOM     26  C   UNL A   1      43.113  21.656  25.735  1.00  0.00     0.261 C 
BRANCH  26  27
ATOM     27  O   UNL A   1      42.591  22.934  25.329  1.00  0.00    -0.460 OA
BRANCH  27  28
ATOM     28  C   UNL A   1      43.412  23.988  25.545  1.00  0.00     0.338 C 
ATOM     29  O   UNL A   1      44.457  24.240  24.967  1.00  0.00    -0.246 OA
BRANCH  28  30
ATOM     30  C   UNL A   1      42.795  24.916  26.517  1.00  0.00     0.060 A 
ATOM     31  C   UNL A   1      43.326  26.210  26.593  1.00  0.00     0.016 A 
ATOM     32  C   UNL A   1      41.753  24.530  27.366  1.00  0.00     0.016 A 
ATOM     33  C   UNL A   1      42.852  27.105  27.551  1.00  0.00     0.010 A 
ATOM     34  C   UNL A   1      41.282  25.428  28.331  1.00  0.00     0.010 A 
ATOM     35  C   UNL A   1      41.852  26.707  28.447  1.00  0.00    -0.014 A 
BRANCH  35  36
ATOM     36  C   UNL A   1      41.512  27.590  29.588  1.00  0.00     0.031 A 
ATOM     37  C   UNL A   1      40.347  28.531  29.462  1.00  0.00     0.074 A 
ATOM     38  C   UNL A   1      42.203  27.522  30.739  1.00  0.00     0.049 A 
ATOM     39  N   UNL A   1      39.854  29.363  30.343  1.00  0.00    -0.248 NA
ATOM     40  C   UNL A   1      39.640  28.531  28.170  1.00  0.00     0.031 C 
ATOM     41  C   UNL A   1      43.337  26.636  30.995  1.00  0.00     0.029 A 
ATOM     42  N   UNL A   1      42.044  28.217  31.912  1.00  0.00    -0.354 N 
ATOM     43  C   UNL A   1      38.780  29.980  29.718  1.00  0.00     0.074 A 
ATOM     44  C   UNL A   1      38.708  29.450  28.372  1.00  0.00     0.031 C 
ATOM     45  C   UNL A   1      43.776  26.844  32.249  1.00  0.00     0.029 A 
ATOM     46  C   UNL A   1      42.965  27.888  32.874  1.00  0.00     0.049 A 
ATOM     47  H   UNL A   1      41.337  28.888  32.050  1.00  0.00     0.167 HD
ATOM     48  C   UNL A   1      37.922  30.899  30.220  1.00  0.00     0.037 A 
ATOM     49  C   UNL A   1      43.137  28.380  34.115  1.00  0.00     0.037 A 
ATOM     50  C   UNL A   1      37.988  31.433  31.553  1.00  0.00     0.049 A 
ATOM     51  C   UNL A   1      42.206  29.442  34.632  1.00  0.00     0.074 A 
ATOM     52  C   UNL A   1      37.150  32.354  32.158  1.00  0.00     0.029 A 
ATOM     53  N   UNL A   1      38.957  31.098  32.486  1.00  0.00    -0.354 N 
ATOM     54  N   UNL A   1      41.171  29.992  34.044  1.00  0.00    -0.248 NA
ATOM     55  C   UNL A   1      42.465  29.950  35.987  1.00  0.00     0.031 C 
ATOM     56  C   UNL A   1      37.632  32.602  33.448  1.00  0.00     0.029 A 
ATOM     57  C   UNL A   1      38.749  31.810  33.656  1.00  0.00     0.049 A 
ATOM     58  H   UNL A   1      39.683  30.451  32.340  1.00  0.00     0.167 HD
ATOM     59  C   UNL A   1      40.646  30.892  34.962  1.00  0.00     0.074 A 
ATOM     60  C   UNL A   1      41.468  30.808  36.151  1.00  0.00     0.031 C 
ATOM     61  C   UNL A   1      39.574  31.712  34.832  1.00  0.00     0.037 A 
BRANCH  48  62
ATOM     62  C   UNL A   1      36.838  31.393  29.310  1.00  0.00     0.057 A 
ATOM     63  C   UNL A   1      35.720  30.608  29.006  1.00  0.00     0.134 A 
ATOM     64  C   UNL A   1      36.904  32.676  28.753  1.00  0.00     0.134 A 
ATOM     65  F   UNL A   1      35.608  29.366  29.498  1.00  0.00    -0.206 F 
ATOM     66  C   UNL A   1      34.710  31.077  28.164  1.00  0.00     0.040 A 
ATOM     67  C   UNL A   1      35.892  33.162  27.924  1.00  0.00     0.040 A 
ATOM     68  F   UNL A   1      37.950  33.476  29.006  1.00  0.00    -0.206 F 
ATOM     69  C   UNL A   1      34.792  32.359  27.625  1.00  0.00     0.006 A 
ENDBRANCH  48  62
BRANCH  49  70
ATOM     70  C   UNL A   1      44.245  27.877  34.963  1.00  0.00     0.057 A 
ATOM     71  C   UNL A   1      45.518  28.455  34.911  1.00  0.00     0.134 A 
ATOM     72  C   UNL A   1      44.059  26.795  35.831  1.00  0.00     0.134 A 
ATOM     73  F   UNL A   1      45.761  29.479  34.079  1.00  0.00    -0.206 F 
ATOM     74  C   UNL A   1      46.573  27.967  35.683  1.00  0.00     0.040 A 
ATOM     75  C   UNL A   1      45.100  26.308  36.623  1.00  0.00     0.040 A 
ATOM     76  F   UNL A   1      42.862  26.197  35.921  1.00  0.00    -0.206 F 
ATOM     77  C   UNL A   1      46.363  26.892  36.546  1.00  0.00     0.006 A 
ENDBRANCH  49  70
BRANCH  61  78
ATOM     78  C   UNL A   1      39.218  32.567  36.011  1.00  0.00     0.057 A 
ATOM     79  C   UNL A   1      38.357  32.111  37.016  1.00  0.00     0.134 A 
ATOM     80  C   UNL A   1      39.774  33.844  36.161  1.00  0.00     0.134 A 
ATOM     81  F   UNL A   1      37.784  30.901  36.922  1.00  0.00    -0.206 F 
ATOM     82  C   UNL A   1      38.048  32.901  38.123  1.00  0.00     0.040 A 
ATOM     83  C   UNL A   1      39.488  34.635  37.274  1.00  0.00     0.040 A 
ATOM     84  F   UNL A   1      40.611  34.335  35.236  1.00  0.00    -0.206 F 
ATOM     85  C   UNL A   1      38.620  34.166  38.257  1.00  0.00     0.006 A 
ENDBRANCH  61  78
ENDBRANCH  35  36
ENDBRANCH  28  30
ENDBRANCH  27  28
ENDBRANCH  26  27
ENDBRANCH  25  26
ENDBRANCH  24  25
ENDBRANCH  23  24
ENDBRANCH   1  23
TORSDOF 20
ENDMDL
MODEL 3
REMARK VINA RESULT:      -9.8      1.304      2.190
REMARK SMILES CCCCCN(C)S(=O)(=O)c1cc(Cl)cc(C(=O)OCCOCCOC(=O)c2ccc(-c3c4nc(c(-c5c(F)cccc5F)c5ccc([nH]5)c(-c5c(F)cccc5F)c5nc(c(-c6c(F)cccc6F)c6ccc3[nH]6)C=C5)C=C4)cc2)c1F
REMARK SMILES IDX 20 1 19 2 17 3 18 4 16 5 11 6 12 7 82 8 13 9 83 10 14 11
REMARK SMILES IDX 15 12 8 13 9 14 10 15 6 16 7 17 5 18 4 19 3 20 2 21 1 22
REMARK SMILES IDX 21 23 22 24 23 25 24 26 25 27 26 28 27 29 28 30 29 31 81 32
REMARK SMILES IDX 30 33 80 34 31 35 32 36 33 37 74 38 34 39 79 40 73 41 75 42
REMARK SMILES IDX 35 43 78 44 72 45 71 46 36 48 62 49 45 50 61 51 46 52 49 53
REMARK SMILES IDX 60 54 76 55 47 56 48 57 59 59 77 60 50 61 37 62 38 63 43 64
REMARK SMILES IDX 39 65 40 66 42 67 44 68 41 69 63 70 64 71 69 72 65 73 66 74
REMARK SMILES IDX 68 75 70 76 67 77 51 78 52 79 57 80 53 81 54 82 56 83 58 84
REMARK SMILES IDX 55 85
REMARK H PARENT 75 47 49 58
REMARK Flexibility Score: inf
ROOT
ATOM      1  C   UNL A   1      34.340  34.964  29.133  1.00  0.00     0.261 C 
ENDROOT
BRANCH   1   2
ATOM      2  O   UNL A   1      33.863  33.710  28.614  1.00  0.00    -0.460 OA
BRANCH   2   3
ATOM      3  C   UNL A   1      34.219  32.591  29.282  1.00  0.00     0.341 C 
ATOM      4  O   UNL A   1      34.180  32.398  30.484  1.00  0.00    -0.246 OA
BRANCH   3   5
ATOM      5  C   UNL A   1      34.475  31.518  28.303  1.00  0.00     0.098 A 
ATOM      6  C   UNL A   1      33.717  29.864  26.720  1.00  0.00     0.120 A 
ATOM      7  C   UNL A   1      34.995  29.303  26.668  1.00  0.00     0.045 A 
ATOM      8  C   UNL A   1      33.452  30.959  27.541  1.00  0.00     0.157 A 
ATOM      9  C   UNL A   1      36.024  29.898  27.398  1.00  0.00     0.043 A 
ATOM     10  F   UNL A   1      32.209  31.453  27.622  1.00  0.00    -0.205 F 
ATOM     11  Cl  UNL A   1      37.612  29.246  27.318  1.00  0.00    -0.084 Cl
ATOM     12  C   UNL A   1      35.775  31.005  28.210  1.00  0.00     0.039 A 
BRANCH   6  13
ATOM     13  S   UNL A   1      32.342  29.178  25.861  1.00  0.00     0.245 S 
ATOM     14  O   UNL A   1      31.701  30.252  25.131  1.00  0.00    -0.207 OA
ATOM     15  O   UNL A   1      31.648  28.407  26.865  1.00  0.00    -0.207 OA
BRANCH  13  16
ATOM     16  N   UNL A   1      32.959  28.098  24.662  1.00  0.00    -0.201 NA
ATOM     17  C   UNL A   1      33.326  28.793  23.385  1.00  0.00     0.124 C 
BRANCH  16  18
ATOM     18  C   UNL A   1      31.989  26.985  24.304  1.00  0.00     0.102 C 
BRANCH  18  19
ATOM     19  C   UNL A   1      31.041  27.265  23.138  1.00  0.00     0.017 C 
BRANCH  19  20
ATOM     20  C   UNL A   1      29.578  27.650  23.420  1.00  0.00     0.001 C 
BRANCH  20  21
ATOM     21  C   UNL A   1      29.107  29.036  22.975  1.00  0.00    -0.003 C 
ATOM     22  C   UNL A   1      30.025  29.684  21.953  1.00  0.00     0.004 C 
ENDBRANCH  20  21
ENDBRANCH  19  20
ENDBRANCH  18  19
ENDBRANCH  16  18
ENDBRANCH  13  16
ENDBRANCH   6  13
ENDBRANCH   3   5
ENDBRANCH   2   3
ENDBRANCH   1   2
BRANCH   1  23
ATOM     23  C   UNL A   1      33.282  35.536  30.081  1.00  0.00     0.202 C 
BRANCH  23  24
ATOM     24  O   UNL A   1      33.842  35.949  31.331  1.00  0.00    -0.374 OA
BRANCH  24  25
ATOM     25  C   UNL A   1      33.932  34.926  32.327  1.00  0.00     0.202 C 
BRANCH  25  26
ATOM     26  C   UNL A   1      35.264  34.937  33.080  1.00  0.00     0.261 C 
BRANCH  26  27
ATOM     27  O   UNL A   1      36.238  34.146  32.376  1.00  0.00    -0.460 OA
BRANCH  27  28
ATOM     28  C   UNL A   1      36.699  33.065  33.049  1.00  0.00     0.338 C 
ATOM     29  O   UNL A   1      36.341  32.672  34.146  1.00  0.00    -0.246 OA
BRANCH  28  30
ATOM     30  C   UNL A   1      37.636  32.305  32.195  1.00  0.00     0.060 A 
ATOM     31  C   UNL A   1      38.606  31.529  32.843  1.00  0.00     0.016 A 
ATOM     32  C   UNL A   1      37.606  32.373  30.799  1.00  0.00     0.016 A 
ATOM     33  C   UNL A   1      39.577  30.860  32.100  1.00  0.00     0.010 A 
ATOM     34  C   UNL A   1      38.584  31.705  30.054  1.00  0.00     0.010 A 
ATOM     35  C   UNL A   1      39.593  30.973  30.703  1.00  0.00    -0.014 A 
BRANCH  35  36
ATOM     36  C   UNL A   1      40.749  30.436  29.948  1.00  0.00     0.031 A 
ATOM     37  C   UNL A   1      41.920  31.336  29.668  1.00  0.00     0.074 A 
ATOM     38  C   UNL A   1      40.778  29.151  29.556  1.00  0.00     0.049 A 
ATOM     39  N   UNL A   1      43.045  31.067  29.058  1.00  0.00    -0.248 NA
ATOM     40  C   UNL A   1      41.808  32.725  30.143  1.00  0.00     0.031 C 
ATOM     41  C   UNL A   1      39.717  28.172  29.787  1.00  0.00     0.029 A 
ATOM     42  N   UNL A   1      41.745  28.450  28.880  1.00  0.00    -0.354 N 
ATOM     43  C   UNL A   1      43.777  32.246  29.080  1.00  0.00     0.074 A 
ATOM     44  C   UNL A   1      42.958  33.243  29.737  1.00  0.00     0.031 C 
ATOM     45  C   UNL A   1      40.090  26.994  29.256  1.00  0.00     0.029 A 
ATOM     46  C   UNL A   1      41.406  27.143  28.636  1.00  0.00     0.049 A 
ATOM     47  H   UNL A   1      42.600  28.847  28.597  1.00  0.00     0.167 HD
ATOM     48  C   UNL A   1      45.024  32.478  28.605  1.00  0.00     0.037 A 
ATOM     49  C   UNL A   1      42.079  26.180  27.978  1.00  0.00     0.037 A 
ATOM     50  C   UNL A   1      45.842  31.495  27.949  1.00  0.00     0.049 A 
ATOM     51  C   UNL A   1      43.439  26.478  27.409  1.00  0.00     0.074 A 
ATOM     52  C   UNL A   1      47.126  31.632  27.451  1.00  0.00     0.029 A 
ATOM     53  N   UNL A   1      45.448  30.191  27.691  1.00  0.00    -0.354 N 
ATOM     54  N   UNL A   1      44.136  27.587  27.467  1.00  0.00    -0.248 NA
ATOM     55  C   UNL A   1      44.109  25.387  26.685  1.00  0.00     0.031 C 
ATOM     56  C   UNL A   1      47.498  30.419  26.861  1.00  0.00     0.029 A 
ATOM     57  C   UNL A   1      46.458  29.519  27.022  1.00  0.00     0.049 A 
ATOM     58  H   UNL A   1      44.582  29.801  27.945  1.00  0.00     0.167 HD
ATOM     59  C   UNL A   1      45.329  27.322  26.809  1.00  0.00     0.074 A 
ATOM     60  C   UNL A   1      45.269  25.944  26.367  1.00  0.00     0.031 C 
ATOM     61  C   UNL A   1      46.383  28.146  26.592  1.00  0.00     0.037 A 
BRANCH  48  62
ATOM     62  C   UNL A   1      45.573  33.862  28.773  1.00  0.00     0.057 A 
ATOM     63  C   UNL A   1      45.376  34.852  27.803  1.00  0.00     0.134 A 
ATOM     64  C   UNL A   1      46.284  34.213  29.927  1.00  0.00     0.134 A 
ATOM     65  F   UNL A   1      44.716  34.572  26.670  1.00  0.00    -0.206 F 
ATOM     66  C   UNL A   1      45.883  36.142  27.968  1.00  0.00     0.040 A 
ATOM     67  C   UNL A   1      46.780  35.505  30.111  1.00  0.00     0.040 A 
ATOM     68  F   UNL A   1      46.505  33.310  30.893  1.00  0.00    -0.206 F 
ATOM     69  C   UNL A   1      46.582  36.473  29.127  1.00  0.00     0.006 A 
ENDBRANCH  48  62
BRANCH  49  70
ATOM     70  C   UNL A   1      41.475  24.836  27.814  1.00  0.00     0.057 A 
ATOM     71  C   UNL A   1      41.925  23.743  28.563  1.00  0.00     0.134 A 
ATOM     72  C   UNL A   1      40.447  24.611  26.891  1.00  0.00     0.134 A 
ATOM     73  F   UNL A   1      42.925  23.894  29.445  1.00  0.00    -0.206 F 
ATOM     74  C   UNL A   1      41.383  22.469  28.391  1.00  0.00     0.040 A 
ATOM     75  C   UNL A   1      39.883  23.346  26.723  1.00  0.00     0.040 A 
ATOM     76  F   UNL A   1      39.977  25.618  26.143  1.00  0.00    -0.206 F 
ATOM     77  C   UNL A   1      40.355  22.269  27.471  1.00  0.00     0.006 A 
ENDBRANCH  49  70
BRANCH  61  78
ATOM     78  C   UNL A   1      47.563  27.575  25.866  1.00  0.00     0.057 A 
ATOM     79  C   UNL A   1      48.602  26.927  26.544  1.00  0.00     0.134 A 
ATOM     80  C   UNL A   1      47.640  27.639  24.469  1.00  0.00     0.134 A 
ATOM     81  F   UNL A   1      48.591  26.845  27.884  1.00  0.00    -0.206 F 
ATOM     82  C   UNL A   1      49.686  26.376  25.860  1.00  0.00     0.040 A 
ATOM     83  C   UNL A   1      48.709  27.073  23.772  1.00  0.00     0.040 A 
ATOM     84  F   UNL A   1      46.673  28.240  23.760  1.00  0.00    -0.206 F 
ATOM     85  C   UNL A   1      49.737  26.443  24.469  1.00  0.00     0.006 A 
ENDBRANCH  61  78
ENDBRANCH  35  36
ENDBRANCH  28  30
ENDBRANCH  27  28
ENDBRANCH  26  27
ENDBRANCH  25  26
ENDBRANCH  24  25
ENDBRANCH  23  24
ENDBRANCH   1  23
TORSDOF 20
ENDMDL
