MODEL 1
REMARK VINA RESULT:     -11.4      0.000      0.000
REMARK SMILES CC1(C)C(NC(=O)N[C@H]2CCCC[C@H]2C(=O)OCCOCCOC(=O)c2ccc(-c3c4nc(c(-c5c(F)cccc5F)c5ccc([nH]5)c(-c5c(F)cccc5F)c5nc(c(-c6c(F)cccc6F)c6ccc3[nH]6)C=C5)C=C4)cc2)C1(C)C
REMARK SMILES IDX 20 1 19 2 18 3 17 4 15 5 16 6 14 7 9 8 10 9 11 10 13 11
REMARK SMILES IDX 12 12 8 13 5 14 6 15 7 17 4 19 1 20 2 21 3 22 80 23 81 24
REMARK SMILES IDX 82 25 21 26 22 27 23 28 24 29 25 30 26 31 27 32 79 33 28 34
REMARK SMILES IDX 78 35 29 36 30 37 31 38 72 39 32 40 77 41 71 42 73 43 33 44
REMARK SMILES IDX 76 45 70 46 69 47 34 49 60 50 43 51 59 52 44 53 47 54 58 55
REMARK SMILES IDX 74 56 45 57 46 58 57 60 75 61 48 62 35 63 36 64 41 65 37 66
REMARK SMILES IDX 38 67 40 68 42 69 39 70 61 71 62 72 67 73 63 74 64 75 66 76
REMARK SMILES IDX 68 77 65 78 49 79 50 80 55 81 51 82 52 83 54 84 56 85 53 86
REMARK H PARENT 5 16 8 18 73 48 47 59
REMARK Flexibility Score: inf
ROOT
ATOM      1  O   UNL A   1      32.299  30.638  27.247  1.00  0.00    -0.374 OA
ENDROOT
BRANCH   1   2
ATOM      2  C   UNL A   1      33.634  30.520  26.759  1.00  0.00     0.202 C 
BRANCH   2   3
ATOM      3  C   UNL A   1      34.153  29.092  26.576  1.00  0.00     0.261 C 
BRANCH   3   4
ATOM      4  O   UNL A   1      33.773  28.530  25.304  1.00  0.00    -0.463 OA
BRANCH   4   5
ATOM      5  C   UNL A   1      33.433  27.216  25.332  1.00  0.00     0.311 C 
ATOM      6  O   UNL A   1      34.089  26.333  25.873  1.00  0.00    -0.252 OA
BRANCH   5   7
ATOM      7  C   UNL A   1      32.168  26.910  24.561  1.00  0.00     0.121 C 
ATOM      8  C   UNL A   1      31.692  25.440  24.522  1.00  0.00     0.098 C 
ATOM      9  C   UNL A   1      30.464  25.328  23.590  1.00  0.00     0.026 C 
ATOM     10  C   UNL A   1      29.376  26.359  23.891  1.00  0.00     0.002 C 
ATOM     11  C   UNL A   1      31.068  27.915  24.887  1.00  0.00     0.017 C 
ATOM     12  C   UNL A   1      29.928  27.777  23.885  1.00  0.00     0.001 C 
BRANCH   8  13
ATOM     13  N   UNL A   1      31.390  24.812  25.805  1.00  0.00    -0.335 N 
ATOM     14  N   UNL A   1      32.994  23.050  26.054  1.00  0.00    -0.334 N 
ATOM     15  C   UNL A   1      31.914  23.757  26.464  1.00  0.00     0.315 C 
ATOM     16  H   UNL A   1      33.247  22.334  26.679  1.00  0.00     0.165 HD
ATOM     17  O   UNL A   1      31.365  23.409  27.513  1.00  0.00    -0.249 OA
ATOM     18  H   UNL A   1      30.651  25.248  26.289  1.00  0.00     0.165 HD
BRANCH  14  19
ATOM     19  C   UNL A   1      33.842  23.122  24.911  1.00  0.00     0.096 C 
ATOM     20  C   UNL A   1      36.134  22.466  23.917  1.00  0.00     0.014 C 
ATOM     21  C   UNL A   1      34.782  22.026  24.451  1.00  0.00    -0.007 C 
ATOM     22  C   UNL A   1      34.874  20.732  25.225  1.00  0.00     0.014 C 
ATOM     23  C   UNL A   1      33.523  22.374  23.630  1.00  0.00    -0.007 C 
ATOM     24  C   UNL A   1      33.627  23.197  22.360  1.00  0.00     0.014 C 
ATOM     25  C   UNL A   1      32.369  21.399  23.564  1.00  0.00     0.014 C 
ENDBRANCH  14  19
ENDBRANCH   8  13
ENDBRANCH   5   7
ENDBRANCH   4   5
ENDBRANCH   3   4
ENDBRANCH   2   3
ENDBRANCH   1   2
BRANCH   1  26
ATOM     26  C   UNL A   1      31.581  31.813  26.866  1.00  0.00     0.202 C 
BRANCH  26  27
ATOM     27  C   UNL A   1      32.393  33.112  26.860  1.00  0.00     0.261 C 
BRANCH  27  28
ATOM     28  O   UNL A   1      32.182  33.863  28.069  1.00  0.00    -0.460 OA
BRANCH  28  29
ATOM     29  C   UNL A   1      33.240  34.591  28.489  1.00  0.00     0.338 C 
ATOM     30  O   UNL A   1      33.250  35.782  28.776  1.00  0.00    -0.246 OA
BRANCH  29  31
ATOM     31  C   UNL A   1      34.393  33.709  28.753  1.00  0.00     0.060 A 
ATOM     32  C   UNL A   1      34.179  32.599  29.580  1.00  0.00     0.016 A 
ATOM     33  C   UNL A   1      35.670  33.986  28.262  1.00  0.00     0.016 A 
ATOM     34  C   UNL A   1      35.251  31.796  29.965  1.00  0.00     0.010 A 
ATOM     35  C   UNL A   1      36.747  33.180  28.649  1.00  0.00     0.010 A 
ATOM     36  C   UNL A   1      36.549  32.108  29.538  1.00  0.00    -0.014 A 
BRANCH  36  37
ATOM     37  C   UNL A   1      37.704  31.413  30.157  1.00  0.00     0.031 A 
ATOM     38  C   UNL A   1      38.040  31.705  31.595  1.00  0.00     0.074 A 
ATOM     39  C   UNL A   1      38.412  30.498  29.472  1.00  0.00     0.049 A 
ATOM     40  N   UNL A   1      38.998  31.215  32.340  1.00  0.00    -0.248 NA
ATOM     41  C   UNL A   1      37.176  32.676  32.285  1.00  0.00     0.031 C 
ATOM     42  C   UNL A   1      38.168  30.104  28.086  1.00  0.00     0.029 A 
ATOM     43  N   UNL A   1      39.486  29.735  29.856  1.00  0.00    -0.354 N 
ATOM     44  C   UNL A   1      38.848  31.813  33.585  1.00  0.00     0.074 A 
ATOM     45  C   UNL A   1      37.734  32.730  33.485  1.00  0.00     0.031 C 
ATOM     46  C   UNL A   1      39.077  29.180  27.730  1.00  0.00     0.029 A 
ATOM     47  C   UNL A   1      39.979  28.936  28.855  1.00  0.00     0.049 A 
ATOM     48  H   UNL A   1      39.867  29.759  30.764  1.00  0.00     0.167 HD
ATOM     49  C   UNL A   1      39.564  31.606  34.715  1.00  0.00     0.037 A 
ATOM     50  C   UNL A   1      41.047  28.115  28.844  1.00  0.00     0.037 A 
ATOM     51  C   UNL A   1      40.679  30.702  34.817  1.00  0.00     0.049 A 
ATOM     52  C   UNL A   1      41.871  27.951  30.094  1.00  0.00     0.074 A 
ATOM     53  C   UNL A   1      41.471  30.427  35.918  1.00  0.00     0.029 A 
ATOM     54  N   UNL A   1      41.160  29.927  33.773  1.00  0.00    -0.354 N 
ATOM     55  N   UNL A   1      41.708  28.506  31.271  1.00  0.00    -0.248 NA
ATOM     56  C   UNL A   1      43.023  27.042  30.017  1.00  0.00     0.031 C 
ATOM     57  C   UNL A   1      42.458  29.515  35.530  1.00  0.00     0.029 A 
ATOM     58  C   UNL A   1      42.249  29.186  34.200  1.00  0.00     0.049 A 
ATOM     59  H   UNL A   1      40.784  29.906  32.864  1.00  0.00     0.167 HD
ATOM     60  C   UNL A   1      42.719  27.996  32.077  1.00  0.00     0.074 A 
ATOM     61  C   UNL A   1      43.480  27.075  31.261  1.00  0.00     0.031 C 
ATOM     62  C   UNL A   1      42.992  28.266  33.377  1.00  0.00     0.037 A 
BRANCH  49  63
ATOM     63  C   UNL A   1      39.164  32.383  35.935  1.00  0.00     0.057 A 
ATOM     64  C   UNL A   1      38.300  31.846  36.898  1.00  0.00     0.134 A 
ATOM     65  C   UNL A   1      39.673  33.667  36.165  1.00  0.00     0.134 A 
ATOM     66  F   UNL A   1      37.766  30.627  36.728  1.00  0.00    -0.206 F 
ATOM     67  C   UNL A   1      37.941  32.567  38.037  1.00  0.00     0.040 A 
ATOM     68  C   UNL A   1      39.340  34.388  37.313  1.00  0.00     0.040 A 
ATOM     69  F   UNL A   1      40.509  34.237  35.285  1.00  0.00    -0.206 F 
ATOM     70  C   UNL A   1      38.467  33.840  38.251  1.00  0.00     0.006 A 
ENDBRANCH  49  63
BRANCH  50  71
ATOM     71  C   UNL A   1      41.419  27.395  27.599  1.00  0.00     0.057 A 
ATOM     72  C   UNL A   1      40.988  26.087  27.356  1.00  0.00     0.134 A 
ATOM     73  C   UNL A   1      42.244  27.993  26.638  1.00  0.00     0.134 A 
ATOM     74  F   UNL A   1      40.218  25.452  28.252  1.00  0.00    -0.206 F 
ATOM     75  C   UNL A   1      41.380  25.388  26.212  1.00  0.00     0.040 A 
ATOM     76  C   UNL A   1      42.623  27.316  25.477  1.00  0.00     0.040 A 
ATOM     77  F   UNL A   1      42.692  29.244  26.812  1.00  0.00    -0.206 F 
ATOM     78  C   UNL A   1      42.197  26.006  25.266  1.00  0.00     0.006 A 
ENDBRANCH  50  71
BRANCH  62  79
ATOM     79  C   UNL A   1      44.140  27.532  34.007  1.00  0.00     0.057 A 
ATOM     80  C   UNL A   1      43.982  26.266  34.583  1.00  0.00     0.134 A 
ATOM     81  C   UNL A   1      45.428  28.084  33.998  1.00  0.00     0.134 A 
ATOM     82  F   UNL A   1      42.773  25.688  34.633  1.00  0.00    -0.206 F 
ATOM     83  C   UNL A   1      45.061  25.584  35.149  1.00  0.00     0.040 A 
ATOM     84  C   UNL A   1      46.518  27.400  34.538  1.00  0.00     0.040 A 
ATOM     85  F   UNL A   1      45.650  29.289  33.452  1.00  0.00    -0.206 F 
ATOM     86  C   UNL A   1      46.335  26.148  35.121  1.00  0.00     0.006 A 
ENDBRANCH  62  79
ENDBRANCH  36  37
ENDBRANCH  29  31
ENDBRANCH  28  29
ENDBRANCH  27  28
ENDBRANCH  26  27
ENDBRANCH   1  26
TORSDOF 16
ENDMDL
MODEL 2
REMARK VINA RESULT:     -11.2      4.642      8.882
REMARK SMILES CC1(C)C(NC(=O)N[C@H]2CCCC[C@H]2C(=O)OCCOCCOC(=O)c2ccc(-c3c4nc(c(-c5c(F)cccc5F)c5ccc([nH]5)c(-c5c(F)cccc5F)c5nc(c(-c6c(F)cccc6F)c6ccc3[nH]6)C=C5)C=C4)cc2)C1(C)C
REMARK SMILES IDX 20 1 19 2 18 3 17 4 15 5 16 6 14 7 9 8 10 9 11 10 13 11
REMARK SMILES IDX 12 12 8 13 5 14 6 15 7 17 4 19 1 20 2 21 3 22 80 23 81 24
REMARK SMILES IDX 82 25 21 26 22 27 23 28 24 29 25 30 26 31 27 32 79 33 28 34
REMARK SMILES IDX 78 35 29 36 30 37 31 38 72 39 32 40 77 41 71 42 73 43 33 44
REMARK SMILES IDX 76 45 70 46 69 47 34 49 60 50 43 51 59 52 44 53 47 54 58 55
REMARK SMILES IDX 74 56 45 57 46 58 57 60 75 61 48 62 35 63 36 64 41 65 37 66
REMARK SMILES IDX 38 67 40 68 42 69 39 70 61 71 62 72 67 73 63 74 64 75 66 76
REMARK SMILES IDX 68 77 65 78 49 79 50 80 55 81 51 82 52 83 54 84 56 85 53 86
REMARK H PARENT 5 16 8 18 73 48 47 59
REMARK Flexibility Score: inf
ROOT
ATOM      1  O   UNL A   1      37.798  20.849  24.877  1.00  0.00    -0.374 OA
ENDROOT
BRANCH   1   2
ATOM      2  C   UNL A   1      38.272  21.902  25.715  1.00  0.00     0.202 C 
BRANCH   2   3
ATOM      3  C   UNL A   1      37.400  23.159  25.763  1.00  0.00     0.261 C 
BRANCH   3   4
ATOM      4  O   UNL A   1      36.034  22.864  26.119  1.00  0.00    -0.463 OA
BRANCH   4   5
ATOM      5  C   UNL A   1      35.104  23.676  25.555  1.00  0.00     0.311 C 
ATOM      6  O   UNL A   1      35.155  24.901  25.545  1.00  0.00    -0.252 OA
BRANCH   5   7
ATOM      7  C   UNL A   1      33.927  22.923  24.976  1.00  0.00     0.121 C 
ATOM      8  C   UNL A   1      32.859  23.741  24.214  1.00  0.00     0.098 C 
ATOM      9  C   UNL A   1      31.694  22.807  23.815  1.00  0.00     0.026 C 
ATOM     10  C   UNL A   1      32.152  21.525  23.119  1.00  0.00     0.002 C 
ATOM     11  C   UNL A   1      34.384  21.661  24.250  1.00  0.00     0.017 C 
ATOM     12  C   UNL A   1      33.183  20.773  23.950  1.00  0.00     0.001 C 
BRANCH   8  13
ATOM     13  N   UNL A   1      33.312  24.484  23.042  1.00  0.00    -0.335 N 
ATOM     14  N   UNL A   1      32.790  26.778  23.494  1.00  0.00    -0.334 N 
ATOM     15  C   UNL A   1      33.256  25.788  22.696  1.00  0.00     0.315 C 
ATOM     16  H   UNL A   1      32.854  27.669  23.081  1.00  0.00     0.165 HD
ATOM     17  O   UNL A   1      33.653  26.098  21.569  1.00  0.00    -0.249 OA
ATOM     18  H   UNL A   1      33.748  23.918  22.364  1.00  0.00     0.165 HD
BRANCH  14  19
ATOM     19  C   UNL A   1      32.227  26.807  24.803  1.00  0.00     0.096 C 
ATOM     20  C   UNL A   1      31.786  28.249  26.899  1.00  0.00     0.014 C 
ATOM     21  C   UNL A   1      31.523  27.995  25.425  1.00  0.00    -0.007 C 
ATOM     22  C   UNL A   1      31.377  29.282  24.647  1.00  0.00     0.014 C 
ATOM     23  C   UNL A   1      30.729  26.733  25.031  1.00  0.00    -0.007 C 
ATOM     24  C   UNL A   1      30.285  25.734  26.083  1.00  0.00     0.014 C 
ATOM     25  C   UNL A   1      29.761  26.779  23.870  1.00  0.00     0.014 C 
ENDBRANCH  14  19
ENDBRANCH   8  13
ENDBRANCH   5   7
ENDBRANCH   4   5
ENDBRANCH   3   4
ENDBRANCH   2   3
ENDBRANCH   1   2
BRANCH   1  26
ATOM     26  C   UNL A   1      38.454  19.587  25.004  1.00  0.00     0.202 C 
BRANCH  26  27
ATOM     27  C   UNL A   1      39.608  19.539  26.011  1.00  0.00     0.261 C 
BRANCH  27  28
ATOM     28  O   UNL A   1      40.739  18.833  25.472  1.00  0.00    -0.460 OA
BRANCH  28  29
ATOM     29  C   UNL A   1      41.906  19.025  26.126  1.00  0.00     0.338 C 
ATOM     30  O   UNL A   1      42.808  18.211  26.284  1.00  0.00    -0.246 OA
BRANCH  29  31
ATOM     31  C   UNL A   1      42.060  20.448  26.487  1.00  0.00     0.060 A 
ATOM     32  C   UNL A   1      42.201  21.366  25.439  1.00  0.00     0.016 A 
ATOM     33  C   UNL A   1      42.128  20.876  27.813  1.00  0.00     0.016 A 
ATOM     34  C   UNL A   1      42.468  22.706  25.713  1.00  0.00     0.010 A 
ATOM     35  C   UNL A   1      42.399  22.222  28.089  1.00  0.00     0.010 A 
ATOM     36  C   UNL A   1      42.614  23.133  27.040  1.00  0.00    -0.014 A 
BRANCH  36  37
ATOM     37  C   UNL A   1      43.152  24.488  27.311  1.00  0.00     0.031 A 
ATOM     38  C   UNL A   1      42.210  25.561  27.788  1.00  0.00     0.074 A 
ATOM     39  C   UNL A   1      44.466  24.751  27.188  1.00  0.00     0.049 A 
ATOM     40  N   UNL A   1      42.457  26.811  28.088  1.00  0.00    -0.248 NA
ATOM     41  C   UNL A   1      40.801  25.170  27.950  1.00  0.00     0.031 C 
ATOM     42  C   UNL A   1      45.484  23.792  26.766  1.00  0.00     0.029 A 
ATOM     43  N   UNL A   1      45.164  25.912  27.407  1.00  0.00    -0.354 N 
ATOM     44  C   UNL A   1      41.239  27.352  28.479  1.00  0.00     0.074 A 
ATOM     45  C   UNL A   1      40.247  26.308  28.342  1.00  0.00     0.031 C 
ATOM     46  C   UNL A   1      46.679  24.408  26.743  1.00  0.00     0.029 A 
ATOM     47  C   UNL A   1      46.504  25.808  27.126  1.00  0.00     0.049 A 
ATOM     48  H   UNL A   1      44.745  26.741  27.734  1.00  0.00     0.167 HD
ATOM     49  C   UNL A   1      40.973  28.600  28.929  1.00  0.00     0.037 A 
ATOM     50  C   UNL A   1      47.474  26.743  27.158  1.00  0.00     0.037 A 
ATOM     51  C   UNL A   1      41.954  29.644  29.059  1.00  0.00     0.049 A 
ATOM     52  C   UNL A   1      47.141  28.145  27.597  1.00  0.00     0.074 A 
ATOM     53  C   UNL A   1      41.780  30.944  29.500  1.00  0.00     0.029 A 
ATOM     54  N   UNL A   1      43.297  29.505  28.744  1.00  0.00    -0.354 N 
ATOM     55  N   UNL A   1      45.989  28.639  27.985  1.00  0.00    -0.248 NA
ATOM     56  C   UNL A   1      48.243  29.117  27.610  1.00  0.00     0.031 C 
ATOM     57  C   UNL A   1      43.009  31.604  29.415  1.00  0.00     0.029 A 
ATOM     58  C   UNL A   1      43.959  30.700  28.965  1.00  0.00     0.049 A 
ATOM     59  H   UNL A   1      43.716  28.679  28.412  1.00  0.00     0.167 HD
ATOM     60  C   UNL A   1      46.234  29.968  28.309  1.00  0.00     0.074 A 
ATOM     61  C   UNL A   1      47.646  30.199  28.088  1.00  0.00     0.031 C 
ATOM     62  C   UNL A   1      45.368  30.912  28.750  1.00  0.00     0.037 A 
BRANCH  49  63
ATOM     63  C   UNL A   1      39.553  28.907  29.306  1.00  0.00     0.057 A 
ATOM     64  C   UNL A   1      38.634  29.398  28.370  1.00  0.00     0.134 A 
ATOM     65  C   UNL A   1      39.091  28.678  30.608  1.00  0.00     0.134 A 
ATOM     66  F   UNL A   1      39.017  29.653  27.110  1.00  0.00    -0.206 F 
ATOM     67  C   UNL A   1      37.311  29.669  28.721  1.00  0.00     0.040 A 
ATOM     68  C   UNL A   1      37.764  28.923  30.965  1.00  0.00     0.040 A 
ATOM     69  F   UNL A   1      39.919  28.204  31.552  1.00  0.00    -0.206 F 
ATOM     70  C   UNL A   1      36.871  29.425  30.020  1.00  0.00     0.006 A 
ENDBRANCH  49  63
BRANCH  50  71
ATOM     71  C   UNL A   1      48.857  26.394  26.742  1.00  0.00     0.057 A 
ATOM     72  C   UNL A   1      49.777  25.855  27.647  1.00  0.00     0.134 A 
ATOM     73  C   UNL A   1      49.296  26.623  25.433  1.00  0.00     0.134 A 
ATOM     74  F   UNL A   1      49.423  25.637  28.922  1.00  0.00    -0.206 F 
ATOM     75  C   UNL A   1      51.093  25.576  27.272  1.00  0.00     0.040 A 
ATOM     76  C   UNL A   1      50.602  26.326  25.037  1.00  0.00     0.040 A 
ATOM     77  F   UNL A   1      48.463  27.139  24.518  1.00  0.00    -0.206 F 
ATOM     78  C   UNL A   1      51.507  25.808  25.961  1.00  0.00     0.006 A 
ENDBRANCH  50  71
BRANCH  62  79
ATOM     79  C   UNL A   1      45.926  32.272  29.055  1.00  0.00     0.057 A 
ATOM     80  C   UNL A   1      46.454  32.589  30.312  1.00  0.00     0.134 A 
ATOM     81  C   UNL A   1      45.974  33.261  28.065  1.00  0.00     0.134 A 
ATOM     82  F   UNL A   1      46.429  31.690  31.307  1.00  0.00    -0.206 F 
ATOM     83  C   UNL A   1      46.990  33.851  30.581  1.00  0.00     0.040 A 
ATOM     84  C   UNL A   1      46.529  34.517  28.313  1.00  0.00     0.040 A 
ATOM     85  F   UNL A   1      45.495  33.018  26.835  1.00  0.00    -0.206 F 
ATOM     86  C   UNL A   1      47.034  34.816  29.577  1.00  0.00     0.006 A 
ENDBRANCH  62  79
ENDBRANCH  36  37
ENDBRANCH  29  31
ENDBRANCH  28  29
ENDBRANCH  27  28
ENDBRANCH  26  27
ENDBRANCH   1  26
TORSDOF 16
ENDMDL
MODEL 3
REMARK VINA RESULT:     -11.2      4.370      9.837
REMARK SMILES CC1(C)C(NC(=O)N[C@H]2CCCC[C@H]2C(=O)OCCOCCOC(=O)c2ccc(-c3c4nc(c(-c5c(F)cccc5F)c5ccc([nH]5)c(-c5c(F)cccc5F)c5nc(c(-c6c(F)cccc6F)c6ccc3[nH]6)C=C5)C=C4)cc2)C1(C)C
REMARK SMILES IDX 20 1 19 2 18 3 17 4 15 5 16 6 14 7 9 8 10 9 11 10 13 11
REMARK SMILES IDX 12 12 8 13 5 14 6 15 7 17 4 19 1 20 2 21 3 22 80 23 81 24
REMARK SMILES IDX 82 25 21 26 22 27 23 28 24 29 25 30 26 31 27 32 79 33 28 34
REMARK SMILES IDX 78 35 29 36 30 37 31 38 72 39 32 40 77 41 71 42 73 43 33 44
REMARK SMILES IDX 76 45 70 46 69 47 34 49 60 50 43 51 59 52 44 53 47 54 58 55
REMARK SMILES IDX 74 56 45 57 46 58 57 60 75 61 48 62 35 63 36 64 41 65 37 66
REMARK SMILES IDX 38 67 40 68 42 69 39 70 61 71 62 72 67 73 63 74 64 75 66 76
REMARK SMILES IDX 68 77 65 78 49 79 50 80 55 81 51 82 52 83 54 84 56 85 53 86
REMARK H PARENT 5 16 8 18 73 48 47 59
REMARK Flexibility Score: inf
ROOT
ATOM      1  O   UNL A   1      37.792  20.956  24.906  1.00  0.00    -0.374 OA
ENDROOT
BRANCH   1   2
ATOM      2  C   UNL A   1      38.301  22.008  25.723  1.00  0.00     0.202 C 
BRANCH   2   3
ATOM      3  C   UNL A   1      37.379  23.216  25.905  1.00  0.00     0.261 C 
BRANCH   3   4
ATOM      4  O   UNL A   1      36.009  22.829  26.128  1.00  0.00    -0.463 OA
BRANCH   4   5
ATOM      5  C   UNL A   1      35.081  23.646  25.567  1.00  0.00     0.311 C 
ATOM      6  O   UNL A   1      35.131  24.871  25.568  1.00  0.00    -0.252 OA
BRANCH   5   7
ATOM      7  C   UNL A   1      33.907  22.897  24.976  1.00  0.00     0.121 C 
ATOM      8  C   UNL A   1      32.844  23.721  24.214  1.00  0.00     0.098 C 
ATOM      9  C   UNL A   1      31.681  22.790  23.801  1.00  0.00     0.026 C 
ATOM     10  C   UNL A   1      32.142  21.513  23.100  1.00  0.00     0.002 C 
ATOM     11  C   UNL A   1      34.368  21.640  24.245  1.00  0.00     0.017 C 
ATOM     12  C   UNL A   1      33.167  20.754  23.932  1.00  0.00     0.001 C 
BRANCH   8  13
ATOM     13  N   UNL A   1      33.304  24.472  23.049  1.00  0.00    -0.335 N 
ATOM     14  N   UNL A   1      32.787  26.764  23.515  1.00  0.00    -0.334 N 
ATOM     15  C   UNL A   1      33.253  25.778  22.712  1.00  0.00     0.315 C 
ATOM     16  H   UNL A   1      32.855  27.657  23.109  1.00  0.00     0.165 HD
ATOM     17  O   UNL A   1      33.656  26.095  21.589  1.00  0.00    -0.249 OA
ATOM     18  H   UNL A   1      33.742  23.909  22.369  1.00  0.00     0.165 HD
BRANCH  14  19
ATOM     19  C   UNL A   1      32.218  26.784  24.821  1.00  0.00     0.096 C 
ATOM     20  C   UNL A   1      31.736  28.224  26.911  1.00  0.00     0.014 C 
ATOM     21  C   UNL A   1      31.485  27.959  25.437  1.00  0.00    -0.007 C 
ATOM     22  C   UNL A   1      31.313  29.239  24.654  1.00  0.00     0.014 C 
ATOM     23  C   UNL A   1      30.720  26.678  25.044  1.00  0.00    -0.007 C 
ATOM     24  C   UNL A   1      30.295  25.673  26.098  1.00  0.00     0.014 C 
ATOM     25  C   UNL A   1      29.756  26.699  23.878  1.00  0.00     0.014 C 
ENDBRANCH  14  19
ENDBRANCH   8  13
ENDBRANCH   5   7
ENDBRANCH   4   5
ENDBRANCH   3   4
ENDBRANCH   2   3
ENDBRANCH   1   2
BRANCH   1  26
ATOM     26  C   UNL A   1      38.429  19.684  25.033  1.00  0.00     0.202 C 
BRANCH  26  27
ATOM     27  C   UNL A   1      39.501  19.586  26.123  1.00  0.00     0.261 C 
BRANCH  27  28
ATOM     28  O   UNL A   1      40.771  19.198  25.570  1.00  0.00    -0.460 OA
BRANCH  28  29
ATOM     29  C   UNL A   1      41.850  19.518  26.318  1.00  0.00     0.338 C 
ATOM     30  O   UNL A   1      42.818  18.809  26.562  1.00  0.00    -0.246 OA
BRANCH  29  31
ATOM     31  C   UNL A   1      41.816  20.950  26.673  1.00  0.00     0.060 A 
ATOM     32  C   UNL A   1      41.922  21.876  25.628  1.00  0.00     0.016 A 
ATOM     33  C   UNL A   1      41.747  21.388  27.997  1.00  0.00     0.016 A 
ATOM     34  C   UNL A   1      42.017  23.238  25.906  1.00  0.00     0.010 A 
ATOM     35  C   UNL A   1      41.844  22.756  28.276  1.00  0.00     0.010 A 
ATOM     36  C   UNL A   1      42.024  23.683  27.235  1.00  0.00    -0.014 A 
BRANCH  36  37
ATOM     37  C   UNL A   1      42.385  25.091  27.527  1.00  0.00     0.031 A 
ATOM     38  C   UNL A   1      43.738  25.596  27.100  1.00  0.00     0.074 A 
ATOM     39  C   UNL A   1      41.509  25.926  28.114  1.00  0.00     0.049 A 
ATOM     40  N   UNL A   1      44.265  26.785  27.247  1.00  0.00    -0.248 NA
ATOM     41  C   UNL A   1      44.610  24.631  26.412  1.00  0.00     0.031 C 
ATOM     42  C   UNL A   1      40.160  25.568  28.547  1.00  0.00     0.029 A 
ATOM     43  N   UNL A   1      41.632  27.251  28.450  1.00  0.00    -0.354 N 
ATOM     44  C   UNL A   1      45.525  26.712  26.665  1.00  0.00     0.074 A 
ATOM     45  C   UNL A   1      45.699  25.354  26.198  1.00  0.00     0.031 C 
ATOM     46  C   UNL A   1      39.582  26.646  29.104  1.00  0.00     0.029 A 
ATOM     47  C   UNL A   1      40.528  27.761  29.088  1.00  0.00     0.049 A 
ATOM     48  H   UNL A   1      42.434  27.786  28.251  1.00  0.00     0.167 HD
ATOM     49  C   UNL A   1      46.447  27.692  26.517  1.00  0.00     0.037 A 
ATOM     50  C   UNL A   1      40.315  28.982  29.614  1.00  0.00     0.037 A 
ATOM     51  C   UNL A   1      46.282  29.041  26.988  1.00  0.00     0.049 A 
ATOM     52  C   UNL A   1      41.384  30.038  29.498  1.00  0.00     0.074 A 
ATOM     53  C   UNL A   1      47.163  30.104  26.891  1.00  0.00     0.029 A 
ATOM     54  N   UNL A   1      45.158  29.511  27.649  1.00  0.00    -0.354 N 
ATOM     55  N   UNL A   1      42.562  29.963  28.928  1.00  0.00    -0.248 NA
ATOM     56  C   UNL A   1      41.090  31.350  30.093  1.00  0.00     0.031 C 
ATOM     57  C   UNL A   1      46.588  31.208  27.528  1.00  0.00     0.029 A 
ATOM     58  C   UNL A   1      45.329  30.845  27.980  1.00  0.00     0.049 A 
ATOM     59  H   UNL A   1      44.357  28.977  27.853  1.00  0.00     0.167 HD
ATOM     60  C   UNL A   1      43.137  31.220  29.074  1.00  0.00     0.074 A 
ATOM     61  C   UNL A   1      42.173  32.043  29.772  1.00  0.00     0.031 C 
ATOM     62  C   UNL A   1      44.355  31.654  28.667  1.00  0.00     0.037 A 
BRANCH  49  63
ATOM     63  C   UNL A   1      47.727  27.331  25.823  1.00  0.00     0.057 A 
ATOM     64  C   UNL A   1      47.866  27.442  24.433  1.00  0.00     0.134 A 
ATOM     65  C   UNL A   1      48.843  26.901  26.553  1.00  0.00     0.134 A 
ATOM     66  F   UNL A   1      46.831  27.834  23.676  1.00  0.00    -0.206 F 
ATOM     67  C   UNL A   1      49.063  27.119  23.793  1.00  0.00     0.040 A 
ATOM     68  C   UNL A   1      50.052  26.598  25.925  1.00  0.00     0.040 A 
ATOM     69  F   UNL A   1      48.778  26.778  27.887  1.00  0.00    -0.206 F 
ATOM     70  C   UNL A   1      50.163  26.701  24.540  1.00  0.00     0.006 A 
ENDBRANCH  49  63
BRANCH  50  71
ATOM     71  C   UNL A   1      39.042  29.276  30.321  1.00  0.00     0.057 A 
ATOM     72  C   UNL A   1      37.951  29.845  29.655  1.00  0.00     0.134 A 
ATOM     73  C   UNL A   1      38.901  29.021  31.691  1.00  0.00     0.134 A 
ATOM     74  F   UNL A   1      38.034  30.135  28.348  1.00  0.00    -0.206 F 
ATOM     75  C   UNL A   1      36.772  30.171  30.329  1.00  0.00     0.040 A 
ATOM     76  C   UNL A   1      37.720  29.319  32.372  1.00  0.00     0.040 A 
ATOM     77  F   UNL A   1      39.910  28.479  32.386  1.00  0.00    -0.206 F 
ATOM     78  C   UNL A   1      36.654  29.903  31.692  1.00  0.00     0.006 A 
ENDBRANCH  50  71
BRANCH  62  79
ATOM     79  C   UNL A   1      44.700  33.090  28.935  1.00  0.00     0.057 A 
ATOM     80  C   UNL A   1      45.359  33.486  30.105  1.00  0.00     0.134 A 
ATOM     81  C   UNL A   1      44.406  34.081  27.990  1.00  0.00     0.134 A 
ATOM     82  F   UNL A   1      45.659  32.588  31.054  1.00  0.00    -0.206 F 
ATOM     83  C   UNL A   1      45.693  34.823  30.336  1.00  0.00     0.040 A 
ATOM     84  C   UNL A   1      44.757  35.415  28.198  1.00  0.00     0.040 A 
ATOM     85  F   UNL A   1      43.785  33.766  26.843  1.00  0.00    -0.206 F 
ATOM     86  C   UNL A   1      45.398  35.790  29.377  1.00  0.00     0.006 A 
ENDBRANCH  62  79
ENDBRANCH  36  37
ENDBRANCH  29  31
ENDBRANCH  28  29
ENDBRANCH  27  28
ENDBRANCH  26  27
ENDBRANCH   1  26
TORSDOF 16
ENDMDL
