MODEL 1
REMARK VINA RESULT:     -11.6      0.000      0.000
REMARK SMILES C[C@H](Oc1ccc(-c2ccccc2)cc1)C(=O)N[C@H](C)C(=O)OCCOCCOC(=O)c1ccc(-c2c3nc(c(-c4c(F)cccc4F)c4ccc([nH]4)c(-c4c(F)cccc4F)c4nc(c(-c5c(F)cccc5F)c5ccc2[nH]5)C=C4)C=C3)cc1
REMARK SMILES IDX 24 1 23 2 21 3 22 4 19 5 20 6 18 7 16 8 17 9 2 11 1 12 3 13
REMARK SMILES IDX 4 14 5 15 15 16 6 17 14 18 7 19 8 20 9 21 13 22 10 23 12 24
REMARK SMILES IDX 11 25 25 26 26 27 27 28 28 29 29 30 30 31 31 32 32 33 33 34
REMARK SMILES IDX 85 35 34 36 84 37 35 38 36 39 37 40 78 41 38 42 83 43 77 44
REMARK SMILES IDX 79 45 39 46 82 47 76 48 75 49 40 51 66 52 49 53 65 54 50 55
REMARK SMILES IDX 53 56 64 57 80 58 51 59 52 60 63 62 81 63 54 64 41 65 42 66
REMARK SMILES IDX 47 67 43 68 44 69 46 70 48 71 45 72 67 73 68 74 73 75 69 76
REMARK SMILES IDX 70 77 72 78 74 79 71 80 55 81 56 82 61 83 57 84 58 85 60 86
REMARK SMILES IDX 62 87 59 88
REMARK H PARENT 18 10 79 50 53 61
REMARK Flexibility Score: inf
ROOT
ATOM      1  C   UNL A   1      40.810  21.562  26.215  1.00  0.00     0.261 C 
ENDROOT
BRANCH   1   2
ATOM      2  O   UNL A   1      39.410  21.257  26.131  1.00  0.00    -0.462 OA
BRANCH   2   3
ATOM      3  C   UNL A   1      38.542  22.293  26.009  1.00  0.00     0.328 C 
ATOM      4  O   UNL A   1      38.784  23.447  26.340  1.00  0.00    -0.250 OA
BRANCH   3   5
ATOM      5  C   UNL A   1      37.186  21.833  25.425  1.00  0.00     0.189 C 
ATOM      6  C   UNL A   1      37.254  20.386  24.944  1.00  0.00     0.043 C 
BRANCH   5   7
ATOM      7  N   UNL A   1      36.157  22.112  26.436  1.00  0.00    -0.340 N 
ATOM      8  C   UNL A   1      34.872  22.564  26.345  1.00  0.00     0.261 C 
ATOM      9  O   UNL A   1      34.315  22.889  27.400  1.00  0.00    -0.271 OA
ATOM     10  H   UNL A   1      36.451  21.938  27.360  1.00  0.00     0.164 HD
BRANCH   8  11
ATOM     11  C   UNL A   1      34.088  22.563  25.020  1.00  0.00     0.258 C 
ATOM     12  C   UNL A   1      34.752  23.590  24.098  1.00  0.00     0.064 C 
BRANCH  11  13
ATOM     13  O   UNL A   1      32.713  22.645  25.381  1.00  0.00    -0.481 OA
BRANCH  13  14
ATOM     14  C   UNL A   1      31.820  23.586  24.995  1.00  0.00     0.120 A 
ATOM     15  C   UNL A   1      31.048  23.608  23.845  1.00  0.00     0.047 A 
ATOM     16  C   UNL A   1      31.795  24.703  25.835  1.00  0.00     0.047 A 
ATOM     17  C   UNL A   1      30.372  24.780  23.474  1.00  0.00     0.012 A 
ATOM     18  C   UNL A   1      31.086  25.858  25.487  1.00  0.00     0.012 A 
ATOM     19  C   UNL A   1      30.396  25.940  24.270  1.00  0.00    -0.018 A 
BRANCH  19  20
ATOM     20  C   UNL A   1      29.755  27.195  23.822  1.00  0.00    -0.018 A 
ATOM     21  C   UNL A   1      30.484  28.393  23.720  1.00  0.00     0.009 A 
ATOM     22  C   UNL A   1      28.382  27.247  23.517  1.00  0.00     0.009 A 
ATOM     23  C   UNL A   1      29.867  29.592  23.347  1.00  0.00     0.001 A 
ATOM     24  C   UNL A   1      27.764  28.442  23.135  1.00  0.00     0.001 A 
ATOM     25  C   UNL A   1      28.507  29.616  23.055  1.00  0.00     0.000 A 
ENDBRANCH  19  20
ENDBRANCH  13  14
ENDBRANCH  11  13
ENDBRANCH   8  11
ENDBRANCH   5   7
ENDBRANCH   3   5
ENDBRANCH   2   3
ENDBRANCH   1   2
BRANCH   1  26
ATOM     26  C   UNL A   1      41.588  20.246  26.136  1.00  0.00     0.202 C 
BRANCH  26  27
ATOM     27  O   UNL A   1      42.807  20.299  25.387  1.00  0.00    -0.374 OA
BRANCH  27  28
ATOM     28  C   UNL A   1      43.778  21.270  25.772  1.00  0.00     0.202 C 
BRANCH  28  29
ATOM     29  C   UNL A   1      44.231  22.243  24.673  1.00  0.00     0.261 C 
BRANCH  29  30
ATOM     30  O   UNL A   1      43.454  23.454  24.639  1.00  0.00    -0.460 OA
BRANCH  30  31
ATOM     31  C   UNL A   1      44.128  24.565  25.012  1.00  0.00     0.338 C 
ATOM     32  O   UNL A   1      45.221  24.945  24.601  1.00  0.00    -0.246 OA
BRANCH  31  33
ATOM     33  C   UNL A   1      43.308  25.399  25.904  1.00  0.00     0.060 A 
ATOM     34  C   UNL A   1      43.726  26.719  26.109  1.00  0.00     0.016 A 
ATOM     35  C   UNL A   1      42.226  24.877  26.617  1.00  0.00     0.016 A 
ATOM     36  C   UNL A   1      43.096  27.509  27.066  1.00  0.00     0.010 A 
ATOM     37  C   UNL A   1      41.598  25.671  27.584  1.00  0.00     0.010 A 
ATOM     38  C   UNL A   1      42.054  26.979  27.839  1.00  0.00    -0.014 A 
BRANCH  38  39
ATOM     39  C   UNL A   1      41.557  27.751  29.005  1.00  0.00     0.031 A 
ATOM     40  C   UNL A   1      42.278  27.644  30.321  1.00  0.00     0.074 A 
ATOM     41  C   UNL A   1      40.509  28.584  28.883  1.00  0.00     0.049 A 
ATOM     42  N   UNL A   1      42.028  28.245  31.456  1.00  0.00    -0.248 NA
ATOM     43  C   UNL A   1      43.435  26.736  30.361  1.00  0.00     0.031 C 
ATOM     44  C   UNL A   1      39.745  28.804  27.658  1.00  0.00     0.029 A 
ATOM     45  N   UNL A   1      39.908  29.400  29.809  1.00  0.00    -0.354 N 
ATOM     46  C   UNL A   1      42.996  27.792  32.345  1.00  0.00     0.074 A 
ATOM     47  C   UNL A   1      43.814  26.839  31.626  1.00  0.00     0.031 C 
ATOM     48  C   UNL A   1      38.768  29.691  27.909  1.00  0.00     0.029 A 
ATOM     49  C   UNL A   1      38.825  30.083  29.317  1.00  0.00     0.049 A 
ATOM     50  H   UNL A   1      40.225  29.487  30.737  1.00  0.00     0.167 HD
ATOM     51  C   UNL A   1      43.195  28.148  33.636  1.00  0.00     0.037 A 
ATOM     52  C   UNL A   1      37.966  30.917  29.935  1.00  0.00     0.037 A 
ATOM     53  C   UNL A   1      42.381  29.092  34.356  1.00  0.00     0.049 A 
ATOM     54  C   UNL A   1      38.166  31.250  31.388  1.00  0.00     0.074 A 
ATOM     55  C   UNL A   1      42.518  29.531  35.662  1.00  0.00     0.029 A 
ATOM     56  N   UNL A   1      41.270  29.736  33.832  1.00  0.00    -0.354 N 
ATOM     57  N   UNL A   1      39.103  30.841  32.209  1.00  0.00    -0.248 NA
ATOM     58  C   UNL A   1      37.192  32.167  31.999  1.00  0.00     0.031 C 
ATOM     59  C   UNL A   1      41.462  30.405  35.942  1.00  0.00     0.029 A 
ATOM     60  C   UNL A   1      40.694  30.547  34.797  1.00  0.00     0.049 A 
ATOM     61  H   UNL A   1      40.939  29.631  32.912  1.00  0.00     0.167 HD
ATOM     62  C   UNL A   1      38.843  31.461  33.425  1.00  0.00     0.074 A 
ATOM     63  C   UNL A   1      37.668  32.286  33.231  1.00  0.00     0.031 C 
ATOM     64  C   UNL A   1      39.520  31.358  34.595  1.00  0.00     0.037 A 
BRANCH  51  65
ATOM     65  C   UNL A   1      44.329  27.481  34.360  1.00  0.00     0.057 A 
ATOM     66  C   UNL A   1      45.610  28.046  34.407  1.00  0.00     0.134 A 
ATOM     67  C   UNL A   1      44.134  26.262  35.020  1.00  0.00     0.134 A 
ATOM     68  F   UNL A   1      45.866  29.205  33.782  1.00  0.00    -0.206 F 
ATOM     69  C   UNL A   1      46.667  27.406  35.057  1.00  0.00     0.040 A 
ATOM     70  C   UNL A   1      45.177  25.625  35.696  1.00  0.00     0.040 A 
ATOM     71  F   UNL A   1      42.931  25.670  35.019  1.00  0.00    -0.206 F 
ATOM     72  C   UNL A   1      46.449  26.192  35.708  1.00  0.00     0.006 A 
ENDBRANCH  51  65
BRANCH  52  73
ATOM     73  C   UNL A   1      36.827  31.487  29.174  1.00  0.00     0.057 A 
ATOM     74  C   UNL A   1      36.831  32.817  28.743  1.00  0.00     0.134 A 
ATOM     75  C   UNL A   1      35.712  30.704  28.850  1.00  0.00     0.134 A 
ATOM     76  F   UNL A   1      37.861  33.621  29.044  1.00  0.00    -0.206 F 
ATOM     77  C   UNL A   1      35.763  33.353  28.020  1.00  0.00     0.040 A 
ATOM     78  C   UNL A   1      34.648  31.219  28.110  1.00  0.00     0.040 A 
ATOM     79  F   UNL A   1      35.651  29.420  29.236  1.00  0.00    -0.206 F 
ATOM     80  C   UNL A   1      34.671  32.549  27.696  1.00  0.00     0.006 A 
ENDBRANCH  52  73
BRANCH  64  81
ATOM     81  C   UNL A   1      39.019  32.169  35.755  1.00  0.00     0.057 A 
ATOM     82  C   UNL A   1      38.219  31.607  36.758  1.00  0.00     0.134 A 
ATOM     83  C   UNL A   1      39.375  33.517  35.892  1.00  0.00     0.134 A 
ATOM     84  F   UNL A   1      37.832  30.325  36.680  1.00  0.00    -0.206 F 
ATOM     85  C   UNL A   1      37.776  32.361  37.846  1.00  0.00     0.040 A 
ATOM     86  C   UNL A   1      38.959  34.275  36.987  1.00  0.00     0.040 A 
ATOM     87  F   UNL A   1      40.146  34.114  34.971  1.00  0.00    -0.206 F 
ATOM     88  C   UNL A   1      38.152  33.698  37.966  1.00  0.00     0.006 A 
ENDBRANCH  64  81
ENDBRANCH  38  39
ENDBRANCH  31  33
ENDBRANCH  30  31
ENDBRANCH  29  30
ENDBRANCH  28  29
ENDBRANCH  27  28
ENDBRANCH  26  27
ENDBRANCH   1  26
TORSDOF 19
ENDMDL
MODEL 2
REMARK VINA RESULT:     -11.5      0.843      1.602
REMARK SMILES C[C@H](Oc1ccc(-c2ccccc2)cc1)C(=O)N[C@H](C)C(=O)OCCOCCOC(=O)c1ccc(-c2c3nc(c(-c4c(F)cccc4F)c4ccc([nH]4)c(-c4c(F)cccc4F)c4nc(c(-c5c(F)cccc5F)c5ccc2[nH]5)C=C4)C=C3)cc1
REMARK SMILES IDX 24 1 23 2 21 3 22 4 19 5 20 6 18 7 16 8 17 9 2 11 1 12 3 13
REMARK SMILES IDX 4 14 5 15 15 16 6 17 14 18 7 19 8 20 9 21 13 22 10 23 12 24
REMARK SMILES IDX 11 25 25 26 26 27 27 28 28 29 29 30 30 31 31 32 32 33 33 34
REMARK SMILES IDX 85 35 34 36 84 37 35 38 36 39 37 40 78 41 38 42 83 43 77 44
REMARK SMILES IDX 79 45 39 46 82 47 76 48 75 49 40 51 66 52 49 53 65 54 50 55
REMARK SMILES IDX 53 56 64 57 80 58 51 59 52 60 63 62 81 63 54 64 41 65 42 66
REMARK SMILES IDX 47 67 43 68 44 69 46 70 48 71 45 72 67 73 68 74 73 75 69 76
REMARK SMILES IDX 70 77 72 78 74 79 71 80 55 81 56 82 61 83 57 84 58 85 60 86
REMARK SMILES IDX 62 87 59 88
REMARK H PARENT 18 10 79 50 53 61
REMARK Flexibility Score: inf
ROOT
ATOM      1  C   UNL A   1      39.671  22.012  26.831  1.00  0.00     0.261 C 
ENDROOT
BRANCH   1   2
ATOM      2  O   UNL A   1      38.750  22.299  25.769  1.00  0.00    -0.462 OA
BRANCH   2   3
ATOM      3  C   UNL A   1      37.927  23.369  25.915  1.00  0.00     0.328 C 
ATOM      4  O   UNL A   1      38.230  24.406  26.491  1.00  0.00    -0.250 OA
BRANCH   3   5
ATOM      5  C   UNL A   1      36.537  23.107  25.289  1.00  0.00     0.189 C 
ATOM      6  C   UNL A   1      36.665  22.556  23.872  1.00  0.00     0.043 C 
BRANCH   5   7
ATOM      7  N   UNL A   1      35.787  22.261  26.228  1.00  0.00    -0.340 N 
ATOM      8  C   UNL A   1      34.477  22.244  26.610  1.00  0.00     0.261 C 
ATOM      9  O   UNL A   1      34.184  21.531  27.578  1.00  0.00    -0.271 OA
ATOM     10  H   UNL A   1      36.337  21.571  26.666  1.00  0.00     0.164 HD
BRANCH   8  11
ATOM     11  C   UNL A   1      33.376  22.971  25.818  1.00  0.00     0.258 C 
ATOM     12  C   UNL A   1      33.160  22.192  24.517  1.00  0.00     0.064 C 
BRANCH  11  13
ATOM     13  O   UNL A   1      33.736  24.349  25.827  1.00  0.00    -0.481 OA
BRANCH  13  14
ATOM     14  C   UNL A   1      32.935  25.406  25.553  1.00  0.00     0.120 A 
ATOM     15  C   UNL A   1      31.987  25.993  26.375  1.00  0.00     0.047 A 
ATOM     16  C   UNL A   1      33.035  25.848  24.230  1.00  0.00     0.047 A 
ATOM     17  C   UNL A   1      31.066  26.908  25.844  1.00  0.00     0.012 A 
ATOM     18  C   UNL A   1      32.143  26.792  23.711  1.00  0.00     0.012 A 
ATOM     19  C   UNL A   1      31.104  27.309  24.496  1.00  0.00    -0.018 A 
BRANCH  19  20
ATOM     20  C   UNL A   1      30.070  28.203  23.930  1.00  0.00    -0.018 A 
ATOM     21  C   UNL A   1      30.276  29.590  23.833  1.00  0.00     0.009 A 
ATOM     22  C   UNL A   1      28.826  27.704  23.502  1.00  0.00     0.009 A 
ATOM     23  C   UNL A   1      29.279  30.443  23.347  1.00  0.00     0.001 A 
ATOM     24  C   UNL A   1      27.830  28.552  23.007  1.00  0.00     0.001 A 
ATOM     25  C   UNL A   1      28.056  29.923  22.935  1.00  0.00     0.000 A 
ENDBRANCH  19  20
ENDBRANCH  13  14
ENDBRANCH  11  13
ENDBRANCH   8  11
ENDBRANCH   5   7
ENDBRANCH   3   5
ENDBRANCH   2   3
ENDBRANCH   1   2
BRANCH   1  26
ATOM     26  C   UNL A   1      40.691  20.994  26.313  1.00  0.00     0.202 C 
BRANCH  26  27
ATOM     27  O   UNL A   1      42.050  21.248  26.681  1.00  0.00    -0.374 OA
BRANCH  27  28
ATOM     28  C   UNL A   1      43.073  20.742  25.825  1.00  0.00     0.202 C 
BRANCH  28  29
ATOM     29  C   UNL A   1      43.954  21.794  25.133  1.00  0.00     0.261 C 
BRANCH  29  30
ATOM     30  O   UNL A   1      43.243  23.007  24.826  1.00  0.00    -0.460 OA
BRANCH  30  31
ATOM     31  C   UNL A   1      43.941  24.141  25.056  1.00  0.00     0.338 C 
ATOM     32  O   UNL A   1      45.005  24.477  24.543  1.00  0.00    -0.246 OA
BRANCH  31  33
ATOM     33  C   UNL A   1      43.183  25.054  25.924  1.00  0.00     0.060 A 
ATOM     34  C   UNL A   1      43.756  26.302  26.197  1.00  0.00     0.016 A 
ATOM     35  C   UNL A   1      41.998  24.664  26.554  1.00  0.00     0.016 A 
ATOM     36  C   UNL A   1      43.174  27.145  27.140  1.00  0.00     0.010 A 
ATOM     37  C   UNL A   1      41.419  25.511  27.507  1.00  0.00     0.010 A 
ATOM     38  C   UNL A   1      42.025  26.739  27.832  1.00  0.00    -0.014 A 
BRANCH  38  39
ATOM     39  C   UNL A   1      41.560  27.542  28.990  1.00  0.00     0.031 A 
ATOM     40  C   UNL A   1      42.294  27.439  30.299  1.00  0.00     0.074 A 
ATOM     41  C   UNL A   1      40.531  28.397  28.867  1.00  0.00     0.049 A 
ATOM     42  N   UNL A   1      42.072  28.064  31.427  1.00  0.00    -0.248 NA
ATOM     43  C   UNL A   1      43.430  26.505  30.341  1.00  0.00     0.031 C 
ATOM     44  C   UNL A   1      39.758  28.616  27.647  1.00  0.00     0.029 A 
ATOM     45  N   UNL A   1      39.961  29.243  29.785  1.00  0.00    -0.354 N 
ATOM     46  C   UNL A   1      43.039  27.603  32.312  1.00  0.00     0.074 A 
ATOM     47  C   UNL A   1      43.827  26.618  31.600  1.00  0.00     0.031 C 
ATOM     48  C   UNL A   1      38.805  29.529  27.894  1.00  0.00     0.029 A 
ATOM     49  C   UNL A   1      38.888  29.943  29.295  1.00  0.00     0.049 A 
ATOM     50  H   UNL A   1      40.290  29.337  30.709  1.00  0.00     0.167 HD
ATOM     51  C   UNL A   1      43.262  27.974  33.595  1.00  0.00     0.037 A 
ATOM     52  C   UNL A   1      38.057  30.807  29.908  1.00  0.00     0.037 A 
ATOM     53  C   UNL A   1      42.479  28.949  34.308  1.00  0.00     0.049 A 
ATOM     54  C   UNL A   1      38.282  31.158  31.353  1.00  0.00     0.074 A 
ATOM     55  C   UNL A   1      42.642  29.406  35.605  1.00  0.00     0.029 A 
ATOM     56  N   UNL A   1      41.378  29.610  33.787  1.00  0.00    -0.354 N 
ATOM     57  N   UNL A   1      39.218  30.740  32.170  1.00  0.00    -0.248 NA
ATOM     58  C   UNL A   1      37.337  32.108  31.961  1.00  0.00     0.031 C 
ATOM     59  C   UNL A   1      41.610  30.309  35.883  1.00  0.00     0.029 A 
ATOM     60  C   UNL A   1      40.832  30.451  34.745  1.00  0.00     0.049 A 
ATOM     61  H   UNL A   1      41.034  29.499  32.872  1.00  0.00     0.167 HD
ATOM     62  C   UNL A   1      38.988  31.386  33.379  1.00  0.00     0.074 A 
ATOM     63  C   UNL A   1      37.830  32.235  33.185  1.00  0.00     0.031 C 
ATOM     64  C   UNL A   1      39.676  31.286  34.543  1.00  0.00     0.037 A 
BRANCH  51  65
ATOM     65  C   UNL A   1      44.388  27.293  34.316  1.00  0.00     0.057 A 
ATOM     66  C   UNL A   1      45.655  27.880  34.433  1.00  0.00     0.134 A 
ATOM     67  C   UNL A   1      44.201  26.036  34.904  1.00  0.00     0.134 A 
ATOM     68  F   UNL A   1      45.903  29.076  33.879  1.00  0.00    -0.206 F 
ATOM     69  C   UNL A   1      46.705  27.227  35.080  1.00  0.00     0.040 A 
ATOM     70  C   UNL A   1      45.237  25.384  35.577  1.00  0.00     0.040 A 
ATOM     71  F   UNL A   1      43.012  25.421  34.834  1.00  0.00    -0.206 F 
ATOM     72  C   UNL A   1      46.496  25.976  35.659  1.00  0.00     0.006 A 
ENDBRANCH  51  65
BRANCH  52  73
ATOM     73  C   UNL A   1      36.922  31.391  29.152  1.00  0.00     0.057 A 
ATOM     74  C   UNL A   1      35.765  30.652  28.889  1.00  0.00     0.134 A 
ATOM     75  C   UNL A   1      36.968  32.711  28.686  1.00  0.00     0.134 A 
ATOM     76  F   UNL A   1      35.673  29.375  29.289  1.00  0.00    -0.206 F 
ATOM     77  C   UNL A   1      34.692  31.202  28.184  1.00  0.00     0.040 A 
ATOM     78  C   UNL A   1      35.896  33.281  28.000  1.00  0.00     0.040 A 
ATOM     79  F   UNL A   1      38.052  33.470  28.908  1.00  0.00    -0.206 F 
ATOM     80  C   UNL A   1      34.754  32.524  27.744  1.00  0.00     0.006 A 
ENDBRANCH  52  73
BRANCH  64  81
ATOM     81  C   UNL A   1      39.208  32.127  35.695  1.00  0.00     0.057 A 
ATOM     82  C   UNL A   1      39.656  33.440  35.881  1.00  0.00     0.134 A 
ATOM     83  C   UNL A   1      38.266  31.631  36.607  1.00  0.00     0.134 A 
ATOM     84  F   UNL A   1      40.567  33.972  35.052  1.00  0.00    -0.206 F 
ATOM     85  C   UNL A   1      39.199  34.225  36.941  1.00  0.00     0.040 A 
ATOM     86  C   UNL A   1      37.784  32.413  37.657  1.00  0.00     0.040 A 
ATOM     87  F   UNL A   1      37.790  30.383  36.481  1.00  0.00    -0.206 F 
ATOM     88  C   UNL A   1      38.254  33.713  37.829  1.00  0.00     0.006 A 
ENDBRANCH  64  81
ENDBRANCH  38  39
ENDBRANCH  31  33
ENDBRANCH  30  31
ENDBRANCH  29  30
ENDBRANCH  28  29
ENDBRANCH  27  28
ENDBRANCH  26  27
ENDBRANCH   1  26
TORSDOF 19
ENDMDL
MODEL 3
REMARK VINA RESULT:     -11.2      1.141      6.247
REMARK SMILES C[C@H](Oc1ccc(-c2ccccc2)cc1)C(=O)N[C@H](C)C(=O)OCCOCCOC(=O)c1ccc(-c2c3nc(c(-c4c(F)cccc4F)c4ccc([nH]4)c(-c4c(F)cccc4F)c4nc(c(-c5c(F)cccc5F)c5ccc2[nH]5)C=C4)C=C3)cc1
REMARK SMILES IDX 24 1 23 2 21 3 22 4 19 5 20 6 18 7 16 8 17 9 2 11 1 12 3 13
REMARK SMILES IDX 4 14 5 15 15 16 6 17 14 18 7 19 8 20 9 21 13 22 10 23 12 24
REMARK SMILES IDX 11 25 25 26 26 27 27 28 28 29 29 30 30 31 31 32 32 33 33 34
REMARK SMILES IDX 85 35 34 36 84 37 35 38 36 39 37 40 78 41 38 42 83 43 77 44
REMARK SMILES IDX 79 45 39 46 82 47 76 48 75 49 40 51 66 52 49 53 65 54 50 55
REMARK SMILES IDX 53 56 64 57 80 58 51 59 52 60 63 62 81 63 54 64 41 65 42 66
REMARK SMILES IDX 47 67 43 68 44 69 46 70 48 71 45 72 67 73 68 74 73 75 69 76
REMARK SMILES IDX 70 77 72 78 74 79 71 80 55 81 56 82 61 83 57 84 58 85 60 86
REMARK SMILES IDX 62 87 59 88
REMARK H PARENT 18 10 79 50 53 61
REMARK Flexibility Score: inf
ROOT
ATOM      1  C   UNL A   1      40.333  21.750  26.098  1.00  0.00     0.261 C 
ENDROOT
BRANCH   1   2
ATOM      2  O   UNL A   1      39.081  21.105  25.818  1.00  0.00    -0.462 OA
BRANCH   2   3
ATOM      3  C   UNL A   1      37.982  21.889  25.679  1.00  0.00     0.328 C 
ATOM      4  O   UNL A   1      37.953  23.093  25.901  1.00  0.00    -0.250 OA
BRANCH   3   5
ATOM      5  C   UNL A   1      36.750  21.067  25.231  1.00  0.00     0.189 C 
ATOM      6  C   UNL A   1      37.152  19.660  24.800  1.00  0.00     0.043 C 
BRANCH   5   7
ATOM      7  N   UNL A   1      35.761  21.135  26.317  1.00  0.00    -0.340 N 
ATOM      8  C   UNL A   1      34.415  21.360  26.326  1.00  0.00     0.261 C 
ATOM      9  O   UNL A   1      33.886  21.553  27.427  1.00  0.00    -0.271 OA
ATOM     10  H   UNL A   1      36.145  20.988  27.212  1.00  0.00     0.164 HD
BRANCH   8  11
ATOM     11  C   UNL A   1      33.553  21.261  25.055  1.00  0.00     0.258 C 
ATOM     12  C   UNL A   1      33.575  19.798  24.601  1.00  0.00     0.064 C 
BRANCH  11  13
ATOM     13  O   UNL A   1      33.981  22.324  24.210  1.00  0.00    -0.481 OA
BRANCH  13  14
ATOM     14  C   UNL A   1      33.658  23.635  24.317  1.00  0.00     0.120 A 
ATOM     15  C   UNL A   1      34.477  24.734  24.112  1.00  0.00     0.047 A 
ATOM     16  C   UNL A   1      32.366  23.850  24.803  1.00  0.00     0.047 A 
ATOM     17  C   UNL A   1      34.057  26.009  24.519  1.00  0.00     0.012 A 
ATOM     18  C   UNL A   1      31.931  25.128  25.169  1.00  0.00     0.012 A 
ATOM     19  C   UNL A   1      32.787  26.233  25.080  1.00  0.00    -0.018 A 
BRANCH  19  20
ATOM     20  C   UNL A   1      32.393  27.566  25.587  1.00  0.00    -0.018 A 
ATOM     21  C   UNL A   1      32.313  27.830  26.965  1.00  0.00     0.009 A 
ATOM     22  C   UNL A   1      32.046  28.610  24.708  1.00  0.00     0.009 A 
ATOM     23  C   UNL A   1      31.890  29.074  27.446  1.00  0.00     0.001 A 
ATOM     24  C   UNL A   1      31.631  29.857  25.185  1.00  0.00     0.001 A 
ATOM     25  C   UNL A   1      31.548  30.087  26.555  1.00  0.00     0.000 A 
ENDBRANCH  19  20
ENDBRANCH  13  14
ENDBRANCH  11  13
ENDBRANCH   8  11
ENDBRANCH   5   7
ENDBRANCH   3   5
ENDBRANCH   2   3
ENDBRANCH   1   2
BRANCH   1  26
ATOM     26  C   UNL A   1      41.380  20.662  26.353  1.00  0.00     0.202 C 
BRANCH  26  27
ATOM     27  O   UNL A   1      42.461  20.623  25.416  1.00  0.00    -0.374 OA
BRANCH  27  28
ATOM     28  C   UNL A   1      43.669  21.294  25.772  1.00  0.00     0.202 C 
BRANCH  28  29
ATOM     29  C   UNL A   1      44.106  22.434  24.839  1.00  0.00     0.261 C 
BRANCH  29  30
ATOM     30  O   UNL A   1      43.268  23.599  24.944  1.00  0.00    -0.460 OA
BRANCH  30  31
ATOM     31  C   UNL A   1      43.931  24.746  25.208  1.00  0.00     0.338 C 
ATOM     32  O   UNL A   1      44.957  25.154  24.670  1.00  0.00    -0.246 OA
BRANCH  31  33
ATOM     33  C   UNL A   1      43.177  25.578  26.159  1.00  0.00     0.060 A 
ATOM     34  C   UNL A   1      43.611  26.897  26.340  1.00  0.00     0.016 A 
ATOM     35  C   UNL A   1      42.146  25.055  26.944  1.00  0.00     0.016 A 
ATOM     36  C   UNL A   1      43.050  27.684  27.341  1.00  0.00     0.010 A 
ATOM     37  C   UNL A   1      41.589  25.847  27.956  1.00  0.00     0.010 A 
ATOM     38  C   UNL A   1      42.064  27.152  28.184  1.00  0.00    -0.014 A 
BRANCH  38  39
ATOM     39  C   UNL A   1      41.652  27.920  29.385  1.00  0.00     0.031 A 
ATOM     40  C   UNL A   1      40.441  28.809  29.310  1.00  0.00     0.074 A 
ATOM     41  C   UNL A   1      42.312  27.787  30.548  1.00  0.00     0.049 A 
ATOM     42  N   UNL A   1      39.895  29.549  30.242  1.00  0.00    -0.248 NA
ATOM     43  C   UNL A   1      39.755  28.873  28.010  1.00  0.00     0.031 C 
ATOM     44  C   UNL A   1      43.479  26.934  30.762  1.00  0.00     0.029 A 
ATOM     45  N   UNL A   1      42.091  28.372  31.769  1.00  0.00    -0.354 N 
ATOM     46  C   UNL A   1      38.801  30.163  29.644  1.00  0.00     0.074 A 
ATOM     47  C   UNL A   1      38.784  29.738  28.260  1.00  0.00     0.031 C 
ATOM     48  C   UNL A   1      43.879  27.059  32.038  1.00  0.00     0.029 A 
ATOM     49  C   UNL A   1      43.010  28.016  32.723  1.00  0.00     0.049 A 
ATOM     50  H   UNL A   1      41.343  28.989  31.944  1.00  0.00     0.167 HD
ATOM     51  C   UNL A   1      37.887  30.994  30.198  1.00  0.00     0.037 A 
ATOM     52  C   UNL A   1      43.147  28.426  33.999  1.00  0.00     0.037 A 
ATOM     53  C   UNL A   1      37.902  31.422  31.572  1.00  0.00     0.049 A 
ATOM     54  C   UNL A   1      42.158  29.399  34.578  1.00  0.00     0.074 A 
ATOM     55  C   UNL A   1      37.006  32.246  32.230  1.00  0.00     0.029 A 
ATOM     56  N   UNL A   1      38.872  31.067  32.498  1.00  0.00    -0.354 N 
ATOM     57  N   UNL A   1      41.110  29.949  34.013  1.00  0.00    -0.248 NA
ATOM     58  C   UNL A   1      42.366  29.805  35.977  1.00  0.00     0.031 C 
ATOM     59  C   UNL A   1      37.459  32.427  33.542  1.00  0.00     0.029 A 
ATOM     60  C   UNL A   1      38.612  31.678  33.715  1.00  0.00     0.049 A 
ATOM     61  H   UNL A   1      39.632  30.469  32.317  1.00  0.00     0.167 HD
ATOM     62  C   UNL A   1      40.525  30.749  34.987  1.00  0.00     0.074 A 
ATOM     63  C   UNL A   1      41.328  30.603  36.185  1.00  0.00     0.031 C 
ATOM     64  C   UNL A   1      39.421  31.531  34.898  1.00  0.00     0.037 A 
BRANCH  51  65
ATOM     65  C   UNL A   1      36.805  31.516  29.298  1.00  0.00     0.057 A 
ATOM     66  C   UNL A   1      35.714  30.724  28.916  1.00  0.00     0.134 A 
ATOM     67  C   UNL A   1      36.855  32.827  28.810  1.00  0.00     0.134 A 
ATOM     68  F   UNL A   1      35.614  29.455  29.337  1.00  0.00    -0.206 F 
ATOM     69  C   UNL A   1      34.727  31.208  28.055  1.00  0.00     0.040 A 
ATOM     70  C   UNL A   1      35.861  33.330  27.968  1.00  0.00     0.040 A 
ATOM     71  F   UNL A   1      37.869  33.639  29.141  1.00  0.00    -0.206 F 
ATOM     72  C   UNL A   1      34.798  32.517  27.582  1.00  0.00     0.006 A 
ENDBRANCH  51  65
BRANCH  52  73
ATOM     73  C   UNL A   1      44.281  27.920  34.811  1.00  0.00     0.057 A 
ATOM     74  C   UNL A   1      44.196  26.709  35.505  1.00  0.00     0.134 A 
ATOM     75  C   UNL A   1      45.482  28.635  34.899  1.00  0.00     0.134 A 
ATOM     76  F   UNL A   1      43.064  25.992  35.477  1.00  0.00    -0.206 F 
ATOM     77  C   UNL A   1      45.265  26.227  36.263  1.00  0.00     0.040 A 
ATOM     78  C   UNL A   1      46.565  28.155  35.635  1.00  0.00     0.040 A 
ATOM     79  F   UNL A   1      45.622  29.803  34.255  1.00  0.00    -0.206 F 
ATOM     80  C   UNL A   1      46.457  26.948  36.323  1.00  0.00     0.006 A 
ENDBRANCH  52  73
BRANCH  64  81
ATOM     81  C   UNL A   1      39.004  32.278  36.131  1.00  0.00     0.057 A 
ATOM     82  C   UNL A   1      38.187  31.694  37.106  1.00  0.00     0.134 A 
ATOM     83  C   UNL A   1      39.457  33.583  36.364  1.00  0.00     0.134 A 
ATOM     84  F   UNL A   1      37.708  30.452  36.938  1.00  0.00    -0.206 F 
ATOM     85  C   UNL A   1      37.821  32.386  38.263  1.00  0.00     0.040 A 
ATOM     86  C   UNL A   1      39.119  34.277  37.527  1.00  0.00     0.040 A 
ATOM     87  F   UNL A   1      40.250  34.198  35.473  1.00  0.00    -0.206 F 
ATOM     88  C   UNL A   1      38.293  33.680  38.478  1.00  0.00     0.006 A 
ENDBRANCH  64  81
ENDBRANCH  38  39
ENDBRANCH  31  33
ENDBRANCH  30  31
ENDBRANCH  29  30
ENDBRANCH  28  29
ENDBRANCH  27  28
ENDBRANCH  26  27
ENDBRANCH   1  26
TORSDOF 19
ENDMDL
