MODEL 1
REMARK VINA RESULT:     -11.7      0.000      0.000
REMARK SMILES Cc1cc2c(=O)c3ccccc3oc2c(C(=O)OCCOCCOC(=O)c2ccc(-c3c4nc(c(-c5c(F)cccc5F)c5ccc([nH]5)c(-c5c(F)cccc5F)c5nc(c(-c6c(F)cccc6F)c6ccc3[nH]6)C=C5)C=C4)cc2)c1C
REMARK SMILES IDX 22 1 21 2 20 3 19 4 18 5 16 6 17 7 15 8 1 9 2 10 3 11 81 12
REMARK SMILES IDX 4 13 82 14 5 15 14 16 6 17 7 18 13 19 8 20 12 21 9 22 11 23
REMARK SMILES IDX 10 24 23 25 24 26 25 27 26 28 27 29 28 30 80 31 29 32 79 33
REMARK SMILES IDX 30 34 31 35 32 36 73 37 33 38 78 39 72 40 74 41 34 42 77 43
REMARK SMILES IDX 71 44 70 45 35 47 61 48 44 49 60 50 45 51 48 52 59 53 75 54
REMARK SMILES IDX 46 55 47 56 58 58 76 59 49 60 36 61 37 62 42 63 38 64 39 65
REMARK SMILES IDX 41 66 43 67 40 68 62 69 63 70 68 71 64 72 65 73 67 74 69 75
REMARK SMILES IDX 66 76 50 77 51 78 56 79 52 80 53 81 55 82 57 83 54 84
REMARK H PARENT 74 46 48 57
REMARK Flexibility Score: inf
ROOT
ATOM      1  C   UNL A   1      31.179  32.085  26.501  1.00  0.00     0.202 C 
ENDROOT
BRANCH   1   2
ATOM      2  O   UNL A   1      31.709  30.818  26.115  1.00  0.00    -0.374 OA
BRANCH   2   3
ATOM      3  C   UNL A   1      32.488  30.095  27.067  1.00  0.00     0.202 C 
BRANCH   3   4
ATOM      4  C   UNL A   1      33.873  29.634  26.614  1.00  0.00     0.261 C 
BRANCH   4   5
ATOM      5  O   UNL A   1      33.860  28.227  26.329  1.00  0.00    -0.460 OA
BRANCH   5   6
ATOM      6  C   UNL A   1      33.650  27.897  25.034  1.00  0.00     0.342 C 
ATOM      7  O   UNL A   1      34.289  28.303  24.077  1.00  0.00    -0.246 OA
BRANCH   6   8
ATOM      8  C   UNL A   1      32.568  26.879  24.909  1.00  0.00     0.106 A 
ATOM      9  C   UNL A   1      31.578  23.350  26.065  1.00  0.00     0.044 C 
ATOM     10  C   UNL A   1      31.548  24.738  25.481  1.00  0.00    -0.046 A 
ATOM     11  C   UNL A   1      30.317  25.232  25.023  1.00  0.00     0.019 A 
ATOM     12  C   UNL A   1      32.706  25.548  25.390  1.00  0.00    -0.030 A 
ATOM     13  C   UNL A   1      30.225  26.503  24.453  1.00  0.00     0.067 A 
ATOM     14  C   UNL A   1      34.062  24.991  25.749  1.00  0.00     0.046 C 
ATOM     15  C   UNL A   1      28.934  26.991  23.944  1.00  0.00     0.200 A 
ATOM     16  C   UNL A   1      31.342  27.325  24.373  1.00  0.00     0.153 A 
ATOM     17  O   UNL A   1      27.911  26.328  24.051  1.00  0.00    -0.288 OA
ATOM     18  C   UNL A   1      28.935  28.301  23.282  1.00  0.00     0.065 A 
ATOM     19  O   UNL A   1      31.318  28.545  23.731  1.00  0.00    -0.455 OA
ATOM     20  C   UNL A   1      27.760  28.837  22.748  1.00  0.00     0.016 A 
ATOM     21  C   UNL A   1      30.141  28.986  23.180  1.00  0.00     0.138 A 
ATOM     22  C   UNL A   1      27.802  30.061  22.083  1.00  0.00     0.001 A 
ATOM     23  C   UNL A   1      30.185  30.202  22.494  1.00  0.00     0.048 A 
ATOM     24  C   UNL A   1      29.016  30.737  21.944  1.00  0.00     0.004 A 
ENDBRANCH   6   8
ENDBRANCH   5   6
ENDBRANCH   4   5
ENDBRANCH   3   4
ENDBRANCH   2   3
ENDBRANCH   1   2
BRANCH   1  25
ATOM     25  C   UNL A   1      32.174  33.218  26.782  1.00  0.00     0.261 C 
BRANCH  25  26
ATOM     26  O   UNL A   1      32.153  33.667  28.147  1.00  0.00    -0.460 OA
BRANCH  26  27
ATOM     27  C   UNL A   1      33.138  34.537  28.477  1.00  0.00     0.338 C 
ATOM     28  O   UNL A   1      33.054  35.753  28.573  1.00  0.00    -0.246 OA
BRANCH  27  29
ATOM     29  C   UNL A   1      34.334  33.784  28.900  1.00  0.00     0.060 A 
ATOM     30  C   UNL A   1      35.617  34.272  28.659  1.00  0.00     0.016 A 
ATOM     31  C   UNL A   1      34.149  32.575  29.585  1.00  0.00     0.016 A 
ATOM     32  C   UNL A   1      36.720  33.554  29.127  1.00  0.00     0.010 A 
ATOM     33  C   UNL A   1      35.252  31.862  30.054  1.00  0.00     0.010 A 
ATOM     34  C   UNL A   1      36.548  32.354  29.844  1.00  0.00    -0.014 A 
BRANCH  34  35
ATOM     35  C   UNL A   1      37.722  31.683  30.455  1.00  0.00     0.031 A 
ATOM     36  C   UNL A   1      38.133  31.956  31.872  1.00  0.00     0.074 A 
ATOM     37  C   UNL A   1      38.424  30.808  29.709  1.00  0.00     0.049 A 
ATOM     38  N   UNL A   1      39.064  31.374  32.586  1.00  0.00    -0.248 NA
ATOM     39  C   UNL A   1      37.412  33.025  32.577  1.00  0.00     0.031 C 
ATOM     40  C   UNL A   1      38.153  30.495  28.305  1.00  0.00     0.029 A 
ATOM     41  N   UNL A   1      39.495  30.015  30.029  1.00  0.00    -0.354 N 
ATOM     42  C   UNL A   1      39.027  31.985  33.831  1.00  0.00     0.074 A 
ATOM     43  C   UNL A   1      38.021  33.025  33.756  1.00  0.00     0.031 C 
ATOM     44  C   UNL A   1      39.009  29.545  27.896  1.00  0.00     0.029 A 
ATOM     45  C   UNL A   1      39.906  29.207  28.997  1.00  0.00     0.049 A 
ATOM     46  H   UNL A   1      39.928  30.024  30.912  1.00  0.00     0.167 HD
ATOM     47  C   UNL A   1      39.751  31.692  34.941  1.00  0.00     0.037 A 
ATOM     48  C   UNL A   1      40.891  28.292  28.945  1.00  0.00     0.037 A 
ATOM     49  C   UNL A   1      40.776  30.680  35.001  1.00  0.00     0.049 A 
ATOM     50  C   UNL A   1      41.714  28.027  30.176  1.00  0.00     0.074 A 
ATOM     51  C   UNL A   1      41.547  30.294  36.086  1.00  0.00     0.029 A 
ATOM     52  N   UNL A   1      41.194  29.908  33.926  1.00  0.00    -0.354 N 
ATOM     53  N   UNL A   1      41.609  28.549  31.374  1.00  0.00    -0.248 NA
ATOM     54  C   UNL A   1      42.789  27.035  30.045  1.00  0.00     0.031 C 
ATOM     55  C   UNL A   1      42.466  29.331  35.654  1.00  0.00     0.029 A 
ATOM     56  C   UNL A   1      42.227  29.068  34.315  1.00  0.00     0.049 A 
ATOM     57  H   UNL A   1      40.812  29.950  33.020  1.00  0.00     0.167 HD
ATOM     58  C   UNL A   1      42.578  27.923  32.147  1.00  0.00     0.074 A 
ATOM     59  C   UNL A   1      43.245  26.968  31.287  1.00  0.00     0.031 C 
ATOM     60  C   UNL A   1      42.888  28.121  33.453  1.00  0.00     0.037 A 
BRANCH  47  61
ATOM     61  C   UNL A   1      39.457  32.487  36.183  1.00  0.00     0.057 A 
ATOM     62  C   UNL A   1      40.163  33.661  36.470  1.00  0.00     0.134 A 
ATOM     63  C   UNL A   1      38.496  32.070  37.115  1.00  0.00     0.134 A 
ATOM     64  F   UNL A   1      41.106  34.114  35.630  1.00  0.00    -0.206 F 
ATOM     65  C   UNL A   1      39.921  34.394  37.635  1.00  0.00     0.040 A 
ATOM     66  C   UNL A   1      38.224  32.809  38.267  1.00  0.00     0.040 A 
ATOM     67  F   UNL A   1      37.778  30.957  36.899  1.00  0.00    -0.206 F 
ATOM     68  C   UNL A   1      38.942  33.973  38.532  1.00  0.00     0.006 A 
ENDBRANCH  47  61
BRANCH  48  69
ATOM     69  C   UNL A   1      41.150  27.537  27.692  1.00  0.00     0.057 A 
ATOM     70  C   UNL A   1      41.978  28.051  26.688  1.00  0.00     0.134 A 
ATOM     71  C   UNL A   1      40.614  26.257  27.495  1.00  0.00     0.134 A 
ATOM     72  F   UNL A   1      42.514  29.274  26.813  1.00  0.00    -0.206 F 
ATOM     73  C   UNL A   1      42.269  27.321  25.535  1.00  0.00     0.040 A 
ATOM     74  C   UNL A   1      40.922  25.503  26.361  1.00  0.00     0.040 A 
ATOM     75  F   UNL A   1      39.827  25.703  28.428  1.00  0.00    -0.206 F 
ATOM     76  C   UNL A   1      41.751  26.037  25.377  1.00  0.00     0.006 A 
ENDBRANCH  48  69
BRANCH  60  77
ATOM     77  C   UNL A   1      43.967  27.249  34.036  1.00  0.00     0.057 A 
ATOM     78  C   UNL A   1      43.645  26.024  34.633  1.00  0.00     0.134 A 
ATOM     79  C   UNL A   1      45.320  27.611  34.001  1.00  0.00     0.134 A 
ATOM     80  F   UNL A   1      42.368  25.617  34.712  1.00  0.00    -0.206 F 
ATOM     81  C   UNL A   1      44.628  25.186  35.163  1.00  0.00     0.040 A 
ATOM     82  C   UNL A   1      46.316  26.766  34.496  1.00  0.00     0.040 A 
ATOM     83  F   UNL A   1      45.702  28.764  33.431  1.00  0.00    -0.206 F 
ATOM     84  C   UNL A   1      45.970  25.551  35.083  1.00  0.00     0.006 A 
ENDBRANCH  60  77
ENDBRANCH  34  35
ENDBRANCH  27  29
ENDBRANCH  26  27
ENDBRANCH  25  26
ENDBRANCH   1  25
TORSDOF 14
ENDMDL
MODEL 2
REMARK VINA RESULT:     -11.5      0.323      1.613
REMARK SMILES Cc1cc2c(=O)c3ccccc3oc2c(C(=O)OCCOCCOC(=O)c2ccc(-c3c4nc(c(-c5c(F)cccc5F)c5ccc([nH]5)c(-c5c(F)cccc5F)c5nc(c(-c6c(F)cccc6F)c6ccc3[nH]6)C=C5)C=C4)cc2)c1C
REMARK SMILES IDX 22 1 21 2 20 3 19 4 18 5 16 6 17 7 15 8 1 9 2 10 3 11 81 12
REMARK SMILES IDX 4 13 82 14 5 15 14 16 6 17 7 18 13 19 8 20 12 21 9 22 11 23
REMARK SMILES IDX 10 24 23 25 24 26 25 27 26 28 27 29 28 30 80 31 29 32 79 33
REMARK SMILES IDX 30 34 31 35 32 36 73 37 33 38 78 39 72 40 74 41 34 42 77 43
REMARK SMILES IDX 71 44 70 45 35 47 61 48 44 49 60 50 45 51 48 52 59 53 75 54
REMARK SMILES IDX 46 55 47 56 58 58 76 59 49 60 36 61 37 62 42 63 38 64 39 65
REMARK SMILES IDX 41 66 43 67 40 68 62 69 63 70 68 71 64 72 65 73 67 74 69 75
REMARK SMILES IDX 66 76 50 77 51 78 56 79 52 80 53 81 55 82 57 83 54 84
REMARK H PARENT 74 46 48 57
REMARK Flexibility Score: inf
ROOT
ATOM      1  C   UNL A   1      31.400  31.844  26.775  1.00  0.00     0.202 C 
ENDROOT
BRANCH   1   2
ATOM      2  O   UNL A   1      32.114  30.679  26.366  1.00  0.00    -0.374 OA
BRANCH   2   3
ATOM      3  C   UNL A   1      33.098  30.145  27.251  1.00  0.00     0.202 C 
BRANCH   3   4
ATOM      4  C   UNL A   1      34.243  29.360  26.614  1.00  0.00     0.261 C 
BRANCH   4   5
ATOM      5  O   UNL A   1      33.802  28.045  26.248  1.00  0.00    -0.460 OA
BRANCH   5   6
ATOM      6  C   UNL A   1      33.693  27.815  24.920  1.00  0.00     0.342 C 
ATOM      7  O   UNL A   1      34.360  28.340  24.043  1.00  0.00    -0.246 OA
BRANCH   6   8
ATOM      8  C   UNL A   1      32.693  26.745  24.641  1.00  0.00     0.106 A 
ATOM      9  C   UNL A   1      32.067  22.983  25.110  1.00  0.00     0.044 C 
ATOM     10  C   UNL A   1      31.888  24.450  24.817  1.00  0.00    -0.046 A 
ATOM     11  C   UNL A   1      30.595  24.908  24.520  1.00  0.00     0.019 A 
ATOM     12  C   UNL A   1      32.968  25.365  24.839  1.00  0.00    -0.030 A 
ATOM     13  C   UNL A   1      30.365  26.251  24.221  1.00  0.00     0.067 A 
ATOM     14  C   UNL A   1      34.385  24.876  25.020  1.00  0.00     0.046 C 
ATOM     15  C   UNL A   1      29.010  26.708  23.876  1.00  0.00     0.200 A 
ATOM     16  C   UNL A   1      31.405  27.173  24.258  1.00  0.00     0.153 A 
ATOM     17  O   UNL A   1      28.054  25.946  23.894  1.00  0.00    -0.288 OA
ATOM     18  C   UNL A   1      28.864  28.117  23.491  1.00  0.00     0.065 A 
ATOM     19  O   UNL A   1      31.241  28.487  23.876  1.00  0.00    -0.455 OA
ATOM     20  C   UNL A   1      27.619  28.636  23.126  1.00  0.00     0.016 A 
ATOM     21  C   UNL A   1      30.002  28.917  23.475  1.00  0.00     0.138 A 
ATOM     22  C   UNL A   1      27.520  29.966  22.718  1.00  0.00     0.001 A 
ATOM     23  C   UNL A   1      29.903  30.242  23.045  1.00  0.00     0.048 A 
ATOM     24  C   UNL A   1      28.664  30.764  22.664  1.00  0.00     0.004 A 
ENDBRANCH   6   8
ENDBRANCH   5   6
ENDBRANCH   4   5
ENDBRANCH   3   4
ENDBRANCH   2   3
ENDBRANCH   1   2
BRANCH   1  25
ATOM     25  C   UNL A   1      32.182  33.159  26.879  1.00  0.00     0.261 C 
BRANCH  25  26
ATOM     26  O   UNL A   1      32.154  33.734  28.196  1.00  0.00    -0.460 OA
BRANCH  26  27
ATOM     27  C   UNL A   1      33.163  34.598  28.463  1.00  0.00     0.338 C 
ATOM     28  O   UNL A   1      33.105  35.819  28.498  1.00  0.00    -0.246 OA
BRANCH  27  29
ATOM     29  C   UNL A   1      34.351  33.843  28.903  1.00  0.00     0.060 A 
ATOM     30  C   UNL A   1      35.640  34.297  28.625  1.00  0.00     0.016 A 
ATOM     31  C   UNL A   1      34.154  32.668  29.642  1.00  0.00     0.016 A 
ATOM     32  C   UNL A   1      36.736  33.580  29.110  1.00  0.00     0.010 A 
ATOM     33  C   UNL A   1      35.251  31.956  30.128  1.00  0.00     0.010 A 
ATOM     34  C   UNL A   1      36.552  32.415  29.880  1.00  0.00    -0.014 A 
BRANCH  34  35
ATOM     35  C   UNL A   1      37.723  31.750  30.504  1.00  0.00     0.031 A 
ATOM     36  C   UNL A   1      38.132  32.044  31.918  1.00  0.00     0.074 A 
ATOM     37  C   UNL A   1      38.423  30.861  29.774  1.00  0.00     0.049 A 
ATOM     38  N   UNL A   1      39.059  31.470  32.643  1.00  0.00    -0.248 NA
ATOM     39  C   UNL A   1      37.412  33.127  32.604  1.00  0.00     0.031 C 
ATOM     40  C   UNL A   1      38.155  30.526  28.374  1.00  0.00     0.029 A 
ATOM     41  N   UNL A   1      39.491  30.069  30.109  1.00  0.00    -0.354 N 
ATOM     42  C   UNL A   1      39.021  32.101  33.878  1.00  0.00     0.074 A 
ATOM     43  C   UNL A   1      38.019  33.143  33.784  1.00  0.00     0.031 C 
ATOM     44  C   UNL A   1      39.009  29.567  27.982  1.00  0.00     0.029 A 
ATOM     45  C   UNL A   1      39.902  29.243  29.091  1.00  0.00     0.049 A 
ATOM     46  H   UNL A   1      39.922  30.090  30.993  1.00  0.00     0.167 HD
ATOM     47  C   UNL A   1      39.741  31.824  34.994  1.00  0.00     0.037 A 
ATOM     48  C   UNL A   1      40.884  28.324  29.056  1.00  0.00     0.037 A 
ATOM     49  C   UNL A   1      40.763  30.810  35.073  1.00  0.00     0.049 A 
ATOM     50  C   UNL A   1      41.703  28.077  30.293  1.00  0.00     0.074 A 
ATOM     51  C   UNL A   1      41.530  30.438  36.166  1.00  0.00     0.029 A 
ATOM     52  N   UNL A   1      41.180  30.019  34.012  1.00  0.00    -0.354 N 
ATOM     53  N   UNL A   1      41.597  28.618  31.482  1.00  0.00    -0.248 NA
ATOM     54  C   UNL A   1      42.774  27.078  30.181  1.00  0.00     0.031 C 
ATOM     55  C   UNL A   1      42.447  29.465  35.751  1.00  0.00     0.029 A 
ATOM     56  C   UNL A   1      42.210  29.182  34.417  1.00  0.00     0.049 A 
ATOM     57  H   UNL A   1      40.801  30.048  33.104  1.00  0.00     0.167 HD
ATOM     58  C   UNL A   1      42.562  28.001  32.268  1.00  0.00     0.074 A 
ATOM     59  C   UNL A   1      43.227  27.030  31.424  1.00  0.00     0.031 C 
ATOM     60  C   UNL A   1      42.869  28.218  33.571  1.00  0.00     0.037 A 
BRANCH  47  61
ATOM     61  C   UNL A   1      39.447  32.639  36.223  1.00  0.00     0.057 A 
ATOM     62  C   UNL A   1      38.466  32.238  37.136  1.00  0.00     0.134 A 
ATOM     63  C   UNL A   1      40.116  33.844  36.484  1.00  0.00     0.134 A 
ATOM     64  F   UNL A   1      37.777  31.102  36.944  1.00  0.00    -0.206 F 
ATOM     65  C   UNL A   1      38.162  33.001  38.267  1.00  0.00     0.040 A 
ATOM     66  C   UNL A   1      39.843  34.600  37.626  1.00  0.00     0.040 A 
ATOM     67  F   UNL A   1      41.073  34.285  35.653  1.00  0.00    -0.206 F 
ATOM     68  C   UNL A   1      38.859  34.180  38.519  1.00  0.00     0.006 A 
ENDBRANCH  47  61
BRANCH  48  69
ATOM     69  C   UNL A   1      41.143  27.548  27.816  1.00  0.00     0.057 A 
ATOM     70  C   UNL A   1      40.531  26.309  27.591  1.00  0.00     0.134 A 
ATOM     71  C   UNL A   1      41.968  28.054  26.805  1.00  0.00     0.134 A 
ATOM     72  F   UNL A   1      39.736  25.766  28.524  1.00  0.00    -0.206 F 
ATOM     73  C   UNL A   1      40.726  25.604  26.403  1.00  0.00     0.040 A 
ATOM     74  C   UNL A   1      42.147  27.374  25.598  1.00  0.00     0.040 A 
ATOM     75  F   UNL A   1      42.569  29.243  26.955  1.00  0.00    -0.206 F 
ATOM     76  C   UNL A   1      41.526  26.144  25.397  1.00  0.00     0.006 A 
ENDBRANCH  48  69
BRANCH  60  77
ATOM     77  C   UNL A   1      43.944  27.353  34.171  1.00  0.00     0.057 A 
ATOM     78  C   UNL A   1      45.275  27.788  34.194  1.00  0.00     0.134 A 
ATOM     79  C   UNL A   1      43.668  26.099  34.733  1.00  0.00     0.134 A 
ATOM     80  F   UNL A   1      45.616  28.974  33.666  1.00  0.00    -0.206 F 
ATOM     81  C   UNL A   1      46.289  27.014  34.763  1.00  0.00     0.040 A 
ATOM     82  C   UNL A   1      44.667  25.331  35.335  1.00  0.00     0.040 A 
ATOM     83  F   UNL A   1      42.413  25.626  34.757  1.00  0.00    -0.206 F 
ATOM     84  C   UNL A   1      45.983  25.788  35.348  1.00  0.00     0.006 A 
ENDBRANCH  60  77
ENDBRANCH  34  35
ENDBRANCH  27  29
ENDBRANCH  26  27
ENDBRANCH  25  26
ENDBRANCH   1  25
TORSDOF 14
ENDMDL
MODEL 3
REMARK VINA RESULT:     -11.4      1.547      3.190
REMARK SMILES Cc1cc2c(=O)c3ccccc3oc2c(C(=O)OCCOCCOC(=O)c2ccc(-c3c4nc(c(-c5c(F)cccc5F)c5ccc([nH]5)c(-c5c(F)cccc5F)c5nc(c(-c6c(F)cccc6F)c6ccc3[nH]6)C=C5)C=C4)cc2)c1C
REMARK SMILES IDX 22 1 21 2 20 3 19 4 18 5 16 6 17 7 15 8 1 9 2 10 3 11 81 12
REMARK SMILES IDX 4 13 82 14 5 15 14 16 6 17 7 18 13 19 8 20 12 21 9 22 11 23
REMARK SMILES IDX 10 24 23 25 24 26 25 27 26 28 27 29 28 30 80 31 29 32 79 33
REMARK SMILES IDX 30 34 31 35 32 36 73 37 33 38 78 39 72 40 74 41 34 42 77 43
REMARK SMILES IDX 71 44 70 45 35 47 61 48 44 49 60 50 45 51 48 52 59 53 75 54
REMARK SMILES IDX 46 55 47 56 58 58 76 59 49 60 36 61 37 62 42 63 38 64 39 65
REMARK SMILES IDX 41 66 43 67 40 68 62 69 63 70 68 71 64 72 65 73 67 74 69 75
REMARK SMILES IDX 66 76 50 77 51 78 56 79 52 80 53 81 55 82 57 83 54 84
REMARK H PARENT 74 46 48 57
REMARK Flexibility Score: inf
ROOT
ATOM      1  C   UNL A   1      32.747  31.847  27.114  1.00  0.00     0.202 C 
ENDROOT
BRANCH   1   2
ATOM      2  O   UNL A   1      33.634  31.250  28.058  1.00  0.00    -0.374 OA
BRANCH   2   3
ATOM      3  C   UNL A   1      34.929  30.852  27.610  1.00  0.00     0.202 C 
BRANCH   3   4
ATOM      4  C   UNL A   1      35.148  29.358  27.378  1.00  0.00     0.261 C 
BRANCH   4   5
ATOM      5  O   UNL A   1      34.458  28.932  26.194  1.00  0.00    -0.460 OA
BRANCH   5   6
ATOM      6  C   UNL A   1      33.335  28.208  26.402  1.00  0.00     0.342 C 
ATOM      7  O   UNL A   1      32.786  28.027  27.477  1.00  0.00    -0.246 OA
BRANCH   6   8
ATOM      8  C   UNL A   1      32.773  27.709  25.115  1.00  0.00     0.106 A 
ATOM      9  C   UNL A   1      30.580  28.780  22.147  1.00  0.00     0.044 C 
ATOM     10  C   UNL A   1      31.526  28.024  23.043  1.00  0.00    -0.046 A 
ATOM     11  C   UNL A   1      32.158  26.886  22.520  1.00  0.00     0.019 A 
ATOM     12  C   UNL A   1      31.797  28.428  24.373  1.00  0.00    -0.030 A 
ATOM     13  C   UNL A   1      33.031  26.131  23.304  1.00  0.00     0.067 A 
ATOM     14  C   UNL A   1      31.029  29.565  25.001  1.00  0.00     0.046 C 
ATOM     15  C   UNL A   1      33.657  24.919  22.752  1.00  0.00     0.200 A 
ATOM     16  C   UNL A   1      33.330  26.519  24.604  1.00  0.00     0.153 A 
ATOM     17  O   UNL A   1      33.474  24.575  21.592  1.00  0.00    -0.288 OA
ATOM     18  C   UNL A   1      34.495  24.132  23.664  1.00  0.00     0.065 A 
ATOM     19  O   UNL A   1      34.109  25.751  25.444  1.00  0.00    -0.455 OA
ATOM     20  C   UNL A   1      35.113  22.954  23.235  1.00  0.00     0.016 A 
ATOM     21  C   UNL A   1      34.639  24.576  24.974  1.00  0.00     0.138 A 
ATOM     22  C   UNL A   1      35.864  22.202  24.138  1.00  0.00     0.001 A 
ATOM     23  C   UNL A   1      35.374  23.810  25.882  1.00  0.00     0.048 A 
ATOM     24  C   UNL A   1      35.982  22.622  25.464  1.00  0.00     0.004 A 
ENDBRANCH   6   8
ENDBRANCH   5   6
ENDBRANCH   4   5
ENDBRANCH   3   4
ENDBRANCH   2   3
ENDBRANCH   1   2
BRANCH   1  25
ATOM     25  C   UNL A   1      32.219  33.253  27.425  1.00  0.00     0.261 C 
BRANCH  25  26
ATOM     26  O   UNL A   1      33.262  34.212  27.662  1.00  0.00    -0.460 OA
BRANCH  26  27
ATOM     27  C   UNL A   1      33.352  34.655  28.939  1.00  0.00     0.338 C 
ATOM     28  O   UNL A   1      32.530  35.316  29.556  1.00  0.00    -0.246 OA
BRANCH  27  29
ATOM     29  C   UNL A   1      34.542  34.061  29.579  1.00  0.00     0.060 A 
ATOM     30  C   UNL A   1      34.422  33.208  30.675  1.00  0.00     0.016 A 
ATOM     31  C   UNL A   1      35.801  34.348  29.034  1.00  0.00     0.016 A 
ATOM     32  C   UNL A   1      35.571  32.623  31.213  1.00  0.00     0.010 A 
ATOM     33  C   UNL A   1      36.946  33.759  29.572  1.00  0.00     0.010 A 
ATOM     34  C   UNL A   1      36.839  32.878  30.657  1.00  0.00    -0.014 A 
BRANCH  34  35
ATOM     35  C   UNL A   1      38.026  32.137  31.151  1.00  0.00     0.031 A 
ATOM     36  C   UNL A   1      38.609  32.405  32.508  1.00  0.00     0.074 A 
ATOM     37  C   UNL A   1      38.578  31.203  30.355  1.00  0.00     0.049 A 
ATOM     38  N   UNL A   1      39.572  31.770  33.129  1.00  0.00    -0.248 NA
ATOM     39  C   UNL A   1      38.045  33.533  33.261  1.00  0.00     0.031 C 
ATOM     40  C   UNL A   1      38.133  30.885  28.997  1.00  0.00     0.029 A 
ATOM     41  N   UNL A   1      39.622  30.341  30.575  1.00  0.00    -0.354 N 
ATOM     42  C   UNL A   1      39.715  32.403  34.356  1.00  0.00     0.074 A 
ATOM     43  C   UNL A   1      38.780  33.510  34.365  1.00  0.00     0.031 C 
ATOM     44  C   UNL A   1      38.871  29.871  28.520  1.00  0.00     0.029 A 
ATOM     45  C   UNL A   1      39.860  29.488  29.524  1.00  0.00     0.049 A 
ATOM     46  H   UNL A   1      40.151  30.334  31.405  1.00  0.00     0.167 HD
ATOM     47  C   UNL A   1      40.536  32.079  35.386  1.00  0.00     0.037 A 
ATOM     48  C   UNL A   1      40.769  28.506  29.387  1.00  0.00     0.037 A 
ATOM     49  C   UNL A   1      41.491  30.999  35.359  1.00  0.00     0.049 A 
ATOM     50  C   UNL A   1      41.703  28.205  30.527  1.00  0.00     0.074 A 
ATOM     51  C   UNL A   1      42.349  30.578  36.361  1.00  0.00     0.029 A 
ATOM     52  N   UNL A   1      41.732  30.181  34.264  1.00  0.00    -0.354 N 
ATOM     53  N   UNL A   1      41.768  28.753  31.716  1.00  0.00    -0.248 NA
ATOM     54  C   UNL A   1      42.686  27.137  30.303  1.00  0.00     0.031 C 
ATOM     55  C   UNL A   1      43.147  29.546  35.855  1.00  0.00     0.029 A 
ATOM     56  C   UNL A   1      42.743  29.277  34.558  1.00  0.00     0.049 A 
ATOM     57  H   UNL A   1      41.256  30.235  33.404  1.00  0.00     0.167 HD
ATOM     58  C   UNL A   1      42.772  28.074  32.393  1.00  0.00     0.074 A 
ATOM     59  C   UNL A   1      43.272  27.059  31.489  1.00  0.00     0.031 C 
ATOM     60  C   UNL A   1      43.238  28.271  33.652  1.00  0.00     0.037 A 
BRANCH  47  61
ATOM     61  C   UNL A   1      40.437  32.914  36.633  1.00  0.00     0.057 A 
ATOM     62  C   UNL A   1      41.378  33.915  36.906  1.00  0.00     0.134 A 
ATOM     63  C   UNL A   1      39.427  32.703  37.583  1.00  0.00     0.134 A 
ATOM     64  F   UNL A   1      42.379  34.164  36.048  1.00  0.00    -0.206 F 
ATOM     65  C   UNL A   1      41.315  34.678  38.075  1.00  0.00     0.040 A 
ATOM     66  C   UNL A   1      39.337  33.479  38.740  1.00  0.00     0.040 A 
ATOM     67  F   UNL A   1      38.490  31.764  37.381  1.00  0.00    -0.206 F 
ATOM     68  C   UNL A   1      40.287  34.467  38.990  1.00  0.00     0.006 A 
ENDBRANCH  47  61
BRANCH  48  69
ATOM     69  C   UNL A   1      40.834  27.713  28.133  1.00  0.00     0.057 A 
ATOM     70  C   UNL A   1      41.614  28.128  27.048  1.00  0.00     0.134 A 
ATOM     71  C   UNL A   1      40.157  26.493  28.011  1.00  0.00     0.134 A 
ATOM     72  F   UNL A   1      42.280  29.291  27.098  1.00  0.00    -0.206 F 
ATOM     73  C   UNL A   1      41.724  27.358  25.889  1.00  0.00     0.040 A 
ATOM     74  C   UNL A   1      40.282  25.697  26.871  1.00  0.00     0.040 A 
ATOM     75  F   UNL A   1      39.407  26.033  29.023  1.00  0.00    -0.206 F 
ATOM     76  C   UNL A   1      41.067  26.132  25.805  1.00  0.00     0.006 A 
ENDBRANCH  48  69
BRANCH  60  77
ATOM     77  C   UNL A   1      44.313  27.336  34.134  1.00  0.00     0.057 A 
ATOM     78  C   UNL A   1      43.977  26.100  34.701  1.00  0.00     0.134 A 
ATOM     79  C   UNL A   1      45.676  27.647  34.031  1.00  0.00     0.134 A 
ATOM     80  F   UNL A   1      42.692  25.739  34.841  1.00  0.00    -0.206 F 
ATOM     81  C   UNL A   1      44.956  25.204  35.137  1.00  0.00     0.040 A 
ATOM     82  C   UNL A   1      46.664  26.745  34.433  1.00  0.00     0.040 A 
ATOM     83  F   UNL A   1      46.070  28.807  33.486  1.00  0.00    -0.206 F 
ATOM     84  C   UNL A   1      46.304  25.520  34.991  1.00  0.00     0.006 A 
ENDBRANCH  60  77
ENDBRANCH  34  35
ENDBRANCH  27  29
ENDBRANCH  26  27
ENDBRANCH  25  26
ENDBRANCH   1  25
TORSDOF 14
ENDMDL
