MODEL 1
REMARK VINA RESULT:     -12.1      0.000      0.000
REMARK SMILES O=C(OCCOCCOC(=O)c1ccc2c(c1O)C(=O)c1ccccc1C2=O)c1ccc(-c2c3nc(c(-c4c(F)cccc4F)c4ccc([nH]4)c(-c4c(F)cccc4F)c4nc(c(-c5c(F)cccc5F)c5ccc2[nH]5)C=C4)C=C3)cc1
REMARK SMILES IDX 5 1 4 2 3 3 2 4 1 5 29 6 30 7 82 8 31 9 81 10 32 11 33 12
REMARK SMILES IDX 34 13 75 14 35 15 80 16 74 17 76 18 36 19 79 20 73 21 72 22
REMARK SMILES IDX 37 24 63 25 46 26 62 27 47 28 50 29 61 30 77 31 48 32 49 33
REMARK SMILES IDX 60 35 78 36 51 37 38 38 39 39 44 40 40 41 41 42 43 43 45 44
REMARK SMILES IDX 42 45 64 46 65 47 70 48 66 49 67 50 69 51 71 52 68 53 52 54
REMARK SMILES IDX 53 55 58 56 54 57 55 58 57 59 59 60 56 61 6 62 7 63 8 64
REMARK SMILES IDX 9 65 10 66 11 67 12 68 13 69 17 70 14 71 16 72 15 73 19 74
REMARK SMILES IDX 27 75 20 76 21 77 26 78 28 79 22 80 25 81 23 82 24 83 18 84
REMARK H PARENT 76 23 50 34 18 85
REMARK Flexibility Score: inf
ROOT
ATOM      1  C   UNL A   1      41.247  20.916  26.907  1.00  0.00     0.202 C 
ENDROOT
BRANCH   1   2
ATOM      2  C   UNL A   1      42.469  21.196  26.029  1.00  0.00     0.261 C 
BRANCH   2   3
ATOM      3  O   UNL A   1      42.254  22.380  25.246  1.00  0.00    -0.460 OA
BRANCH   3   4
ATOM      4  C   UNL A   1      42.847  23.586  25.394  1.00  0.00     0.338 C 
ATOM      5  O   UNL A   1      43.834  23.848  24.710  1.00  0.00    -0.246 OA
BRANCH   4   6
ATOM      6  C   UNL A   1      42.382  24.621  26.364  1.00  0.00     0.060 A 
ATOM      7  C   UNL A   1      41.417  24.405  27.352  1.00  0.00     0.016 A 
ATOM      8  C   UNL A   1      43.062  25.848  26.364  1.00  0.00     0.016 A 
ATOM      9  C   UNL A   1      41.127  25.356  28.311  1.00  0.00     0.010 A 
ATOM     10  C   UNL A   1      42.797  26.808  27.342  1.00  0.00     0.010 A 
ATOM     11  C   UNL A   1      41.837  26.547  28.325  1.00  0.00    -0.014 A 
BRANCH  11  12
ATOM     12  C   UNL A   1      41.492  27.518  29.368  1.00  0.00     0.031 A 
ATOM     13  C   UNL A   1      42.327  27.547  30.602  1.00  0.00     0.074 A 
ATOM     14  C   UNL A   1      40.524  28.418  29.126  1.00  0.00     0.049 A 
ATOM     15  N   UNL A   1      42.159  28.238  31.691  1.00  0.00    -0.248 NA
ATOM     16  C   UNL A   1      43.527  26.689  30.603  1.00  0.00     0.031 C 
ATOM     17  C   UNL A   1      39.773  28.533  27.871  1.00  0.00     0.029 A 
ATOM     18  N   UNL A   1      40.014  29.414  29.910  1.00  0.00    -0.354 N 
ATOM     19  C   UNL A   1      43.199  27.864  32.529  1.00  0.00     0.074 A 
ATOM     20  C   UNL A   1      44.010  26.904  31.817  1.00  0.00     0.031 C 
ATOM     21  C   UNL A   1      38.892  29.540  27.977  1.00  0.00     0.029 A 
ATOM     22  C   UNL A   1      38.961  30.080  29.328  1.00  0.00     0.049 A 
ATOM     23  H   UNL A   1      40.364  29.633  30.803  1.00  0.00     0.167 HD
ATOM     24  C   UNL A   1      43.422  28.282  33.793  1.00  0.00     0.037 A 
ATOM     25  C   UNL A   1      38.114  30.974  29.867  1.00  0.00     0.037 A 
ATOM     26  C   UNL A   1      42.588  29.249  34.451  1.00  0.00     0.049 A 
ATOM     27  C   UNL A   1      38.325  31.341  31.312  1.00  0.00     0.074 A 
ATOM     28  C   UNL A   1      42.686  29.744  35.735  1.00  0.00     0.029 A 
ATOM     29  N   UNL A   1      41.487  29.859  33.862  1.00  0.00    -0.354 N 
ATOM     30  N   UNL A   1      39.284  30.960  32.127  1.00  0.00    -0.248 NA
ATOM     31  C   UNL A   1      37.333  32.231  31.924  1.00  0.00     0.031 C 
ATOM     32  C   UNL A   1      41.607  30.608  35.944  1.00  0.00     0.029 A 
ATOM     33  C   UNL A   1      40.870  30.696  34.771  1.00  0.00     0.049 A 
ATOM     34  H   UNL A   1      41.191  29.717  32.934  1.00  0.00     0.167 HD
ATOM     35  C   UNL A   1      39.017  31.571  33.342  1.00  0.00     0.074 A 
ATOM     36  C   UNL A   1      37.821  32.369  33.149  1.00  0.00     0.031 C 
ATOM     37  C   UNL A   1      39.685  31.477  34.519  1.00  0.00     0.037 A 
BRANCH  24  38
ATOM     38  C   UNL A   1      44.533  27.626  34.552  1.00  0.00     0.057 A 
ATOM     39  C   UNL A   1      45.831  28.148  34.595  1.00  0.00     0.134 A 
ATOM     40  C   UNL A   1      44.291  26.435  35.248  1.00  0.00     0.134 A 
ATOM     41  F   UNL A   1      46.138  29.268  33.922  1.00  0.00    -0.206 F 
ATOM     42  C   UNL A   1      46.853  27.500  35.294  1.00  0.00     0.040 A 
ATOM     43  C   UNL A   1      45.298  25.790  35.969  1.00  0.00     0.040 A 
ATOM     44  F   UNL A   1      43.072  25.874  35.235  1.00  0.00    -0.206 F 
ATOM     45  C   UNL A   1      46.585  26.321  35.989  1.00  0.00     0.006 A 
ENDBRANCH  24  38
BRANCH  25  46
ATOM     46  C   UNL A   1      36.951  31.489  29.096  1.00  0.00     0.057 A 
ATOM     47  C   UNL A   1      36.902  32.809  28.633  1.00  0.00     0.134 A 
ATOM     48  C   UNL A   1      35.832  30.683  28.840  1.00  0.00     0.134 A 
ATOM     49  F   UNL A   1      37.929  33.641  28.858  1.00  0.00    -0.206 F 
ATOM     50  C   UNL A   1      35.778  33.314  27.975  1.00  0.00     0.040 A 
ATOM     51  C   UNL A   1      34.716  31.165  28.154  1.00  0.00     0.040 A 
ATOM     52  F   UNL A   1      35.806  29.406  29.252  1.00  0.00    -0.206 F 
ATOM     53  C   UNL A   1      34.681  32.490  27.731  1.00  0.00     0.006 A 
ENDBRANCH  25  46
BRANCH  37  54
ATOM     54  C   UNL A   1      39.144  32.273  35.666  1.00  0.00     0.057 A 
ATOM     55  C   UNL A   1      38.294  31.698  36.618  1.00  0.00     0.134 A 
ATOM     56  C   UNL A   1      39.547  33.599  35.862  1.00  0.00     0.134 A 
ATOM     57  F   UNL A   1      37.863  30.436  36.473  1.00  0.00    -0.206 F 
ATOM     58  C   UNL A   1      37.854  32.423  37.725  1.00  0.00     0.040 A 
ATOM     59  C   UNL A   1      39.139  34.323  36.980  1.00  0.00     0.040 A 
ATOM     60  F   UNL A   1      40.370  34.197  34.987  1.00  0.00    -0.206 F 
ATOM     61  C   UNL A   1      38.288  33.734  37.914  1.00  0.00     0.006 A 
ENDBRANCH  37  54
ENDBRANCH  11  12
ENDBRANCH   4   6
ENDBRANCH   3   4
ENDBRANCH   2   3
ENDBRANCH   1   2
BRANCH   1  62
ATOM     62  O   UNL A   1      40.030  20.718  26.192  1.00  0.00    -0.374 OA
BRANCH  62  63
ATOM     63  C   UNL A   1      39.127  21.827  26.118  1.00  0.00     0.202 C 
BRANCH  63  64
ATOM     64  C   UNL A   1      37.891  21.384  25.330  1.00  0.00     0.261 C 
BRANCH  64  65
ATOM     65  O   UNL A   1      36.771  22.127  25.835  1.00  0.00    -0.460 OA
BRANCH  65  66
ATOM     66  C   UNL A   1      35.561  21.725  25.351  1.00  0.00     0.342 C 
ATOM     67  O   UNL A   1      35.089  20.610  25.380  1.00  0.00    -0.246 OA
BRANCH  66  68
ATOM     68  C   UNL A   1      34.815  22.943  24.953  1.00  0.00     0.102 A 
ATOM     69  C   UNL A   1      35.144  23.527  23.717  1.00  0.00     0.020 A 
ATOM     70  C   UNL A   1      33.819  23.513  25.755  1.00  0.00     0.142 A 
ATOM     71  C   UNL A   1      34.510  24.697  23.300  1.00  0.00     0.014 A 
ATOM     72  C   UNL A   1      33.219  24.710  25.357  1.00  0.00     0.076 A 
ATOM     73  C   UNL A   1      33.583  25.310  24.147  1.00  0.00     0.037 A 
ATOM     74  C   UNL A   1      32.251  25.411  26.228  1.00  0.00     0.198 C 
ATOM     75  C   UNL A   1      33.075  26.658  23.814  1.00  0.00     0.194 C 
ATOM     76  O   UNL A   1      31.510  24.835  27.011  1.00  0.00    -0.288 OA
ATOM     77  C   UNL A   1      32.204  26.874  26.123  1.00  0.00     0.034 A 
ATOM     78  C   UNL A   1      32.575  27.488  24.928  1.00  0.00     0.034 A 
ATOM     79  O   UNL A   1      33.153  27.098  22.674  1.00  0.00    -0.289 OA
ATOM     80  C   UNL A   1      31.822  27.636  27.229  1.00  0.00     0.013 A 
ATOM     81  C   UNL A   1      32.541  28.879  24.821  1.00  0.00     0.013 A 
ATOM     82  C   UNL A   1      31.822  29.025  27.133  1.00  0.00     0.001 A 
ATOM     83  C   UNL A   1      32.172  29.644  25.930  1.00  0.00     0.001 A 
BRANCH  70  84
ATOM     84  O   UNL A   1      33.466  22.970  26.960  1.00  0.00    -0.506 OA
ATOM     85  H   UNL A   1      32.959  22.182  26.988  1.00  0.00     0.293 HD
ENDBRANCH  70  84
ENDBRANCH  66  68
ENDBRANCH  65  66
ENDBRANCH  64  65
ENDBRANCH  63  64
ENDBRANCH  62  63
ENDBRANCH   1  62
TORSDOF 15
ENDMDL
MODEL 2
REMARK VINA RESULT:     -11.8      4.626     10.522
REMARK SMILES O=C(OCCOCCOC(=O)c1ccc2c(c1O)C(=O)c1ccccc1C2=O)c1ccc(-c2c3nc(c(-c4c(F)cccc4F)c4ccc([nH]4)c(-c4c(F)cccc4F)c4nc(c(-c5c(F)cccc5F)c5ccc2[nH]5)C=C4)C=C3)cc1
REMARK SMILES IDX 5 1 4 2 3 3 2 4 1 5 29 6 30 7 82 8 31 9 81 10 32 11 33 12
REMARK SMILES IDX 34 13 75 14 35 15 80 16 74 17 76 18 36 19 79 20 73 21 72 22
REMARK SMILES IDX 37 24 63 25 46 26 62 27 47 28 50 29 61 30 77 31 48 32 49 33
REMARK SMILES IDX 60 35 78 36 51 37 38 38 39 39 44 40 40 41 41 42 43 43 45 44
REMARK SMILES IDX 42 45 64 46 65 47 70 48 66 49 67 50 69 51 71 52 68 53 52 54
REMARK SMILES IDX 53 55 58 56 54 57 55 58 57 59 59 60 56 61 6 62 7 63 8 64
REMARK SMILES IDX 9 65 10 66 11 67 12 68 13 69 17 70 14 71 16 72 15 73 19 74
REMARK SMILES IDX 27 75 20 76 21 77 26 78 28 79 22 80 25 81 23 82 24 83 18 84
REMARK H PARENT 76 23 50 34 18 85
REMARK Flexibility Score: inf
ROOT
ATOM      1  C   UNL A   1      33.963  34.069  28.384  1.00  0.00     0.202 C 
ENDROOT
BRANCH   1   2
ATOM      2  C   UNL A   1      34.857  32.831  28.288  1.00  0.00     0.261 C 
BRANCH   2   3
ATOM      3  O   UNL A   1      34.053  31.650  28.148  1.00  0.00    -0.460 OA
BRANCH   3   4
ATOM      4  C   UNL A   1      34.475  30.386  27.926  1.00  0.00     0.338 C 
ATOM      5  O   UNL A   1      33.655  29.540  27.575  1.00  0.00    -0.246 OA
BRANCH   4   6
ATOM      6  C   UNL A   1      35.891  29.946  28.104  1.00  0.00     0.060 A 
ATOM      7  C   UNL A   1      36.886  30.062  27.130  1.00  0.00     0.016 A 
ATOM      8  C   UNL A   1      36.268  29.514  29.384  1.00  0.00     0.016 A 
ATOM      9  C   UNL A   1      38.209  29.768  27.398  1.00  0.00     0.010 A 
ATOM     10  C   UNL A   1      37.605  29.238  29.676  1.00  0.00     0.010 A 
ATOM     11  C   UNL A   1      38.575  29.383  28.678  1.00  0.00    -0.014 A 
BRANCH  11  12
ATOM     12  C   UNL A   1      39.993  29.090  28.909  1.00  0.00     0.031 A 
ATOM     13  C   UNL A   1      40.833  30.144  29.542  1.00  0.00     0.074 A 
ATOM     14  C   UNL A   1      40.451  27.852  28.655  1.00  0.00     0.049 A 
ATOM     15  N   UNL A   1      42.117  30.156  29.752  1.00  0.00    -0.248 NA
ATOM     16  C   UNL A   1      40.126  31.347  30.021  1.00  0.00     0.031 C 
ATOM     17  C   UNL A   1      39.635  26.732  28.174  1.00  0.00     0.029 A 
ATOM     18  N   UNL A   1      41.704  27.320  28.778  1.00  0.00    -0.354 N 
ATOM     19  C   UNL A   1      42.384  31.383  30.339  1.00  0.00     0.074 A 
ATOM     20  C   UNL A   1      41.128  32.083  30.478  1.00  0.00     0.031 C 
ATOM     21  C   UNL A   1      40.414  25.648  28.035  1.00  0.00     0.029 A 
ATOM     22  C   UNL A   1      41.790  26.021  28.336  1.00  0.00     0.049 A 
ATOM     23  H   UNL A   1      42.469  27.818  29.145  1.00  0.00     0.167 HD
ATOM     24  C   UNL A   1      43.589  31.873  30.699  1.00  0.00     0.037 A 
ATOM     25  C   UNL A   1      42.879  25.257  28.139  1.00  0.00     0.037 A 
ATOM     26  C   UNL A   1      44.809  31.129  30.547  1.00  0.00     0.049 A 
ATOM     27  C   UNL A   1      44.217  25.870  28.450  1.00  0.00     0.074 A 
ATOM     28  C   UNL A   1      46.099  31.513  30.850  1.00  0.00     0.029 A 
ATOM     29  N   UNL A   1      44.876  29.839  30.035  1.00  0.00    -0.354 N 
ATOM     30  N   UNL A   1      44.483  27.049  28.968  1.00  0.00    -0.248 NA
ATOM     31  C   UNL A   1      45.406  25.073  28.129  1.00  0.00     0.031 C 
ATOM     32  C   UNL A   1      46.955  30.478  30.462  1.00  0.00     0.029 A 
ATOM     33  C   UNL A   1      46.192  29.426  29.973  1.00  0.00     0.049 A 
ATOM     34  H   UNL A   1      44.101  29.299  29.759  1.00  0.00     0.167 HD
ATOM     35  C   UNL A   1      45.865  27.129  29.044  1.00  0.00     0.074 A 
ATOM     36  C   UNL A   1      46.381  25.869  28.544  1.00  0.00     0.031 C 
ATOM     37  C   UNL A   1      46.647  28.151  29.474  1.00  0.00     0.037 A 
BRANCH  24  38
ATOM     38  C   UNL A   1      43.643  33.289  31.185  1.00  0.00     0.057 A 
ATOM     39  C   UNL A   1      43.607  33.624  32.543  1.00  0.00     0.134 A 
ATOM     40  C   UNL A   1      43.723  34.339  30.261  1.00  0.00     0.134 A 
ATOM     41  F   UNL A   1      43.497  32.668  33.478  1.00  0.00    -0.206 F 
ATOM     42  C   UNL A   1      43.636  34.956  32.965  1.00  0.00     0.040 A 
ATOM     43  C   UNL A   1      43.775  35.671  30.670  1.00  0.00     0.040 A 
ATOM     44  F   UNL A   1      43.745  34.085  28.943  1.00  0.00    -0.206 F 
ATOM     45  C   UNL A   1      43.727  35.983  32.026  1.00  0.00     0.006 A 
ENDBRANCH  24  38
BRANCH  25  46
ATOM     46  C   UNL A   1      42.765  23.904  27.529  1.00  0.00     0.057 A 
ATOM     47  C   UNL A   1      42.852  23.712  26.146  1.00  0.00     0.134 A 
ATOM     48  C   UNL A   1      42.519  22.770  28.317  1.00  0.00     0.134 A 
ATOM     49  F   UNL A   1      43.067  24.755  25.332  1.00  0.00    -0.206 F 
ATOM     50  C   UNL A   1      42.669  22.453  25.568  1.00  0.00     0.040 A 
ATOM     51  C   UNL A   1      42.368  21.501  27.755  1.00  0.00     0.040 A 
ATOM     52  F   UNL A   1      42.424  22.876  29.651  1.00  0.00    -0.206 F 
ATOM     53  C   UNL A   1      42.429  21.342  26.374  1.00  0.00     0.006 A 
ENDBRANCH  25  46
BRANCH  37  54
ATOM     54  C   UNL A   1      48.127  27.930  29.438  1.00  0.00     0.057 A 
ATOM     55  C   UNL A   1      48.899  28.329  28.341  1.00  0.00     0.134 A 
ATOM     56  C   UNL A   1      48.790  27.389  30.545  1.00  0.00     0.134 A 
ATOM     57  F   UNL A   1      48.315  28.838  27.246  1.00  0.00    -0.206 F 
ATOM     58  C   UNL A   1      50.287  28.188  28.344  1.00  0.00     0.040 A 
ATOM     59  C   UNL A   1      50.178  27.273  30.573  1.00  0.00     0.040 A 
ATOM     60  F   UNL A   1      48.101  27.000  31.629  1.00  0.00    -0.206 F 
ATOM     61  C   UNL A   1      50.930  27.672  29.468  1.00  0.00     0.006 A 
ENDBRANCH  37  54
ENDBRANCH  11  12
ENDBRANCH   4   6
ENDBRANCH   3   4
ENDBRANCH   2   3
ENDBRANCH   1   2
BRANCH   1  62
ATOM     62  O   UNL A   1      34.342  35.003  29.392  1.00  0.00    -0.374 OA
BRANCH  62  63
ATOM     63  C   UNL A   1      33.341  35.383  30.342  1.00  0.00     0.202 C 
BRANCH  63  64
ATOM     64  C   UNL A   1      33.987  35.410  31.730  1.00  0.00     0.261 C 
BRANCH  64  65
ATOM     65  O   UNL A   1      35.150  34.570  31.679  1.00  0.00    -0.460 OA
BRANCH  65  66
ATOM     66  C   UNL A   1      34.932  33.277  32.052  1.00  0.00     0.342 C 
ATOM     67  O   UNL A   1      33.974  32.584  31.784  1.00  0.00    -0.246 OA
BRANCH  66  68
ATOM     68  C   UNL A   1      36.177  32.779  32.684  1.00  0.00     0.102 A 
ATOM     69  C   UNL A   1      37.061  33.737  33.210  1.00  0.00     0.020 A 
ATOM     70  C   UNL A   1      36.488  31.416  32.767  1.00  0.00     0.142 A 
ATOM     71  C   UNL A   1      38.270  33.341  33.782  1.00  0.00     0.014 A 
ATOM     72  C   UNL A   1      37.720  31.025  33.298  1.00  0.00     0.076 A 
ATOM     73  C   UNL A   1      38.614  31.986  33.779  1.00  0.00     0.037 A 
ATOM     74  C   UNL A   1      38.141  29.607  33.295  1.00  0.00     0.198 C 
ATOM     75  C   UNL A   1      39.980  31.583  34.178  1.00  0.00     0.194 C 
ATOM     76  O   UNL A   1      37.358  28.672  33.372  1.00  0.00    -0.288 OA
ATOM     77  C   UNL A   1      39.582  29.345  33.192  1.00  0.00     0.034 A 
ATOM     78  C   UNL A   1      40.487  30.298  33.655  1.00  0.00     0.034 A 
ATOM     79  O   UNL A   1      40.690  32.329  34.838  1.00  0.00    -0.289 OA
ATOM     80  C   UNL A   1      40.030  28.163  32.600  1.00  0.00     0.013 A 
ATOM     81  C   UNL A   1      41.859  30.062  33.555  1.00  0.00     0.013 A 
ATOM     82  C   UNL A   1      41.398  27.943  32.467  1.00  0.00     0.001 A 
ATOM     83  C   UNL A   1      42.310  28.886  32.951  1.00  0.00     0.001 A 
BRANCH  70  84
ATOM     84  O   UNL A   1      35.649  30.455  32.273  1.00  0.00    -0.506 OA
ATOM     85  H   UNL A   1      34.910  30.701  31.753  1.00  0.00     0.293 HD
ENDBRANCH  70  84
ENDBRANCH  66  68
ENDBRANCH  65  66
ENDBRANCH  64  65
ENDBRANCH  63  64
ENDBRANCH  62  63
ENDBRANCH   1  62
TORSDOF 15
ENDMDL
MODEL 3
REMARK VINA RESULT:     -11.7      4.016      7.846
REMARK SMILES O=C(OCCOCCOC(=O)c1ccc2c(c1O)C(=O)c1ccccc1C2=O)c1ccc(-c2c3nc(c(-c4c(F)cccc4F)c4ccc([nH]4)c(-c4c(F)cccc4F)c4nc(c(-c5c(F)cccc5F)c5ccc2[nH]5)C=C4)C=C3)cc1
REMARK SMILES IDX 5 1 4 2 3 3 2 4 1 5 29 6 30 7 82 8 31 9 81 10 32 11 33 12
REMARK SMILES IDX 34 13 75 14 35 15 80 16 74 17 76 18 36 19 79 20 73 21 72 22
REMARK SMILES IDX 37 24 63 25 46 26 62 27 47 28 50 29 61 30 77 31 48 32 49 33
REMARK SMILES IDX 60 35 78 36 51 37 38 38 39 39 44 40 40 41 41 42 43 43 45 44
REMARK SMILES IDX 42 45 64 46 65 47 70 48 66 49 67 50 69 51 71 52 68 53 52 54
REMARK SMILES IDX 53 55 58 56 54 57 55 58 57 59 59 60 56 61 6 62 7 63 8 64
REMARK SMILES IDX 9 65 10 66 11 67 12 68 13 69 17 70 14 71 16 72 15 73 19 74
REMARK SMILES IDX 27 75 20 76 21 77 26 78 28 79 22 80 25 81 23 82 24 83 18 84
REMARK H PARENT 76 23 50 34 18 85
REMARK Flexibility Score: inf
ROOT
ATOM      1  C   UNL A   1      38.131  21.122  25.366  1.00  0.00     0.202 C 
ENDROOT
BRANCH   1   2
ATOM      2  C   UNL A   1      38.744  19.764  25.019  1.00  0.00     0.261 C 
BRANCH   2   3
ATOM      3  O   UNL A   1      39.671  19.365  26.038  1.00  0.00    -0.460 OA
BRANCH   3   4
ATOM      4  C   UNL A   1      41.009  19.556  26.058  1.00  0.00     0.338 C 
ATOM      5  O   UNL A   1      41.746  18.618  25.762  1.00  0.00    -0.246 OA
BRANCH   4   6
ATOM      6  C   UNL A   1      41.652  20.848  26.443  1.00  0.00     0.060 A 
ATOM      7  C   UNL A   1      41.910  21.900  25.560  1.00  0.00     0.016 A 
ATOM      8  C   UNL A   1      41.885  21.062  27.810  1.00  0.00     0.016 A 
ATOM      9  C   UNL A   1      42.377  23.123  25.997  1.00  0.00     0.010 A 
ATOM     10  C   UNL A   1      42.333  22.302  28.269  1.00  0.00     0.010 A 
ATOM     11  C   UNL A   1      42.562  23.336  27.355  1.00  0.00    -0.014 A 
BRANCH  11  12
ATOM     12  C   UNL A   1      43.054  24.655  27.764  1.00  0.00     0.031 A 
ATOM     13  C   UNL A   1      42.059  25.661  28.227  1.00  0.00     0.074 A 
ATOM     14  C   UNL A   1      44.381  24.866  27.822  1.00  0.00     0.049 A 
ATOM     15  N   UNL A   1      42.239  26.912  28.539  1.00  0.00    -0.248 NA
ATOM     16  C   UNL A   1      40.669  25.191  28.374  1.00  0.00     0.031 C 
ATOM     17  C   UNL A   1      45.409  23.863  27.523  1.00  0.00     0.029 A 
ATOM     18  N   UNL A   1      45.094  25.981  28.164  1.00  0.00    -0.354 N 
ATOM     19  C   UNL A   1      40.982  27.394  28.870  1.00  0.00     0.074 A 
ATOM     20  C   UNL A   1      40.047  26.299  28.747  1.00  0.00     0.031 C 
ATOM     21  C   UNL A   1      46.622  24.415  27.688  1.00  0.00     0.029 A 
ATOM     22  C   UNL A   1      46.452  25.823  28.020  1.00  0.00     0.049 A 
ATOM     23  H   UNL A   1      44.677  26.814  28.480  1.00  0.00     0.167 HD
ATOM     24  C   UNL A   1      40.655  28.657  29.220  1.00  0.00     0.037 A 
ATOM     25  C   UNL A   1      47.429  26.744  28.085  1.00  0.00     0.037 A 
ATOM     26  C   UNL A   1      41.628  29.707  29.337  1.00  0.00     0.049 A 
ATOM     27  C   UNL A   1      47.021  28.164  28.372  1.00  0.00     0.074 A 
ATOM     28  C   UNL A   1      41.432  31.034  29.661  1.00  0.00     0.029 A 
ATOM     29  N   UNL A   1      42.990  29.536  29.121  1.00  0.00    -0.354 N 
ATOM     30  N   UNL A   1      45.827  28.639  28.647  1.00  0.00    -0.248 NA
ATOM     31  C   UNL A   1      48.078  29.181  28.333  1.00  0.00     0.031 C 
ATOM     32  C   UNL A   1      42.669  31.681  29.579  1.00  0.00     0.029 A 
ATOM     33  C   UNL A   1      43.644  30.744  29.262  1.00  0.00     0.049 A 
ATOM     34  H   UNL A   1      43.425  28.681  28.901  1.00  0.00     0.167 HD
ATOM     35  C   UNL A   1      45.990  30.004  28.823  1.00  0.00     0.074 A 
ATOM     36  C   UNL A   1      47.404  30.277  28.651  1.00  0.00     0.031 C 
ATOM     37  C   UNL A   1      45.060  30.955  29.089  1.00  0.00     0.037 A 
BRANCH  24  38
ATOM     38  C   UNL A   1      39.202  28.972  29.393  1.00  0.00     0.057 A 
ATOM     39  C   UNL A   1      38.538  28.828  30.617  1.00  0.00     0.134 A 
ATOM     40  C   UNL A   1      38.452  29.422  28.299  1.00  0.00     0.134 A 
ATOM     41  F   UNL A   1      39.190  28.369  31.696  1.00  0.00    -0.206 F 
ATOM     42  C   UNL A   1      37.175  29.109  30.742  1.00  0.00     0.040 A 
ATOM     43  C   UNL A   1      37.096  29.728  28.416  1.00  0.00     0.040 A 
ATOM     44  F   UNL A   1      39.026  29.567  27.094  1.00  0.00    -0.206 F 
ATOM     45  C   UNL A   1      36.452  29.567  29.641  1.00  0.00     0.006 A 
ENDBRANCH  24  38
BRANCH  25  46
ATOM     46  C   UNL A   1      48.840  26.387  27.773  1.00  0.00     0.057 A 
ATOM     47  C   UNL A   1      49.329  26.404  26.461  1.00  0.00     0.134 A 
ATOM     48  C   UNL A   1      49.727  25.975  28.778  1.00  0.00     0.134 A 
ATOM     49  F   UNL A   1      48.530  26.769  25.448  1.00  0.00    -0.206 F 
ATOM     50  C   UNL A   1      50.630  25.996  26.159  1.00  0.00     0.040 A 
ATOM     51  C   UNL A   1      51.040  25.597  28.494  1.00  0.00     0.040 A 
ATOM     52  F   UNL A   1      49.330  25.935  30.060  1.00  0.00    -0.206 F 
ATOM     53  C   UNL A   1      51.491  25.594  27.178  1.00  0.00     0.006 A 
ENDBRANCH  25  46
BRANCH  37  54
ATOM     54  C   UNL A   1      45.555  32.361  29.229  1.00  0.00     0.057 A 
ATOM     55  C   UNL A   1      45.571  33.242  28.142  1.00  0.00     0.134 A 
ATOM     56  C   UNL A   1      45.938  32.857  30.481  1.00  0.00     0.134 A 
ATOM     57  F   UNL A   1      45.229  32.818  26.916  1.00  0.00    -0.206 F 
ATOM     58  C   UNL A   1      45.963  34.572  28.294  1.00  0.00     0.040 A 
ATOM     59  C   UNL A   1      46.301  34.191  30.652  1.00  0.00     0.040 A 
ATOM     60  F   UNL A   1      45.931  32.060  31.561  1.00  0.00    -0.206 F 
ATOM     61  C   UNL A   1      46.315  35.052  29.555  1.00  0.00     0.006 A 
ENDBRANCH  37  54
ENDBRANCH  11  12
ENDBRANCH   4   6
ENDBRANCH   3   4
ENDBRANCH   2   3
ENDBRANCH   1   2
BRANCH   1  62
ATOM     62  O   UNL A   1      37.027  21.506  24.550  1.00  0.00    -0.374 OA
BRANCH  62  63
ATOM     63  C   UNL A   1      35.833  21.927  25.219  1.00  0.00     0.202 C 
BRANCH  63  64
ATOM     64  C   UNL A   1      34.984  20.685  25.508  1.00  0.00     0.261 C 
BRANCH  64  65
ATOM     65  O   UNL A   1      34.142  20.466  24.365  1.00  0.00    -0.460 OA
BRANCH  65  66
ATOM     66  C   UNL A   1      32.806  20.503  24.633  1.00  0.00     0.342 C 
ATOM     67  O   UNL A   1      32.139  19.650  25.177  1.00  0.00    -0.246 OA
BRANCH  66  68
ATOM     68  C   UNL A   1      32.328  21.872  24.321  1.00  0.00     0.102 A 
ATOM     69  C   UNL A   1      32.491  22.328  23.002  1.00  0.00     0.020 A 
ATOM     70  C   UNL A   1      31.735  22.700  25.283  1.00  0.00     0.142 A 
ATOM     71  C   UNL A   1      32.101  23.620  22.651  1.00  0.00     0.014 A 
ATOM     72  C   UNL A   1      31.388  24.009  24.940  1.00  0.00     0.076 A 
ATOM     73  C   UNL A   1      31.594  24.472  23.637  1.00  0.00     0.037 A 
ATOM     74  C   UNL A   1      30.872  24.956  25.952  1.00  0.00     0.198 C 
ATOM     75  C   UNL A   1      31.388  25.902  23.324  1.00  0.00     0.194 C 
ATOM     76  O   UNL A   1      30.217  24.612  26.924  1.00  0.00    -0.288 OA
ATOM     77  C   UNL A   1      31.181  26.377  25.748  1.00  0.00     0.034 A 
ATOM     78  C   UNL A   1      31.402  26.851  24.456  1.00  0.00     0.034 A 
ATOM     79  O   UNL A   1      31.302  26.290  22.167  1.00  0.00    -0.289 OA
ATOM     80  C   UNL A   1      31.286  27.228  26.849  1.00  0.00     0.013 A 
ATOM     81  C   UNL A   1      31.704  28.198  24.252  1.00  0.00     0.013 A 
ATOM     82  C   UNL A   1      31.623  28.564  26.649  1.00  0.00     0.001 A 
ATOM     83  C   UNL A   1      31.823  29.050  25.353  1.00  0.00     0.001 A 
BRANCH  70  84
ATOM     84  O   UNL A   1      31.552  22.288  26.575  1.00  0.00    -0.506 OA
ATOM     85  H   UNL A   1      31.628  21.379  26.791  1.00  0.00     0.293 HD
ENDBRANCH  70  84
ENDBRANCH  66  68
ENDBRANCH  65  66
ENDBRANCH  64  65
ENDBRANCH  63  64
ENDBRANCH  62  63
ENDBRANCH   1  62
TORSDOF 15
ENDMDL
