MODEL 1
REMARK VINA RESULT:     -10.3      0.000      0.000
REMARK SMILES O=C(OCCOCCOC(=O)[C@@H]([NH2+]CC1CC1)c1cccc(C2CC2)c1)c1ccc(-c2c3nc(c(-c4c(F)cccc4F)c4ccc([nH]4)c(-c4c(F)cccc4F)c4nc(c(-c5c(F)cccc5F)c5ccc2[nH]5)C=C4)C=C3)cc1
REMARK SMILES IDX 7 1 6 2 5 3 4 4 3 5 2 6 1 7 27 8 28 9 80 10 29 11 79 12
REMARK SMILES IDX 30 13 31 14 32 15 73 16 33 17 78 18 72 19 74 20 34 21 77 22
REMARK SMILES IDX 71 23 70 24 35 26 61 27 44 28 60 29 45 30 48 31 59 32 75 33
REMARK SMILES IDX 46 34 47 35 58 37 76 38 49 39 36 40 37 41 42 42 38 43 39 44
REMARK SMILES IDX 41 45 43 46 40 47 62 48 63 49 68 50 64 51 65 52 67 53 69 54
REMARK SMILES IDX 66 55 50 56 51 57 56 58 52 59 53 60 55 61 57 62 54 63 8 64
REMARK SMILES IDX 9 65 10 66 11 67 12 68 13 69 14 72 15 73 16 74 17 75 18 76
REMARK SMILES IDX 19 77 26 78 20 79 22 80 21 81 23 82 24 83 25 84
REMARK H PARENT 74 25 48 36 13 70 13 71
REMARK Flexibility Score: inf
ROOT
ATOM      1  C   UNL A   1      33.112  30.210  27.036  1.00  0.00     0.202 C 
ENDROOT
BRANCH   1   2
ATOM      2  O   UNL A   1      31.739  30.490  26.769  1.00  0.00    -0.374 OA
BRANCH   2   3
ATOM      3  C   UNL A   1      31.355  31.859  26.871  1.00  0.00     0.202 C 
BRANCH   3   4
ATOM      4  C   UNL A   1      32.538  32.828  26.880  1.00  0.00     0.261 C 
BRANCH   4   5
ATOM      5  O   UNL A   1      32.231  33.977  27.684  1.00  0.00    -0.460 OA
BRANCH   5   6
ATOM      6  C   UNL A   1      33.040  34.615  28.559  1.00  0.00     0.338 C 
ATOM      7  O   UNL A   1      32.726  35.743  28.937  1.00  0.00    -0.246 OA
BRANCH   6   8
ATOM      8  C   UNL A   1      34.258  33.994  29.164  1.00  0.00     0.060 A 
ATOM      9  C   UNL A   1      35.572  34.402  28.934  1.00  0.00     0.016 A 
ATOM     10  C   UNL A   1      34.044  32.963  30.096  1.00  0.00     0.016 A 
ATOM     11  C   UNL A   1      36.642  33.801  29.567  1.00  0.00     0.010 A 
ATOM     12  C   UNL A   1      35.117  32.357  30.756  1.00  0.00     0.010 A 
ATOM     13  C   UNL A   1      36.419  32.776  30.477  1.00  0.00    -0.014 A 
BRANCH  13  14
ATOM     14  C   UNL A   1      37.612  32.101  31.001  1.00  0.00     0.031 A 
ATOM     15  C   UNL A   1      37.993  32.360  32.421  1.00  0.00     0.074 A 
ATOM     16  C   UNL A   1      38.178  31.125  30.271  1.00  0.00     0.049 A 
ATOM     17  N   UNL A   1      38.980  31.866  33.113  1.00  0.00    -0.248 NA
ATOM     18  C   UNL A   1      37.124  33.283  33.175  1.00  0.00     0.031 C 
ATOM     19  C   UNL A   1      37.733  30.706  28.939  1.00  0.00     0.029 A 
ATOM     20  N   UNL A   1      39.204  30.273  30.566  1.00  0.00    -0.354 N 
ATOM     21  C   UNL A   1      38.871  32.438  34.373  1.00  0.00     0.074 A 
ATOM     22  C   UNL A   1      37.715  33.303  34.359  1.00  0.00     0.031 C 
ATOM     23  C   UNL A   1      38.464  29.652  28.546  1.00  0.00     0.029 A 
ATOM     24  C   UNL A   1      39.469  29.371  29.564  1.00  0.00     0.049 A 
ATOM     25  H   UNL A   1      39.704  30.301  31.414  1.00  0.00     0.167 HD
ATOM     26  C   UNL A   1      39.686  32.259  35.435  1.00  0.00     0.037 A 
ATOM     27  C   UNL A   1      40.443  28.447  29.483  1.00  0.00     0.037 A 
ATOM     28  C   UNL A   1      40.833  31.394  35.403  1.00  0.00     0.049 A 
ATOM     29  C   UNL A   1      41.398  28.342  30.639  1.00  0.00     0.074 A 
ATOM     30  C   UNL A   1      41.810  31.205  36.361  1.00  0.00     0.029 A 
ATOM     31  N   UNL A   1      41.146  30.563  34.333  1.00  0.00    -0.354 N 
ATOM     32  N   UNL A   1      41.371  28.973  31.790  1.00  0.00    -0.248 NA
ATOM     33  C   UNL A   1      42.534  27.427  30.479  1.00  0.00     0.031 C 
ATOM     34  C   UNL A   1      42.734  30.282  35.855  1.00  0.00     0.029 A 
ATOM     35  C   UNL A   1      42.309  29.867  34.600  1.00  0.00     0.049 A 
ATOM     36  H   UNL A   1      40.618  30.482  33.507  1.00  0.00     0.167 HD
ATOM     37  C   UNL A   1      42.481  28.534  32.493  1.00  0.00     0.074 A 
ATOM     38  C   UNL A   1      43.146  27.560  31.647  1.00  0.00     0.031 C 
ATOM     39  C   UNL A   1      42.927  28.906  33.720  1.00  0.00     0.037 A 
BRANCH  26  40
ATOM     40  C   UNL A   1      39.404  33.091  36.648  1.00  0.00     0.057 A 
ATOM     41  C   UNL A   1      40.028  34.325  36.871  1.00  0.00     0.134 A 
ATOM     42  C   UNL A   1      38.544  32.611  37.644  1.00  0.00     0.134 A 
ATOM     43  F   UNL A   1      40.892  34.822  35.973  1.00  0.00    -0.206 F 
ATOM     44  C   UNL A   1      39.823  35.042  38.053  1.00  0.00     0.040 A 
ATOM     45  C   UNL A   1      38.318  33.326  38.821  1.00  0.00     0.040 A 
ATOM     46  F   UNL A   1      37.930  31.428  37.500  1.00  0.00    -0.206 F 
ATOM     47  C   UNL A   1      38.965  34.542  39.032  1.00  0.00     0.006 A 
ENDBRANCH  26  40
BRANCH  27  48
ATOM     48  C   UNL A   1      40.597  27.624  28.256  1.00  0.00     0.057 A 
ATOM     49  C   UNL A   1      40.010  26.359  28.140  1.00  0.00     0.134 A 
ATOM     50  C   UNL A   1      41.343  28.085  27.161  1.00  0.00     0.134 A 
ATOM     51  F   UNL A   1      39.301  25.848  29.158  1.00  0.00    -0.206 F 
ATOM     52  C   UNL A   1      40.163  25.583  26.989  1.00  0.00     0.040 A 
ATOM     53  C   UNL A   1      41.480  27.332  25.995  1.00  0.00     0.040 A 
ATOM     54  F   UNL A   1      41.936  29.287  27.204  1.00  0.00    -0.206 F 
ATOM     55  C   UNL A   1      40.894  26.073  25.908  1.00  0.00     0.006 A 
ENDBRANCH  27  48
BRANCH  39  56
ATOM     56  C   UNL A   1      44.176  28.243  34.204  1.00  0.00     0.057 A 
ATOM     57  C   UNL A   1      44.138  27.027  34.895  1.00  0.00     0.134 A 
ATOM     58  C   UNL A   1      45.429  28.806  33.935  1.00  0.00     0.134 A 
ATOM     59  F   UNL A   1      42.964  26.450  35.191  1.00  0.00    -0.206 F 
ATOM     60  C   UNL A   1      45.307  26.397  35.318  1.00  0.00     0.040 A 
ATOM     61  C   UNL A   1      46.606  28.175  34.333  1.00  0.00     0.040 A 
ATOM     62  F   UNL A   1      45.527  29.967  33.270  1.00  0.00    -0.206 F 
ATOM     63  C   UNL A   1      46.546  26.969  35.030  1.00  0.00     0.006 A 
ENDBRANCH  39  56
ENDBRANCH  13  14
ENDBRANCH   6   8
ENDBRANCH   5   6
ENDBRANCH   4   5
ENDBRANCH   3   4
ENDBRANCH   2   3
ENDBRANCH   1   2
BRANCH   1  64
ATOM     64  C   UNL A   1      33.386  28.722  26.837  1.00  0.00     0.261 C 
BRANCH  64  65
ATOM     65  O   UNL A   1      32.251  27.969  27.282  1.00  0.00    -0.459 OA
BRANCH  65  66
ATOM     66  C   UNL A   1      31.902  26.876  26.536  1.00  0.00     0.369 C 
ATOM     67  O   UNL A   1      31.473  25.815  26.979  1.00  0.00    -0.245 OA
BRANCH  66  68
ATOM     68  C   UNL A   1      32.073  27.170  25.022  1.00  0.00     0.324 C 
BRANCH  68  69
ATOM     69  N   UNL A   1      32.727  25.990  24.402  1.00  0.00    -0.330 N 
ATOM     70  H   UNL A   1      32.616  26.069  23.391  1.00  0.00     0.347 HD
ATOM     71  H   UNL A   1      32.267  25.180  24.820  1.00  0.00     0.347 HD
BRANCH  69  72
ATOM     72  C   UNL A   1      34.141  25.805  24.676  1.00  0.00     0.264 C 
BRANCH  72  73
ATOM     73  C   UNL A   1      34.449  24.389  25.041  1.00  0.00     0.044 C 
ATOM     74  C   UNL A   1      35.385  23.595  24.166  1.00  0.00     0.010 C 
ATOM     75  C   UNL A   1      35.822  24.022  25.538  1.00  0.00     0.010 C 
ENDBRANCH  72  73
ENDBRANCH  69  72
ENDBRANCH  68  69
BRANCH  68  76
ATOM     76  C   UNL A   1      30.710  27.550  24.475  1.00  0.00     0.021 A 
ATOM     77  C   UNL A   1      29.750  26.548  24.286  1.00  0.00     0.010 A 
ATOM     78  C   UNL A   1      30.434  28.844  24.005  1.00  0.00     0.014 A 
ATOM     79  C   UNL A   1      28.554  26.840  23.641  1.00  0.00     0.001 A 
ATOM     80  C   UNL A   1      29.222  29.183  23.387  1.00  0.00    -0.044 A 
ATOM     81  C   UNL A   1      28.296  28.141  23.203  1.00  0.00     0.004 A 
BRANCH  80  82
ATOM     82  C   UNL A   1      28.903  30.585  22.909  1.00  0.00     0.019 C 
ATOM     83  C   UNL A   1      27.691  31.349  23.391  1.00  0.00     0.009 C 
ATOM     84  C   UNL A   1      29.061  31.755  23.851  1.00  0.00     0.009 C 
ENDBRANCH  80  82
ENDBRANCH  68  76
ENDBRANCH  66  68
ENDBRANCH  65  66
ENDBRANCH  64  65
ENDBRANCH   1  64
TORSDOF 19
ENDMDL
MODEL 2
REMARK VINA RESULT:     -10.1      0.841      6.366
REMARK SMILES O=C(OCCOCCOC(=O)[C@@H]([NH2+]CC1CC1)c1cccc(C2CC2)c1)c1ccc(-c2c3nc(c(-c4c(F)cccc4F)c4ccc([nH]4)c(-c4c(F)cccc4F)c4nc(c(-c5c(F)cccc5F)c5ccc2[nH]5)C=C4)C=C3)cc1
REMARK SMILES IDX 7 1 6 2 5 3 4 4 3 5 2 6 1 7 27 8 28 9 80 10 29 11 79 12
REMARK SMILES IDX 30 13 31 14 32 15 73 16 33 17 78 18 72 19 74 20 34 21 77 22
REMARK SMILES IDX 71 23 70 24 35 26 61 27 44 28 60 29 45 30 48 31 59 32 75 33
REMARK SMILES IDX 46 34 47 35 58 37 76 38 49 39 36 40 37 41 42 42 38 43 39 44
REMARK SMILES IDX 41 45 43 46 40 47 62 48 63 49 68 50 64 51 65 52 67 53 69 54
REMARK SMILES IDX 66 55 50 56 51 57 56 58 52 59 53 60 55 61 57 62 54 63 8 64
REMARK SMILES IDX 9 65 10 66 11 67 12 68 13 69 14 72 15 73 16 74 17 75 18 76
REMARK SMILES IDX 19 77 26 78 20 79 22 80 21 81 23 82 24 83 25 84
REMARK H PARENT 74 25 48 36 13 70 13 71
REMARK Flexibility Score: inf
ROOT
ATOM      1  C   UNL A   1      32.948  30.301  27.159  1.00  0.00     0.202 C 
ENDROOT
BRANCH   1   2
ATOM      2  O   UNL A   1      31.669  30.607  26.605  1.00  0.00    -0.374 OA
BRANCH   2   3
ATOM      3  C   UNL A   1      31.265  31.971  26.700  1.00  0.00     0.202 C 
BRANCH   3   4
ATOM      4  C   UNL A   1      32.433  32.952  26.789  1.00  0.00     0.261 C 
BRANCH   4   5
ATOM      5  O   UNL A   1      32.120  34.013  27.705  1.00  0.00    -0.460 OA
BRANCH   5   6
ATOM      6  C   UNL A   1      32.946  34.613  28.591  1.00  0.00     0.338 C 
ATOM      7  O   UNL A   1      32.662  35.741  28.991  1.00  0.00    -0.246 OA
BRANCH   6   8
ATOM      8  C   UNL A   1      34.148  33.949  29.182  1.00  0.00     0.060 A 
ATOM      9  C   UNL A   1      34.121  32.911  30.112  1.00  0.00     0.016 A 
ATOM     10  C   UNL A   1      35.402  34.365  28.697  1.00  0.00     0.016 A 
ATOM     11  C   UNL A   1      35.280  32.321  30.579  1.00  0.00     0.010 A 
ATOM     12  C   UNL A   1      36.581  33.767  29.150  1.00  0.00     0.010 A 
ATOM     13  C   UNL A   1      36.512  32.748  30.102  1.00  0.00    -0.014 A 
BRANCH  13  14
ATOM     14  C   UNL A   1      37.695  32.167  30.747  1.00  0.00     0.031 A 
ATOM     15  C   UNL A   1      38.415  31.074  30.029  1.00  0.00     0.074 A 
ATOM     16  C   UNL A   1      38.208  32.775  31.830  1.00  0.00     0.049 A 
ATOM     17  N   UNL A   1      39.491  30.427  30.378  1.00  0.00    -0.248 NA
ATOM     18  C   UNL A   1      37.863  30.674  28.721  1.00  0.00     0.031 C 
ATOM     19  C   UNL A   1      37.639  33.962  32.476  1.00  0.00     0.029 A 
ATOM     20  N   UNL A   1      39.346  32.519  32.541  1.00  0.00    -0.354 N 
ATOM     21  C   UNL A   1      39.729  29.524  29.351  1.00  0.00     0.074 A 
ATOM     22  C   UNL A   1      38.698  29.714  28.358  1.00  0.00     0.031 C 
ATOM     23  C   UNL A   1      38.453  34.350  33.469  1.00  0.00     0.029 A 
ATOM     24  C   UNL A   1      39.555  33.401  33.573  1.00  0.00     0.049 A 
ATOM     25  H   UNL A   1      39.957  31.775  32.334  1.00  0.00     0.167 HD
ATOM     26  C   UNL A   1      40.718  28.607  29.270  1.00  0.00     0.037 A 
ATOM     27  C   UNL A   1      40.519  33.405  34.511  1.00  0.00     0.037 A 
ATOM     28  C   UNL A   1      41.719  28.445  30.287  1.00  0.00     0.049 A 
ATOM     29  C   UNL A   1      41.548  32.311  34.453  1.00  0.00     0.074 A 
ATOM     30  C   UNL A   1      42.707  27.486  30.393  1.00  0.00     0.029 A 
ATOM     31  N   UNL A   1      41.850  29.287  31.385  1.00  0.00    -0.354 N 
ATOM     32  N   UNL A   1      41.705  31.376  33.546  1.00  0.00    -0.248 NA
ATOM     33  C   UNL A   1      42.512  32.250  35.557  1.00  0.00     0.031 C 
ATOM     34  C   UNL A   1      43.416  27.730  31.576  1.00  0.00     0.029 A 
ATOM     35  C   UNL A   1      42.895  28.864  32.183  1.00  0.00     0.049 A 
ATOM     36  H   UNL A   1      41.282  30.070  31.568  1.00  0.00     0.167 HD
ATOM     37  C   UNL A   1      42.783  30.612  33.966  1.00  0.00     0.074 A 
ATOM     38  C   UNL A   1      43.259  31.215  35.198  1.00  0.00     0.031 C 
ATOM     39  C   UNL A   1      43.327  29.505  33.401  1.00  0.00     0.037 A 
BRANCH  26  40
ATOM     40  C   UNL A   1      40.676  27.675  28.099  1.00  0.00     0.057 A 
ATOM     41  C   UNL A   1      39.966  26.467  28.128  1.00  0.00     0.134 A 
ATOM     42  C   UNL A   1      41.419  27.960  26.946  1.00  0.00     0.134 A 
ATOM     43  F   UNL A   1      39.266  26.116  29.217  1.00  0.00    -0.206 F 
ATOM     44  C   UNL A   1      40.017  25.567  27.061  1.00  0.00     0.040 A 
ATOM     45  C   UNL A   1      41.463  27.077  25.867  1.00  0.00     0.040 A 
ATOM     46  F   UNL A   1      42.135  29.091  26.862  1.00  0.00    -0.206 F 
ATOM     47  C   UNL A   1      40.767  25.872  25.925  1.00  0.00     0.006 A 
ENDBRANCH  26  40
BRANCH  27  48
ATOM     48  C   UNL A   1      40.507  34.419  35.597  1.00  0.00     0.057 A 
ATOM     49  C   UNL A   1      41.158  35.649  35.462  1.00  0.00     0.134 A 
ATOM     50  C   UNL A   1      39.838  34.179  36.806  1.00  0.00     0.134 A 
ATOM     51  F   UNL A   1      41.835  35.936  34.340  1.00  0.00    -0.206 F 
ATOM     52  C   UNL A   1      41.152  36.598  36.488  1.00  0.00     0.040 A 
ATOM     53  C   UNL A   1      39.800  35.128  37.828  1.00  0.00     0.040 A 
ATOM     54  F   UNL A   1      39.194  33.019  37.005  1.00  0.00    -0.206 F 
ATOM     55  C   UNL A   1      40.464  36.341  37.673  1.00  0.00     0.006 A 
ENDBRANCH  27  48
BRANCH  39  56
ATOM     56  C   UNL A   1      44.497  28.902  34.111  1.00  0.00     0.057 A 
ATOM     57  C   UNL A   1      44.331  27.891  35.064  1.00  0.00     0.134 A 
ATOM     58  C   UNL A   1      45.801  29.305  33.801  1.00  0.00     0.134 A 
ATOM     59  F   UNL A   1      43.103  27.476  35.409  1.00  0.00    -0.206 F 
ATOM     60  C   UNL A   1      45.426  27.311  35.701  1.00  0.00     0.040 A 
ATOM     61  C   UNL A   1      46.905  28.717  34.415  1.00  0.00     0.040 A 
ATOM     62  F   UNL A   1      46.019  30.264  32.889  1.00  0.00    -0.206 F 
ATOM     63  C   UNL A   1      46.718  27.719  35.371  1.00  0.00     0.006 A 
ENDBRANCH  39  56
ENDBRANCH  13  14
ENDBRANCH   6   8
ENDBRANCH   5   6
ENDBRANCH   4   5
ENDBRANCH   3   4
ENDBRANCH   2   3
ENDBRANCH   1   2
BRANCH   1  64
ATOM     64  C   UNL A   1      33.168  28.791  27.151  1.00  0.00     0.261 C 
BRANCH  64  65
ATOM     65  O   UNL A   1      31.898  28.128  27.169  1.00  0.00    -0.459 OA
BRANCH  65  66
ATOM     66  C   UNL A   1      31.805  26.951  26.477  1.00  0.00     0.369 C 
ATOM     67  O   UNL A   1      31.555  25.852  26.965  1.00  0.00    -0.245 OA
BRANCH  66  68
ATOM     68  C   UNL A   1      32.010  27.190  24.957  1.00  0.00     0.324 C 
BRANCH  68  69
ATOM     69  N   UNL A   1      32.594  25.954  24.379  1.00  0.00    -0.330 N 
ATOM     70  H   UNL A   1      32.405  25.962  23.376  1.00  0.00     0.347 HD
ATOM     71  H   UNL A   1      32.155  25.187  24.890  1.00  0.00     0.347 HD
BRANCH  69  72
ATOM     72  C   UNL A   1      34.022  25.759  24.555  1.00  0.00     0.264 C 
BRANCH  72  73
ATOM     73  C   UNL A   1      34.366  24.311  24.691  1.00  0.00     0.044 C 
ATOM     74  C   UNL A   1      35.809  23.917  24.871  1.00  0.00     0.010 C 
ATOM     75  C   UNL A   1      34.843  23.772  26.013  1.00  0.00     0.010 C 
ENDBRANCH  72  73
ENDBRANCH  69  72
ENDBRANCH  68  69
BRANCH  68  76
ATOM     76  C   UNL A   1      30.679  27.640  24.384  1.00  0.00     0.021 A 
ATOM     77  C   UNL A   1      29.649  26.701  24.238  1.00  0.00     0.010 A 
ATOM     78  C   UNL A   1      30.498  28.926  23.850  1.00  0.00     0.014 A 
ATOM     79  C   UNL A   1      28.479  27.046  23.572  1.00  0.00     0.001 A 
ATOM     80  C   UNL A   1      29.315  29.320  23.208  1.00  0.00    -0.044 A 
ATOM     81  C   UNL A   1      28.317  28.339  23.070  1.00  0.00     0.004 A 
BRANCH  80  82
ATOM     82  C   UNL A   1      29.099  30.716  22.660  1.00  0.00     0.019 C 
ATOM     83  C   UNL A   1      27.736  31.368  22.620  1.00  0.00     0.009 C 
ATOM     84  C   UNL A   1      28.765  31.850  23.601  1.00  0.00     0.009 C 
ENDBRANCH  80  82
ENDBRANCH  68  76
ENDBRANCH  66  68
ENDBRANCH  65  66
ENDBRANCH  64  65
ENDBRANCH   1  64
TORSDOF 19
ENDMDL
MODEL 3
REMARK VINA RESULT:      -9.9      1.049      3.341
REMARK SMILES O=C(OCCOCCOC(=O)[C@@H]([NH2+]CC1CC1)c1cccc(C2CC2)c1)c1ccc(-c2c3nc(c(-c4c(F)cccc4F)c4ccc([nH]4)c(-c4c(F)cccc4F)c4nc(c(-c5c(F)cccc5F)c5ccc2[nH]5)C=C4)C=C3)cc1
REMARK SMILES IDX 7 1 6 2 5 3 4 4 3 5 2 6 1 7 27 8 28 9 80 10 29 11 79 12
REMARK SMILES IDX 30 13 31 14 32 15 73 16 33 17 78 18 72 19 74 20 34 21 77 22
REMARK SMILES IDX 71 23 70 24 35 26 61 27 44 28 60 29 45 30 48 31 59 32 75 33
REMARK SMILES IDX 46 34 47 35 58 37 76 38 49 39 36 40 37 41 42 42 38 43 39 44
REMARK SMILES IDX 41 45 43 46 40 47 62 48 63 49 68 50 64 51 65 52 67 53 69 54
REMARK SMILES IDX 66 55 50 56 51 57 56 58 52 59 53 60 55 61 57 62 54 63 8 64
REMARK SMILES IDX 9 65 10 66 11 67 12 68 13 69 14 72 15 73 16 74 17 75 18 76
REMARK SMILES IDX 19 77 26 78 20 79 22 80 21 81 23 82 24 83 25 84
REMARK H PARENT 74 25 48 36 13 70 13 71
REMARK Flexibility Score: inf
ROOT
ATOM      1  C   UNL A   1      32.181  29.426  27.291  1.00  0.00     0.202 C 
ENDROOT
BRANCH   1   2
ATOM      2  O   UNL A   1      32.369  30.598  26.498  1.00  0.00    -0.374 OA
BRANCH   2   3
ATOM      3  C   UNL A   1      31.617  31.742  26.897  1.00  0.00     0.202 C 
BRANCH   3   4
ATOM      4  C   UNL A   1      32.319  33.068  26.605  1.00  0.00     0.261 C 
BRANCH   4   5
ATOM      5  O   UNL A   1      32.086  33.996  27.676  1.00  0.00    -0.460 OA
BRANCH   5   6
ATOM      6  C   UNL A   1      32.998  34.539  28.514  1.00  0.00     0.338 C 
ATOM      7  O   UNL A   1      32.807  35.679  28.934  1.00  0.00    -0.246 OA
BRANCH   6   8
ATOM      8  C   UNL A   1      34.189  33.798  29.032  1.00  0.00     0.060 A 
ATOM      9  C   UNL A   1      34.151  32.573  29.697  1.00  0.00     0.016 A 
ATOM     10  C   UNL A   1      35.449  34.358  28.756  1.00  0.00     0.016 A 
ATOM     11  C   UNL A   1      35.304  31.932  30.108  1.00  0.00     0.010 A 
ATOM     12  C   UNL A   1      36.624  33.712  29.153  1.00  0.00     0.010 A 
ATOM     13  C   UNL A   1      36.542  32.500  29.841  1.00  0.00    -0.014 A 
BRANCH  13  14
ATOM     14  C   UNL A   1      37.706  31.827  30.428  1.00  0.00     0.031 A 
ATOM     15  C   UNL A   1      37.970  32.033  31.883  1.00  0.00     0.074 A 
ATOM     16  C   UNL A   1      38.348  30.893  29.706  1.00  0.00     0.049 A 
ATOM     17  N   UNL A   1      38.912  31.528  32.630  1.00  0.00    -0.248 NA
ATOM     18  C   UNL A   1      37.026  32.906  32.604  1.00  0.00     0.031 C 
ATOM     19  C   UNL A   1      38.017  30.523  28.327  1.00  0.00     0.029 A 
ATOM     20  N   UNL A   1      39.367  30.049  30.045  1.00  0.00    -0.354 N 
ATOM     21  C   UNL A   1      38.693  32.044  33.899  1.00  0.00     0.074 A 
ATOM     22  C   UNL A   1      37.523  32.887  33.830  1.00  0.00     0.031 C 
ATOM     23  C   UNL A   1      38.799  29.500  27.950  1.00  0.00     0.029 A 
ATOM     24  C   UNL A   1      39.729  29.195  29.031  1.00  0.00     0.049 A 
ATOM     25  H   UNL A   1      39.800  30.051  30.929  1.00  0.00     0.167 HD
ATOM     26  C   UNL A   1      39.428  31.836  35.014  1.00  0.00     0.037 A 
ATOM     27  C   UNL A   1      40.727  28.295  28.988  1.00  0.00     0.037 A 
ATOM     28  C   UNL A   1      40.593  30.995  35.036  1.00  0.00     0.049 A 
ATOM     29  C   UNL A   1      41.592  28.159  30.209  1.00  0.00     0.074 A 
ATOM     30  C   UNL A   1      41.497  30.784  36.058  1.00  0.00     0.029 A 
ATOM     31  N   UNL A   1      41.006  30.216  33.961  1.00  0.00    -0.354 N 
ATOM     32  N   UNL A   1      41.461  28.740  31.380  1.00  0.00    -0.248 NA
ATOM     33  C   UNL A   1      42.756  27.273  30.101  1.00  0.00     0.031 C 
ATOM     34  C   UNL A   1      42.477  29.901  35.589  1.00  0.00     0.029 A 
ATOM     35  C   UNL A   1      42.160  29.532  34.289  1.00  0.00     0.049 A 
ATOM     36  H   UNL A   1      40.545  30.161  33.093  1.00  0.00     0.167 HD
ATOM     37  C   UNL A   1      42.524  28.293  32.149  1.00  0.00     0.074 A 
ATOM     38  C   UNL A   1      43.273  27.368  31.318  1.00  0.00     0.031 C 
ATOM     39  C   UNL A   1      42.865  28.621  33.421  1.00  0.00     0.037 A 
BRANCH  26  40
ATOM     40  C   UNL A   1      39.035  32.610  36.234  1.00  0.00     0.057 A 
ATOM     41  C   UNL A   1      39.518  33.900  36.490  1.00  0.00     0.134 A 
ATOM     42  C   UNL A   1      38.212  32.023  37.203  1.00  0.00     0.134 A 
ATOM     43  F   UNL A   1      40.342  34.502  35.620  1.00  0.00    -0.206 F 
ATOM     44  C   UNL A   1      39.215  34.568  37.679  1.00  0.00     0.040 A 
ATOM     45  C   UNL A   1      37.887  32.687  38.387  1.00  0.00     0.040 A 
ATOM     46  F   UNL A   1      37.730  30.784  37.026  1.00  0.00    -0.206 F 
ATOM     47  C   UNL A   1      38.396  33.961  38.631  1.00  0.00     0.006 A 
ENDBRANCH  26  40
BRANCH  27  48
ATOM     48  C   UNL A   1      40.993  27.527  27.745  1.00  0.00     0.057 A 
ATOM     49  C   UNL A   1      41.808  28.034  26.727  1.00  0.00     0.134 A 
ATOM     50  C   UNL A   1      40.433  26.257  27.542  1.00  0.00     0.134 A 
ATOM     51  F   UNL A   1      42.358  29.252  26.846  1.00  0.00    -0.206 F 
ATOM     52  C   UNL A   1      42.050  27.314  25.554  1.00  0.00     0.040 A 
ATOM     53  C   UNL A   1      40.689  25.515  26.389  1.00  0.00     0.040 A 
ATOM     54  F   UNL A   1      39.640  25.710  28.475  1.00  0.00    -0.206 F 
ATOM     55  C   UNL A   1      41.496  26.046  25.387  1.00  0.00     0.006 A 
ENDBRANCH  27  48
BRANCH  39  56
ATOM     56  C   UNL A   1      44.088  27.962  33.974  1.00  0.00     0.057 A 
ATOM     57  C   UNL A   1      44.027  26.705  34.586  1.00  0.00     0.134 A 
ATOM     58  C   UNL A   1      45.341  28.572  33.849  1.00  0.00     0.134 A 
ATOM     59  F   UNL A   1      42.850  26.081  34.743  1.00  0.00    -0.206 F 
ATOM     60  C   UNL A   1      45.174  26.081  35.073  1.00  0.00     0.040 A 
ATOM     61  C   UNL A   1      46.498  27.948  34.312  1.00  0.00     0.040 A 
ATOM     62  F   UNL A   1      45.460  29.773  33.265  1.00  0.00    -0.206 F 
ATOM     63  C   UNL A   1      46.416  26.700  34.930  1.00  0.00     0.006 A 
ENDBRANCH  39  56
ENDBRANCH  13  14
ENDBRANCH   6   8
ENDBRANCH   5   6
ENDBRANCH   4   5
ENDBRANCH   3   4
ENDBRANCH   2   3
ENDBRANCH   1   2
BRANCH   1  64
ATOM     64  C   UNL A   1      32.281  28.184  26.411  1.00  0.00     0.261 C 
BRANCH  64  65
ATOM     65  O   UNL A   1      31.018  27.951  25.776  1.00  0.00    -0.459 OA
BRANCH  65  66
ATOM     66  C   UNL A   1      30.703  26.652  25.483  1.00  0.00     0.369 C 
ATOM     67  O   UNL A   1      30.467  25.771  26.304  1.00  0.00    -0.245 OA
BRANCH  66  68
ATOM     68  C   UNL A   1      30.631  26.438  23.948  1.00  0.00     0.324 C 
BRANCH  68  69
ATOM     69  N   UNL A   1      31.071  27.696  23.294  1.00  0.00    -0.330 N 
ATOM     70  H   UNL A   1      31.928  27.494  22.779  1.00  0.00     0.347 HD
ATOM     71  H   UNL A   1      31.178  28.369  24.054  1.00  0.00     0.347 HD
BRANCH  69  72
ATOM     72  C   UNL A   1      30.139  28.315  22.369  1.00  0.00     0.264 C 
BRANCH  72  73
ATOM     73  C   UNL A   1      29.041  29.028  23.090  1.00  0.00     0.044 C 
ATOM     74  C   UNL A   1      27.959  29.704  22.288  1.00  0.00     0.010 C 
ATOM     75  C   UNL A   1      27.645  28.466  23.079  1.00  0.00     0.010 C 
ENDBRANCH  72  73
ENDBRANCH  69  72
ENDBRANCH  68  69
BRANCH  68  76
ATOM     76  C   UNL A   1      31.436  25.193  23.623  1.00  0.00     0.021 A 
ATOM     77  C   UNL A   1      30.758  24.004  23.326  1.00  0.00     0.010 A 
ATOM     78  C   UNL A   1      32.832  25.155  23.767  1.00  0.00     0.014 A 
ATOM     79  C   UNL A   1      31.463  22.815  23.181  1.00  0.00     0.001 A 
ATOM     80  C   UNL A   1      33.579  23.981  23.589  1.00  0.00    -0.044 A 
ATOM     81  C   UNL A   1      32.855  22.810  23.308  1.00  0.00     0.004 A 
BRANCH  80  82
ATOM     82  C   UNL A   1      35.090  23.939  23.707  1.00  0.00     0.019 C 
ATOM     83  C   UNL A   1      35.797  23.946  25.043  1.00  0.00     0.009 C 
ATOM     84  C   UNL A   1      35.769  22.691  24.219  1.00  0.00     0.009 C 
ENDBRANCH  80  82
ENDBRANCH  68  76
ENDBRANCH  66  68
ENDBRANCH  65  66
ENDBRANCH  64  65
ENDBRANCH   1  64
TORSDOF 19
ENDMDL
