MODEL 1
REMARK VINA RESULT:     -11.7      0.000      0.000
REMARK SMILES Nc1oc2ccc(F)cc2c(=O)c1[C@@H]1[NH2+][C@H](C(=O)OCCOCCOC(=O)c2ccc(-c3c4nc(c(-c5c(F)cccc5F)c5ccc([nH]5)c(-c5c(F)cccc5F)c5nc(c(-c6c(F)cccc6F)c6ccc3[nH]6)C=C5)C=C4)cc2)CS1
REMARK SMILES IDX 22 1 21 2 20 3 19 4 17 5 18 6 16 7 14 8 15 9 83 10 82 13
REMARK SMILES IDX 13 14 2 15 3 16 4 17 11 18 5 19 10 20 12 21 6 22 9 23 7 24
REMARK SMILES IDX 8 25 1 26 23 29 24 30 25 31 26 32 27 33 28 34 29 35 81 36
REMARK SMILES IDX 30 37 80 38 31 39 32 40 33 41 74 42 34 43 79 44 73 45 75 46
REMARK SMILES IDX 35 47 78 48 72 49 71 50 36 52 62 53 45 54 61 55 46 56 49 57
REMARK SMILES IDX 60 58 76 59 47 60 48 61 59 63 77 64 50 65 37 66 38 67 43 68
REMARK SMILES IDX 39 69 40 70 42 71 44 72 41 73 63 74 64 75 69 76 65 77 66 78
REMARK SMILES IDX 68 79 70 80 67 81 51 82 52 83 57 84 53 85 54 86 56 87 58 88
REMARK SMILES IDX 55 89
REMARK H PARENT 15 11 15 12 1 27 1 28 75 51 49 62
REMARK Flexibility Score: inf
ROOT
ATOM      1  O   UNL A   1      34.497  21.509  24.006  1.00  0.00    -0.374 OA
ENDROOT
BRANCH   1   2
ATOM      2  C   UNL A   1      33.093  21.479  23.742  1.00  0.00     0.202 C 
BRANCH   2   3
ATOM      3  C   UNL A   1      32.595  22.436  22.661  1.00  0.00     0.261 C 
BRANCH   3   4
ATOM      4  O   UNL A   1      32.295  23.704  23.256  1.00  0.00    -0.459 OA
BRANCH   4   5
ATOM      5  C   UNL A   1      33.218  24.682  23.080  1.00  0.00     0.365 C 
ATOM      6  O   UNL A   1      33.517  25.166  21.993  1.00  0.00    -0.245 OA
BRANCH   5   7
ATOM      7  C   UNL A   1      33.768  25.230  24.404  1.00  0.00     0.304 C 
ATOM      8  C   UNL A   1      32.398  26.991  25.340  1.00  0.00     0.283 C 
ATOM      9  N   UNL A   1      33.627  26.698  24.593  1.00  0.00    -0.319 N 
ATOM     10  S   UNL A   1      32.066  25.589  26.441  1.00  0.00    -0.087 SA
ATOM     11  H   UNL A   1      34.431  27.051  25.113  1.00  0.00     0.348 HD
ATOM     12  H   UNL A   1      33.581  27.152  23.680  1.00  0.00     0.348 HD
ATOM     13  C   UNL A   1      33.199  24.465  25.593  1.00  0.00     0.153 C 
BRANCH   8  14
ATOM     14  C   UNL A   1      31.220  27.404  24.493  1.00  0.00     0.128 A 
ATOM     15  C   UNL A   1      30.195  26.653  24.029  1.00  0.00     0.205 A 
ATOM     16  O   UNL A   1      29.185  27.152  23.221  1.00  0.00    -0.440 OA
ATOM     17  C   UNL A   1      28.951  28.495  23.235  1.00  0.00     0.140 A 
ATOM     18  C   UNL A   1      31.163  28.870  24.206  1.00  0.00     0.205 A 
ATOM     19  C   UNL A   1      27.720  28.938  22.756  1.00  0.00     0.051 A 
ATOM     20  C   UNL A   1      29.886  29.400  23.714  1.00  0.00     0.068 A 
ATOM     21  O   UNL A   1      32.096  29.634  24.427  1.00  0.00    -0.288 OA
ATOM     22  C   UNL A   1      27.423  30.301  22.773  1.00  0.00     0.043 A 
ATOM     23  C   UNL A   1      29.598  30.767  23.737  1.00  0.00     0.055 A 
ATOM     24  C   UNL A   1      28.362  31.200  23.269  1.00  0.00     0.124 A 
ATOM     25  F   UNL A   1      28.083  32.510  23.269  1.00  0.00    -0.207 F 
BRANCH  15  26
ATOM     26  N   UNL A   1      30.007  25.325  24.288  1.00  0.00    -0.369 N 
ATOM     27  H   UNL A   1      30.604  24.857  24.915  1.00  0.00     0.159 HD
ATOM     28  H   UNL A   1      29.276  24.837  23.846  1.00  0.00     0.159 HD
ENDBRANCH  15  26
ENDBRANCH   8  14
ENDBRANCH   5   7
ENDBRANCH   4   5
ENDBRANCH   3   4
ENDBRANCH   2   3
ENDBRANCH   1   2
BRANCH   1  29
ATOM     29  C   UNL A   1      35.006  20.605  24.988  1.00  0.00     0.202 C 
BRANCH  29  30
ATOM     30  C   UNL A   1      36.521  20.357  24.998  1.00  0.00     0.261 C 
BRANCH  30  31
ATOM     31  O   UNL A   1      37.300  21.491  25.404  1.00  0.00    -0.460 OA
BRANCH  31  32
ATOM     32  C   UNL A   1      38.575  21.200  25.766  1.00  0.00     0.338 C 
ATOM     33  O   UNL A   1      39.208  20.193  25.505  1.00  0.00    -0.246 OA
BRANCH  32  34
ATOM     34  C   UNL A   1      39.180  22.364  26.440  1.00  0.00     0.060 A 
ATOM     35  C   UNL A   1      40.309  22.223  27.241  1.00  0.00     0.016 A 
ATOM     36  C   UNL A   1      38.652  23.636  26.180  1.00  0.00     0.016 A 
ATOM     37  C   UNL A   1      40.920  23.368  27.754  1.00  0.00     0.010 A 
ATOM     38  C   UNL A   1      39.269  24.779  26.700  1.00  0.00     0.010 A 
ATOM     39  C   UNL A   1      40.419  24.660  27.486  1.00  0.00    -0.014 A 
BRANCH  39  40
ATOM     40  C   UNL A   1      41.203  25.848  27.928  1.00  0.00     0.031 A 
ATOM     41  C   UNL A   1      42.641  26.061  27.550  1.00  0.00     0.074 A 
ATOM     42  C   UNL A   1      40.572  26.799  28.644  1.00  0.00     0.049 A 
ATOM     43  N   UNL A   1      43.346  27.166  27.602  1.00  0.00    -0.248 NA
ATOM     44  C   UNL A   1      43.383  24.903  27.033  1.00  0.00     0.031 C 
ATOM     45  C   UNL A   1      39.194  26.706  29.130  1.00  0.00     0.029 A 
ATOM     46  N   UNL A   1      40.991  28.039  29.056  1.00  0.00    -0.354 N 
ATOM     47  C   UNL A   1      44.585  26.858  27.059  1.00  0.00     0.074 A 
ATOM     48  C   UNL A   1      44.565  25.442  26.757  1.00  0.00     0.031 C 
ATOM     49  C   UNL A   1      38.858  27.865  29.712  1.00  0.00     0.029 A 
ATOM     50  C   UNL A   1      40.004  28.767  29.674  1.00  0.00     0.049 A 
ATOM     51  H   UNL A   1      41.907  28.373  28.923  1.00  0.00     0.167 HD
ATOM     52  C   UNL A   1      45.630  27.684  26.803  1.00  0.00     0.037 A 
ATOM     53  C   UNL A   1      40.008  30.028  30.143  1.00  0.00     0.037 A 
ATOM     54  C   UNL A   1      45.706  29.066  27.210  1.00  0.00     0.049 A 
ATOM     55  C   UNL A   1      41.242  30.869  29.997  1.00  0.00     0.074 A 
ATOM     56  C   UNL A   1      46.732  29.976  27.006  1.00  0.00     0.029 A 
ATOM     57  N   UNL A   1      44.739  29.726  27.954  1.00  0.00    -0.354 N 
ATOM     58  N   UNL A   1      42.359  30.602  29.366  1.00  0.00    -0.248 NA
ATOM     59  C   UNL A   1      41.207  32.194  30.631  1.00  0.00     0.031 C 
ATOM     60  C   UNL A   1      46.414  31.160  27.686  1.00  0.00     0.029 A 
ATOM     61  C   UNL A   1      45.165  31.010  28.264  1.00  0.00     0.049 A 
ATOM     62  H   UNL A   1      43.874  29.339  28.223  1.00  0.00     0.167 HD
ATOM     63  C   UNL A   1      43.153  31.734  29.507  1.00  0.00     0.074 A 
ATOM     64  C   UNL A   1      42.377  32.696  30.265  1.00  0.00     0.031 C 
ATOM     65  C   UNL A   1      44.409  31.955  29.047  1.00  0.00     0.037 A 
BRANCH  52  66
ATOM     66  C   UNL A   1      46.783  27.098  26.041  1.00  0.00     0.057 A 
ATOM     67  C   UNL A   1      46.863  27.194  24.647  1.00  0.00     0.134 A 
ATOM     68  C   UNL A   1      47.814  26.411  26.701  1.00  0.00     0.134 A 
ATOM     69  F   UNL A   1      45.910  27.832  23.952  1.00  0.00    -0.206 F 
ATOM     70  C   UNL A   1      47.927  26.632  23.937  1.00  0.00     0.040 A 
ATOM     71  C   UNL A   1      48.890  25.861  26.004  1.00  0.00     0.040 A 
ATOM     72  F   UNL A   1      47.804  26.296  28.038  1.00  0.00    -0.206 F 
ATOM     73  C   UNL A   1      48.947  25.968  24.616  1.00  0.00     0.006 A 
ENDBRANCH  52  66
BRANCH  53  74
ATOM     74  C   UNL A   1      38.788  30.583  30.779  1.00  0.00     0.057 A 
ATOM     75  C   UNL A   1      37.866  31.339  30.046  1.00  0.00     0.134 A 
ATOM     76  C   UNL A   1      38.513  30.361  32.132  1.00  0.00     0.134 A 
ATOM     77  F   UNL A   1      38.076  31.587  28.744  1.00  0.00    -0.206 F 
ATOM     78  C   UNL A   1      36.721  31.870  30.639  1.00  0.00     0.040 A 
ATOM     79  C   UNL A   1      37.358  30.861  32.733  1.00  0.00     0.040 A 
ATOM     80  F   UNL A   1      39.348  29.623  32.879  1.00  0.00    -0.206 F 
ATOM     81  C   UNL A   1      36.461  31.624  31.987  1.00  0.00     0.006 A 
ENDBRANCH  53  74
BRANCH  65  82
ATOM     82  C   UNL A   1      45.010  33.298  29.355  1.00  0.00     0.057 A 
ATOM     83  C   UNL A   1      44.794  34.393  28.509  1.00  0.00     0.134 A 
ATOM     84  C   UNL A   1      45.770  33.521  30.514  1.00  0.00     0.134 A 
ATOM     85  F   UNL A   1      44.084  34.253  27.379  1.00  0.00    -0.206 F 
ATOM     86  C   UNL A   1      45.294  35.661  28.811  1.00  0.00     0.040 A 
ATOM     87  C   UNL A   1      46.249  34.791  30.842  1.00  0.00     0.040 A 
ATOM     88  F   UNL A   1      46.000  32.520  31.377  1.00  0.00    -0.206 F 
ATOM     89  C   UNL A   1      46.011  35.866  29.988  1.00  0.00     0.006 A 
ENDBRANCH  65  82
ENDBRANCH  39  40
ENDBRANCH  32  34
ENDBRANCH  31  32
ENDBRANCH  30  31
ENDBRANCH  29  30
ENDBRANCH   1  29
TORSDOF 16
ENDMDL
MODEL 2
REMARK VINA RESULT:     -11.7      1.599      2.487
REMARK SMILES Nc1oc2ccc(F)cc2c(=O)c1[C@@H]1[NH2+][C@H](C(=O)OCCOCCOC(=O)c2ccc(-c3c4nc(c(-c5c(F)cccc5F)c5ccc([nH]5)c(-c5c(F)cccc5F)c5nc(c(-c6c(F)cccc6F)c6ccc3[nH]6)C=C5)C=C4)cc2)CS1
REMARK SMILES IDX 22 1 21 2 20 3 19 4 17 5 18 6 16 7 14 8 15 9 83 10 82 13
REMARK SMILES IDX 13 14 2 15 3 16 4 17 11 18 5 19 10 20 12 21 6 22 9 23 7 24
REMARK SMILES IDX 8 25 1 26 23 29 24 30 25 31 26 32 27 33 28 34 29 35 81 36
REMARK SMILES IDX 30 37 80 38 31 39 32 40 33 41 74 42 34 43 79 44 73 45 75 46
REMARK SMILES IDX 35 47 78 48 72 49 71 50 36 52 62 53 45 54 61 55 46 56 49 57
REMARK SMILES IDX 60 58 76 59 47 60 48 61 59 63 77 64 50 65 37 66 38 67 43 68
REMARK SMILES IDX 39 69 40 70 42 71 44 72 41 73 63 74 64 75 69 76 65 77 66 78
REMARK SMILES IDX 68 79 70 80 67 81 51 82 52 83 57 84 53 85 54 86 56 87 58 88
REMARK SMILES IDX 55 89
REMARK H PARENT 15 11 15 12 1 27 1 28 75 51 49 62
REMARK Flexibility Score: inf
ROOT
ATOM      1  O   UNL A   1      35.501  22.063  25.548  1.00  0.00    -0.374 OA
ENDROOT
BRANCH   1   2
ATOM      2  C   UNL A   1      34.711  22.201  26.732  1.00  0.00     0.202 C 
BRANCH   2   3
ATOM      3  C   UNL A   1      33.205  22.024  26.554  1.00  0.00     0.261 C 
BRANCH   3   4
ATOM      4  O   UNL A   1      32.823  22.505  25.261  1.00  0.00    -0.459 OA
BRANCH   4   5
ATOM      5  C   UNL A   1      31.500  22.741  25.075  1.00  0.00     0.365 C 
ATOM      6  O   UNL A   1      30.660  22.718  25.968  1.00  0.00    -0.245 OA
BRANCH   5   7
ATOM      7  C   UNL A   1      31.166  23.176  23.641  1.00  0.00     0.304 C 
ATOM      8  C   UNL A   1      31.770  25.473  23.185  1.00  0.00     0.283 C 
ATOM      9  N   UNL A   1      30.660  24.567  23.500  1.00  0.00    -0.319 N 
ATOM     10  S   UNL A   1      33.013  24.534  22.258  1.00  0.00    -0.087 SA
ATOM     11  H   UNL A   1      29.971  24.602  22.747  1.00  0.00     0.348 HD
ATOM     12  H   UNL A   1      30.227  24.858  24.376  1.00  0.00     0.348 HD
ATOM     13  C   UNL A   1      32.338  22.918  22.703  1.00  0.00     0.153 C 
BRANCH   8  14
ATOM     14  C   UNL A   1      32.325  26.235  24.364  1.00  0.00     0.128 A 
ATOM     15  C   UNL A   1      33.471  26.028  25.054  1.00  0.00     0.205 A 
ATOM     16  O   UNL A   1      33.849  26.785  26.152  1.00  0.00    -0.440 OA
ATOM     17  C   UNL A   1      33.309  28.029  26.297  1.00  0.00     0.140 A 
ATOM     18  C   UNL A   1      31.511  27.428  24.753  1.00  0.00     0.205 A 
ATOM     19  C   UNL A   1      33.967  28.921  27.141  1.00  0.00     0.051 A 
ATOM     20  C   UNL A   1      32.156  28.413  25.629  1.00  0.00     0.068 A 
ATOM     21  O   UNL A   1      30.384  27.639  24.322  1.00  0.00    -0.288 OA
ATOM     22  C   UNL A   1      33.467  30.213  27.303  1.00  0.00     0.043 A 
ATOM     23  C   UNL A   1      31.648  29.705  25.782  1.00  0.00     0.055 A 
ATOM     24  C   UNL A   1      32.318  30.594  26.617  1.00  0.00     0.124 A 
ATOM     25  F   UNL A   1      31.830  31.829  26.786  1.00  0.00    -0.207 F 
BRANCH  15  26
ATOM     26  N   UNL A   1      34.400  25.070  24.772  1.00  0.00    -0.369 N 
ATOM     27  H   UNL A   1      34.194  24.358  24.125  1.00  0.00     0.159 HD
ATOM     28  H   UNL A   1      35.278  25.091  25.218  1.00  0.00     0.159 HD
ENDBRANCH  15  26
ENDBRANCH   8  14
ENDBRANCH   5   7
ENDBRANCH   4   5
ENDBRANCH   3   4
ENDBRANCH   2   3
ENDBRANCH   1   2
BRANCH   1  29
ATOM     29  C   UNL A   1      35.707  20.744  25.040  1.00  0.00     0.202 C 
BRANCH  29  30
ATOM     30  C   UNL A   1      37.154  20.234  24.973  1.00  0.00     0.261 C 
BRANCH  30  31
ATOM     31  O   UNL A   1      38.147  21.262  25.091  1.00  0.00    -0.460 OA
BRANCH  31  32
ATOM     32  C   UNL A   1      39.172  20.962  25.927  1.00  0.00     0.338 C 
ATOM     33  O   UNL A   1      39.719  19.884  26.073  1.00  0.00    -0.246 OA
BRANCH  32  34
ATOM     34  C   UNL A   1      39.660  22.193  26.580  1.00  0.00     0.060 A 
ATOM     35  C   UNL A   1      40.696  22.150  27.507  1.00  0.00     0.016 A 
ATOM     36  C   UNL A   1      39.122  23.422  26.176  1.00  0.00     0.016 A 
ATOM     37  C   UNL A   1      41.208  23.351  28.002  1.00  0.00     0.010 A 
ATOM     38  C   UNL A   1      39.638  24.621  26.677  1.00  0.00     0.010 A 
ATOM     39  C   UNL A   1      40.697  24.601  27.591  1.00  0.00    -0.014 A 
BRANCH  39  40
ATOM     40  C   UNL A   1      41.387  25.846  28.032  1.00  0.00     0.031 A 
ATOM     41  C   UNL A   1      42.813  26.155  27.678  1.00  0.00     0.074 A 
ATOM     42  C   UNL A   1      40.677  26.759  28.723  1.00  0.00     0.049 A 
ATOM     43  N   UNL A   1      43.438  27.308  27.729  1.00  0.00    -0.248 NA
ATOM     44  C   UNL A   1      43.645  25.046  27.192  1.00  0.00     0.031 C 
ATOM     45  C   UNL A   1      39.299  26.576  29.184  1.00  0.00     0.029 A 
ATOM     46  N   UNL A   1      40.999  28.031  29.126  1.00  0.00    -0.354 N 
ATOM     47  C   UNL A   1      44.706  27.081  27.214  1.00  0.00     0.074 A 
ATOM     48  C   UNL A   1      44.791  25.663  26.931  1.00  0.00     0.031 C 
ATOM     49  C   UNL A   1      38.870  27.715  29.742  1.00  0.00     0.029 A 
ATOM     50  C   UNL A   1      39.951  28.696  29.714  1.00  0.00     0.049 A 
ATOM     51  H   UNL A   1      41.892  28.427  29.005  1.00  0.00     0.167 HD
ATOM     52  C   UNL A   1      45.696  27.975  26.967  1.00  0.00     0.037 A 
ATOM     53  C   UNL A   1      39.858  29.959  30.166  1.00  0.00     0.037 A 
ATOM     54  C   UNL A   1      45.666  29.365  27.355  1.00  0.00     0.049 A 
ATOM     55  C   UNL A   1      41.032  30.883  30.031  1.00  0.00     0.074 A 
ATOM     56  C   UNL A   1      46.629  30.341  27.159  1.00  0.00     0.029 A 
ATOM     57  N   UNL A   1      44.640  29.963  28.072  1.00  0.00    -0.354 N 
ATOM     58  N   UNL A   1      42.177  30.688  29.426  1.00  0.00    -0.248 NA
ATOM     59  C   UNL A   1      40.891  32.210  30.647  1.00  0.00     0.031 C 
ATOM     60  C   UNL A   1      46.216  31.509  27.816  1.00  0.00     0.029 A 
ATOM     61  C   UNL A   1      44.970  31.278  28.372  1.00  0.00     0.049 A 
ATOM     62  H   UNL A   1      43.800  29.520  28.329  1.00  0.00     0.167 HD
ATOM     63  C   UNL A   1      42.887  31.874  29.567  1.00  0.00     0.074 A 
ATOM     64  C   UNL A   1      42.030  32.788  30.296  1.00  0.00     0.031 C 
ATOM     65  C   UNL A   1      44.133  32.178  29.128  1.00  0.00     0.037 A 
BRANCH  52  66
ATOM     66  C   UNL A   1      46.902  27.463  26.235  1.00  0.00     0.057 A 
ATOM     67  C   UNL A   1      48.011  26.952  26.919  1.00  0.00     0.134 A 
ATOM     68  C   UNL A   1      46.969  27.501  24.833  1.00  0.00     0.134 A 
ATOM     69  F   UNL A   1      48.016  26.891  28.258  1.00  0.00    -0.206 F 
ATOM     70  C   UNL A   1      49.141  26.494  26.237  1.00  0.00     0.040 A 
ATOM     71  C   UNL A   1      48.085  27.030  24.141  1.00  0.00     0.040 A 
ATOM     72  F   UNL A   1      45.934  27.967  24.117  1.00  0.00    -0.206 F 
ATOM     73  C   UNL A   1      49.178  26.526  24.844  1.00  0.00     0.006 A 
ENDBRANCH  52  66
BRANCH  53  74
ATOM     74  C   UNL A   1      38.589  30.435  30.770  1.00  0.00     0.057 A 
ATOM     75  C   UNL A   1      37.623  31.098  30.005  1.00  0.00     0.134 A 
ATOM     76  C   UNL A   1      38.312  30.228  32.126  1.00  0.00     0.134 A 
ATOM     77  F   UNL A   1      37.832  31.326  28.700  1.00  0.00    -0.206 F 
ATOM     78  C   UNL A   1      36.431  31.553  30.569  1.00  0.00     0.040 A 
ATOM     79  C   UNL A   1      37.113  30.653  32.698  1.00  0.00     0.040 A 
ATOM     80  F   UNL A   1      39.190  29.578  32.904  1.00  0.00    -0.206 F 
ATOM     81  C   UNL A   1      36.171  31.325  31.920  1.00  0.00     0.006 A 
ENDBRANCH  53  74
BRANCH  65  82
ATOM     82  C   UNL A   1      44.632  33.563  29.428  1.00  0.00     0.057 A 
ATOM     83  C   UNL A   1      44.345  34.632  28.570  1.00  0.00     0.134 A 
ATOM     84  C   UNL A   1      45.363  33.851  30.592  1.00  0.00     0.134 A 
ATOM     85  F   UNL A   1      43.658  34.431  27.436  1.00  0.00    -0.206 F 
ATOM     86  C   UNL A   1      44.750  35.936  28.866  1.00  0.00     0.040 A 
ATOM     87  C   UNL A   1      45.745  35.155  30.913  1.00  0.00     0.040 A 
ATOM     88  F   UNL A   1      45.657  32.877  31.467  1.00  0.00    -0.206 F 
ATOM     89  C   UNL A   1      45.439  36.203  30.047  1.00  0.00     0.006 A 
ENDBRANCH  65  82
ENDBRANCH  39  40
ENDBRANCH  32  34
ENDBRANCH  31  32
ENDBRANCH  30  31
ENDBRANCH  29  30
ENDBRANCH   1  29
TORSDOF 16
ENDMDL
MODEL 3
REMARK VINA RESULT:     -11.7      3.160      7.311
REMARK SMILES Nc1oc2ccc(F)cc2c(=O)c1[C@@H]1[NH2+][C@H](C(=O)OCCOCCOC(=O)c2ccc(-c3c4nc(c(-c5c(F)cccc5F)c5ccc([nH]5)c(-c5c(F)cccc5F)c5nc(c(-c6c(F)cccc6F)c6ccc3[nH]6)C=C5)C=C4)cc2)CS1
REMARK SMILES IDX 22 1 21 2 20 3 19 4 17 5 18 6 16 7 14 8 15 9 83 10 82 13
REMARK SMILES IDX 13 14 2 15 3 16 4 17 11 18 5 19 10 20 12 21 6 22 9 23 7 24
REMARK SMILES IDX 8 25 1 26 23 29 24 30 25 31 26 32 27 33 28 34 29 35 81 36
REMARK SMILES IDX 30 37 80 38 31 39 32 40 33 41 74 42 34 43 79 44 73 45 75 46
REMARK SMILES IDX 35 47 78 48 72 49 71 50 36 52 62 53 45 54 61 55 46 56 49 57
REMARK SMILES IDX 60 58 76 59 47 60 48 61 59 63 77 64 50 65 37 66 38 67 43 68
REMARK SMILES IDX 39 69 40 70 42 71 44 72 41 73 63 74 64 75 69 76 65 77 66 78
REMARK SMILES IDX 68 79 70 80 67 81 51 82 52 83 57 84 53 85 54 86 56 87 58 88
REMARK SMILES IDX 55 89
REMARK H PARENT 15 11 15 12 1 27 1 28 75 51 49 62
REMARK Flexibility Score: inf
ROOT
ATOM      1  O   UNL A   1      33.146  28.612  25.162  1.00  0.00    -0.374 OA
ENDROOT
BRANCH   1   2
ATOM      2  C   UNL A   1      33.287  29.026  23.801  1.00  0.00     0.202 C 
BRANCH   2   3
ATOM      3  C   UNL A   1      33.043  27.949  22.746  1.00  0.00     0.261 C 
BRANCH   3   4
ATOM      4  O   UNL A   1      32.137  26.972  23.270  1.00  0.00    -0.459 OA
BRANCH   4   5
ATOM      5  C   UNL A   1      31.872  25.909  22.471  1.00  0.00     0.365 C 
ATOM      6  O   UNL A   1      32.412  25.705  21.388  1.00  0.00    -0.245 OA
BRANCH   5   7
ATOM      7  C   UNL A   1      30.916  24.898  23.118  1.00  0.00     0.304 C 
ATOM      8  C   UNL A   1      32.008  23.457  24.725  1.00  0.00     0.283 C 
ATOM      9  N   UNL A   1      31.485  23.545  23.356  1.00  0.00    -0.319 N 
ATOM     10  S   UNL A   1      31.021  24.560  25.772  1.00  0.00    -0.087 SA
ATOM     11  H   UNL A   1      30.756  22.843  23.227  1.00  0.00     0.348 HD
ATOM     12  H   UNL A   1      32.244  23.378  22.696  1.00  0.00     0.348 HD
ATOM     13  C   UNL A   1      30.295  25.466  24.387  1.00  0.00     0.153 C 
BRANCH   8  14
ATOM     14  C   UNL A   1      33.498  23.654  24.852  1.00  0.00     0.128 A 
ATOM     15  C   UNL A   1      34.183  24.728  25.311  1.00  0.00     0.205 A 
ATOM     16  O   UNL A   1      35.567  24.795  25.341  1.00  0.00    -0.440 OA
ATOM     17  C   UNL A   1      36.272  23.629  25.329  1.00  0.00     0.140 A 
ATOM     18  C   UNL A   1      34.304  22.449  24.486  1.00  0.00     0.205 A 
ATOM     19  C   UNL A   1      37.598  23.674  25.754  1.00  0.00     0.051 A 
ATOM     20  C   UNL A   1      35.705  22.431  24.921  1.00  0.00     0.068 A 
ATOM     21  O   UNL A   1      33.830  21.475  23.912  1.00  0.00    -0.288 OA
ATOM     22  C   UNL A   1      38.353  22.502  25.783  1.00  0.00     0.043 A 
ATOM     23  C   UNL A   1      36.452  21.251  24.948  1.00  0.00     0.055 A 
ATOM     24  C   UNL A   1      37.771  21.302  25.386  1.00  0.00     0.124 A 
ATOM     25  F   UNL A   1      38.501  20.179  25.399  1.00  0.00    -0.207 F 
BRANCH  15  26
ATOM     26  N   UNL A   1      33.623  25.871  25.803  1.00  0.00    -0.369 N 
ATOM     27  H   UNL A   1      33.144  25.854  26.663  1.00  0.00     0.159 HD
ATOM     28  H   UNL A   1      33.698  26.712  25.298  1.00  0.00     0.159 HD
ENDBRANCH  15  26
ENDBRANCH   8  14
ENDBRANCH   5   7
ENDBRANCH   4   5
ENDBRANCH   3   4
ENDBRANCH   2   3
ENDBRANCH   1   2
BRANCH   1  29
ATOM     29  C   UNL A   1      32.247  29.351  25.990  1.00  0.00     0.202 C 
BRANCH  29  30
ATOM     30  C   UNL A   1      32.862  30.205  27.108  1.00  0.00     0.261 C 
BRANCH  30  31
ATOM     31  O   UNL A   1      34.280  30.387  26.998  1.00  0.00    -0.460 OA
BRANCH  31  32
ATOM     32  C   UNL A   1      34.878  30.853  28.123  1.00  0.00     0.338 C 
ATOM     33  O   UNL A   1      34.419  31.632  28.939  1.00  0.00    -0.246 OA
BRANCH  32  34
ATOM     34  C   UNL A   1      36.171  30.168  28.321  1.00  0.00     0.060 A 
ATOM     35  C   UNL A   1      37.106  30.090  27.294  1.00  0.00     0.016 A 
ATOM     36  C   UNL A   1      36.478  29.678  29.597  1.00  0.00     0.016 A 
ATOM     37  C   UNL A   1      38.362  29.546  27.566  1.00  0.00     0.010 A 
ATOM     38  C   UNL A   1      37.739  29.131  29.862  1.00  0.00     0.010 A 
ATOM     39  C   UNL A   1      38.702  29.068  28.850  1.00  0.00    -0.014 A 
BRANCH  39  40
ATOM     40  C   UNL A   1      40.106  28.645  29.118  1.00  0.00     0.031 A 
ATOM     41  C   UNL A   1      40.615  27.268  28.805  1.00  0.00     0.074 A 
ATOM     42  C   UNL A   1      40.967  29.561  29.604  1.00  0.00     0.049 A 
ATOM     43  N   UNL A   1      41.857  26.858  28.701  1.00  0.00    -0.248 NA
ATOM     44  C   UNL A   1      39.617  26.217  28.561  1.00  0.00     0.031 C 
ATOM     45  C   UNL A   1      40.605  30.922  30.004  1.00  0.00     0.029 A 
ATOM     46  N   UNL A   1      42.322  29.500  29.809  1.00  0.00    -0.354 N 
ATOM     47  C   UNL A   1      41.792  25.529  28.309  1.00  0.00     0.074 A 
ATOM     48  C   UNL A   1      40.388  25.176  28.271  1.00  0.00     0.031 C 
ATOM     49  C   UNL A   1      41.718  31.589  30.339  1.00  0.00     0.029 A 
ATOM     50  C   UNL A   1      42.864  30.695  30.214  1.00  0.00     0.049 A 
ATOM     51  H   UNL A   1      42.853  28.681  29.678  1.00  0.00     0.167 HD
ATOM     52  C   UNL A   1      42.805  24.690  27.977  1.00  0.00     0.037 A 
ATOM     53  C   UNL A   1      44.143  31.044  30.443  1.00  0.00     0.037 A 
ATOM     54  C   UNL A   1      44.207  24.993  28.127  1.00  0.00     0.049 A 
ATOM     55  C   UNL A   1      45.236  30.040  30.229  1.00  0.00     0.074 A 
ATOM     56  C   UNL A   1      45.303  24.198  27.830  1.00  0.00     0.029 A 
ATOM     57  N   UNL A   1      44.709  26.166  28.671  1.00  0.00    -0.354 N 
ATOM     58  N   UNL A   1      45.165  28.828  29.735  1.00  0.00    -0.248 NA
ATOM     59  C   UNL A   1      46.592  30.461  30.606  1.00  0.00     0.031 C 
ATOM     60  C   UNL A   1      46.461  24.863  28.258  1.00  0.00     0.029 A 
ATOM     61  C   UNL A   1      46.092  26.096  28.768  1.00  0.00     0.049 A 
ATOM     62  H   UNL A   1      44.163  26.937  28.947  1.00  0.00     0.167 HD
ATOM     63  C   UNL A   1      46.469  28.349  29.719  1.00  0.00     0.074 A 
ATOM     64  C   UNL A   1      47.310  29.411  30.233  1.00  0.00     0.031 C 
ATOM     65  C   UNL A   1      46.927  27.139  29.312  1.00  0.00     0.037 A 
BRANCH  52  66
ATOM     66  C   UNL A   1      42.418  23.353  27.414  1.00  0.00     0.057 A 
ATOM     67  C   UNL A   1      42.374  23.125  26.034  1.00  0.00     0.134 A 
ATOM     68  C   UNL A   1      42.063  22.288  28.257  1.00  0.00     0.134 A 
ATOM     69  F   UNL A   1      42.695  24.099  25.172  1.00  0.00    -0.206 F 
ATOM     70  C   UNL A   1      41.995  21.886  25.512  1.00  0.00     0.040 A 
ATOM     71  C   UNL A   1      41.700  21.040  27.747  1.00  0.00     0.040 A 
ATOM     72  F   UNL A   1      42.098  22.437  29.590  1.00  0.00    -0.206 F 
ATOM     73  C   UNL A   1      41.663  20.838  26.369  1.00  0.00     0.006 A 
ENDBRANCH  52  66
BRANCH  53  74
ATOM     74  C   UNL A   1      44.463  32.425  30.883  1.00  0.00     0.057 A 
ATOM     75  C   UNL A   1      44.441  32.781  32.236  1.00  0.00     0.134 A 
ATOM     76  C   UNL A   1      44.808  33.416  29.957  1.00  0.00     0.134 A 
ATOM     77  F   UNL A   1      44.117  31.874  33.170  1.00  0.00    -0.206 F 
ATOM     78  C   UNL A   1      44.734  34.079  32.654  1.00  0.00     0.040 A 
ATOM     79  C   UNL A   1      45.130  34.711  30.363  1.00  0.00     0.040 A 
ATOM     80  F   UNL A   1      44.868  33.127  28.649  1.00  0.00    -0.206 F 
ATOM     81  C   UNL A   1      45.088  35.047  31.715  1.00  0.00     0.006 A 
ENDBRANCH  53  74
BRANCH  65  82
ATOM     82  C   UNL A   1      48.410  26.915  29.408  1.00  0.00     0.057 A 
ATOM     83  C   UNL A   1      48.966  26.252  30.509  1.00  0.00     0.134 A 
ATOM     84  C   UNL A   1      49.287  27.317  28.389  1.00  0.00     0.134 A 
ATOM     85  F   UNL A   1      48.190  25.845  31.525  1.00  0.00    -0.206 F 
ATOM     86  C   UNL A   1      50.334  25.982  30.585  1.00  0.00     0.040 A 
ATOM     87  C   UNL A   1      50.652  27.025  28.440  1.00  0.00     0.040 A 
ATOM     88  F   UNL A   1      48.819  27.941  27.297  1.00  0.00    -0.206 F 
ATOM     89  C   UNL A   1      51.179  26.355  29.542  1.00  0.00     0.006 A 
ENDBRANCH  65  82
ENDBRANCH  39  40
ENDBRANCH  32  34
ENDBRANCH  31  32
ENDBRANCH  30  31
ENDBRANCH  29  30
ENDBRANCH   1  29
TORSDOF 16
ENDMDL
