MODEL 1
REMARK VINA RESULT:     -10.6      0.000      0.000
REMARK SMILES CC[C@]1(C(=O)OCCOCCOC(=O)c2ccc(-c3c4nc(c(-c5c(F)cccc5F)c5ccc([nH]5)c(-c5c(F)cccc5F)c5nc(c(-c6c(F)cccc6F)c6ccc3[nH]6)C=C5)C=C4)cc2)CCN(C(=O)[C@]2(C)CCCO2)C1
REMARK SMILES IDX 9 1 8 2 7 3 6 4 4 5 5 6 3 7 69 8 80 9 70 10 71 11 2 12 1 13
REMARK SMILES IDX 72 14 73 15 74 16 76 17 79 18 75 19 77 20 78 21 10 22 11 23
REMARK SMILES IDX 12 24 13 25 14 26 15 27 16 28 68 29 17 30 67 31 18 32 19 33
REMARK SMILES IDX 20 34 61 35 21 36 66 37 60 38 62 39 22 40 65 41 59 42 58 43
REMARK SMILES IDX 23 45 49 46 32 47 48 48 33 49 36 50 47 51 63 52 34 53 35 54
REMARK SMILES IDX 46 56 64 57 37 58 24 59 25 60 30 61 26 62 27 63 29 64 31 65
REMARK SMILES IDX 28 66 50 67 51 68 56 69 52 70 53 71 55 72 57 73 54 74 38 75
REMARK SMILES IDX 39 76 44 77 40 78 41 79 43 80 45 81 42 82
REMARK H PARENT 62 44 36 55
REMARK Flexibility Score: inf
ROOT
ATOM      1  O   UNL A   1      34.682  20.401  24.678  1.00  0.00    -0.374 OA
ENDROOT
BRANCH   1   2
ATOM      2  C   UNL A   1      33.417  20.285  25.334  1.00  0.00     0.202 C 
BRANCH   2   3
ATOM      3  C   UNL A   1      32.216  20.884  24.598  1.00  0.00     0.261 C 
BRANCH   3   4
ATOM      4  O   UNL A   1      32.626  22.023  23.822  1.00  0.00    -0.463 OA
BRANCH   4   5
ATOM      5  C   UNL A   1      32.544  23.233  24.434  1.00  0.00     0.314 C 
ATOM      6  O   UNL A   1      31.830  23.469  25.401  1.00  0.00    -0.252 OA
BRANCH   5   7
ATOM      7  C   UNL A   1      33.423  24.284  23.759  1.00  0.00     0.087 C 
ATOM      8  C   UNL A   1      32.873  24.880  22.445  1.00  0.00     0.042 C 
ATOM      9  C   UNL A   1      33.398  25.518  24.688  1.00  0.00     0.138 C 
ATOM     10  C   UNL A   1      33.499  26.259  22.423  1.00  0.00     0.121 C 
ATOM     11  N   UNL A   1      33.351  26.676  23.798  1.00  0.00    -0.339 N 
BRANCH   7  12
ATOM     12  C   UNL A   1      34.872  23.735  23.584  1.00  0.00     0.017 C 
ATOM     13  C   UNL A   1      35.835  24.066  24.723  1.00  0.00     0.005 C 
ENDBRANCH   7  12
BRANCH  11  14
ATOM     14  C   UNL A   1      33.088  27.940  24.285  1.00  0.00     0.254 C 
ATOM     15  O   UNL A   1      33.970  28.560  24.889  1.00  0.00    -0.272 OA
BRANCH  14  16
ATOM     16  C   UNL A   1      31.657  28.544  24.112  1.00  0.00     0.144 C 
ATOM     17  C   UNL A   1      30.544  27.516  24.363  1.00  0.00     0.048 C 
ATOM     18  O   UNL A   1      31.457  29.054  22.783  1.00  0.00    -0.365 OA
ATOM     19  C   UNL A   1      31.498  29.720  25.090  1.00  0.00     0.053 C 
ATOM     20  C   UNL A   1      29.641  27.588  23.148  1.00  0.00     0.032 C 
ATOM     21  C   UNL A   1      30.106  28.810  22.393  1.00  0.00     0.162 C 
ENDBRANCH  14  16
ENDBRANCH  11  14
ENDBRANCH   5   7
ENDBRANCH   4   5
ENDBRANCH   3   4
ENDBRANCH   2   3
ENDBRANCH   1   2
BRANCH   1  22
ATOM     22  C   UNL A   1      35.813  20.723  25.483  1.00  0.00     0.202 C 
BRANCH  22  23
ATOM     23  C   UNL A   1      37.186  20.290  24.954  1.00  0.00     0.261 C 
BRANCH  23  24
ATOM     24  O   UNL A   1      38.171  21.328  25.055  1.00  0.00    -0.460 OA
BRANCH  24  25
ATOM     25  C   UNL A   1      39.211  21.017  25.863  1.00  0.00     0.338 C 
ATOM     26  O   UNL A   1      39.818  19.953  25.913  1.00  0.00    -0.246 OA
BRANCH  25  27
ATOM     27  C   UNL A   1      39.665  22.202  26.608  1.00  0.00     0.060 A 
ATOM     28  C   UNL A   1      39.065  23.423  26.277  1.00  0.00     0.016 A 
ATOM     29  C   UNL A   1      40.710  22.150  27.536  1.00  0.00     0.016 A 
ATOM     30  C   UNL A   1      39.555  24.605  26.816  1.00  0.00     0.010 A 
ATOM     31  C   UNL A   1      41.204  23.343  28.076  1.00  0.00     0.010 A 
ATOM     32  C   UNL A   1      40.659  24.578  27.680  1.00  0.00    -0.014 A 
BRANCH  32  33
ATOM     33  C   UNL A   1      41.313  25.865  28.017  1.00  0.00     0.031 A 
ATOM     34  C   UNL A   1      42.707  26.132  27.515  1.00  0.00     0.074 A 
ATOM     35  C   UNL A   1      40.636  26.823  28.674  1.00  0.00     0.049 A 
ATOM     36  N   UNL A   1      43.415  27.231  27.579  1.00  0.00    -0.248 NA
ATOM     37  C   UNL A   1      43.391  25.012  26.850  1.00  0.00     0.031 C 
ATOM     38  C   UNL A   1      39.278  26.690  29.195  1.00  0.00     0.029 A 
ATOM     39  N   UNL A   1      40.999  28.106  28.996  1.00  0.00    -0.354 N 
ATOM     40  C   UNL A   1      44.623  26.937  26.956  1.00  0.00     0.074 A 
ATOM     41  C   UNL A   1      44.567  25.547  26.558  1.00  0.00     0.031 C 
ATOM     42  C   UNL A   1      38.915  27.851  29.765  1.00  0.00     0.029 A 
ATOM     43  C   UNL A   1      40.020  28.803  29.657  1.00  0.00     0.049 A 
ATOM     44  H   UNL A   1      41.878  28.490  28.776  1.00  0.00     0.167 HD
ATOM     45  C   UNL A   1      45.675  27.757  26.722  1.00  0.00     0.037 A 
ATOM     46  C   UNL A   1      40.012  30.069  30.117  1.00  0.00     0.037 A 
ATOM     47  C   UNL A   1      45.729  29.139  27.116  1.00  0.00     0.049 A 
ATOM     48  C   UNL A   1      41.204  30.953  29.867  1.00  0.00     0.074 A 
ATOM     49  C   UNL A   1      46.742  30.058  26.904  1.00  0.00     0.029 A 
ATOM     50  N   UNL A   1      44.728  29.802  27.809  1.00  0.00    -0.354 N 
ATOM     51  N   UNL A   1      42.321  30.678  29.235  1.00  0.00    -0.248 NA
ATOM     52  C   UNL A   1      41.128  32.327  30.381  1.00  0.00     0.031 C 
ATOM     53  C   UNL A   1      46.372  31.266  27.508  1.00  0.00     0.029 A 
ATOM     54  C   UNL A   1      45.107  31.111  28.053  1.00  0.00     0.049 A 
ATOM     55  H   UNL A   1      43.873  29.400  28.086  1.00  0.00     0.167 HD
ATOM     56  C   UNL A   1      43.067  31.850  29.254  1.00  0.00     0.074 A 
ATOM     57  C   UNL A   1      42.269  32.842  29.945  1.00  0.00     0.031 C 
ATOM     58  C   UNL A   1      44.301  32.085  28.745  1.00  0.00     0.037 A 
BRANCH  45  59
ATOM     59  C   UNL A   1      46.864  27.166  26.022  1.00  0.00     0.057 A 
ATOM     60  C   UNL A   1      47.887  26.515  26.724  1.00  0.00     0.134 A 
ATOM     61  C   UNL A   1      46.975  27.230  24.628  1.00  0.00     0.134 A 
ATOM     62  F   UNL A   1      47.848  26.432  28.062  1.00  0.00    -0.206 F 
ATOM     63  C   UNL A   1      48.990  25.967  26.065  1.00  0.00     0.040 A 
ATOM     64  C   UNL A   1      48.061  26.666  23.956  1.00  0.00     0.040 A 
ATOM     65  F   UNL A   1      46.029  27.838  23.897  1.00  0.00    -0.206 F 
ATOM     66  C   UNL A   1      49.075  26.037  24.675  1.00  0.00     0.006 A 
ENDBRANCH  45  59
BRANCH  46  67
ATOM     67  C   UNL A   1      38.827  30.583  30.846  1.00  0.00     0.057 A 
ATOM     68  C   UNL A   1      38.712  30.459  32.235  1.00  0.00     0.134 A 
ATOM     69  C   UNL A   1      37.774  31.204  30.164  1.00  0.00     0.134 A 
ATOM     70  F   UNL A   1      39.679  29.853  32.940  1.00  0.00    -0.206 F 
ATOM     71  C   UNL A   1      37.586  30.919  32.919  1.00  0.00     0.040 A 
ATOM     72  C   UNL A   1      36.653  31.692  30.838  1.00  0.00     0.040 A 
ATOM     73  F   UNL A   1      37.825  31.357  28.833  1.00  0.00    -0.206 F 
ATOM     74  C   UNL A   1      36.555  31.544  32.220  1.00  0.00     0.006 A 
ENDBRANCH  46  67
BRANCH  58  75
ATOM     75  C   UNL A   1      44.849  33.475  28.894  1.00  0.00     0.057 A 
ATOM     76  C   UNL A   1      44.629  34.463  27.925  1.00  0.00     0.134 A 
ATOM     77  C   UNL A   1      45.589  33.832  30.028  1.00  0.00     0.134 A 
ATOM     78  F   UNL A   1      43.937  34.182  26.811  1.00  0.00    -0.206 F 
ATOM     79  C   UNL A   1      45.153  35.750  28.065  1.00  0.00     0.040 A 
ATOM     80  C   UNL A   1      46.096  35.123  30.190  1.00  0.00     0.040 A 
ATOM     81  F   UNL A   1      45.826  32.937  30.998  1.00  0.00    -0.206 F 
ATOM     82  C   UNL A   1      45.885  36.083  29.204  1.00  0.00     0.006 A 
ENDBRANCH  58  75
ENDBRANCH  32  33
ENDBRANCH  25  27
ENDBRANCH  24  25
ENDBRANCH  23  24
ENDBRANCH  22  23
ENDBRANCH   1  22
TORSDOF 17
ENDMDL
MODEL 2
REMARK VINA RESULT:     -10.5      1.011      1.952
REMARK SMILES CC[C@]1(C(=O)OCCOCCOC(=O)c2ccc(-c3c4nc(c(-c5c(F)cccc5F)c5ccc([nH]5)c(-c5c(F)cccc5F)c5nc(c(-c6c(F)cccc6F)c6ccc3[nH]6)C=C5)C=C4)cc2)CCN(C(=O)[C@]2(C)CCCO2)C1
REMARK SMILES IDX 9 1 8 2 7 3 6 4 4 5 5 6 3 7 69 8 80 9 70 10 71 11 2 12 1 13
REMARK SMILES IDX 72 14 73 15 74 16 76 17 79 18 75 19 77 20 78 21 10 22 11 23
REMARK SMILES IDX 12 24 13 25 14 26 15 27 16 28 68 29 17 30 67 31 18 32 19 33
REMARK SMILES IDX 20 34 61 35 21 36 66 37 60 38 62 39 22 40 65 41 59 42 58 43
REMARK SMILES IDX 23 45 49 46 32 47 48 48 33 49 36 50 47 51 63 52 34 53 35 54
REMARK SMILES IDX 46 56 64 57 37 58 24 59 25 60 30 61 26 62 27 63 29 64 31 65
REMARK SMILES IDX 28 66 50 67 51 68 56 69 52 70 53 71 55 72 57 73 54 74 38 75
REMARK SMILES IDX 39 76 44 77 40 78 41 79 43 80 45 81 42 82
REMARK H PARENT 62 44 36 55
REMARK Flexibility Score: inf
ROOT
ATOM      1  O   UNL A   1      34.729  21.063  26.036  1.00  0.00    -0.374 OA
ENDROOT
BRANCH   1   2
ATOM      2  C   UNL A   1      34.694  21.840  27.237  1.00  0.00     0.202 C 
BRANCH   2   3
ATOM      3  C   UNL A   1      33.318  22.350  27.671  1.00  0.00     0.261 C 
BRANCH   3   4
ATOM      4  O   UNL A   1      32.429  22.405  26.541  1.00  0.00    -0.463 OA
BRANCH   4   5
ATOM      5  C   UNL A   1      31.693  23.539  26.404  1.00  0.00     0.314 C 
ATOM      6  O   UNL A   1      30.956  23.989  27.271  1.00  0.00    -0.252 OA
BRANCH   5   7
ATOM      7  C   UNL A   1      31.864  24.176  25.027  1.00  0.00     0.087 C 
ATOM      8  C   UNL A   1      30.863  23.719  23.943  1.00  0.00     0.042 C 
ATOM      9  C   UNL A   1      31.473  25.662  25.196  1.00  0.00     0.138 C 
ATOM     10  C   UNL A   1      30.794  24.926  23.031  1.00  0.00     0.121 C 
ATOM     11  N   UNL A   1      30.745  26.015  23.980  1.00  0.00    -0.339 N 
BRANCH   7  12
ATOM     12  C   UNL A   1      33.341  24.030  24.551  1.00  0.00     0.017 C 
ATOM     13  C   UNL A   1      34.257  25.203  24.897  1.00  0.00     0.005 C 
ENDBRANCH   7  12
BRANCH  11  14
ATOM     14  C   UNL A   1      30.046  27.201  23.884  1.00  0.00     0.254 C 
ATOM     15  O   UNL A   1      28.813  27.181  23.806  1.00  0.00    -0.272 OA
BRANCH  14  16
ATOM     16  C   UNL A   1      30.833  28.549  23.818  1.00  0.00     0.144 C 
ATOM     17  C   UNL A   1      32.038  28.488  22.868  1.00  0.00     0.048 C 
ATOM     18  O   UNL A   1      31.342  28.927  25.108  1.00  0.00    -0.365 OA
ATOM     19  C   UNL A   1      29.872  29.657  23.355  1.00  0.00     0.053 C 
ATOM     20  C   UNL A   1      33.220  28.984  23.676  1.00  0.00     0.032 C 
ATOM     21  C   UNL A   1      32.615  29.550  24.938  1.00  0.00     0.162 C 
ENDBRANCH  14  16
ENDBRANCH  11  14
ENDBRANCH   5   7
ENDBRANCH   4   5
ENDBRANCH   3   4
ENDBRANCH   2   3
ENDBRANCH   1   2
BRANCH   1  22
ATOM     22  C   UNL A   1      35.731  21.386  25.075  1.00  0.00     0.202 C 
BRANCH  22  23
ATOM     23  C   UNL A   1      37.059  20.625  25.176  1.00  0.00     0.261 C 
BRANCH  23  24
ATOM     24  O   UNL A   1      38.201  21.487  25.058  1.00  0.00    -0.460 OA
BRANCH  24  25
ATOM     25  C   UNL A   1      39.212  21.171  25.900  1.00  0.00     0.338 C 
ATOM     26  O   UNL A   1      39.812  20.103  25.970  1.00  0.00    -0.246 OA
BRANCH  25  27
ATOM     27  C   UNL A   1      39.648  22.353  26.659  1.00  0.00     0.060 A 
ATOM     28  C   UNL A   1      39.093  23.583  26.284  1.00  0.00     0.016 A 
ATOM     29  C   UNL A   1      40.637  22.290  27.644  1.00  0.00     0.016 A 
ATOM     30  C   UNL A   1      39.575  24.761  26.838  1.00  0.00     0.010 A 
ATOM     31  C   UNL A   1      41.125  23.479  28.201  1.00  0.00     0.010 A 
ATOM     32  C   UNL A   1      40.628  24.721  27.763  1.00  0.00    -0.014 A 
BRANCH  32  33
ATOM     33  C   UNL A   1      41.289  25.997  28.126  1.00  0.00     0.031 A 
ATOM     34  C   UNL A   1      42.678  26.273  27.618  1.00  0.00     0.074 A 
ATOM     35  C   UNL A   1      40.620  26.941  28.810  1.00  0.00     0.049 A 
ATOM     36  N   UNL A   1      43.390  27.368  27.702  1.00  0.00    -0.248 NA
ATOM     37  C   UNL A   1      43.354  25.167  26.921  1.00  0.00     0.031 C 
ATOM     38  C   UNL A   1      39.265  26.799  29.339  1.00  0.00     0.029 A 
ATOM     39  N   UNL A   1      40.989  28.216  29.159  1.00  0.00    -0.354 N 
ATOM     40  C   UNL A   1      44.592  27.086  27.062  1.00  0.00     0.074 A 
ATOM     41  C   UNL A   1      44.529  25.706  26.632  1.00  0.00     0.031 C 
ATOM     42  C   UNL A   1      38.910  27.948  29.940  1.00  0.00     0.029 A 
ATOM     43  C   UNL A   1      40.016  28.899  29.845  1.00  0.00     0.049 A 
ATOM     44  H   UNL A   1      41.867  28.602  28.941  1.00  0.00     0.167 HD
ATOM     45  C   UNL A   1      45.645  27.908  26.839  1.00  0.00     0.037 A 
ATOM     46  C   UNL A   1      40.016  30.154  30.334  1.00  0.00     0.037 A 
ATOM     47  C   UNL A   1      45.706  29.281  27.264  1.00  0.00     0.049 A 
ATOM     48  C   UNL A   1      41.209  31.040  30.095  1.00  0.00     0.074 A 
ATOM     49  C   UNL A   1      46.720  30.202  27.067  1.00  0.00     0.029 A 
ATOM     50  N   UNL A   1      44.712  29.929  27.981  1.00  0.00    -0.354 N 
ATOM     51  N   UNL A   1      42.319  30.778  29.448  1.00  0.00    -0.248 NA
ATOM     52  C   UNL A   1      41.140  32.403  30.642  1.00  0.00     0.031 C 
ATOM     53  C   UNL A   1      46.358  31.396  27.702  1.00  0.00     0.029 A 
ATOM     54  C   UNL A   1      45.097  31.232  28.254  1.00  0.00     0.049 A 
ATOM     55  H   UNL A   1      43.858  29.523  28.256  1.00  0.00     0.167 HD
ATOM     56  C   UNL A   1      43.069  31.948  29.488  1.00  0.00     0.074 A 
ATOM     57  C   UNL A   1      42.279  32.925  30.209  1.00  0.00     0.031 C 
ATOM     58  C   UNL A   1      44.299  32.191  28.974  1.00  0.00     0.037 A 
BRANCH  45  59
ATOM     59  C   UNL A   1      46.826  27.331  26.116  1.00  0.00     0.057 A 
ATOM     60  C   UNL A   1      46.957  27.420  24.724  1.00  0.00     0.134 A 
ATOM     61  C   UNL A   1      47.856  26.698  26.823  1.00  0.00     0.134 A 
ATOM     62  F   UNL A   1      45.999  28.001  23.986  1.00  0.00    -0.206 F 
ATOM     63  C   UNL A   1      48.060  26.880  24.058  1.00  0.00     0.040 A 
ATOM     64  C   UNL A   1      48.974  26.175  26.172  1.00  0.00     0.040 A 
ATOM     65  F   UNL A   1      47.793  26.580  28.158  1.00  0.00    -0.206 F 
ATOM     66  C   UNL A   1      49.076  26.261  24.785  1.00  0.00     0.006 A 
ENDBRANCH  45  59
BRANCH  46  67
ATOM     67  C   UNL A   1      38.839  30.654  31.085  1.00  0.00     0.057 A 
ATOM     68  C   UNL A   1      38.707  30.445  32.462  1.00  0.00     0.134 A 
ATOM     69  C   UNL A   1      37.809  31.346  30.436  1.00  0.00     0.134 A 
ATOM     70  F   UNL A   1      39.650  29.769  33.135  1.00  0.00    -0.206 F 
ATOM     71  C   UNL A   1      37.587  30.893  33.165  1.00  0.00     0.040 A 
ATOM     72  C   UNL A   1      36.696  31.821  31.130  1.00  0.00     0.040 A 
ATOM     73  F   UNL A   1      37.878  31.580  29.117  1.00  0.00    -0.206 F 
ATOM     74  C   UNL A   1      36.580  31.588  32.499  1.00  0.00     0.006 A 
ENDBRANCH  46  67
BRANCH  58  75
ATOM     75  C   UNL A   1      44.852  33.576  29.151  1.00  0.00     0.057 A 
ATOM     76  C   UNL A   1      45.652  33.917  30.249  1.00  0.00     0.134 A 
ATOM     77  C   UNL A   1      44.595  34.574  28.202  1.00  0.00     0.134 A 
ATOM     78  F   UNL A   1      45.926  33.010  31.199  1.00  0.00    -0.206 F 
ATOM     79  C   UNL A   1      46.151  35.211  30.414  1.00  0.00     0.040 A 
ATOM     80  C   UNL A   1      45.110  35.863  28.343  1.00  0.00     0.040 A 
ATOM     81  F   UNL A   1      43.845  34.310  27.122  1.00  0.00    -0.206 F 
ATOM     82  C   UNL A   1      45.884  36.187  29.455  1.00  0.00     0.006 A 
ENDBRANCH  58  75
ENDBRANCH  32  33
ENDBRANCH  25  27
ENDBRANCH  24  25
ENDBRANCH  23  24
ENDBRANCH  22  23
ENDBRANCH   1  22
TORSDOF 17
ENDMDL
MODEL 3
REMARK VINA RESULT:     -10.1      3.783      9.283
REMARK SMILES CC[C@]1(C(=O)OCCOCCOC(=O)c2ccc(-c3c4nc(c(-c5c(F)cccc5F)c5ccc([nH]5)c(-c5c(F)cccc5F)c5nc(c(-c6c(F)cccc6F)c6ccc3[nH]6)C=C5)C=C4)cc2)CCN(C(=O)[C@]2(C)CCCO2)C1
REMARK SMILES IDX 9 1 8 2 7 3 6 4 4 5 5 6 3 7 69 8 80 9 70 10 71 11 2 12 1 13
REMARK SMILES IDX 72 14 73 15 74 16 76 17 79 18 75 19 77 20 78 21 10 22 11 23
REMARK SMILES IDX 12 24 13 25 14 26 15 27 16 28 68 29 17 30 67 31 18 32 19 33
REMARK SMILES IDX 20 34 61 35 21 36 66 37 60 38 62 39 22 40 65 41 59 42 58 43
REMARK SMILES IDX 23 45 49 46 32 47 48 48 33 49 36 50 47 51 63 52 34 53 35 54
REMARK SMILES IDX 46 56 64 57 37 58 24 59 25 60 30 61 26 62 27 63 29 64 31 65
REMARK SMILES IDX 28 66 50 67 51 68 56 69 52 70 53 71 55 72 57 73 54 74 38 75
REMARK SMILES IDX 39 76 44 77 40 78 41 79 43 80 45 81 42 82
REMARK H PARENT 62 44 36 55
REMARK Flexibility Score: inf
ROOT
ATOM      1  O   UNL A   1      32.333  28.185  25.058  1.00  0.00    -0.374 OA
ENDROOT
BRANCH   1   2
ATOM      2  C   UNL A   1      33.049  27.361  25.981  1.00  0.00     0.202 C 
BRANCH   2   3
ATOM      3  C   UNL A   1      32.973  25.852  25.739  1.00  0.00     0.261 C 
BRANCH   3   4
ATOM      4  O   UNL A   1      34.269  25.341  25.378  1.00  0.00    -0.463 OA
BRANCH   4   5
ATOM      5  C   UNL A   1      34.297  24.401  24.397  1.00  0.00     0.314 C 
ATOM      6  O   UNL A   1      33.825  24.560  23.278  1.00  0.00    -0.252 OA
BRANCH   5   7
ATOM      7  C   UNL A   1      34.957  23.104  24.858  1.00  0.00     0.087 C 
ATOM      8  C   UNL A   1      34.644  22.664  26.305  1.00  0.00     0.042 C 
ATOM      9  C   UNL A   1      34.287  21.975  24.043  1.00  0.00     0.138 C 
ATOM     10  C   UNL A   1      34.788  21.158  26.228  1.00  0.00     0.121 C 
ATOM     11  N   UNL A   1      34.135  20.859  24.975  1.00  0.00    -0.339 N 
BRANCH   7  12
ATOM     12  C   UNL A   1      36.492  23.162  24.589  1.00  0.00     0.017 C 
ATOM     13  C   UNL A   1      37.335  23.704  25.742  1.00  0.00     0.005 C 
ENDBRANCH   7  12
BRANCH  11  14
ATOM     14  C   UNL A   1      33.364  19.760  24.653  1.00  0.00     0.254 C 
ATOM     15  O   UNL A   1      32.152  19.899  24.454  1.00  0.00    -0.272 OA
BRANCH  14  16
ATOM     16  C   UNL A   1      34.030  18.347  24.604  1.00  0.00     0.144 C 
ATOM     17  C   UNL A   1      33.626  17.544  23.359  1.00  0.00     0.048 C 
ATOM     18  O   UNL A   1      33.665  17.553  25.745  1.00  0.00    -0.365 OA
ATOM     19  C   UNL A   1      35.557  18.522  24.628  1.00  0.00     0.053 C 
ATOM     20  C   UNL A   1      33.142  16.204  23.876  1.00  0.00     0.032 C 
ATOM     21  C   UNL A   1      33.529  16.192  25.336  1.00  0.00     0.162 C 
ENDBRANCH  14  16
ENDBRANCH  11  14
ENDBRANCH   5   7
ENDBRANCH   4   5
ENDBRANCH   3   4
ENDBRANCH   2   3
ENDBRANCH   1   2
BRANCH   1  22
ATOM     22  C   UNL A   1      32.665  29.571  25.021  1.00  0.00     0.202 C 
BRANCH  22  23
ATOM     23  C   UNL A   1      31.889  30.495  25.968  1.00  0.00     0.261 C 
BRANCH  23  24
ATOM     24  O   UNL A   1      32.496  30.596  27.264  1.00  0.00    -0.460 OA
BRANCH  24  25
ATOM     25  C   UNL A   1      33.222  31.724  27.440  1.00  0.00     0.338 C 
ATOM     26  O   UNL A   1      32.805  32.877  27.466  1.00  0.00    -0.246 OA
BRANCH  25  27
ATOM     27  C   UNL A   1      34.618  31.400  27.771  1.00  0.00     0.060 A 
ATOM     28  C   UNL A   1      34.925  30.046  27.952  1.00  0.00     0.016 A 
ATOM     29  C   UNL A   1      35.585  32.385  27.992  1.00  0.00     0.016 A 
ATOM     30  C   UNL A   1      36.177  29.675  28.426  1.00  0.00     0.010 A 
ATOM     31  C   UNL A   1      36.846  32.009  28.473  1.00  0.00     0.010 A 
ATOM     32  C   UNL A   1      37.128  30.657  28.737  1.00  0.00    -0.014 A 
BRANCH  32  33
ATOM     33  C   UNL A   1      38.339  30.244  29.485  1.00  0.00     0.031 A 
ATOM     34  C   UNL A   1      38.508  30.693  30.912  1.00  0.00     0.074 A 
ATOM     35  C   UNL A   1      39.225  29.395  28.935  1.00  0.00     0.049 A 
ATOM     36  N   UNL A   1      39.415  30.346  31.789  1.00  0.00    -0.248 NA
ATOM     37  C   UNL A   1      37.520  31.658  31.417  1.00  0.00     0.031 C 
ATOM     38  C   UNL A   1      39.160  28.877  27.570  1.00  0.00     0.029 A 
ATOM     39  N   UNL A   1      40.342  28.806  29.469  1.00  0.00    -0.354 N 
ATOM     40  C   UNL A   1      39.103  31.043  32.950  1.00  0.00     0.074 A 
ATOM     41  C   UNL A   1      37.948  31.863  32.654  1.00  0.00     0.031 C 
ATOM     42  C   UNL A   1      40.191  28.037  27.375  1.00  0.00     0.029 A 
ATOM     43  C   UNL A   1      40.990  27.968  28.597  1.00  0.00     0.049 A 
ATOM     44  H   UNL A   1      40.652  28.970  30.389  1.00  0.00     0.167 HD
ATOM     45  C   UNL A   1      39.714  30.992  34.158  1.00  0.00     0.037 A 
ATOM     46  C   UNL A   1      42.098  27.222  28.769  1.00  0.00     0.037 A 
ATOM     47  C   UNL A   1      40.860  30.175  34.453  1.00  0.00     0.049 A 
ATOM     48  C   UNL A   1      42.774  27.201  30.114  1.00  0.00     0.074 A 
ATOM     49  C   UNL A   1      41.537  30.037  35.652  1.00  0.00     0.029 A 
ATOM     50  N   UNL A   1      41.505  29.360  33.535  1.00  0.00    -0.354 N 
ATOM     51  N   UNL A   1      42.442  27.828  31.217  1.00  0.00    -0.248 NA
ATOM     52  C   UNL A   1      43.970  26.357  30.240  1.00  0.00     0.031 C 
ATOM     53  C   UNL A   1      42.618  29.172  35.449  1.00  0.00     0.029 A 
ATOM     54  C   UNL A   1      42.586  28.733  34.134  1.00  0.00     0.049 A 
ATOM     55  H   UNL A   1      41.234  29.244  32.596  1.00  0.00     0.167 HD
ATOM     56  C   UNL A   1      43.371  27.435  32.173  1.00  0.00     0.074 A 
ATOM     57  C   UNL A   1      44.269  26.503  31.523  1.00  0.00     0.031 C 
ATOM     58  C   UNL A   1      43.471  27.810  33.472  1.00  0.00     0.037 A 
BRANCH  45  59
ATOM     59  C   UNL A   1      39.159  31.864  35.246  1.00  0.00     0.057 A 
ATOM     60  C   UNL A   1      38.291  31.363  36.225  1.00  0.00     0.134 A 
ATOM     61  C   UNL A   1      39.515  33.216  35.328  1.00  0.00     0.134 A 
ATOM     62  F   UNL A   1      37.898  30.081  36.194  1.00  0.00    -0.206 F 
ATOM     63  C   UNL A   1      37.778  32.182  37.234  1.00  0.00     0.040 A 
ATOM     64  C   UNL A   1      39.029  34.038  36.346  1.00  0.00     0.040 A 
ATOM     65  F   UNL A   1      40.344  33.758  34.423  1.00  0.00    -0.206 F 
ATOM     66  C   UNL A   1      38.153  33.523  37.299  1.00  0.00     0.006 A 
ENDBRANCH  45  59
BRANCH  46  67
ATOM     67  C   UNL A   1      42.630  26.418  27.641  1.00  0.00     0.057 A 
ATOM     68  C   UNL A   1      42.260  25.082  27.457  1.00  0.00     0.134 A 
ATOM     69  C   UNL A   1      43.533  26.970  26.724  1.00  0.00     0.134 A 
ATOM     70  F   UNL A   1      41.416  24.491  28.316  1.00  0.00    -0.206 F 
ATOM     71  C   UNL A   1      42.779  24.318  26.411  1.00  0.00     0.040 A 
ATOM     72  C   UNL A   1      44.041  26.225  25.659  1.00  0.00     0.040 A 
ATOM     73  F   UNL A   1      43.925  28.247  26.845  1.00  0.00    -0.206 F 
ATOM     74  C   UNL A   1      43.668  24.891  25.505  1.00  0.00     0.006 A 
ENDBRANCH  46  67
BRANCH  58  75
ATOM     75  C   UNL A   1      44.575  27.191  34.279  1.00  0.00     0.057 A 
ATOM     76  C   UNL A   1      44.399  25.982  34.966  1.00  0.00     0.134 A 
ATOM     77  C   UNL A   1      45.833  27.801  34.354  1.00  0.00     0.134 A 
ATOM     78  F   UNL A   1      43.214  25.354  34.944  1.00  0.00    -0.206 F 
ATOM     79  C   UNL A   1      45.426  25.420  35.726  1.00  0.00     0.040 A 
ATOM     80  C   UNL A   1      46.876  27.233  35.089  1.00  0.00     0.040 A 
ATOM     81  F   UNL A   1      46.072  28.953  33.710  1.00  0.00    -0.206 F 
ATOM     82  C   UNL A   1      46.671  26.044  35.784  1.00  0.00     0.006 A 
ENDBRANCH  58  75
ENDBRANCH  32  33
ENDBRANCH  25  27
ENDBRANCH  24  25
ENDBRANCH  23  24
ENDBRANCH  22  23
ENDBRANCH   1  22
TORSDOF 17
ENDMDL
