MODEL 1
REMARK VINA RESULT:     -11.4      0.000      0.000
REMARK SMILES O=C(OCCOCCOC(=O)c1ccc(S(=O)(=O)N[C@@H]2CC[N@@H+]3CCC[C@H]23)cc1)c1ccc(-c2c3nc(c(-c4c(F)cccc4F)c4ccc([nH]4)c(-c4c(F)cccc4F)c4nc(c(-c5c(F)cccc5F)c5ccc2[nH]5)C=C4)C=C3)cc1
REMARK SMILES IDX 7 1 6 2 5 3 4 4 3 5 2 6 1 7 30 8 31 9 83 10 32 11 82 12
REMARK SMILES IDX 33 13 34 14 35 15 76 16 36 17 81 18 75 19 77 20 37 21 80 22
REMARK SMILES IDX 74 23 73 24 38 26 64 27 47 28 63 29 48 30 51 31 62 32 78 33
REMARK SMILES IDX 49 34 50 35 61 37 79 38 52 39 39 40 40 41 45 42 41 43 42 44
REMARK SMILES IDX 44 45 46 46 43 47 65 48 66 49 71 50 67 51 68 52 70 53 72 54
REMARK SMILES IDX 69 55 53 56 54 57 59 58 55 59 56 60 58 61 60 62 57 63 8 64
REMARK SMILES IDX 9 65 10 66 11 67 12 68 13 69 29 70 14 71 28 72 15 73 16 74
REMARK SMILES IDX 17 75 18 76 19 77 20 79 21 80 27 81 22 82 23 83 26 84 24 85
REMARK SMILES IDX 25 87
REMARK H PARENT 77 25 51 36 19 78 23 86
REMARK Flexibility Score: inf
ROOT
ATOM      1  C   UNL A   1      40.478  20.294  26.045  1.00  0.00     0.202 C 
ENDROOT
BRANCH   1   2
ATOM      2  O   UNL A   1      41.740  20.046  26.681  1.00  0.00    -0.374 OA
BRANCH   2   3
ATOM      3  C   UNL A   1      42.630  21.161  26.751  1.00  0.00     0.202 C 
BRANCH   3   4
ATOM      4  C   UNL A   1      43.304  21.523  25.425  1.00  0.00     0.261 C 
BRANCH   4   5
ATOM      5  O   UNL A   1      42.828  22.797  24.958  1.00  0.00    -0.460 OA
BRANCH   5   6
ATOM      6  C   UNL A   1      43.326  24.029  25.213  1.00  0.00     0.338 C 
ATOM      7  O   UNL A   1      44.228  24.458  24.497  1.00  0.00    -0.246 OA
BRANCH   6   8
ATOM      8  C   UNL A   1      42.849  24.899  26.331  1.00  0.00     0.060 A 
ATOM      9  C   UNL A   1      41.974  24.496  27.341  1.00  0.00     0.016 A 
ATOM     10  C   UNL A   1      43.413  26.183  26.422  1.00  0.00     0.016 A 
ATOM     11  C   UNL A   1      41.612  25.350  28.372  1.00  0.00     0.010 A 
ATOM     12  C   UNL A   1      43.093  27.034  27.483  1.00  0.00     0.010 A 
ATOM     13  C   UNL A   1      42.177  26.619  28.455  1.00  0.00    -0.014 A 
BRANCH  13  14
ATOM     14  C   UNL A   1      41.734  27.509  29.540  1.00  0.00     0.031 A 
ATOM     15  C   UNL A   1      42.537  27.556  30.802  1.00  0.00     0.074 A 
ATOM     16  C   UNL A   1      40.695  28.337  29.333  1.00  0.00     0.049 A 
ATOM     17  N   UNL A   1      42.317  28.233  31.895  1.00  0.00    -0.248 NA
ATOM     18  C   UNL A   1      43.760  26.739  30.830  1.00  0.00     0.031 C 
ATOM     19  C   UNL A   1      39.930  28.431  28.087  1.00  0.00     0.029 A 
ATOM     20  N   UNL A   1      40.122  29.274  30.149  1.00  0.00    -0.354 N 
ATOM     21  C   UNL A   1      43.360  27.907  32.750  1.00  0.00     0.074 A 
ATOM     22  C   UNL A   1      44.211  26.970  32.053  1.00  0.00     0.031 C 
ATOM     23  C   UNL A   1      39.002  29.393  28.216  1.00  0.00     0.029 A 
ATOM     24  C   UNL A   1      39.065  29.932  29.569  1.00  0.00     0.049 A 
ATOM     25  H   UNL A   1      40.437  29.460  31.063  1.00  0.00     0.167 HD
ATOM     26  C   UNL A   1      43.576  28.352  34.010  1.00  0.00     0.037 A 
ATOM     27  C   UNL A   1      38.227  30.845  30.093  1.00  0.00     0.037 A 
ATOM     28  C   UNL A   1      42.705  29.279  34.679  1.00  0.00     0.049 A 
ATOM     29  C   UNL A   1      38.434  31.252  31.526  1.00  0.00     0.074 A 
ATOM     30  C   UNL A   1      42.774  29.753  35.976  1.00  0.00     0.029 A 
ATOM     31  N   UNL A   1      41.598  29.876  34.089  1.00  0.00    -0.354 N 
ATOM     32  N   UNL A   1      39.384  30.889  32.357  1.00  0.00    -0.248 NA
ATOM     33  C   UNL A   1      37.449  32.174  32.102  1.00  0.00     0.031 C 
ATOM     34  C   UNL A   1      41.685  30.608  36.180  1.00  0.00     0.029 A 
ATOM     35  C   UNL A   1      40.964  30.701  34.999  1.00  0.00     0.049 A 
ATOM     36  H   UNL A   1      41.308  29.731  33.159  1.00  0.00     0.167 HD
ATOM     37  C   UNL A   1      39.117  31.542  33.551  1.00  0.00     0.074 A 
ATOM     38  C   UNL A   1      37.927  32.343  33.328  1.00  0.00     0.031 C 
ATOM     39  C   UNL A   1      39.784  31.483  34.730  1.00  0.00     0.037 A 
BRANCH  26  40
ATOM     40  C   UNL A   1      44.751  27.776  34.740  1.00  0.00     0.057 A 
ATOM     41  C   UNL A   1      44.660  26.588  35.477  1.00  0.00     0.134 A 
ATOM     42  C   UNL A   1      45.980  28.446  34.744  1.00  0.00     0.134 A 
ATOM     43  F   UNL A   1      43.503  25.913  35.540  1.00  0.00    -0.206 F 
ATOM     44  C   UNL A   1      45.744  26.102  36.214  1.00  0.00     0.040 A 
ATOM     45  C   UNL A   1      47.076  27.960  35.458  1.00  0.00     0.040 A 
ATOM     46  F   UNL A   1      46.131  29.593  34.065  1.00  0.00    -0.206 F 
ATOM     47  C   UNL A   1      46.957  26.789  36.204  1.00  0.00     0.006 A 
ENDBRANCH  26  40
BRANCH  27  48
ATOM     48  C   UNL A   1      37.104  31.387  29.285  1.00  0.00     0.057 A 
ATOM     49  C   UNL A   1      35.958  30.628  29.026  1.00  0.00     0.134 A 
ATOM     50  C   UNL A   1      37.151  32.681  28.748  1.00  0.00     0.134 A 
ATOM     51  F   UNL A   1      35.858  29.374  29.493  1.00  0.00    -0.206 F 
ATOM     52  C   UNL A   1      34.906  31.128  28.255  1.00  0.00     0.040 A 
ATOM     53  C   UNL A   1      36.096  33.204  27.999  1.00  0.00     0.040 A 
ATOM     54  F   UNL A   1      38.220  33.463  28.958  1.00  0.00    -0.206 F 
ATOM     55  C   UNL A   1      34.971  32.424  27.744  1.00  0.00     0.006 A 
ENDBRANCH  27  48
BRANCH  39  56
ATOM     56  C   UNL A   1      39.247  32.322  35.849  1.00  0.00     0.057 A 
ATOM     57  C   UNL A   1      38.332  31.809  36.775  1.00  0.00     0.134 A 
ATOM     58  C   UNL A   1      39.694  33.637  36.028  1.00  0.00     0.134 A 
ATOM     59  F   UNL A   1      37.859  30.561  36.646  1.00  0.00    -0.206 F 
ATOM     60  C   UNL A   1      37.866  32.583  37.838  1.00  0.00     0.040 A 
ATOM     61  C   UNL A   1      39.252  34.412  37.100  1.00  0.00     0.040 A 
ATOM     62  F   UNL A   1      40.577  34.178  35.176  1.00  0.00    -0.206 F 
ATOM     63  C   UNL A   1      38.334  33.886  38.006  1.00  0.00     0.006 A 
ENDBRANCH  39  56
ENDBRANCH  13  14
ENDBRANCH   6   8
ENDBRANCH   5   6
ENDBRANCH   4   5
ENDBRANCH   3   4
ENDBRANCH   2   3
ENDBRANCH   1   2
BRANCH   1  64
ATOM     64  C   UNL A   1      39.858  21.568  26.631  1.00  0.00     0.261 C 
BRANCH  64  65
ATOM     65  O   UNL A   1      38.908  22.070  25.680  1.00  0.00    -0.460 OA
BRANCH  65  66
ATOM     66  C   UNL A   1      38.199  23.135  26.126  1.00  0.00     0.338 C 
ATOM     67  O   UNL A   1      38.554  23.954  26.958  1.00  0.00    -0.246 OA
BRANCH  66  68
ATOM     68  C   UNL A   1      36.997  23.281  25.271  1.00  0.00     0.060 A 
ATOM     69  C   UNL A   1      35.964  24.114  25.724  1.00  0.00     0.017 A 
ATOM     70  C   UNL A   1      36.919  22.686  24.002  1.00  0.00     0.017 A 
ATOM     71  C   UNL A   1      34.835  24.318  24.933  1.00  0.00     0.022 A 
ATOM     72  C   UNL A   1      35.803  22.902  23.200  1.00  0.00     0.022 A 
ATOM     73  C   UNL A   1      34.753  23.684  23.691  1.00  0.00     0.082 A 
BRANCH  73  74
ATOM     74  S   UNL A   1      33.232  23.723  22.791  1.00  0.00     0.241 S 
ATOM     75  O   UNL A   1      33.543  23.789  21.382  1.00  0.00    -0.207 OA
ATOM     76  O   UNL A   1      32.371  22.689  23.316  1.00  0.00    -0.207 OA
BRANCH  74  77
ATOM     77  N   UNL A   1      32.545  25.211  23.209  1.00  0.00    -0.202 NA
ATOM     78  H   UNL A   1      33.096  25.577  23.985  1.00  0.00     0.141 HD
BRANCH  77  79
ATOM     79  C   UNL A   1      32.435  26.308  22.213  1.00  0.00     0.133 C 
ATOM     80  C   UNL A   1      33.507  27.362  22.522  1.00  0.00     0.087 C 
ATOM     81  C   UNL A   1      31.114  27.089  22.122  1.00  0.00     0.202 C 
ATOM     82  C   UNL A   1      32.731  28.616  22.867  1.00  0.00     0.264 C 
ATOM     83  N   UNL A   1      31.539  28.503  22.025  1.00  0.00    -0.331 N 
ATOM     84  C   UNL A   1      30.142  27.049  23.290  1.00  0.00     0.072 C 
ATOM     85  C   UNL A   1      30.430  29.328  22.499  1.00  0.00     0.262 C 
ATOM     86  H   UNL A   1      31.766  28.809  21.080  1.00  0.00     0.348 HD
ATOM     87  C   UNL A   1      29.548  28.445  23.366  1.00  0.00     0.068 C 
ENDBRANCH  77  79
ENDBRANCH  74  77
ENDBRANCH  73  74
ENDBRANCH  66  68
ENDBRANCH  65  66
ENDBRANCH  64  65
ENDBRANCH   1  64
TORSDOF 17
ENDMDL
MODEL 2
REMARK VINA RESULT:     -11.1      4.913      9.871
REMARK SMILES O=C(OCCOCCOC(=O)c1ccc(S(=O)(=O)N[C@@H]2CC[N@@H+]3CCC[C@H]23)cc1)c1ccc(-c2c3nc(c(-c4c(F)cccc4F)c4ccc([nH]4)c(-c4c(F)cccc4F)c4nc(c(-c5c(F)cccc5F)c5ccc2[nH]5)C=C4)C=C3)cc1
REMARK SMILES IDX 7 1 6 2 5 3 4 4 3 5 2 6 1 7 30 8 31 9 83 10 32 11 82 12
REMARK SMILES IDX 33 13 34 14 35 15 76 16 36 17 81 18 75 19 77 20 37 21 80 22
REMARK SMILES IDX 74 23 73 24 38 26 64 27 47 28 63 29 48 30 51 31 62 32 78 33
REMARK SMILES IDX 49 34 50 35 61 37 79 38 52 39 39 40 40 41 45 42 41 43 42 44
REMARK SMILES IDX 44 45 46 46 43 47 65 48 66 49 71 50 67 51 68 52 70 53 72 54
REMARK SMILES IDX 69 55 53 56 54 57 59 58 55 59 56 60 58 61 60 62 57 63 8 64
REMARK SMILES IDX 9 65 10 66 11 67 12 68 13 69 29 70 14 71 28 72 15 73 16 74
REMARK SMILES IDX 17 75 18 76 19 77 20 79 21 80 27 81 22 82 23 83 26 84 24 85
REMARK SMILES IDX 25 87
REMARK H PARENT 77 25 51 36 19 78 23 86
REMARK Flexibility Score: inf
ROOT
ATOM      1  C   UNL A   1      34.636  33.299  28.007  1.00  0.00     0.202 C 
ENDROOT
BRANCH   1   2
ATOM      2  O   UNL A   1      34.992  34.203  29.062  1.00  0.00    -0.374 OA
BRANCH   2   3
ATOM      3  C   UNL A   1      34.027  34.352  30.106  1.00  0.00     0.202 C 
BRANCH   3   4
ATOM      4  C   UNL A   1      34.573  34.113  31.516  1.00  0.00     0.261 C 
BRANCH   4   5
ATOM      5  O   UNL A   1      34.842  32.714  31.712  1.00  0.00    -0.460 OA
BRANCH   5   6
ATOM      6  C   UNL A   1      35.900  32.136  32.325  1.00  0.00     0.338 C 
ATOM      7  O   UNL A   1      35.889  32.037  33.551  1.00  0.00    -0.246 OA
BRANCH   6   8
ATOM      8  C   UNL A   1      37.099  31.621  31.596  1.00  0.00     0.060 A 
ATOM      9  C   UNL A   1      37.355  31.818  30.238  1.00  0.00     0.016 A 
ATOM     10  C   UNL A   1      38.086  30.983  32.366  1.00  0.00     0.016 A 
ATOM     11  C   UNL A   1      38.514  31.345  29.641  1.00  0.00     0.010 A 
ATOM     12  C   UNL A   1      39.280  30.546  31.785  1.00  0.00     0.010 A 
ATOM     13  C   UNL A   1      39.487  30.716  30.412  1.00  0.00    -0.014 A 
BRANCH  13  14
ATOM     14  C   UNL A   1      40.684  30.192  29.733  1.00  0.00     0.031 A 
ATOM     15  C   UNL A   1      41.882  31.078  29.605  1.00  0.00     0.074 A 
ATOM     16  C   UNL A   1      40.712  28.904  29.348  1.00  0.00     0.049 A 
ATOM     17  N   UNL A   1      43.023  30.844  29.019  1.00  0.00    -0.248 NA
ATOM     18  C   UNL A   1      41.785  32.404  30.236  1.00  0.00     0.031 C 
ATOM     19  C   UNL A   1      39.623  27.944  29.539  1.00  0.00     0.029 A 
ATOM     20  N   UNL A   1      41.700  28.174  28.746  1.00  0.00    -0.354 N 
ATOM     21  C   UNL A   1      43.773  31.998  29.189  1.00  0.00     0.074 A 
ATOM     22  C   UNL A   1      42.959  32.935  29.929  1.00  0.00     0.031 C 
ATOM     23  C   UNL A   1      40.014  26.743  29.083  1.00  0.00     0.029 A 
ATOM     24  C   UNL A   1      41.348  26.867  28.511  1.00  0.00     0.049 A 
ATOM     25  H   UNL A   1      42.578  28.548  28.503  1.00  0.00     0.167 HD
ATOM     26  C   UNL A   1      45.030  32.248  28.754  1.00  0.00     0.037 A 
ATOM     27  C   UNL A   1      42.026  25.894  27.874  1.00  0.00     0.037 A 
ATOM     28  C   UNL A   1      45.812  31.297  28.012  1.00  0.00     0.049 A 
ATOM     29  C   UNL A   1      43.384  26.228  27.319  1.00  0.00     0.074 A 
ATOM     30  C   UNL A   1      47.068  31.451  27.456  1.00  0.00     0.029 A 
ATOM     31  N   UNL A   1      45.400  30.001  27.727  1.00  0.00    -0.354 N 
ATOM     32  N   UNL A   1      44.065  27.345  27.422  1.00  0.00    -0.248 NA
ATOM     33  C   UNL A   1      44.059  25.179  26.545  1.00  0.00     0.031 C 
ATOM     34  C   UNL A   1      47.399  30.259  26.802  1.00  0.00     0.029 A 
ATOM     35  C   UNL A   1      46.369  29.348  26.988  1.00  0.00     0.049 A 
ATOM     36  H   UNL A   1      44.544  29.606  28.010  1.00  0.00     0.167 HD
ATOM     37  C   UNL A   1      45.250  27.135  26.733  1.00  0.00     0.074 A 
ATOM     38  C   UNL A   1      45.204  25.772  26.237  1.00  0.00     0.031 C 
ATOM     39  C   UNL A   1      46.281  27.988  26.519  1.00  0.00     0.037 A 
BRANCH  26  40
ATOM     40  C   UNL A   1      45.578  33.618  29.015  1.00  0.00     0.057 A 
ATOM     41  C   UNL A   1      46.317  33.919  30.166  1.00  0.00     0.134 A 
ATOM     42  C   UNL A   1      45.321  34.664  28.120  1.00  0.00     0.134 A 
ATOM     43  F   UNL A   1      46.571  32.969  31.078  1.00  0.00    -0.206 F 
ATOM     44  C   UNL A   1      46.757  35.218  30.431  1.00  0.00     0.040 A 
ATOM     45  C   UNL A   1      45.774  35.962  28.363  1.00  0.00     0.040 A 
ATOM     46  F   UNL A   1      44.612  34.445  27.002  1.00  0.00    -0.206 F 
ATOM     47  C   UNL A   1      46.487  36.244  29.527  1.00  0.00     0.006 A 
ENDBRANCH  26  40
BRANCH  27  48
ATOM     48  C   UNL A   1      41.417  24.552  27.686  1.00  0.00     0.057 A 
ATOM     49  C   UNL A   1      41.822  23.453  28.451  1.00  0.00     0.134 A 
ATOM     50  C   UNL A   1      40.413  24.334  26.732  1.00  0.00     0.134 A 
ATOM     51  F   UNL A   1      42.794  23.588  29.366  1.00  0.00    -0.206 F 
ATOM     52  C   UNL A   1      41.263  22.186  28.267  1.00  0.00     0.040 A 
ATOM     53  C   UNL A   1      39.826  23.081  26.557  1.00  0.00     0.040 A 
ATOM     54  F   UNL A   1      39.977  25.345  25.965  1.00  0.00    -0.206 F 
ATOM     55  C   UNL A   1      40.255  21.999  27.321  1.00  0.00     0.006 A 
ENDBRANCH  27  48
BRANCH  39  56
ATOM     56  C   UNL A   1      47.442  27.458  25.734  1.00  0.00     0.057 A 
ATOM     57  C   UNL A   1      47.478  27.535  24.338  1.00  0.00     0.134 A 
ATOM     58  C   UNL A   1      48.553  26.914  26.389  1.00  0.00     0.134 A 
ATOM     59  F   UNL A   1      46.436  28.033  23.656  1.00  0.00    -0.206 F 
ATOM     60  C   UNL A   1      48.578  27.074  23.615  1.00  0.00     0.040 A 
ATOM     61  C   UNL A   1      49.668  26.472  25.678  1.00  0.00     0.040 A 
ATOM     62  F   UNL A   1      48.578  26.822  27.727  1.00  0.00    -0.206 F 
ATOM     63  C   UNL A   1      49.681  26.549  24.287  1.00  0.00     0.006 A 
ENDBRANCH  39  56
ENDBRANCH  13  14
ENDBRANCH   6   8
ENDBRANCH   5   6
ENDBRANCH   4   5
ENDBRANCH   3   4
ENDBRANCH   2   3
ENDBRANCH   1   2
BRANCH   1  64
ATOM     64  C   UNL A   1      34.057  32.016  28.614  1.00  0.00     0.261 C 
BRANCH  64  65
ATOM     65  O   UNL A   1      33.617  31.180  27.534  1.00  0.00    -0.460 OA
BRANCH  65  66
ATOM     66  C   UNL A   1      34.405  30.098  27.324  1.00  0.00     0.338 C 
ATOM     67  O   UNL A   1      35.594  29.996  27.583  1.00  0.00    -0.246 OA
BRANCH  66  68
ATOM     68  C   UNL A   1      33.537  28.963  26.930  1.00  0.00     0.060 A 
ATOM     69  C   UNL A   1      34.129  27.881  26.263  1.00  0.00     0.017 A 
ATOM     70  C   UNL A   1      32.181  28.914  27.290  1.00  0.00     0.017 A 
ATOM     71  C   UNL A   1      33.362  26.772  25.915  1.00  0.00     0.022 A 
ATOM     72  C   UNL A   1      31.415  27.800  26.962  1.00  0.00     0.022 A 
ATOM     73  C   UNL A   1      32.003  26.756  26.241  1.00  0.00     0.082 A 
BRANCH  73  74
ATOM     74  S   UNL A   1      30.964  25.484  25.589  1.00  0.00     0.241 S 
ATOM     75  O   UNL A   1      30.024  25.098  26.616  1.00  0.00    -0.207 OA
ATOM     76  O   UNL A   1      30.510  25.899  24.282  1.00  0.00    -0.207 OA
BRANCH  74  77
ATOM     77  N   UNL A   1      32.010  24.174  25.366  1.00  0.00    -0.202 NA
ATOM     78  H   UNL A   1      32.955  24.529  25.505  1.00  0.00     0.141 HD
BRANCH  77  79
ATOM     79  C   UNL A   1      31.890  22.951  26.203  1.00  0.00     0.133 C 
ATOM     80  C   UNL A   1      33.139  22.838  27.088  1.00  0.00     0.087 C 
ATOM     81  C   UNL A   1      31.767  21.588  25.501  1.00  0.00     0.202 C 
ATOM     82  C   UNL A   1      33.814  21.555  26.647  1.00  0.00     0.264 C 
ATOM     83  N   UNL A   1      32.683  20.709  26.260  1.00  0.00    -0.331 N 
ATOM     84  C   UNL A   1      32.204  21.454  24.052  1.00  0.00     0.072 C 
ATOM     85  C   UNL A   1      33.071  19.612  25.377  1.00  0.00     0.262 C 
ATOM     86  H   UNL A   1      32.271  20.298  27.097  1.00  0.00     0.348 HD
ATOM     87  C   UNL A   1      32.838  20.078  23.950  1.00  0.00     0.068 C 
ENDBRANCH  77  79
ENDBRANCH  74  77
ENDBRANCH  73  74
ENDBRANCH  66  68
ENDBRANCH  65  66
ENDBRANCH  64  65
ENDBRANCH   1  64
TORSDOF 17
ENDMDL
MODEL 3
REMARK VINA RESULT:     -11.1      1.304      2.049
REMARK SMILES O=C(OCCOCCOC(=O)c1ccc(S(=O)(=O)N[C@@H]2CC[N@@H+]3CCC[C@H]23)cc1)c1ccc(-c2c3nc(c(-c4c(F)cccc4F)c4ccc([nH]4)c(-c4c(F)cccc4F)c4nc(c(-c5c(F)cccc5F)c5ccc2[nH]5)C=C4)C=C3)cc1
REMARK SMILES IDX 7 1 6 2 5 3 4 4 3 5 2 6 1 7 30 8 31 9 83 10 32 11 82 12
REMARK SMILES IDX 33 13 34 14 35 15 76 16 36 17 81 18 75 19 77 20 37 21 80 22
REMARK SMILES IDX 74 23 73 24 38 26 64 27 47 28 63 29 48 30 51 31 62 32 78 33
REMARK SMILES IDX 49 34 50 35 61 37 79 38 52 39 39 40 40 41 45 42 41 43 42 44
REMARK SMILES IDX 44 45 46 46 43 47 65 48 66 49 71 50 67 51 68 52 70 53 72 54
REMARK SMILES IDX 69 55 53 56 54 57 59 58 55 59 56 60 58 61 60 62 57 63 8 64
REMARK SMILES IDX 9 65 10 66 11 67 12 68 13 69 29 70 14 71 28 72 15 73 16 74
REMARK SMILES IDX 17 75 18 76 19 77 20 79 21 80 27 81 22 82 23 83 26 84 24 85
REMARK SMILES IDX 25 87
REMARK H PARENT 77 25 51 36 19 78 23 86
REMARK Flexibility Score: inf
ROOT
ATOM      1  C   UNL A   1      41.875  19.335  26.133  1.00  0.00     0.202 C 
ENDROOT
BRANCH   1   2
ATOM      2  O   UNL A   1      42.653  20.127  25.225  1.00  0.00    -0.374 OA
BRANCH   2   3
ATOM      3  C   UNL A   1      43.353  21.230  25.805  1.00  0.00     0.202 C 
BRANCH   3   4
ATOM      4  C   UNL A   1      44.084  22.121  24.796  1.00  0.00     0.261 C 
BRANCH   4   5
ATOM      5  O   UNL A   1      43.486  23.429  24.767  1.00  0.00    -0.460 OA
BRANCH   5   6
ATOM      6  C   UNL A   1      44.006  24.604  25.188  1.00  0.00     0.338 C 
ATOM      7  O   UNL A   1      45.007  25.041  24.624  1.00  0.00    -0.246 OA
BRANCH   6   8
ATOM      8  C   UNL A   1      43.438  25.403  26.317  1.00  0.00     0.060 A 
ATOM      9  C   UNL A   1      42.614  24.893  27.321  1.00  0.00     0.016 A 
ATOM     10  C   UNL A   1      43.859  26.739  26.425  1.00  0.00     0.016 A 
ATOM     11  C   UNL A   1      42.161  25.690  28.363  1.00  0.00     0.010 A 
ATOM     12  C   UNL A   1      43.449  27.537  27.497  1.00  0.00     0.010 A 
ATOM     13  C   UNL A   1      42.584  27.012  28.463  1.00  0.00    -0.014 A 
BRANCH  13  14
ATOM     14  C   UNL A   1      42.049  27.834  29.560  1.00  0.00     0.031 A 
ATOM     15  C   UNL A   1      42.817  27.910  30.841  1.00  0.00     0.074 A 
ATOM     16  C   UNL A   1      40.952  28.582  29.348  1.00  0.00     0.049 A 
ATOM     17  N   UNL A   1      42.521  28.538  31.946  1.00  0.00    -0.248 NA
ATOM     18  C   UNL A   1      44.102  27.192  30.877  1.00  0.00     0.031 C 
ATOM     19  C   UNL A   1      40.208  28.648  28.088  1.00  0.00     0.029 A 
ATOM     20  N   UNL A   1      40.288  29.448  30.174  1.00  0.00    -0.354 N 
ATOM     21  C   UNL A   1      43.568  28.273  32.817  1.00  0.00     0.074 A 
ATOM     22  C   UNL A   1      44.506  27.426  32.116  1.00  0.00     0.031 C 
ATOM     23  C   UNL A   1      39.204  29.530  28.219  1.00  0.00     0.029 A 
ATOM     24  C   UNL A   1      39.194  30.035  29.586  1.00  0.00     0.049 A 
ATOM     25  H   UNL A   1      40.567  29.633  31.100  1.00  0.00     0.167 HD
ATOM     26  C   UNL A   1      43.720  28.699  34.091  1.00  0.00     0.037 A 
ATOM     27  C   UNL A   1      38.275  30.864  30.113  1.00  0.00     0.037 A 
ATOM     28  C   UNL A   1      42.763  29.535  34.763  1.00  0.00     0.049 A 
ATOM     29  C   UNL A   1      38.418  31.247  31.561  1.00  0.00     0.074 A 
ATOM     30  C   UNL A   1      42.765  29.978  36.073  1.00  0.00     0.029 A 
ATOM     31  N   UNL A   1      41.625  30.058  34.162  1.00  0.00    -0.354 N 
ATOM     32  N   UNL A   1      39.375  30.939  32.404  1.00  0.00    -0.248 NA
ATOM     33  C   UNL A   1      37.349  32.073  32.136  1.00  0.00     0.031 C 
ATOM     34  C   UNL A   1      41.608  30.738  36.273  1.00  0.00     0.029 A 
ATOM     35  C   UNL A   1      40.907  30.806  35.077  1.00  0.00     0.049 A 
ATOM     36  H   UNL A   1      41.368  29.916  33.222  1.00  0.00     0.167 HD
ATOM     37  C   UNL A   1      39.030  31.536  33.608  1.00  0.00     0.074 A 
ATOM     38  C   UNL A   1      37.786  32.246  33.376  1.00  0.00     0.031 C 
ATOM     39  C   UNL A   1      39.674  31.498  34.800  1.00  0.00     0.037 A 
BRANCH  26  40
ATOM     40  C   UNL A   1      44.921  28.198  34.835  1.00  0.00     0.057 A 
ATOM     41  C   UNL A   1      46.182  28.793  34.699  1.00  0.00     0.134 A 
ATOM     42  C   UNL A   1      44.822  27.074  35.664  1.00  0.00     0.134 A 
ATOM     43  F   UNL A   1      46.351  29.854  33.897  1.00  0.00    -0.206 F 
ATOM     44  C   UNL A   1      47.308  28.269  35.341  1.00  0.00     0.040 A 
ATOM     45  C   UNL A   1      45.935  26.555  36.327  1.00  0.00     0.040 A 
ATOM     46  F   UNL A   1      43.645  26.453  35.830  1.00  0.00    -0.206 F 
ATOM     47  C   UNL A   1      47.185  27.148  36.159  1.00  0.00     0.006 A 
ENDBRANCH  26  40
BRANCH  27  48
ATOM     48  C   UNL A   1      37.129  31.337  29.293  1.00  0.00     0.057 A 
ATOM     49  C   UNL A   1      37.097  32.630  28.760  1.00  0.00     0.134 A 
ATOM     50  C   UNL A   1      36.034  30.505  29.023  1.00  0.00     0.134 A 
ATOM     51  F   UNL A   1      38.104  33.484  28.998  1.00  0.00    -0.206 F 
ATOM     52  C   UNL A   1      36.015  33.083  28.001  1.00  0.00     0.040 A 
ATOM     53  C   UNL A   1      34.960  30.934  28.244  1.00  0.00     0.040 A 
ATOM     54  F   UNL A   1      36.000  29.253  29.504  1.00  0.00    -0.206 F 
ATOM     55  C   UNL A   1      34.945  32.230  27.735  1.00  0.00     0.006 A 
ENDBRANCH  27  48
BRANCH  39  56
ATOM     56  C   UNL A   1      39.049  32.261  35.927  1.00  0.00     0.057 A 
ATOM     57  C   UNL A   1      38.152  31.654  36.814  1.00  0.00     0.134 A 
ATOM     58  C   UNL A   1      39.389  33.600  36.154  1.00  0.00     0.134 A 
ATOM     59  F   UNL A   1      37.779  30.378  36.638  1.00  0.00    -0.206 F 
ATOM     60  C   UNL A   1      37.603  32.360  37.885  1.00  0.00     0.040 A 
ATOM     61  C   UNL A   1      38.864  34.308  37.234  1.00  0.00     0.040 A 
ATOM     62  F   UNL A   1      40.249  34.232  35.341  1.00  0.00    -0.206 F 
ATOM     63  C   UNL A   1      37.966  33.688  38.101  1.00  0.00     0.006 A 
ENDBRANCH  39  56
ENDBRANCH  13  14
ENDBRANCH   6   8
ENDBRANCH   5   6
ENDBRANCH   4   5
ENDBRANCH   3   4
ENDBRANCH   2   3
ENDBRANCH   1   2
BRANCH   1  64
ATOM     64  C   UNL A   1      40.975  20.257  26.965  1.00  0.00     0.261 C 
BRANCH  64  65
ATOM     65  O   UNL A   1      39.968  20.790  26.092  1.00  0.00    -0.460 OA
BRANCH  65  66
ATOM     66  C   UNL A   1      39.465  21.980  26.500  1.00  0.00     0.338 C 
ATOM     67  O   UNL A   1      40.017  22.802  27.215  1.00  0.00    -0.246 OA
BRANCH  66  68
ATOM     68  C   UNL A   1      38.210  22.232  25.753  1.00  0.00     0.060 A 
ATOM     69  C   UNL A   1      37.708  23.541  25.731  1.00  0.00     0.017 A 
ATOM     70  C   UNL A   1      37.582  21.223  25.006  1.00  0.00     0.017 A 
ATOM     71  C   UNL A   1      36.557  23.835  25.004  1.00  0.00     0.022 A 
ATOM     72  C   UNL A   1      36.444  21.515  24.262  1.00  0.00     0.022 A 
ATOM     73  C   UNL A   1      35.918  22.810  24.300  1.00  0.00     0.082 A 
BRANCH  73  74
ATOM     74  S   UNL A   1      34.329  23.102  23.585  1.00  0.00     0.241 S 
ATOM     75  O   UNL A   1      34.506  23.336  22.171  1.00  0.00    -0.207 OA
ATOM     76  O   UNL A   1      33.425  22.082  24.064  1.00  0.00    -0.207 OA
BRANCH  74  77
ATOM     77  N   UNL A   1      33.836  24.571  24.265  1.00  0.00    -0.202 NA
ATOM     78  H   UNL A   1      33.561  25.172  23.490  1.00  0.00     0.141 HD
BRANCH  77  79
ATOM     79  C   UNL A   1      32.727  24.621  25.253  1.00  0.00     0.133 C 
ATOM     80  C   UNL A   1      31.407  24.830  24.500  1.00  0.00     0.087 C 
ATOM     81  C   UNL A   1      32.754  25.714  26.334  1.00  0.00     0.202 C 
ATOM     82  C   UNL A   1      30.891  26.170  24.984  1.00  0.00     0.264 C 
ATOM     83  N   UNL A   1      31.365  26.219  26.369  1.00  0.00    -0.331 N 
ATOM     84  C   UNL A   1      33.616  26.948  26.125  1.00  0.00     0.072 C 
ATOM     85  C   UNL A   1      31.404  27.577  26.906  1.00  0.00     0.262 C 
ATOM     86  H   UNL A   1      30.735  25.675  26.957  1.00  0.00     0.348 HD
ATOM     87  C   UNL A   1      32.816  28.100  26.708  1.00  0.00     0.068 C 
ENDBRANCH  77  79
ENDBRANCH  74  77
ENDBRANCH  73  74
ENDBRANCH  66  68
ENDBRANCH  65  66
ENDBRANCH  64  65
ENDBRANCH   1  64
TORSDOF 17
ENDMDL
