MODEL 1
REMARK VINA RESULT:     -12.6      0.000      0.000
REMARK SMILES C[C@@H]1C(C(=O)OCCOCCOC(=O)c2ccc(-c3c4nc(c(-c5c(F)cccc5F)c5ccc([nH]5)c(-c5c(F)cccc5F)c5nc(c(-c6c(F)cccc6F)c6ccc3[nH]6)C=C5)C=C4)cc2)=NC2=C1C(=O)C[C@H](c1ccccc1)C2
REMARK SMILES IDX 10 1 9 2 8 3 7 4 6 5 4 6 5 7 3 8 1 9 2 10 71 11 69 12 70 13
REMARK SMILES IDX 72 14 82 15 73 16 74 17 75 18 76 19 77 20 81 21 78 22 80 23
REMARK SMILES IDX 79 24 11 25 12 26 13 27 14 28 15 29 16 30 68 31 17 32 67 33
REMARK SMILES IDX 18 34 19 35 20 36 61 37 21 38 66 39 60 40 62 41 22 42 65 43
REMARK SMILES IDX 59 44 58 45 23 47 49 48 32 49 48 50 33 51 36 52 47 53 63 54
REMARK SMILES IDX 34 55 35 56 46 58 64 59 37 60 24 61 25 62 30 63 26 64 27 65
REMARK SMILES IDX 29 66 31 67 28 68 50 69 51 70 56 71 52 72 53 73 55 74 57 75
REMARK SMILES IDX 54 76 38 77 39 78 44 79 40 80 41 81 43 82 45 83 42 84
REMARK H PARENT 62 46 36 57
REMARK Flexibility Score: inf
ROOT
ATOM      1  C   UNL A   1      41.345  19.416  26.124  1.00  0.00     0.202 C 
ENDROOT
BRANCH   1   2
ATOM      2  O   UNL A   1      41.004  20.004  27.377  1.00  0.00    -0.374 OA
BRANCH   2   3
ATOM      3  C   UNL A   1      40.410  21.297  27.288  1.00  0.00     0.202 C 
BRANCH   3   4
ATOM      4  C   UNL A   1      39.775  21.575  25.920  1.00  0.00     0.261 C 
BRANCH   4   5
ATOM      5  O   UNL A   1      38.358  21.846  26.048  1.00  0.00    -0.459 OA
BRANCH   5   6
ATOM      6  C   UNL A   1      37.525  21.127  25.256  1.00  0.00     0.353 C 
ATOM      7  O   UNL A   1      37.658  19.967  24.916  1.00  0.00    -0.245 OA
BRANCH   6   8
ATOM      8  C   UNL A   1      36.242  21.924  25.000  1.00  0.00     0.133 C 
ATOM      9  C   UNL A   1      36.180  24.234  25.872  1.00  0.00     0.020 C 
ATOM     10  C   UNL A   1      35.649  22.810  26.077  1.00  0.00     0.078 C 
ATOM     11  C   UNL A   1      34.275  22.667  25.528  1.00  0.00     0.026 C 
ATOM     12  N   UNL A   1      35.551  21.850  23.887  1.00  0.00    -0.249 NA
ATOM     13  C   UNL A   1      34.314  22.336  24.239  1.00  0.00     0.049 C 
ATOM     14  C   UNL A   1      33.018  22.440  26.247  1.00  0.00     0.161 C 
ATOM     15  C   UNL A   1      33.055  22.094  23.463  1.00  0.00     0.065 C 
ATOM     16  O   UNL A   1      32.840  22.983  27.335  1.00  0.00    -0.294 OA
ATOM     17  C   UNL A   1      32.002  21.444  25.645  1.00  0.00     0.089 C 
ATOM     18  C   UNL A   1      32.253  20.980  24.164  1.00  0.00     0.033 C 
BRANCH  18  19
ATOM     19  C   UNL A   1      32.865  19.581  23.942  1.00  0.00    -0.044 A 
ATOM     20  C   UNL A   1      32.367  18.700  22.958  1.00  0.00     0.004 A 
ATOM     21  C   UNL A   1      33.925  19.101  24.722  1.00  0.00     0.004 A 
ATOM     22  C   UNL A   1      33.012  17.510  22.620  1.00  0.00     0.000 A 
ATOM     23  C   UNL A   1      34.563  17.887  24.403  1.00  0.00     0.000 A 
ATOM     24  C   UNL A   1      34.140  17.121  23.319  1.00  0.00     0.000 A 
ENDBRANCH  18  19
ENDBRANCH   6   8
ENDBRANCH   5   6
ENDBRANCH   4   5
ENDBRANCH   3   4
ENDBRANCH   2   3
ENDBRANCH   1   2
BRANCH   1  25
ATOM     25  C   UNL A   1      42.843  19.253  25.944  1.00  0.00     0.261 C 
BRANCH  25  26
ATOM     26  O   UNL A   1      43.317  20.366  25.216  1.00  0.00    -0.460 OA
BRANCH  26  27
ATOM     27  C   UNL A   1      44.464  20.211  24.533  1.00  0.00     0.338 C 
ATOM     28  O   UNL A   1      44.980  19.183  24.128  1.00  0.00    -0.246 OA
BRANCH  27  29
ATOM     29  C   UNL A   1      45.038  21.561  24.499  1.00  0.00     0.060 A 
ATOM     30  C   UNL A   1      45.941  21.803  25.526  1.00  0.00     0.016 A 
ATOM     31  C   UNL A   1      44.256  22.575  23.915  1.00  0.00     0.016 A 
ATOM     32  C   UNL A   1      45.759  22.959  26.243  1.00  0.00     0.010 A 
ATOM     33  C   UNL A   1      44.043  23.702  24.659  1.00  0.00     0.010 A 
ATOM     34  C   UNL A   1      44.713  23.814  25.874  1.00  0.00    -0.014 A 
BRANCH  34  35
ATOM     35  C   UNL A   1      44.411  24.936  26.727  1.00  0.00     0.031 A 
ATOM     36  C   UNL A   1      45.503  25.925  26.675  1.00  0.00     0.074 A 
ATOM     37  C   UNL A   1      43.245  25.090  27.378  1.00  0.00     0.049 A 
ATOM     38  N   UNL A   1      46.488  26.039  27.503  1.00  0.00    -0.248 NA
ATOM     39  C   UNL A   1      45.692  26.642  25.403  1.00  0.00     0.031 C 
ATOM     40  C   UNL A   1      41.999  24.332  27.270  1.00  0.00     0.029 A 
ATOM     41  N   UNL A   1      42.934  26.068  28.269  1.00  0.00    -0.354 N 
ATOM     42  C   UNL A   1      47.301  27.012  26.941  1.00  0.00     0.074 A 
ATOM     43  C   UNL A   1      46.941  27.084  25.554  1.00  0.00     0.031 C 
ATOM     44  C   UNL A   1      41.005  25.017  27.891  1.00  0.00     0.029 A 
ATOM     45  C   UNL A   1      41.575  26.178  28.550  1.00  0.00     0.049 A 
ATOM     46  H   UNL A   1      43.613  26.650  28.680  1.00  0.00     0.167 HD
ATOM     47  C   UNL A   1      47.966  27.912  27.713  1.00  0.00     0.037 A 
ATOM     48  C   UNL A   1      41.021  27.234  29.201  1.00  0.00     0.037 A 
ATOM     49  C   UNL A   1      47.988  27.487  29.091  1.00  0.00     0.049 A 
ATOM     50  C   UNL A   1      42.131  27.927  29.923  1.00  0.00     0.074 A 
ATOM     51  C   UNL A   1      48.525  26.405  29.762  1.00  0.00     0.029 A 
ATOM     52  N   UNL A   1      47.023  28.005  29.923  1.00  0.00    -0.354 N 
ATOM     53  N   UNL A   1      42.789  27.384  30.913  1.00  0.00    -0.248 NA
ATOM     54  C   UNL A   1      42.843  28.975  29.201  1.00  0.00     0.031 C 
ATOM     55  C   UNL A   1      47.546  26.048  30.735  1.00  0.00     0.029 A 
ATOM     56  C   UNL A   1      46.503  26.973  30.663  1.00  0.00     0.049 A 
ATOM     57  H   UNL A   1      46.752  28.950  29.977  1.00  0.00     0.167 HD
ATOM     58  C   UNL A   1      44.121  27.718  30.686  1.00  0.00     0.074 A 
ATOM     59  C   UNL A   1      44.084  28.734  29.636  1.00  0.00     0.031 C 
ATOM     60  C   UNL A   1      45.139  26.934  31.148  1.00  0.00     0.037 A 
BRANCH  47  61
ATOM     61  C   UNL A   1      48.237  29.334  27.292  1.00  0.00     0.057 A 
ATOM     62  C   UNL A   1      49.561  29.799  27.305  1.00  0.00     0.134 A 
ATOM     63  C   UNL A   1      47.257  30.337  27.118  1.00  0.00     0.134 A 
ATOM     64  F   UNL A   1      50.587  28.950  27.472  1.00  0.00    -0.206 F 
ATOM     65  C   UNL A   1      49.878  31.159  27.218  1.00  0.00     0.040 A 
ATOM     66  C   UNL A   1      47.565  31.689  26.972  1.00  0.00     0.040 A 
ATOM     67  F   UNL A   1      45.942  30.096  27.177  1.00  0.00    -0.206 F 
ATOM     68  C   UNL A   1      48.879  32.111  27.056  1.00  0.00     0.006 A 
ENDBRANCH  47  61
BRANCH  48  69
ATOM     69  C   UNL A   1      39.732  27.907  28.909  1.00  0.00     0.057 A 
ATOM     70  C   UNL A   1      38.730  28.032  29.881  1.00  0.00     0.134 A 
ATOM     71  C   UNL A   1      39.568  28.690  27.752  1.00  0.00     0.134 A 
ATOM     72  F   UNL A   1      38.823  27.368  31.042  1.00  0.00    -0.206 F 
ATOM     73  C   UNL A   1      37.632  28.893  29.715  1.00  0.00     0.040 A 
ATOM     74  C   UNL A   1      38.479  29.551  27.574  1.00  0.00     0.040 A 
ATOM     75  F   UNL A   1      40.507  28.713  26.796  1.00  0.00    -0.206 F 
ATOM     76  C   UNL A   1      37.510  29.663  28.562  1.00  0.00     0.006 A 
ENDBRANCH  48  69
BRANCH  60  77
ATOM     77  C   UNL A   1      44.788  25.795  32.070  1.00  0.00     0.057 A 
ATOM     78  C   UNL A   1      44.504  24.489  31.634  1.00  0.00     0.134 A 
ATOM     79  C   UNL A   1      44.919  25.983  33.449  1.00  0.00     0.134 A 
ATOM     80  F   UNL A   1      44.454  24.191  30.331  1.00  0.00    -0.206 F 
ATOM     81  C   UNL A   1      44.330  23.431  32.534  1.00  0.00     0.040 A 
ATOM     82  C   UNL A   1      44.779  24.928  34.354  1.00  0.00     0.040 A 
ATOM     83  F   UNL A   1      45.246  27.189  33.936  1.00  0.00    -0.206 F 
ATOM     84  C   UNL A   1      44.476  23.647  33.899  1.00  0.00     0.006 A 
ENDBRANCH  60  77
ENDBRANCH  34  35
ENDBRANCH  27  29
ENDBRANCH  26  27
ENDBRANCH  25  26
ENDBRANCH   1  25
TORSDOF 15
ENDMDL
MODEL 2
REMARK VINA RESULT:     -12.2      1.511      2.774
REMARK SMILES C[C@@H]1C(C(=O)OCCOCCOC(=O)c2ccc(-c3c4nc(c(-c5c(F)cccc5F)c5ccc([nH]5)c(-c5c(F)cccc5F)c5nc(c(-c6c(F)cccc6F)c6ccc3[nH]6)C=C5)C=C4)cc2)=NC2=C1C(=O)C[C@H](c1ccccc1)C2
REMARK SMILES IDX 10 1 9 2 8 3 7 4 6 5 4 6 5 7 3 8 1 9 2 10 71 11 69 12 70 13
REMARK SMILES IDX 72 14 82 15 73 16 74 17 75 18 76 19 77 20 81 21 78 22 80 23
REMARK SMILES IDX 79 24 11 25 12 26 13 27 14 28 15 29 16 30 68 31 17 32 67 33
REMARK SMILES IDX 18 34 19 35 20 36 61 37 21 38 66 39 60 40 62 41 22 42 65 43
REMARK SMILES IDX 59 44 58 45 23 47 49 48 32 49 48 50 33 51 36 52 47 53 63 54
REMARK SMILES IDX 34 55 35 56 46 58 64 59 37 60 24 61 25 62 30 63 26 64 27 65
REMARK SMILES IDX 29 66 31 67 28 68 50 69 51 70 56 71 52 72 53 73 55 74 57 75
REMARK SMILES IDX 54 76 38 77 39 78 44 79 40 80 41 81 43 82 45 83 42 84
REMARK H PARENT 62 46 36 57
REMARK Flexibility Score: inf
ROOT
ATOM      1  C   UNL A   1      41.279  20.609  26.945  1.00  0.00     0.202 C 
ENDROOT
BRANCH   1   2
ATOM      2  O   UNL A   1      40.055  20.528  26.220  1.00  0.00    -0.374 OA
BRANCH   2   3
ATOM      3  C   UNL A   1      39.348  21.761  26.104  1.00  0.00     0.202 C 
BRANCH   3   4
ATOM      4  C   UNL A   1      38.087  21.653  25.238  1.00  0.00     0.261 C 
BRANCH   4   5
ATOM      5  O   UNL A   1      36.890  21.714  26.050  1.00  0.00    -0.459 OA
BRANCH   5   6
ATOM      6  C   UNL A   1      36.067  22.773  25.846  1.00  0.00     0.353 C 
ATOM      7  O   UNL A   1      36.392  23.933  25.691  1.00  0.00    -0.245 OA
BRANCH   6   8
ATOM      8  C   UNL A   1      34.635  22.276  25.622  1.00  0.00     0.133 C 
ATOM      9  C   UNL A   1      34.380  19.952  24.825  1.00  0.00     0.020 C 
ATOM     10  C   UNL A   1      34.286  21.427  24.417  1.00  0.00     0.078 C 
ATOM     11  C   UNL A   1      32.874  21.893  24.417  1.00  0.00     0.026 C 
ATOM     12  N   UNL A   1      33.627  22.592  26.400  1.00  0.00    -0.249 NA
ATOM     13  C   UNL A   1      32.522  22.331  25.623  1.00  0.00     0.049 C 
ATOM     14  C   UNL A   1      32.040  22.296  23.281  1.00  0.00     0.161 C 
ATOM     15  C   UNL A   1      31.156  22.893  25.875  1.00  0.00     0.065 C 
ATOM     16  O   UNL A   1      32.148  21.698  22.212  1.00  0.00    -0.294 OA
ATOM     17  C   UNL A   1      31.124  23.528  23.449  1.00  0.00     0.089 C 
ATOM     18  C   UNL A   1      30.924  24.072  24.911  1.00  0.00     0.033 C 
BRANCH  18  19
ATOM     19  C   UNL A   1      31.710  25.335  25.321  1.00  0.00    -0.044 A 
ATOM     20  C   UNL A   1      32.884  25.731  24.644  1.00  0.00     0.004 A 
ATOM     21  C   UNL A   1      31.319  26.137  26.401  1.00  0.00     0.004 A 
ATOM     22  C   UNL A   1      33.510  26.956  24.878  1.00  0.00     0.000 A 
ATOM     23  C   UNL A   1      31.964  27.362  26.659  1.00  0.00     0.000 A 
ATOM     24  C   UNL A   1      33.022  27.795  25.863  1.00  0.00     0.000 A 
ENDBRANCH  18  19
ENDBRANCH   6   8
ENDBRANCH   5   6
ENDBRANCH   4   5
ENDBRANCH   3   4
ENDBRANCH   2   3
ENDBRANCH   1   2
BRANCH   1  25
ATOM     25  C   UNL A   1      42.340  19.665  26.409  1.00  0.00     0.261 C 
BRANCH  25  26
ATOM     26  O   UNL A   1      42.867  20.230  25.226  1.00  0.00    -0.460 OA
BRANCH  26  27
ATOM     27  C   UNL A   1      44.180  20.060  24.995  1.00  0.00     0.338 C 
ATOM     28  O   UNL A   1      44.833  19.031  25.019  1.00  0.00    -0.246 OA
BRANCH  27  29
ATOM     29  C   UNL A   1      44.688  21.428  24.840  1.00  0.00     0.060 A 
ATOM     30  C   UNL A   1      45.671  21.760  25.761  1.00  0.00     0.016 A 
ATOM     31  C   UNL A   1      43.811  22.378  24.282  1.00  0.00     0.016 A 
ATOM     32  C   UNL A   1      45.507  22.945  26.434  1.00  0.00     0.010 A 
ATOM     33  C   UNL A   1      43.619  23.534  24.985  1.00  0.00     0.010 A 
ATOM     34  C   UNL A   1      44.394  23.738  26.124  1.00  0.00    -0.014 A 
BRANCH  34  35
ATOM     35  C   UNL A   1      44.125  24.891  26.945  1.00  0.00     0.031 A 
ATOM     36  C   UNL A   1      45.232  25.859  26.844  1.00  0.00     0.074 A 
ATOM     37  C   UNL A   1      42.972  25.087  27.607  1.00  0.00     0.049 A 
ATOM     38  N   UNL A   1      46.232  25.982  27.653  1.00  0.00    -0.248 NA
ATOM     39  C   UNL A   1      45.415  26.532  25.546  1.00  0.00     0.031 C 
ATOM     40  C   UNL A   1      41.711  24.347  27.542  1.00  0.00     0.029 A 
ATOM     41  N   UNL A   1      42.691  26.098  28.470  1.00  0.00    -0.354 N 
ATOM     42  C   UNL A   1      47.053  26.922  27.048  1.00  0.00     0.074 A 
ATOM     43  C   UNL A   1      46.672  26.956  25.665  1.00  0.00     0.031 C 
ATOM     44  C   UNL A   1      40.739  25.070  28.156  1.00  0.00     0.029 A 
ATOM     45  C   UNL A   1      41.339  26.241  28.767  1.00  0.00     0.049 A 
ATOM     46  H   UNL A   1      43.386  26.681  28.853  1.00  0.00     0.167 HD
ATOM     47  C   UNL A   1      47.745  27.835  27.780  1.00  0.00     0.037 A 
ATOM     48  C   UNL A   1      40.813  27.328  29.392  1.00  0.00     0.037 A 
ATOM     49  C   UNL A   1      47.781  27.455  29.171  1.00  0.00     0.049 A 
ATOM     50  C   UNL A   1      41.946  28.023  30.074  1.00  0.00     0.074 A 
ATOM     51  C   UNL A   1      48.310  26.386  29.868  1.00  0.00     0.029 A 
ATOM     52  N   UNL A   1      46.838  28.016  30.000  1.00  0.00    -0.354 N 
ATOM     53  N   UNL A   1      42.610  27.502  31.072  1.00  0.00    -0.248 NA
ATOM     54  C   UNL A   1      42.664  29.035  29.309  1.00  0.00     0.031 C 
ATOM     55  C   UNL A   1      47.340  26.078  30.867  1.00  0.00     0.029 A 
ATOM     56  C   UNL A   1      46.311  27.018  30.781  1.00  0.00     0.049 A 
ATOM     57  H   UNL A   1      46.584  28.967  30.027  1.00  0.00     0.167 HD
ATOM     58  C   UNL A   1      43.943  27.805  30.814  1.00  0.00     0.074 A 
ATOM     59  C   UNL A   1      43.908  28.787  29.733  1.00  0.00     0.031 C 
ATOM     60  C   UNL A   1      44.955  27.018  31.286  1.00  0.00     0.037 A 
BRANCH  47  61
ATOM     61  C   UNL A   1      48.034  29.238  27.309  1.00  0.00     0.057 A 
ATOM     62  C   UNL A   1      49.364  29.684  27.297  1.00  0.00     0.134 A 
ATOM     63  C   UNL A   1      47.066  30.249  27.108  1.00  0.00     0.134 A 
ATOM     64  F   UNL A   1      50.378  28.826  27.486  1.00  0.00    -0.206 F 
ATOM     65  C   UNL A   1      49.700  31.035  27.162  1.00  0.00     0.040 A 
ATOM     66  C   UNL A   1      47.394  31.591  26.913  1.00  0.00     0.040 A 
ATOM     67  F   UNL A   1      45.749  30.030  27.184  1.00  0.00    -0.206 F 
ATOM     68  C   UNL A   1      48.714  31.996  26.974  1.00  0.00     0.006 A 
ENDBRANCH  47  61
BRANCH  48  69
ATOM     69  C   UNL A   1      39.531  28.013  29.098  1.00  0.00     0.057 A 
ATOM     70  C   UNL A   1      38.531  28.154  30.069  1.00  0.00     0.134 A 
ATOM     71  C   UNL A   1      39.375  28.792  27.937  1.00  0.00     0.134 A 
ATOM     72  F   UNL A   1      38.617  27.494  31.234  1.00  0.00    -0.206 F 
ATOM     73  C   UNL A   1      37.443  29.026  29.900  1.00  0.00     0.040 A 
ATOM     74  C   UNL A   1      38.296  29.664  27.756  1.00  0.00     0.040 A 
ATOM     75  F   UNL A   1      40.313  28.800  26.980  1.00  0.00    -0.206 F 
ATOM     76  C   UNL A   1      37.329  29.792  28.744  1.00  0.00     0.006 A 
ENDBRANCH  48  69
BRANCH  60  77
ATOM     77  C   UNL A   1      44.599  25.915  32.250  1.00  0.00     0.057 A 
ATOM     78  C   UNL A   1      44.351  24.587  31.868  1.00  0.00     0.134 A 
ATOM     79  C   UNL A   1      44.687  26.169  33.622  1.00  0.00     0.134 A 
ATOM     80  F   UNL A   1      44.343  24.228  30.579  1.00  0.00    -0.206 F 
ATOM     81  C   UNL A   1      44.170  23.567  32.810  1.00  0.00     0.040 A 
ATOM     82  C   UNL A   1      44.541  25.154  34.571  1.00  0.00     0.040 A 
ATOM     83  F   UNL A   1      44.979  27.402  34.062  1.00  0.00    -0.206 F 
ATOM     84  C   UNL A   1      44.274  23.848  34.167  1.00  0.00     0.006 A 
ENDBRANCH  60  77
ENDBRANCH  34  35
ENDBRANCH  27  29
ENDBRANCH  26  27
ENDBRANCH  25  26
ENDBRANCH   1  25
TORSDOF 15
ENDMDL
MODEL 3
REMARK VINA RESULT:     -12.1      6.224     11.036
REMARK SMILES C[C@@H]1C(C(=O)OCCOCCOC(=O)c2ccc(-c3c4nc(c(-c5c(F)cccc5F)c5ccc([nH]5)c(-c5c(F)cccc5F)c5nc(c(-c6c(F)cccc6F)c6ccc3[nH]6)C=C5)C=C4)cc2)=NC2=C1C(=O)C[C@H](c1ccccc1)C2
REMARK SMILES IDX 10 1 9 2 8 3 7 4 6 5 4 6 5 7 3 8 1 9 2 10 71 11 69 12 70 13
REMARK SMILES IDX 72 14 82 15 73 16 74 17 75 18 76 19 77 20 81 21 78 22 80 23
REMARK SMILES IDX 79 24 11 25 12 26 13 27 14 28 15 29 16 30 68 31 17 32 67 33
REMARK SMILES IDX 18 34 19 35 20 36 61 37 21 38 66 39 60 40 62 41 22 42 65 43
REMARK SMILES IDX 59 44 58 45 23 47 49 48 32 49 48 50 33 51 36 52 47 53 63 54
REMARK SMILES IDX 34 55 35 56 46 58 64 59 37 60 24 61 25 62 30 63 26 64 27 65
REMARK SMILES IDX 29 66 31 67 28 68 50 69 51 70 56 71 52 72 53 73 55 74 57 75
REMARK SMILES IDX 54 76 38 77 39 78 44 79 40 80 41 81 43 82 45 83 42 84
REMARK H PARENT 62 46 36 57
REMARK Flexibility Score: inf
ROOT
ATOM      1  C   UNL A   1      33.894  34.858  28.545  1.00  0.00     0.202 C 
ENDROOT
BRANCH   1   2
ATOM      2  O   UNL A   1      33.454  33.607  28.023  1.00  0.00    -0.374 OA
BRANCH   2   3
ATOM      3  C   UNL A   1      34.476  32.621  27.895  1.00  0.00     0.202 C 
BRANCH   3   4
ATOM      4  C   UNL A   1      33.936  31.186  27.927  1.00  0.00     0.261 C 
BRANCH   4   5
ATOM      5  O   UNL A   1      33.658  30.704  26.590  1.00  0.00    -0.459 OA
BRANCH   5   6
ATOM      6  C   UNL A   1      32.357  30.472  26.283  1.00  0.00     0.353 C 
ATOM      7  O   UNL A   1      31.462  31.293  26.224  1.00  0.00    -0.245 OA
BRANCH   6   8
ATOM      8  C   UNL A   1      32.192  29.028  25.802  1.00  0.00     0.133 C 
ATOM      9  C   UNL A   1      34.041  27.471  26.311  1.00  0.00     0.020 C 
ATOM     10  C   UNL A   1      33.356  28.271  25.196  1.00  0.00     0.078 C 
ATOM     11  C   UNL A   1      32.457  27.404  24.390  1.00  0.00     0.026 C 
ATOM     12  N   UNL A   1      31.049  28.382  25.822  1.00  0.00    -0.249 NA
ATOM     13  C   UNL A   1      31.242  27.352  24.931  1.00  0.00     0.049 C 
ATOM     14  C   UNL A   1      32.592  26.991  22.990  1.00  0.00     0.161 C 
ATOM     15  C   UNL A   1      30.138  26.573  24.283  1.00  0.00     0.065 C 
ATOM     16  O   UNL A   1      33.710  26.749  22.539  1.00  0.00    -0.294 OA
ATOM     17  C   UNL A   1      31.323  26.972  22.109  1.00  0.00     0.089 C 
ATOM     18  C   UNL A   1      29.942  27.100  22.848  1.00  0.00     0.033 C 
BRANCH  18  19
ATOM     19  C   UNL A   1      29.232  28.470  22.812  1.00  0.00    -0.044 A 
ATOM     20  C   UNL A   1      27.869  28.609  23.155  1.00  0.00     0.004 A 
ATOM     21  C   UNL A   1      29.891  29.639  22.412  1.00  0.00     0.004 A 
ATOM     22  C   UNL A   1      27.255  29.853  23.302  1.00  0.00     0.000 A 
ATOM     23  C   UNL A   1      29.267  30.896  22.532  1.00  0.00     0.000 A 
ATOM     24  C   UNL A   1      27.970  31.005  23.028  1.00  0.00     0.000 A 
ENDBRANCH  18  19
ENDBRANCH   6   8
ENDBRANCH   5   6
ENDBRANCH   4   5
ENDBRANCH   3   4
ENDBRANCH   2   3
ENDBRANCH   1   2
BRANCH   1  25
ATOM     25  C   UNL A   1      33.101  35.295  29.763  1.00  0.00     0.261 C 
BRANCH  25  26
ATOM     26  O   UNL A   1      33.637  34.635  30.890  1.00  0.00    -0.460 OA
BRANCH  26  27
ATOM     27  C   UNL A   1      33.355  35.153  32.098  1.00  0.00     0.338 C 
ATOM     28  O   UNL A   1      32.526  35.997  32.393  1.00  0.00    -0.246 OA
BRANCH  27  29
ATOM     29  C   UNL A   1      34.374  34.567  32.977  1.00  0.00     0.060 A 
ATOM     30  C   UNL A   1      35.536  35.323  33.055  1.00  0.00     0.016 A 
ATOM     31  C   UNL A   1      34.361  33.168  33.130  1.00  0.00     0.016 A 
ATOM     32  C   UNL A   1      36.718  34.652  32.867  1.00  0.00     0.010 A 
ATOM     33  C   UNL A   1      35.533  32.506  32.894  1.00  0.00     0.010 A 
ATOM     34  C   UNL A   1      36.671  33.269  32.646  1.00  0.00    -0.014 A 
BRANCH  34  35
ATOM     35  C   UNL A   1      37.889  32.593  32.278  1.00  0.00     0.031 A 
ATOM     36  C   UNL A   1      38.804  32.525  33.431  1.00  0.00     0.074 A 
ATOM     37  C   UNL A   1      38.092  32.014  31.082  1.00  0.00     0.049 A 
ATOM     38  N   UNL A   1      39.775  33.333  33.700  1.00  0.00    -0.248 NA
ATOM     39  C   UNL A   1      38.394  31.671  34.559  1.00  0.00     0.031 C 
ATOM     40  C   UNL A   1      37.157  31.766  29.984  1.00  0.00     0.029 A 
ATOM     41  N   UNL A   1      39.244  31.447  30.637  1.00  0.00    -0.354 N 
ATOM     42  C   UNL A   1      40.228  32.927  34.947  1.00  0.00     0.074 A 
ATOM     43  C   UNL A   1      39.164  32.161  35.530  1.00  0.00     0.031 C 
ATOM     44  C   UNL A   1      37.722  30.902  29.104  1.00  0.00     0.029 A 
ATOM     45  C   UNL A   1      39.095  30.652  29.506  1.00  0.00     0.049 A 
ATOM     46  H   UNL A   1      40.112  31.588  31.079  1.00  0.00     0.167 HD
ATOM     47  C   UNL A   1      41.549  32.960  35.267  1.00  0.00     0.037 A 
ATOM     48  C   UNL A   1      40.048  29.797  29.050  1.00  0.00     0.037 A 
ATOM     49  C   UNL A   1      42.283  33.770  34.326  1.00  0.00     0.049 A 
ATOM     50  C   UNL A   1      41.342  30.229  29.661  1.00  0.00     0.074 A 
ATOM     51  C   UNL A   1      42.259  35.106  33.973  1.00  0.00     0.029 A 
ATOM     52  N   UNL A   1      42.905  33.118  33.287  1.00  0.00    -0.354 N 
ATOM     53  N   UNL A   1      41.920  31.367  29.381  1.00  0.00    -0.248 NA
ATOM     54  C   UNL A   1      41.694  29.651  30.952  1.00  0.00     0.031 C 
ATOM     55  C   UNL A   1      42.435  35.120  32.559  1.00  0.00     0.029 A 
ATOM     56  C   UNL A   1      42.635  33.807  32.131  1.00  0.00     0.049 A 
ATOM     57  H   UNL A   1      43.448  32.300  33.360  1.00  0.00     0.167 HD
ATOM     58  C   UNL A   1      42.377  31.849  30.604  1.00  0.00     0.074 A 
ATOM     59  C   UNL A   1      42.242  30.726  31.529  1.00  0.00     0.031 C 
ATOM     60  C   UNL A   1      42.537  33.187  30.826  1.00  0.00     0.037 A 
BRANCH  47  61
ATOM     61  C   UNL A   1      42.215  31.958  36.175  1.00  0.00     0.057 A 
ATOM     62  C   UNL A   1      42.916  32.427  37.296  1.00  0.00     0.134 A 
ATOM     63  C   UNL A   1      42.416  30.591  35.877  1.00  0.00     0.134 A 
ATOM     64  F   UNL A   1      42.819  33.708  37.682  1.00  0.00    -0.206 F 
ATOM     65  C   UNL A   1      43.798  31.617  38.021  1.00  0.00     0.040 A 
ATOM     66  C   UNL A   1      43.247  29.760  36.628  1.00  0.00     0.040 A 
ATOM     67  F   UNL A   1      41.908  29.994  34.793  1.00  0.00    -0.206 F 
ATOM     68  C   UNL A   1      43.970  30.279  37.685  1.00  0.00     0.006 A 
ENDBRANCH  47  61
BRANCH  48  69
ATOM     69  C   UNL A   1      39.857  28.437  28.491  1.00  0.00     0.057 A 
ATOM     70  C   UNL A   1      40.386  28.071  27.246  1.00  0.00     0.134 A 
ATOM     71  C   UNL A   1      39.392  27.381  29.296  1.00  0.00     0.134 A 
ATOM     72  F   UNL A   1      40.904  28.999  26.429  1.00  0.00    -0.206 F 
ATOM     73  C   UNL A   1      40.456  26.731  26.828  1.00  0.00     0.040 A 
ATOM     74  C   UNL A   1      39.455  26.043  28.892  1.00  0.00     0.040 A 
ATOM     75  F   UNL A   1      38.944  27.606  30.539  1.00  0.00    -0.206 F 
ATOM     76  C   UNL A   1      39.998  25.712  27.657  1.00  0.00     0.006 A 
ENDBRANCH  48  69
BRANCH  60  77
ATOM     77  C   UNL A   1      42.383  34.119  29.652  1.00  0.00     0.057 A 
ATOM     78  C   UNL A   1      41.189  34.785  29.327  1.00  0.00     0.134 A 
ATOM     79  C   UNL A   1      43.525  34.493  28.937  1.00  0.00     0.134 A 
ATOM     80  F   UNL A   1      40.065  34.565  30.019  1.00  0.00    -0.206 F 
ATOM     81  C   UNL A   1      41.133  35.754  28.319  1.00  0.00     0.040 A 
ATOM     82  C   UNL A   1      43.488  35.481  27.950  1.00  0.00     0.040 A 
ATOM     83  F   UNL A   1      44.713  33.943  29.230  1.00  0.00    -0.206 F 
ATOM     84  C   UNL A   1      42.288  36.111  27.632  1.00  0.00     0.006 A 
ENDBRANCH  60  77
ENDBRANCH  34  35
ENDBRANCH  27  29
ENDBRANCH  26  27
ENDBRANCH  25  26
ENDBRANCH   1  25
TORSDOF 15
ENDMDL
