MODEL 1
REMARK VINA RESULT:     -10.8      0.000      0.000
REMARK SMILES CC[C@@H]1CCC[C@@H]([NH+]2CC(n3cc(C(=O)OCCOCCOC(=O)c4ccc(-c5c6nc(c(-c7c(F)cccc7F)c7ccc([nH]7)c(-c7c(F)cccc7F)c7nc(c(-c8c(F)cccc8F)c8ccc5[nH]8)C=C7)C=C6)cc4)nn3)C2)C1
REMARK SMILES IDX 18 1 17 2 16 3 14 4 15 5 13 6 11 7 12 8 80 9 79 10 10 11
REMARK SMILES IDX 8 12 9 13 81 14 7 16 3 17 4 18 82 19 5 20 6 21 2 22 1 23
REMARK SMILES IDX 19 24 20 25 21 26 22 27 23 28 24 29 25 30 26 31 78 32 27 33
REMARK SMILES IDX 77 34 28 35 29 36 30 37 71 38 31 39 76 40 70 41 72 42 32 43
REMARK SMILES IDX 75 44 69 45 68 46 33 48 59 49 42 50 58 51 43 52 46 53 57 54
REMARK SMILES IDX 73 55 44 56 45 57 56 59 74 60 47 61 34 62 35 63 40 64 36 65
REMARK SMILES IDX 37 66 39 67 41 68 38 69 60 70 61 71 66 72 62 73 63 74 65 75
REMARK SMILES IDX 67 76 64 77 48 78 49 79 54 80 50 81 51 82 53 83 55 84 52 85
REMARK H PARENT 8 15 72 47 46 58
REMARK Flexibility Score: inf
ROOT
ATOM      1  C   UNL A   1      40.229  22.175  27.035  1.00  0.00     0.202 C 
ENDROOT
BRANCH   1   2
ATOM      2  C   UNL A   1      39.326  21.423  26.059  1.00  0.00     0.261 C 
BRANCH   2   3
ATOM      3  O   UNL A   1      38.423  22.291  25.364  1.00  0.00    -0.458 OA
BRANCH   3   4
ATOM      4  C   UNL A   1      37.348  21.655  24.800  1.00  0.00     0.360 C 
ATOM      5  O   UNL A   1      37.184  20.447  24.795  1.00  0.00    -0.244 OA
BRANCH   4   6
ATOM      6  C   UNL A   1      36.369  22.594  24.285  1.00  0.00     0.190 A 
ATOM      7  N   UNL A   1      34.840  24.093  23.989  1.00  0.00    -0.237 N 
ATOM      8  C   UNL A   1      35.501  23.417  24.974  1.00  0.00     0.147 A 
ATOM      9  N   UNL A   1      35.192  23.648  22.774  1.00  0.00    -0.066 NA
ATOM     10  N   UNL A   1      36.147  22.746  22.938  1.00  0.00    -0.123 NA
BRANCH   7  11
ATOM     11  C   UNL A   1      33.705  24.914  24.227  1.00  0.00     0.218 C 
ATOM     12  N   UNL A   1      33.021  26.893  23.927  1.00  0.00    -0.329 N 
ATOM     13  C   UNL A   1      33.231  25.741  23.025  1.00  0.00     0.296 C 
ATOM     14  C   UNL A   1      33.997  26.281  24.874  1.00  0.00     0.296 C 
ATOM     15  H   UNL A   1      33.126  27.839  23.565  1.00  0.00     0.348 HD
BRANCH  12  16
ATOM     16  C   UNL A   1      31.665  27.087  24.489  1.00  0.00     0.184 C 
ATOM     17  C   UNL A   1      31.501  29.654  24.845  1.00  0.00    -0.006 C 
ATOM     18  C   UNL A   1      30.306  29.701  23.873  1.00  0.00     0.004 C 
ATOM     19  C   UNL A   1      31.643  28.265  25.494  1.00  0.00     0.068 C 
ATOM     20  C   UNL A   1      30.241  28.532  22.897  1.00  0.00     0.006 C 
ATOM     21  C   UNL A   1      30.415  27.186  23.593  1.00  0.00     0.065 C 
BRANCH  17  22
ATOM     22  C   UNL A   1      31.350  30.781  25.883  1.00  0.00     0.000 C 
ATOM     23  C   UNL A   1      32.485  30.824  26.896  1.00  0.00     0.004 C 
ENDBRANCH  17  22
ENDBRANCH  12  16
ENDBRANCH   7  11
ENDBRANCH   4   6
ENDBRANCH   3   4
ENDBRANCH   2   3
ENDBRANCH   1   2
BRANCH   1  24
ATOM     24  O   UNL A   1      41.506  21.613  27.335  1.00  0.00    -0.374 OA
BRANCH  24  25
ATOM     25  C   UNL A   1      41.719  20.209  27.217  1.00  0.00     0.202 C 
BRANCH  25  26
ATOM     26  C   UNL A   1      42.655  19.721  26.123  1.00  0.00     0.261 C 
BRANCH  26  27
ATOM     27  O   UNL A   1      42.989  20.772  25.230  1.00  0.00    -0.460 OA
BRANCH  27  28
ATOM     28  C   UNL A   1      44.313  21.038  25.160  1.00  0.00     0.338 C 
ATOM     29  O   UNL A   1      45.236  20.247  25.190  1.00  0.00    -0.246 OA
BRANCH  28  30
ATOM     30  C   UNL A   1      44.479  22.492  25.203  1.00  0.00     0.060 A 
ATOM     31  C   UNL A   1      45.537  22.960  25.987  1.00  0.00     0.016 A 
ATOM     32  C   UNL A   1      43.395  23.301  24.835  1.00  0.00     0.016 A 
ATOM     33  C   UNL A   1      45.363  24.150  26.648  1.00  0.00     0.010 A 
ATOM     34  C   UNL A   1      43.204  24.462  25.527  1.00  0.00     0.010 A 
ATOM     35  C   UNL A   1      44.145  24.816  26.490  1.00  0.00    -0.014 A 
BRANCH  35  36
ATOM     36  C   UNL A   1      43.898  26.002  27.271  1.00  0.00     0.031 A 
ATOM     37  C   UNL A   1      44.883  27.059  26.957  1.00  0.00     0.074 A 
ATOM     38  C   UNL A   1      42.799  26.113  28.041  1.00  0.00     0.049 A 
ATOM     39  N   UNL A   1      45.801  27.527  27.733  1.00  0.00    -0.248 NA
ATOM     40  C   UNL A   1      45.025  27.468  25.546  1.00  0.00     0.031 C 
ATOM     41  C   UNL A   1      41.686  25.167  28.172  1.00  0.00     0.029 A 
ATOM     42  N   UNL A   1      42.386  27.173  28.786  1.00  0.00    -0.354 N 
ATOM     43  C   UNL A   1      46.461  28.481  26.967  1.00  0.00     0.074 A 
ATOM     44  C   UNL A   1      46.132  28.206  25.598  1.00  0.00     0.031 C 
ATOM     45  C   UNL A   1      40.633  25.792  28.747  1.00  0.00     0.029 A 
ATOM     46  C   UNL A   1      41.033  27.134  29.124  1.00  0.00     0.049 A 
ATOM     47  H   UNL A   1      42.987  27.903  29.061  1.00  0.00     0.167 HD
ATOM     48  C   UNL A   1      46.922  29.621  27.543  1.00  0.00     0.037 A 
ATOM     49  C   UNL A   1      40.314  28.200  29.566  1.00  0.00     0.037 A 
ATOM     50  C   UNL A   1      47.063  29.457  28.969  1.00  0.00     0.049 A 
ATOM     51  C   UNL A   1      41.297  29.204  30.065  1.00  0.00     0.074 A 
ATOM     52  C   UNL A   1      47.772  28.585  29.774  1.00  0.00     0.029 A 
ATOM     53  N   UNL A   1      46.087  29.999  29.769  1.00  0.00    -0.354 N 
ATOM     54  N   UNL A   1      42.042  29.016  31.120  1.00  0.00    -0.248 NA
ATOM     55  C   UNL A   1      41.807  30.170  29.102  1.00  0.00     0.031 C 
ATOM     56  C   UNL A   1      46.901  28.295  30.863  1.00  0.00     0.029 A 
ATOM     57  C   UNL A   1      45.748  29.065  30.713  1.00  0.00     0.049 A 
ATOM     58  H   UNL A   1      45.700  30.900  29.681  1.00  0.00     0.167 HD
ATOM     59  C   UNL A   1      43.296  29.484  30.751  1.00  0.00     0.074 A 
ATOM     60  C   UNL A   1      43.077  30.235  29.515  1.00  0.00     0.031 C 
ATOM     61  C   UNL A   1      44.434  28.967  31.303  1.00  0.00     0.037 A 
BRANCH  48  62
ATOM     62  C   UNL A   1      46.809  30.977  26.888  1.00  0.00     0.057 A 
ATOM     63  C   UNL A   1      47.935  31.813  26.881  1.00  0.00     0.134 A 
ATOM     64  C   UNL A   1      45.595  31.608  26.532  1.00  0.00     0.134 A 
ATOM     65  F   UNL A   1      49.145  31.338  27.212  1.00  0.00    -0.206 F 
ATOM     66  C   UNL A   1      47.847  33.186  26.624  1.00  0.00     0.040 A 
ATOM     67  C   UNL A   1      45.506  32.965  26.219  1.00  0.00     0.040 A 
ATOM     68  F   UNL A   1      44.411  30.986  26.561  1.00  0.00    -0.206 F 
ATOM     69  C   UNL A   1      46.629  33.767  26.300  1.00  0.00     0.006 A 
ENDBRANCH  48  62
BRANCH  49  70
ATOM     70  C   UNL A   1      38.916  28.573  29.226  1.00  0.00     0.057 A 
ATOM     71  C   UNL A   1      37.939  28.694  30.227  1.00  0.00     0.134 A 
ATOM     72  C   UNL A   1      38.569  29.098  27.968  1.00  0.00     0.134 A 
ATOM     73  F   UNL A   1      38.182  28.260  31.472  1.00  0.00    -0.206 F 
ATOM     74  C   UNL A   1      36.708  29.330  30.001  1.00  0.00     0.040 A 
ATOM     75  C   UNL A   1      37.342  29.728  27.727  1.00  0.00     0.040 A 
ATOM     76  F   UNL A   1      39.439  29.106  26.950  1.00  0.00    -0.206 F 
ATOM     77  C   UNL A   1      36.413  29.862  28.749  1.00  0.00     0.006 A 
ENDBRANCH  49  70
BRANCH  61  78
ATOM     78  C   UNL A   1      44.291  28.048  32.486  1.00  0.00     0.057 A 
ATOM     79  C   UNL A   1      44.111  28.480  33.809  1.00  0.00     0.134 A 
ATOM     80  C   UNL A   1      44.168  26.675  32.250  1.00  0.00     0.134 A 
ATOM     81  F   UNL A   1      44.109  29.783  34.119  1.00  0.00    -0.206 F 
ATOM     82  C   UNL A   1      43.861  27.581  34.852  1.00  0.00     0.040 A 
ATOM     83  C   UNL A   1      43.885  25.771  33.275  1.00  0.00     0.040 A 
ATOM     84  F   UNL A   1      44.272  26.194  31.000  1.00  0.00    -0.206 F 
ATOM     85  C   UNL A   1      43.740  26.221  34.584  1.00  0.00     0.006 A 
ENDBRANCH  61  78
ENDBRANCH  35  36
ENDBRANCH  28  30
ENDBRANCH  27  28
ENDBRANCH  26  27
ENDBRANCH  25  26
ENDBRANCH  24  25
ENDBRANCH   1  24
TORSDOF 17
ENDMDL
MODEL 2
REMARK VINA RESULT:     -10.5      4.767     10.025
REMARK SMILES CC[C@@H]1CCC[C@@H]([NH+]2CC(n3cc(C(=O)OCCOCCOC(=O)c4ccc(-c5c6nc(c(-c7c(F)cccc7F)c7ccc([nH]7)c(-c7c(F)cccc7F)c7nc(c(-c8c(F)cccc8F)c8ccc5[nH]8)C=C7)C=C6)cc4)nn3)C2)C1
REMARK SMILES IDX 18 1 17 2 16 3 14 4 15 5 13 6 11 7 12 8 80 9 79 10 10 11
REMARK SMILES IDX 8 12 9 13 81 14 7 16 3 17 4 18 82 19 5 20 6 21 2 22 1 23
REMARK SMILES IDX 19 24 20 25 21 26 22 27 23 28 24 29 25 30 26 31 78 32 27 33
REMARK SMILES IDX 77 34 28 35 29 36 30 37 71 38 31 39 76 40 70 41 72 42 32 43
REMARK SMILES IDX 75 44 69 45 68 46 33 48 59 49 42 50 58 51 43 52 46 53 57 54
REMARK SMILES IDX 73 55 44 56 45 57 56 59 74 60 47 61 34 62 35 63 40 64 36 65
REMARK SMILES IDX 37 66 39 67 41 68 38 69 60 70 61 71 66 72 62 73 63 74 65 75
REMARK SMILES IDX 67 76 64 77 48 78 49 79 54 80 50 81 51 82 53 83 55 84 52 85
REMARK H PARENT 8 15 72 47 46 58
REMARK Flexibility Score: inf
ROOT
ATOM      1  C   UNL A   1      33.721  34.036  28.145  1.00  0.00     0.202 C 
ENDROOT
BRANCH   1   2
ATOM      2  C   UNL A   1      33.462  35.328  28.919  1.00  0.00     0.261 C 
BRANCH   2   3
ATOM      3  O   UNL A   1      32.573  35.137  30.026  1.00  0.00    -0.458 OA
BRANCH   3   4
ATOM      4  C   UNL A   1      32.931  35.818  31.161  1.00  0.00     0.360 C 
ATOM      5  O   UNL A   1      32.540  36.936  31.449  1.00  0.00    -0.244 OA
BRANCH   4   6
ATOM      6  C   UNL A   1      33.764  35.014  32.037  1.00  0.00     0.190 A 
ATOM      7  N   UNL A   1      35.349  34.135  33.214  1.00  0.00    -0.237 N 
ATOM      8  C   UNL A   1      35.111  35.132  32.312  1.00  0.00     0.147 A 
ATOM      9  N   UNL A   1      34.255  33.383  33.407  1.00  0.00    -0.066 NA
ATOM     10  N   UNL A   1      33.268  33.924  32.710  1.00  0.00    -0.123 NA
BRANCH   7  11
ATOM     11  C   UNL A   1      36.651  33.751  33.634  1.00  0.00     0.218 C 
ATOM     12  N   UNL A   1      38.146  32.310  33.230  1.00  0.00    -0.329 N 
ATOM     13  C   UNL A   1      37.657  33.500  32.502  1.00  0.00     0.296 C 
ATOM     14  C   UNL A   1      36.836  32.254  33.942  1.00  0.00     0.296 C 
ATOM     15  H   UNL A   1      38.520  31.521  32.707  1.00  0.00     0.348 HD
BRANCH  12  16
ATOM     16  C   UNL A   1      39.316  32.483  34.120  1.00  0.00     0.184 C 
ATOM     17  C   UNL A   1      41.095  30.872  33.127  1.00  0.00    -0.006 C 
ATOM     18  C   UNL A   1      42.029  32.073  32.881  1.00  0.00     0.004 C 
ATOM     19  C   UNL A   1      40.102  31.156  34.269  1.00  0.00     0.068 C 
ATOM     20  C   UNL A   1      41.317  33.417  32.786  1.00  0.00     0.006 C 
ATOM     21  C   UNL A   1      40.328  33.630  33.928  1.00  0.00     0.065 C 
BRANCH  17  22
ATOM     22  C   UNL A   1      41.948  29.615  33.381  1.00  0.00     0.000 C 
ATOM     23  C   UNL A   1      41.465  28.788  34.564  1.00  0.00     0.004 C 
ENDBRANCH  17  22
ENDBRANCH  12  16
ENDBRANCH   7  11
ENDBRANCH   4   6
ENDBRANCH   3   4
ENDBRANCH   2   3
ENDBRANCH   1   2
BRANCH   1  24
ATOM     24  O   UNL A   1      35.024  33.830  27.603  1.00  0.00    -0.374 OA
BRANCH  24  25
ATOM     25  C   UNL A   1      35.798  32.701  27.999  1.00  0.00     0.202 C 
BRANCH  25  26
ATOM     26  C   UNL A   1      35.099  31.596  28.773  1.00  0.00     0.261 C 
BRANCH  26  27
ATOM     27  O   UNL A   1      35.787  30.363  28.637  1.00  0.00    -0.460 OA
BRANCH  27  28
ATOM     28  C   UNL A   1      36.714  30.138  29.596  1.00  0.00     0.338 C 
ATOM     29  O   UNL A   1      36.847  30.717  30.656  1.00  0.00    -0.246 OA
BRANCH  28  30
ATOM     30  C   UNL A   1      37.667  29.157  29.072  1.00  0.00     0.060 A 
ATOM     31  C   UNL A   1      38.089  28.179  29.976  1.00  0.00     0.016 A 
ATOM     32  C   UNL A   1      38.385  29.474  27.911  1.00  0.00     0.016 A 
ATOM     33  C   UNL A   1      39.381  27.726  29.869  1.00  0.00     0.010 A 
ATOM     34  C   UNL A   1      39.683  29.058  27.831  1.00  0.00     0.010 A 
ATOM     35  C   UNL A   1      40.184  28.269  28.864  1.00  0.00    -0.014 A 
BRANCH  35  36
ATOM     36  C   UNL A   1      41.576  27.897  28.812  1.00  0.00     0.031 A 
ATOM     37  C   UNL A   1      41.757  26.617  28.097  1.00  0.00     0.074 A 
ATOM     38  C   UNL A   1      42.537  28.737  29.240  1.00  0.00     0.049 A 
ATOM     39  N   UNL A   1      42.147  25.492  28.593  1.00  0.00    -0.248 NA
ATOM     40  C   UNL A   1      41.211  26.512  26.729  1.00  0.00     0.031 C 
ATOM     41  C   UNL A   1      42.388  30.112  29.727  1.00  0.00     0.029 A 
ATOM     42  N   UNL A   1      43.887  28.572  29.208  1.00  0.00    -0.354 N 
ATOM     43  C   UNL A   1      42.137  24.608  27.520  1.00  0.00     0.074 A 
ATOM     44  C   UNL A   1      41.316  25.203  26.506  1.00  0.00     0.031 C 
ATOM     45  C   UNL A   1      43.593  30.726  29.715  1.00  0.00     0.029 A 
ATOM     46  C   UNL A   1      44.606  29.762  29.330  1.00  0.00     0.049 A 
ATOM     47  H   UNL A   1      44.318  27.693  29.106  1.00  0.00     0.167 HD
ATOM     48  C   UNL A   1      43.090  23.644  27.419  1.00  0.00     0.037 A 
ATOM     49  C   UNL A   1      45.918  29.910  29.007  1.00  0.00     0.037 A 
ATOM     50  C   UNL A   1      43.703  23.393  28.699  1.00  0.00     0.049 A 
ATOM     51  C   UNL A   1      46.513  28.544  28.987  1.00  0.00     0.074 A 
ATOM     52  C   UNL A   1      43.227  23.003  29.937  1.00  0.00     0.029 A 
ATOM     53  N   UNL A   1      44.942  23.940  28.927  1.00  0.00    -0.354 N 
ATOM     54  N   UNL A   1      46.655  27.806  30.054  1.00  0.00    -0.248 NA
ATOM     55  C   UNL A   1      46.466  27.816  27.726  1.00  0.00     0.031 C 
ATOM     56  C   UNL A   1      43.982  23.760  30.879  1.00  0.00     0.029 A 
ATOM     57  C   UNL A   1      44.931  24.502  30.177  1.00  0.00     0.049 A 
ATOM     58  H   UNL A   1      45.704  23.930  28.303  1.00  0.00     0.167 HD
ATOM     59  C   UNL A   1      46.269  26.534  29.655  1.00  0.00     0.074 A 
ATOM     60  C   UNL A   1      46.216  26.590  28.194  1.00  0.00     0.031 C 
ATOM     61  C   UNL A   1      45.732  25.647  30.544  1.00  0.00     0.037 A 
BRANCH  48  62
ATOM     62  C   UNL A   1      43.752  23.278  26.113  1.00  0.00     0.057 A 
ATOM     63  C   UNL A   1      43.789  21.926  25.738  1.00  0.00     0.134 A 
ATOM     64  C   UNL A   1      44.595  24.128  25.362  1.00  0.00     0.134 A 
ATOM     65  F   UNL A   1      43.044  21.014  26.381  1.00  0.00    -0.206 F 
ATOM     66  C   UNL A   1      44.659  21.445  24.754  1.00  0.00     0.040 A 
ATOM     67  C   UNL A   1      45.426  23.667  24.340  1.00  0.00     0.040 A 
ATOM     68  F   UNL A   1      44.748  25.429  25.631  1.00  0.00    -0.206 F 
ATOM     69  C   UNL A   1      45.487  22.316  24.057  1.00  0.00     0.006 A 
ENDBRANCH  48  62
BRANCH  49  70
ATOM     70  C   UNL A   1      46.577  31.063  28.337  1.00  0.00     0.057 A 
ATOM     71  C   UNL A   1      46.243  31.419  27.021  1.00  0.00     0.134 A 
ATOM     72  C   UNL A   1      47.328  32.012  29.054  1.00  0.00     0.134 A 
ATOM     73  F   UNL A   1      45.497  30.601  26.263  1.00  0.00    -0.206 F 
ATOM     74  C   UNL A   1      46.602  32.655  26.464  1.00  0.00     0.040 A 
ATOM     75  C   UNL A   1      47.700  33.246  28.508  1.00  0.00     0.040 A 
ATOM     76  F   UNL A   1      47.652  31.821  30.340  1.00  0.00    -0.206 F 
ATOM     77  C   UNL A   1      47.321  33.580  27.215  1.00  0.00     0.006 A 
ENDBRANCH  49  70
BRANCH  61  78
ATOM     78  C   UNL A   1      45.783  25.994  32.008  1.00  0.00     0.057 A 
ATOM     79  C   UNL A   1      46.903  25.795  32.831  1.00  0.00     0.134 A 
ATOM     80  C   UNL A   1      44.714  26.706  32.560  1.00  0.00     0.134 A 
ATOM     81  F   UNL A   1      48.014  25.213  32.362  1.00  0.00    -0.206 F 
ATOM     82  C   UNL A   1      46.936  26.248  34.154  1.00  0.00     0.040 A 
ATOM     83  C   UNL A   1      44.748  27.195  33.867  1.00  0.00     0.040 A 
ATOM     84  F   UNL A   1      43.633  26.985  31.814  1.00  0.00    -0.206 F 
ATOM     85  C   UNL A   1      45.858  26.959  34.673  1.00  0.00     0.006 A 
ENDBRANCH  61  78
ENDBRANCH  35  36
ENDBRANCH  28  30
ENDBRANCH  27  28
ENDBRANCH  26  27
ENDBRANCH  25  26
ENDBRANCH  24  25
ENDBRANCH   1  24
TORSDOF 17
ENDMDL
MODEL 3
REMARK VINA RESULT:     -10.5      4.907      9.778
REMARK SMILES CC[C@@H]1CCC[C@@H]([NH+]2CC(n3cc(C(=O)OCCOCCOC(=O)c4ccc(-c5c6nc(c(-c7c(F)cccc7F)c7ccc([nH]7)c(-c7c(F)cccc7F)c7nc(c(-c8c(F)cccc8F)c8ccc5[nH]8)C=C7)C=C6)cc4)nn3)C2)C1
REMARK SMILES IDX 18 1 17 2 16 3 14 4 15 5 13 6 11 7 12 8 80 9 79 10 10 11
REMARK SMILES IDX 8 12 9 13 81 14 7 16 3 17 4 18 82 19 5 20 6 21 2 22 1 23
REMARK SMILES IDX 19 24 20 25 21 26 22 27 23 28 24 29 25 30 26 31 78 32 27 33
REMARK SMILES IDX 77 34 28 35 29 36 30 37 71 38 31 39 76 40 70 41 72 42 32 43
REMARK SMILES IDX 75 44 69 45 68 46 33 48 59 49 42 50 58 51 43 52 46 53 57 54
REMARK SMILES IDX 73 55 44 56 45 57 56 59 74 60 47 61 34 62 35 63 40 64 36 65
REMARK SMILES IDX 37 66 39 67 41 68 38 69 60 70 61 71 66 72 62 73 63 74 65 75
REMARK SMILES IDX 67 76 64 77 48 78 49 79 54 80 50 81 51 82 53 83 55 84 52 85
REMARK H PARENT 8 15 72 47 46 58
REMARK Flexibility Score: inf
ROOT
ATOM      1  C   UNL A   1      33.353  36.744  28.943  1.00  0.00     0.202 C 
ENDROOT
BRANCH   1   2
ATOM      2  C   UNL A   1      34.200  35.495  28.707  1.00  0.00     0.261 C 
BRANCH   2   3
ATOM      3  O   UNL A   1      33.420  34.293  28.711  1.00  0.00    -0.458 OA
BRANCH   3   4
ATOM      4  C   UNL A   1      34.151  33.145  28.544  1.00  0.00     0.360 C 
ATOM      5  O   UNL A   1      35.263  32.959  29.008  1.00  0.00    -0.244 OA
BRANCH   4   6
ATOM      6  C   UNL A   1      33.407  32.127  27.824  1.00  0.00     0.190 A 
ATOM      7  N   UNL A   1      32.670  30.326  26.885  1.00  0.00    -0.237 N 
ATOM      8  C   UNL A   1      33.741  30.811  27.577  1.00  0.00     0.147 A 
ATOM      9  N   UNL A   1      31.779  31.296  26.625  1.00  0.00    -0.066 NA
ATOM     10  N   UNL A   1      32.206  32.400  27.216  1.00  0.00    -0.123 NA
BRANCH   7  11
ATOM     11  C   UNL A   1      32.657  29.056  26.248  1.00  0.00     0.218 C 
ATOM     12  N   UNL A   1      33.235  27.049  26.580  1.00  0.00    -0.329 N 
ATOM     13  C   UNL A   1      32.146  27.895  27.112  1.00  0.00     0.296 C 
ATOM     14  C   UNL A   1      33.994  28.292  26.260  1.00  0.00     0.296 C 
ATOM     15  H   UNL A   1      33.620  26.305  27.160  1.00  0.00     0.348 HD
BRANCH  12  16
ATOM     16  C   UNL A   1      32.934  26.198  25.407  1.00  0.00     0.184 C 
ATOM     17  C   UNL A   1      34.596  24.215  25.632  1.00  0.00    -0.006 C 
ATOM     18  C   UNL A   1      33.405  23.242  25.721  1.00  0.00     0.004 C 
ATOM     19  C   UNL A   1      34.215  25.504  24.880  1.00  0.00     0.068 C 
ATOM     20  C   UNL A   1      32.099  23.883  26.177  1.00  0.00     0.006 C 
ATOM     21  C   UNL A   1      31.788  25.167  25.416  1.00  0.00     0.065 C 
BRANCH  17  22
ATOM     22  C   UNL A   1      35.794  23.488  24.993  1.00  0.00     0.000 C 
ATOM     23  C   UNL A   1      35.679  23.349  23.482  1.00  0.00     0.004 C 
ENDBRANCH  17  22
ENDBRANCH  12  16
ENDBRANCH   7  11
ENDBRANCH   4   6
ENDBRANCH   3   4
ENDBRANCH   2   3
ENDBRANCH   1   2
BRANCH   1  24
ATOM     24  O   UNL A   1      32.771  36.925  30.233  1.00  0.00    -0.374 OA
BRANCH  24  25
ATOM     25  C   UNL A   1      33.520  37.534  31.281  1.00  0.00     0.202 C 
BRANCH  25  26
ATOM     26  C   UNL A   1      33.683  36.763  32.581  1.00  0.00     0.261 C 
BRANCH  26  27
ATOM     27  O   UNL A   1      34.794  35.884  32.518  1.00  0.00    -0.460 OA
BRANCH  27  28
ATOM     28  C   UNL A   1      34.462  34.581  32.372  1.00  0.00     0.338 C 
ATOM     29  O   UNL A   1      33.402  34.119  31.997  1.00  0.00    -0.246 OA
BRANCH  28  30
ATOM     30  C   UNL A   1      35.564  33.777  32.904  1.00  0.00     0.060 A 
ATOM     31  C   UNL A   1      36.773  34.452  33.090  1.00  0.00     0.016 A 
ATOM     32  C   UNL A   1      35.484  32.382  32.804  1.00  0.00     0.016 A 
ATOM     33  C   UNL A   1      37.934  33.750  32.879  1.00  0.00     0.010 A 
ATOM     34  C   UNL A   1      36.636  31.695  32.551  1.00  0.00     0.010 A 
ATOM     35  C   UNL A   1      37.830  32.411  32.498  1.00  0.00    -0.014 A 
BRANCH  35  36
ATOM     36  C   UNL A   1      39.031  31.693  32.154  1.00  0.00     0.031 A 
ATOM     37  C   UNL A   1      39.837  31.399  33.358  1.00  0.00     0.074 A 
ATOM     38  C   UNL A   1      39.241  31.245  30.902  1.00  0.00     0.049 A 
ATOM     39  N   UNL A   1      40.992  31.884  33.664  1.00  0.00    -0.248 NA
ATOM     40  C   UNL A   1      39.179  30.674  34.463  1.00  0.00     0.031 C 
ATOM     41  C   UNL A   1      38.335  31.317  29.751  1.00  0.00     0.029 A 
ATOM     42  N   UNL A   1      40.279  30.507  30.425  1.00  0.00    -0.354 N 
ATOM     43  C   UNL A   1      41.306  31.307  34.889  1.00  0.00     0.074 A 
ATOM     44  C   UNL A   1      40.076  30.813  35.437  1.00  0.00     0.031 C 
ATOM     45  C   UNL A   1      38.753  30.455  28.796  1.00  0.00     0.029 A 
ATOM     46  C   UNL A   1      40.006  29.859  29.219  1.00  0.00     0.049 A 
ATOM     47  H   UNL A   1      41.144  30.435  30.889  1.00  0.00     0.167 HD
ATOM     48  C   UNL A   1      42.590  30.966  35.175  1.00  0.00     0.037 A 
ATOM     49  C   UNL A   1      40.732  28.828  28.713  1.00  0.00     0.037 A 
ATOM     50  C   UNL A   1      43.513  31.685  34.333  1.00  0.00     0.049 A 
ATOM     51  C   UNL A   1      42.061  28.865  29.388  1.00  0.00     0.074 A 
ATOM     52  C   UNL A   1      43.763  33.025  34.100  1.00  0.00     0.029 A 
ATOM     53  N   UNL A   1      44.061  31.009  33.270  1.00  0.00    -0.354 N 
ATOM     54  N   UNL A   1      42.929  29.823  29.212  1.00  0.00    -0.248 NA
ATOM     55  C   UNL A   1      42.196  28.120  30.632  1.00  0.00     0.031 C 
ATOM     56  C   UNL A   1      44.017  33.117  32.700  1.00  0.00     0.029 A 
ATOM     57  C   UNL A   1      43.994  31.826  32.171  1.00  0.00     0.049 A 
ATOM     58  H   UNL A   1      44.436  30.099  33.293  1.00  0.00     0.167 HD
ATOM     59  C   UNL A   1      43.418  30.091  30.484  1.00  0.00     0.074 A 
ATOM     60  C   UNL A   1      42.969  28.972  31.311  1.00  0.00     0.031 C 
ATOM     61  C   UNL A   1      43.871  31.336  30.818  1.00  0.00     0.037 A 
BRANCH  48  62
ATOM     62  C   UNL A   1      42.961  29.683  35.880  1.00  0.00     0.057 A 
ATOM     63  C   UNL A   1      43.901  29.740  36.920  1.00  0.00     0.134 A 
ATOM     64  C   UNL A   1      42.673  28.383  35.406  1.00  0.00     0.134 A 
ATOM     65  F   UNL A   1      44.271  30.916  37.449  1.00  0.00    -0.206 F 
ATOM     66  C   UNL A   1      44.564  28.602  37.393  1.00  0.00     0.040 A 
ATOM     67  C   UNL A   1      43.288  27.236  35.909  1.00  0.00     0.040 A 
ATOM     68  F   UNL A   1      41.863  28.146  34.368  1.00  0.00    -0.206 F 
ATOM     69  C   UNL A   1      44.264  27.346  36.882  1.00  0.00     0.006 A 
ENDBRANCH  48  62
BRANCH  49  70
ATOM     70  C   UNL A   1      40.241  27.610  28.016  1.00  0.00     0.057 A 
ATOM     71  C   UNL A   1      40.731  27.258  26.748  1.00  0.00     0.134 A 
ATOM     72  C   UNL A   1      39.505  26.614  28.683  1.00  0.00     0.134 A 
ATOM     73  F   UNL A   1      41.477  28.121  26.043  1.00  0.00    -0.206 F 
ATOM     74  C   UNL A   1      40.533  25.984  26.195  1.00  0.00     0.040 A 
ATOM     75  C   UNL A   1      39.293  25.342  28.139  1.00  0.00     0.040 A 
ATOM     76  F   UNL A   1      39.041  26.803  29.926  1.00  0.00    -0.206 F 
ATOM     77  C   UNL A   1      39.823  25.016  26.898  1.00  0.00     0.006 A 
ENDBRANCH  49  70
BRANCH  61  78
ATOM     78  C   UNL A   1      44.048  32.345  29.716  1.00  0.00     0.057 A 
ATOM     79  C   UNL A   1      43.067  33.269  29.323  1.00  0.00     0.134 A 
ATOM     80  C   UNL A   1      45.316  32.491  29.145  1.00  0.00     0.134 A 
ATOM     81  F   UNL A   1      41.852  33.274  29.888  1.00  0.00    -0.206 F 
ATOM     82  C   UNL A   1      43.328  34.265  28.375  1.00  0.00     0.040 A 
ATOM     83  C   UNL A   1      45.600  33.502  28.224  1.00  0.00     0.040 A 
ATOM     84  F   UNL A   1      46.320  31.680  29.514  1.00  0.00    -0.206 F 
ATOM     85  C   UNL A   1      44.602  34.388  27.829  1.00  0.00     0.006 A 
ENDBRANCH  61  78
ENDBRANCH  35  36
ENDBRANCH  28  30
ENDBRANCH  27  28
ENDBRANCH  26  27
ENDBRANCH  25  26
ENDBRANCH  24  25
ENDBRANCH   1  24
TORSDOF 17
ENDMDL
