MODEL 1
REMARK VINA RESULT:     -11.3      0.000      0.000
REMARK SMILES C[C@H]1[C@@H](C(=O)OCCOCCOC(=O)c2ccc(-c3c4nc(c(-c5c(F)cccc5F)c5ccc([nH]5)c(-c5c(F)cccc5F)c5nc(c(-c6c(F)cccc6F)c6ccc3[nH]6)C=C5)C=C4)cc2)CC[N@@H+]1Cc1cc(F)c(F)c(F)c1
REMARK SMILES IDX 9 1 8 2 7 3 6 4 4 5 5 6 3 7 1 8 2 9 71 10 69 11 70 12 72 14
REMARK SMILES IDX 73 15 74 16 81 17 75 18 79 19 76 20 77 21 80 22 78 23 10 24
REMARK SMILES IDX 11 25 12 26 13 27 14 28 15 29 16 30 68 31 17 32 67 33 18 34
REMARK SMILES IDX 19 35 20 36 61 37 21 38 66 39 60 40 62 41 22 42 65 43 59 44
REMARK SMILES IDX 58 45 23 47 49 48 32 49 48 50 33 51 36 52 47 53 63 54 34 55
REMARK SMILES IDX 35 56 46 58 64 59 37 60 24 61 25 62 30 63 26 64 27 65 29 66
REMARK SMILES IDX 31 67 28 68 50 69 51 70 56 71 52 72 53 73 55 74 57 75 54 76
REMARK SMILES IDX 38 77 39 78 44 79 40 80 41 81 43 82 45 83 42 84
REMARK H PARENT 71 13 62 46 36 57
REMARK Flexibility Score: inf
ROOT
ATOM      1  O   UNL A   1      41.999  21.550  25.415  1.00  0.00    -0.374 OA
ENDROOT
BRANCH   1   2
ATOM      2  C   UNL A   1      41.026  21.989  26.370  1.00  0.00     0.202 C 
BRANCH   2   3
ATOM      3  C   UNL A   1      39.659  21.309  26.242  1.00  0.00     0.261 C 
BRANCH   3   4
ATOM      4  O   UNL A   1      38.644  22.320  26.073  1.00  0.00    -0.463 OA
BRANCH   4   5
ATOM      5  C   UNL A   1      37.551  21.991  25.352  1.00  0.00     0.315 C 
ATOM      6  O   UNL A   1      37.153  20.841  25.196  1.00  0.00    -0.252 OA
BRANCH   5   7
ATOM      7  C   UNL A   1      36.748  23.185  24.857  1.00  0.00     0.162 C 
ATOM      8  C   UNL A   1      34.658  22.689  26.408  1.00  0.00     0.076 C 
ATOM      9  C   UNL A   1      35.406  23.635  25.473  1.00  0.00     0.195 C 
ATOM     10  N   UNL A   1      34.508  23.918  24.334  1.00  0.00    -0.328 N 
ATOM     11  C   UNL A   1      36.480  23.021  23.356  1.00  0.00     0.083 C 
ATOM     12  C   UNL A   1      34.978  23.149  23.191  1.00  0.00     0.263 C 
ATOM     13  H   UNL A   1      33.572  23.604  24.589  1.00  0.00     0.348 HD
BRANCH  10  14
ATOM     14  C   UNL A   1      34.192  25.323  24.070  1.00  0.00     0.299 C 
BRANCH  14  15
ATOM     15  C   UNL A   1      33.348  26.040  25.100  1.00  0.00     0.012 A 
ATOM     16  C   UNL A   1      33.893  27.082  25.867  1.00  0.00     0.052 A 
ATOM     17  C   UNL A   1      32.003  25.692  25.309  1.00  0.00     0.052 A 
ATOM     18  C   UNL A   1      33.096  27.777  26.778  1.00  0.00     0.162 A 
ATOM     19  C   UNL A   1      31.214  26.416  26.199  1.00  0.00     0.162 A 
ATOM     20  F   UNL A   1      33.644  28.764  27.498  1.00  0.00    -0.204 F 
ATOM     21  C   UNL A   1      31.755  27.459  26.933  1.00  0.00     0.194 A 
ATOM     22  F   UNL A   1      29.918  26.100  26.325  1.00  0.00    -0.204 F 
ATOM     23  F   UNL A   1      30.989  28.155  27.785  1.00  0.00    -0.200 F 
ENDBRANCH  14  15
ENDBRANCH  10  14
ENDBRANCH   5   7
ENDBRANCH   4   5
ENDBRANCH   3   4
ENDBRANCH   2   3
ENDBRANCH   1   2
BRANCH   1  24
ATOM     24  C   UNL A   1      43.355  21.867  25.718  1.00  0.00     0.202 C 
BRANCH  24  25
ATOM     25  C   UNL A   1      44.105  22.633  24.625  1.00  0.00     0.261 C 
BRANCH  25  26
ATOM     26  O   UNL A   1      43.512  23.927  24.431  1.00  0.00    -0.460 OA
BRANCH  26  27
ATOM     27  C   UNL A   1      44.189  24.932  25.025  1.00  0.00     0.338 C 
ATOM     28  O   UNL A   1      45.353  25.257  24.829  1.00  0.00    -0.246 OA
BRANCH  27  29
ATOM     29  C   UNL A   1      43.282  25.735  25.863  1.00  0.00     0.060 A 
ATOM     30  C   UNL A   1      43.724  27.018  26.205  1.00  0.00     0.016 A 
ATOM     31  C   UNL A   1      42.073  25.241  26.364  1.00  0.00     0.016 A 
ATOM     32  C   UNL A   1      43.019  27.769  27.135  1.00  0.00     0.010 A 
ATOM     33  C   UNL A   1      41.358  26.002  27.296  1.00  0.00     0.010 A 
ATOM     34  C   UNL A   1      41.867  27.238  27.731  1.00  0.00    -0.014 A 
BRANCH  34  35
ATOM     35  C   UNL A   1      41.348  27.907  28.947  1.00  0.00     0.031 A 
ATOM     36  C   UNL A   1      42.101  27.739  30.240  1.00  0.00     0.074 A 
ATOM     37  C   UNL A   1      40.301  28.746  28.872  1.00  0.00     0.049 A 
ATOM     38  N   UNL A   1      41.907  28.318  31.397  1.00  0.00    -0.248 NA
ATOM     39  C   UNL A   1      43.230  26.793  30.225  1.00  0.00     0.031 C 
ATOM     40  C   UNL A   1      39.519  29.013  27.666  1.00  0.00     0.029 A 
ATOM     41  N   UNL A   1      39.731  29.545  29.829  1.00  0.00    -0.354 N 
ATOM     42  C   UNL A   1      42.887  27.811  32.242  1.00  0.00     0.074 A 
ATOM     43  C   UNL A   1      43.646  26.844  31.481  1.00  0.00     0.031 C 
ATOM     44  C   UNL A   1      38.577  29.928  27.952  1.00  0.00     0.029 A 
ATOM     45  C   UNL A   1      38.680  30.295  29.363  1.00  0.00     0.049 A 
ATOM     46  H   UNL A   1      40.046  29.578  30.761  1.00  0.00     0.167 HD
ATOM     47  C   UNL A   1      43.145  28.137  33.530  1.00  0.00     0.037 A 
ATOM     48  C   UNL A   1      37.895  31.178  30.007  1.00  0.00     0.037 A 
ATOM     49  C   UNL A   1      42.391  29.105  34.282  1.00  0.00     0.049 A 
ATOM     50  C   UNL A   1      38.171  31.488  31.454  1.00  0.00     0.074 A 
ATOM     51  C   UNL A   1      42.575  29.517  35.589  1.00  0.00     0.029 A 
ATOM     52  N   UNL A   1      41.303  29.811  33.788  1.00  0.00    -0.354 N 
ATOM     53  N   UNL A   1      39.119  31.026  32.234  1.00  0.00    -0.248 NA
ATOM     54  C   UNL A   1      37.277  32.455  32.105  1.00  0.00     0.031 C 
ATOM     55  C   UNL A   1      41.568  30.437  35.902  1.00  0.00     0.029 A 
ATOM     56  C   UNL A   1      40.792  30.639  34.772  1.00  0.00     0.049 A 
ATOM     57  H   UNL A   1      40.949  29.734  32.873  1.00  0.00     0.167 HD
ATOM     58  C   UNL A   1      38.952  31.664  33.457  1.00  0.00     0.074 A 
ATOM     59  C   UNL A   1      37.823  32.559  33.307  1.00  0.00     0.031 C 
ATOM     60  C   UNL A   1      39.668  31.525  34.600  1.00  0.00     0.037 A 
BRANCH  47  61
ATOM     61  C   UNL A   1      44.277  27.422  34.210  1.00  0.00     0.057 A 
ATOM     62  C   UNL A   1      45.567  27.965  34.274  1.00  0.00     0.134 A 
ATOM     63  C   UNL A   1      44.069  26.182  34.824  1.00  0.00     0.134 A 
ATOM     64  F   UNL A   1      45.839  29.143  33.690  1.00  0.00    -0.206 F 
ATOM     65  C   UNL A   1      46.615  27.289  34.902  1.00  0.00     0.040 A 
ATOM     66  C   UNL A   1      45.102  25.507  35.479  1.00  0.00     0.040 A 
ATOM     67  F   UNL A   1      42.858  25.605  34.802  1.00  0.00    -0.206 F 
ATOM     68  C   UNL A   1      46.381  26.058  35.513  1.00  0.00     0.006 A 
ENDBRANCH  47  61
BRANCH  48  69
ATOM     69  C   UNL A   1      36.778  31.841  29.287  1.00  0.00     0.057 A 
ATOM     70  C   UNL A   1      36.875  33.166  28.848  1.00  0.00     0.134 A 
ATOM     71  C   UNL A   1      35.577  31.166  29.037  1.00  0.00     0.134 A 
ATOM     72  F   UNL A   1      37.992  33.872  29.077  1.00  0.00    -0.206 F 
ATOM     73  C   UNL A   1      35.813  33.803  28.205  1.00  0.00     0.040 A 
ATOM     74  C   UNL A   1      34.516  31.781  28.370  1.00  0.00     0.040 A 
ATOM     75  F   UNL A   1      35.420  29.892  29.429  1.00  0.00    -0.206 F 
ATOM     76  C   UNL A   1      34.630  33.107  27.960  1.00  0.00     0.006 A 
ENDBRANCH  48  69
BRANCH  60  77
ATOM     77  C   UNL A   1      39.269  32.386  35.765  1.00  0.00     0.057 A 
ATOM     78  C   UNL A   1      38.372  31.940  36.744  1.00  0.00     0.134 A 
ATOM     79  C   UNL A   1      39.808  33.670  35.918  1.00  0.00     0.134 A 
ATOM     80  F   UNL A   1      37.813  30.724  36.650  1.00  0.00    -0.206 F 
ATOM     81  C   UNL A   1      37.999  32.753  37.815  1.00  0.00     0.040 A 
ATOM     82  C   UNL A   1      39.466  34.480  37.000  1.00  0.00     0.040 A 
ATOM     83  F   UNL A   1      40.683  34.154  35.023  1.00  0.00    -0.206 F 
ATOM     84  C   UNL A   1      38.552  34.026  37.948  1.00  0.00     0.006 A 
ENDBRANCH  60  77
ENDBRANCH  34  35
ENDBRANCH  27  29
ENDBRANCH  26  27
ENDBRANCH  25  26
ENDBRANCH  24  25
ENDBRANCH   1  24
TORSDOF 16
ENDMDL
MODEL 2
REMARK VINA RESULT:     -11.2      0.552      6.260
REMARK SMILES C[C@H]1[C@@H](C(=O)OCCOCCOC(=O)c2ccc(-c3c4nc(c(-c5c(F)cccc5F)c5ccc([nH]5)c(-c5c(F)cccc5F)c5nc(c(-c6c(F)cccc6F)c6ccc3[nH]6)C=C5)C=C4)cc2)CC[N@@H+]1Cc1cc(F)c(F)c(F)c1
REMARK SMILES IDX 9 1 8 2 7 3 6 4 4 5 5 6 3 7 1 8 2 9 71 10 69 11 70 12 72 14
REMARK SMILES IDX 73 15 74 16 81 17 75 18 79 19 76 20 77 21 80 22 78 23 10 24
REMARK SMILES IDX 11 25 12 26 13 27 14 28 15 29 16 30 68 31 17 32 67 33 18 34
REMARK SMILES IDX 19 35 20 36 61 37 21 38 66 39 60 40 62 41 22 42 65 43 59 44
REMARK SMILES IDX 58 45 23 47 49 48 32 49 48 50 33 51 36 52 47 53 63 54 34 55
REMARK SMILES IDX 35 56 46 58 64 59 37 60 24 61 25 62 30 63 26 64 27 65 29 66
REMARK SMILES IDX 31 67 28 68 50 69 51 70 56 71 52 72 53 73 55 74 57 75 54 76
REMARK SMILES IDX 38 77 39 78 44 79 40 80 41 81 43 82 45 83 42 84
REMARK H PARENT 71 13 62 46 36 57
REMARK Flexibility Score: inf
ROOT
ATOM      1  O   UNL A   1      42.013  21.431  27.392  1.00  0.00    -0.374 OA
ENDROOT
BRANCH   1   2
ATOM      2  C   UNL A   1      40.585  21.537  27.445  1.00  0.00     0.202 C 
BRANCH   2   3
ATOM      3  C   UNL A   1      39.921  21.839  26.097  1.00  0.00     0.261 C 
BRANCH   3   4
ATOM      4  O   UNL A   1      38.542  22.199  26.321  1.00  0.00    -0.463 OA
BRANCH   4   5
ATOM      5  C   UNL A   1      37.651  21.875  25.362  1.00  0.00     0.315 C 
ATOM      6  O   UNL A   1      37.416  20.725  25.002  1.00  0.00    -0.252 OA
BRANCH   5   7
ATOM      7  C   UNL A   1      36.833  23.051  24.848  1.00  0.00     0.162 C 
ATOM      8  C   UNL A   1      34.812  22.646  26.513  1.00  0.00     0.076 C 
ATOM      9  C   UNL A   1      35.523  23.541  25.501  1.00  0.00     0.195 C 
ATOM     10  N   UNL A   1      34.576  23.778  24.392  1.00  0.00    -0.328 N 
ATOM     11  C   UNL A   1      36.496  22.820  23.370  1.00  0.00     0.083 C 
ATOM     12  C   UNL A   1      34.989  22.952  23.267  1.00  0.00     0.263 C 
ATOM     13  H   UNL A   1      33.651  23.484  24.704  1.00  0.00     0.348 HD
BRANCH  10  14
ATOM     14  C   UNL A   1      34.258  25.171  24.077  1.00  0.00     0.299 C 
BRANCH  14  15
ATOM     15  C   UNL A   1      33.396  25.919  25.071  1.00  0.00     0.012 A 
ATOM     16  C   UNL A   1      33.929  26.979  25.821  1.00  0.00     0.052 A 
ATOM     17  C   UNL A   1      32.045  25.580  25.262  1.00  0.00     0.052 A 
ATOM     18  C   UNL A   1      33.117  27.699  26.697  1.00  0.00     0.162 A 
ATOM     19  C   UNL A   1      31.241  26.330  26.117  1.00  0.00     0.162 A 
ATOM     20  F   UNL A   1      33.653  28.704  27.401  1.00  0.00    -0.204 F 
ATOM     21  C   UNL A   1      31.771  27.391  26.833  1.00  0.00     0.194 A 
ATOM     22  F   UNL A   1      29.942  26.022  26.225  1.00  0.00    -0.204 F 
ATOM     23  F   UNL A   1      30.992  28.111  27.651  1.00  0.00    -0.200 F 
ENDBRANCH  14  15
ENDBRANCH  10  14
ENDBRANCH   5   7
ENDBRANCH   4   5
ENDBRANCH   3   4
ENDBRANCH   2   3
ENDBRANCH   1   2
BRANCH   1  24
ATOM     24  C   UNL A   1      42.561  21.037  26.136  1.00  0.00     0.202 C 
BRANCH  24  25
ATOM     25  C   UNL A   1      43.528  22.042  25.505  1.00  0.00     0.261 C 
BRANCH  25  26
ATOM     26  O   UNL A   1      42.839  23.263  25.190  1.00  0.00    -0.460 OA
BRANCH  26  27
ATOM     27  C   UNL A   1      43.571  24.375  25.413  1.00  0.00     0.338 C 
ATOM     28  O   UNL A   1      44.638  24.675  24.892  1.00  0.00    -0.246 OA
BRANCH  27  29
ATOM     29  C   UNL A   1      42.831  25.310  26.278  1.00  0.00     0.060 A 
ATOM     30  C   UNL A   1      43.292  26.630  26.304  1.00  0.00     0.016 A 
ATOM     31  C   UNL A   1      41.767  24.911  27.094  1.00  0.00     0.016 A 
ATOM     32  C   UNL A   1      42.771  27.529  27.224  1.00  0.00     0.010 A 
ATOM     33  C   UNL A   1      41.236  25.819  28.017  1.00  0.00     0.010 A 
ATOM     34  C   UNL A   1      41.783  27.109  28.126  1.00  0.00    -0.014 A 
BRANCH  34  35
ATOM     35  C   UNL A   1      41.505  27.974  29.297  1.00  0.00     0.031 A 
ATOM     36  C   UNL A   1      40.330  28.914  29.236  1.00  0.00     0.074 A 
ATOM     37  C   UNL A   1      42.208  27.833  30.433  1.00  0.00     0.049 A 
ATOM     38  N   UNL A   1      39.825  29.675  30.172  1.00  0.00    -0.248 NA
ATOM     39  C   UNL A   1      39.626  29.005  27.945  1.00  0.00     0.031 C 
ATOM     40  C   UNL A   1      43.341  26.929  30.618  1.00  0.00     0.029 A 
ATOM     41  N   UNL A   1      42.053  28.436  31.655  1.00  0.00    -0.354 N 
ATOM     42  C   UNL A   1      38.747  30.329  29.587  1.00  0.00     0.074 A 
ATOM     43  C   UNL A   1      38.698  29.912  28.204  1.00  0.00     0.031 C 
ATOM     44  C   UNL A   1      43.773  27.025  31.886  1.00  0.00     0.029 A 
ATOM     45  C   UNL A   1      42.957  28.009  32.595  1.00  0.00     0.049 A 
ATOM     46  H   UNL A   1      41.360  29.110  31.840  1.00  0.00     0.167 HD
ATOM     47  C   UNL A   1      37.865  31.184  30.156  1.00  0.00     0.037 A 
ATOM     48  C   UNL A   1      43.105  28.373  33.883  1.00  0.00     0.037 A 
ATOM     49  C   UNL A   1      37.915  31.591  31.535  1.00  0.00     0.049 A 
ATOM     50  C   UNL A   1      42.140  29.364  34.480  1.00  0.00     0.074 A 
ATOM     51  C   UNL A   1      37.065  32.444  32.215  1.00  0.00     0.029 A 
ATOM     52  N   UNL A   1      38.875  31.172  32.445  1.00  0.00    -0.354 N 
ATOM     53  N   UNL A   1      41.107  29.952  33.925  1.00  0.00    -0.248 NA
ATOM     54  C   UNL A   1      42.354  29.728  35.887  1.00  0.00     0.031 C 
ATOM     55  C   UNL A   1      37.538  32.579  33.525  1.00  0.00     0.029 A 
ATOM     56  C   UNL A   1      38.651  31.767  33.676  1.00  0.00     0.049 A 
ATOM     57  H   UNL A   1      39.606  30.544  32.246  1.00  0.00     0.167 HD
ATOM     58  C   UNL A   1      40.533  30.733  34.921  1.00  0.00     0.074 A 
ATOM     59  C   UNL A   1      41.324  30.528  36.117  1.00  0.00     0.031 C 
ATOM     60  C   UNL A   1      39.450  31.546  34.855  1.00  0.00     0.037 A 
BRANCH  47  61
ATOM     61  C   UNL A   1      36.788  31.750  29.277  1.00  0.00     0.057 A 
ATOM     62  C   UNL A   1      35.657  31.006  28.916  1.00  0.00     0.134 A 
ATOM     63  C   UNL A   1      36.874  33.064  28.802  1.00  0.00     0.134 A 
ATOM     64  F   UNL A   1      35.520  29.734  29.324  1.00  0.00    -0.206 F 
ATOM     65  C   UNL A   1      34.664  31.539  28.092  1.00  0.00     0.040 A 
ATOM     66  C   UNL A   1      35.875  33.618  27.999  1.00  0.00     0.040 A 
ATOM     67  F   UNL A   1      37.929  33.833  29.111  1.00  0.00    -0.206 F 
ATOM     68  C   UNL A   1      34.769  32.852  27.637  1.00  0.00     0.006 A 
ENDBRANCH  47  61
BRANCH  48  69
ATOM     69  C   UNL A   1      44.201  27.794  34.698  1.00  0.00     0.057 A 
ATOM     70  C   UNL A   1      45.462  28.397  34.763  1.00  0.00     0.134 A 
ATOM     71  C   UNL A   1      44.017  26.608  35.421  1.00  0.00     0.134 A 
ATOM     72  F   UNL A   1      45.706  29.524  34.077  1.00  0.00    -0.206 F 
ATOM     73  C   UNL A   1      46.505  27.834  35.499  1.00  0.00     0.040 A 
ATOM     74  C   UNL A   1      45.043  26.048  36.183  1.00  0.00     0.040 A 
ATOM     75  F   UNL A   1      42.831  25.981  35.403  1.00  0.00    -0.206 F 
ATOM     76  C   UNL A   1      46.295  26.657  36.216  1.00  0.00     0.006 A 
ENDBRANCH  48  69
BRANCH  60  77
ATOM     77  C   UNL A   1      39.040  32.244  36.120  1.00  0.00     0.057 A 
ATOM     78  C   UNL A   1      39.478  33.538  36.428  1.00  0.00     0.134 A 
ATOM     79  C   UNL A   1      38.179  31.618  37.031  1.00  0.00     0.134 A 
ATOM     80  F   UNL A   1      40.312  34.188  35.601  1.00  0.00    -0.206 F 
ATOM     81  C   UNL A   1      39.101  34.173  37.612  1.00  0.00     0.040 A 
ATOM     82  C   UNL A   1      37.772  32.254  38.204  1.00  0.00     0.040 A 
ATOM     83  F   UNL A   1      37.713  30.383  36.792  1.00  0.00    -0.206 F 
ATOM     84  C   UNL A   1      38.241  33.531  38.502  1.00  0.00     0.006 A 
ENDBRANCH  60  77
ENDBRANCH  34  35
ENDBRANCH  27  29
ENDBRANCH  26  27
ENDBRANCH  25  26
ENDBRANCH  24  25
ENDBRANCH   1  24
TORSDOF 16
ENDMDL
MODEL 3
REMARK VINA RESULT:     -11.1      3.836      6.387
REMARK SMILES C[C@H]1[C@@H](C(=O)OCCOCCOC(=O)c2ccc(-c3c4nc(c(-c5c(F)cccc5F)c5ccc([nH]5)c(-c5c(F)cccc5F)c5nc(c(-c6c(F)cccc6F)c6ccc3[nH]6)C=C5)C=C4)cc2)CC[N@@H+]1Cc1cc(F)c(F)c(F)c1
REMARK SMILES IDX 9 1 8 2 7 3 6 4 4 5 5 6 3 7 1 8 2 9 71 10 69 11 70 12 72 14
REMARK SMILES IDX 73 15 74 16 81 17 75 18 79 19 76 20 77 21 80 22 78 23 10 24
REMARK SMILES IDX 11 25 12 26 13 27 14 28 15 29 16 30 68 31 17 32 67 33 18 34
REMARK SMILES IDX 19 35 20 36 61 37 21 38 66 39 60 40 62 41 22 42 65 43 59 44
REMARK SMILES IDX 58 45 23 47 49 48 32 49 48 50 33 51 36 52 47 53 63 54 34 55
REMARK SMILES IDX 35 56 46 58 64 59 37 60 24 61 25 62 30 63 26 64 27 65 29 66
REMARK SMILES IDX 31 67 28 68 50 69 51 70 56 71 52 72 53 73 55 74 57 75 54 76
REMARK SMILES IDX 38 77 39 78 44 79 40 80 41 81 43 82 45 83 42 84
REMARK H PARENT 71 13 62 46 36 57
REMARK Flexibility Score: inf
ROOT
ATOM      1  O   UNL A   1      35.490  21.328  25.872  1.00  0.00    -0.374 OA
ENDROOT
BRANCH   1   2
ATOM      2  C   UNL A   1      34.093  21.175  26.151  1.00  0.00     0.202 C 
BRANCH   2   3
ATOM      3  C   UNL A   1      33.626  21.851  27.444  1.00  0.00     0.261 C 
BRANCH   3   4
ATOM      4  O   UNL A   1      33.656  23.283  27.264  1.00  0.00    -0.463 OA
BRANCH   4   5
ATOM      5  C   UNL A   1      32.549  23.870  26.764  1.00  0.00     0.315 C 
ATOM      6  O   UNL A   1      31.454  23.855  27.319  1.00  0.00    -0.252 OA
BRANCH   5   7
ATOM      7  C   UNL A   1      32.793  24.694  25.509  1.00  0.00     0.162 C 
ATOM      8  C   UNL A   1      31.704  22.916  23.874  1.00  0.00     0.076 C 
ATOM      9  C   UNL A   1      32.246  24.323  24.114  1.00  0.00     0.195 C 
ATOM     10  N   UNL A   1      33.365  24.523  23.170  1.00  0.00    -0.328 N 
ATOM     11  C   UNL A   1      34.302  24.890  25.322  1.00  0.00     0.083 C 
ATOM     12  C   UNL A   1      34.608  24.408  23.918  1.00  0.00     0.263 C 
ATOM     13  H   UNL A   1      33.322  23.779  22.473  1.00  0.00     0.348 HD
BRANCH  10  14
ATOM     14  C   UNL A   1      33.271  25.666  22.261  1.00  0.00     0.299 C 
BRANCH  14  15
ATOM     15  C   UNL A   1      32.499  26.872  22.753  1.00  0.00     0.012 A 
ATOM     16  C   UNL A   1      31.144  27.032  22.424  1.00  0.00     0.052 A 
ATOM     17  C   UNL A   1      33.112  27.850  23.555  1.00  0.00     0.052 A 
ATOM     18  C   UNL A   1      30.423  28.117  22.924  1.00  0.00     0.162 A 
ATOM     19  C   UNL A   1      32.369  28.908  24.072  1.00  0.00     0.162 A 
ATOM     20  F   UNL A   1      29.132  28.247  22.592  1.00  0.00    -0.204 F 
ATOM     21  C   UNL A   1      31.026  29.045  23.761  1.00  0.00     0.194 A 
ATOM     22  F   UNL A   1      32.968  29.787  24.887  1.00  0.00    -0.204 F 
ATOM     23  F   UNL A   1      30.316  30.064  24.264  1.00  0.00    -0.200 F 
ENDBRANCH  14  15
ENDBRANCH  10  14
ENDBRANCH   5   7
ENDBRANCH   4   5
ENDBRANCH   3   4
ENDBRANCH   2   3
ENDBRANCH   1   2
BRANCH   1  24
ATOM     24  C   UNL A   1      36.024  20.462  24.873  1.00  0.00     0.202 C 
BRANCH  24  25
ATOM     25  C   UNL A   1      37.532  20.216  24.963  1.00  0.00     0.261 C 
BRANCH  25  26
ATOM     26  O   UNL A   1      38.201  21.402  25.420  1.00  0.00    -0.460 OA
BRANCH  26  27
ATOM     27  C   UNL A   1      39.369  21.161  26.052  1.00  0.00     0.338 C 
ATOM     28  O   UNL A   1      40.091  20.181  25.923  1.00  0.00    -0.246 OA
BRANCH  27  29
ATOM     29  C   UNL A   1      39.780  22.338  26.837  1.00  0.00     0.060 A 
ATOM     30  C   UNL A   1      39.147  23.546  26.524  1.00  0.00     0.016 A 
ATOM     31  C   UNL A   1      40.797  22.295  27.797  1.00  0.00     0.016 A 
ATOM     32  C   UNL A   1      39.600  24.731  27.085  1.00  0.00     0.010 A 
ATOM     33  C   UNL A   1      41.249  23.490  28.368  1.00  0.00     0.010 A 
ATOM     34  C   UNL A   1      40.693  24.715  27.961  1.00  0.00    -0.014 A 
BRANCH  34  35
ATOM     35  C   UNL A   1      41.357  26.006  28.261  1.00  0.00     0.031 A 
ATOM     36  C   UNL A   1      42.734  26.255  27.706  1.00  0.00     0.074 A 
ATOM     37  C   UNL A   1      40.695  26.981  28.907  1.00  0.00     0.049 A 
ATOM     38  N   UNL A   1      43.459  27.344  27.736  1.00  0.00    -0.248 NA
ATOM     39  C   UNL A   1      43.382  25.124  27.020  1.00  0.00     0.031 C 
ATOM     40  C   UNL A   1      39.345  26.864  29.456  1.00  0.00     0.029 A 
ATOM     41  N   UNL A   1      41.065  28.271  29.189  1.00  0.00    -0.354 N 
ATOM     42  C   UNL A   1      44.639  27.031  27.073  1.00  0.00     0.074 A 
ATOM     43  C   UNL A   1      44.556  25.639  26.692  1.00  0.00     0.031 C 
ATOM     44  C   UNL A   1      38.993  28.042  29.997  1.00  0.00     0.029 A 
ATOM     45  C   UNL A   1      40.097  28.987  29.848  1.00  0.00     0.049 A 
ATOM     46  H   UNL A   1      41.940  28.647  28.942  1.00  0.00     0.167 HD
ATOM     47  C   UNL A   1      45.689  27.836  26.789  1.00  0.00     0.037 A 
ATOM     48  C   UNL A   1      40.107  30.262  30.279  1.00  0.00     0.037 A 
ATOM     49  C   UNL A   1      45.765  29.223  27.165  1.00  0.00     0.049 A 
ATOM     50  C   UNL A   1      41.308  31.124  29.993  1.00  0.00     0.074 A 
ATOM     51  C   UNL A   1      46.779  30.131  26.919  1.00  0.00     0.029 A 
ATOM     52  N   UNL A   1      44.784  29.901  27.874  1.00  0.00    -0.354 N 
ATOM     53  N   UNL A   1      42.405  30.826  29.339  1.00  0.00    -0.248 NA
ATOM     54  C   UNL A   1      41.263  32.505  30.493  1.00  0.00     0.031 C 
ATOM     55  C   UNL A   1      46.432  31.346  27.520  1.00  0.00     0.029 A 
ATOM     56  C   UNL A   1      45.178  31.210  28.093  1.00  0.00     0.049 A 
ATOM     57  H   UNL A   1      43.933  29.509  28.175  1.00  0.00     0.167 HD
ATOM     58  C   UNL A   1      43.168  31.988  29.325  1.00  0.00     0.074 A 
ATOM     59  C   UNL A   1      42.399  32.999  30.021  1.00  0.00     0.031 C 
ATOM     60  C   UNL A   1      44.394  32.201  28.786  1.00  0.00     0.037 A 
BRANCH  47  61
ATOM     61  C   UNL A   1      46.849  27.226  26.055  1.00  0.00     0.057 A 
ATOM     62  C   UNL A   1      47.847  26.499  26.717  1.00  0.00     0.134 A 
ATOM     63  C   UNL A   1      46.958  27.352  24.665  1.00  0.00     0.134 A 
ATOM     64  F   UNL A   1      47.812  26.355  28.051  1.00  0.00    -0.206 F 
ATOM     65  C   UNL A   1      48.925  25.942  26.027  1.00  0.00     0.040 A 
ATOM     66  C   UNL A   1      48.016  26.777  23.960  1.00  0.00     0.040 A 
ATOM     67  F   UNL A   1      46.036  28.033  23.969  1.00  0.00    -0.206 F 
ATOM     68  C   UNL A   1      49.007  26.074  24.642  1.00  0.00     0.006 A 
ENDBRANCH  47  61
BRANCH  48  69
ATOM     69  C   UNL A   1      38.939  30.806  31.017  1.00  0.00     0.057 A 
ATOM     70  C   UNL A   1      37.906  31.481  30.357  1.00  0.00     0.134 A 
ATOM     71  C   UNL A   1      38.838  30.676  32.408  1.00  0.00     0.134 A 
ATOM     72  F   UNL A   1      37.956  31.655  29.028  1.00  0.00    -0.206 F 
ATOM     73  C   UNL A   1      36.825  32.025  31.053  1.00  0.00     0.040 A 
ATOM     74  C   UNL A   1      37.750  31.192  33.114  1.00  0.00     0.040 A 
ATOM     75  F   UNL A   1      39.793  30.037  33.100  1.00  0.00    -0.206 F 
ATOM     76  C   UNL A   1      36.744  31.876  32.437  1.00  0.00     0.006 A 
ENDBRANCH  48  69
BRANCH  60  77
ATOM     77  C   UNL A   1      44.959  33.588  28.899  1.00  0.00     0.057 A 
ATOM     78  C   UNL A   1      45.787  33.967  29.963  1.00  0.00     0.134 A 
ATOM     79  C   UNL A   1      44.686  34.549  27.917  1.00  0.00     0.134 A 
ATOM     80  F   UNL A   1      46.078  33.096  30.941  1.00  0.00    -0.206 F 
ATOM     81  C   UNL A   1      46.295  35.263  30.064  1.00  0.00     0.040 A 
ATOM     82  C   UNL A   1      45.213  35.839  27.992  1.00  0.00     0.040 A 
ATOM     83  F   UNL A   1      43.910  34.249  26.865  1.00  0.00    -0.206 F 
ATOM     84  C   UNL A   1      46.013  36.201  29.073  1.00  0.00     0.006 A 
ENDBRANCH  60  77
ENDBRANCH  34  35
ENDBRANCH  27  29
ENDBRANCH  26  27
ENDBRANCH  25  26
ENDBRANCH  24  25
ENDBRANCH   1  24
TORSDOF 16
ENDMDL
