MODEL 1
REMARK VINA RESULT:      -9.8      0.000      0.000
REMARK SMILES CC[C@](O)(C(=O)OCCOCCOC(=O)c1ccc(-c2c3nc(c(-c4c(F)cccc4F)c4ccc([nH]4)c(-c4c(F)cccc4F)c4nc(c(-c5c(F)cccc5F)c5ccc2[nH]5)C=C4)C=C3)cc1)[C@@H](C)c1ccc(C)s1
REMARK SMILES IDX 10 1 9 2 8 3 7 4 5 5 6 6 3 7 2 8 1 9 70 10 71 11 72 12 73 13
REMARK SMILES IDX 77 14 74 15 75 16 76 17 4 18 11 20 12 21 13 22 14 23 15 24
REMARK SMILES IDX 16 25 17 26 69 27 18 28 68 29 19 30 20 31 21 32 62 33 22 34
REMARK SMILES IDX 67 35 61 36 63 37 23 38 66 39 60 40 59 41 24 43 50 44 33 45
REMARK SMILES IDX 49 46 34 47 37 48 48 49 64 50 35 51 36 52 47 54 65 55 38 56
REMARK SMILES IDX 25 57 26 58 31 59 27 60 28 61 30 62 32 63 29 64 51 65 52 66
REMARK SMILES IDX 57 67 53 68 54 69 56 70 58 71 55 72 39 73 40 74 45 75 41 76
REMARK SMILES IDX 42 77 44 78 46 79 43 80
REMARK H PARENT 4 19 63 42 37 53
REMARK Flexibility Score: inf
ROOT
ATOM      1  O   UNL A   1      31.754  30.180  27.063  1.00  0.00    -0.374 OA
ENDROOT
BRANCH   1   2
ATOM      2  C   UNL A   1      31.808  28.915  26.395  1.00  0.00     0.202 C 
BRANCH   2   3
ATOM      3  C   UNL A   1      33.109  28.125  26.564  1.00  0.00     0.261 C 
BRANCH   3   4
ATOM      4  O   UNL A   1      32.818  26.719  26.615  1.00  0.00    -0.461 OA
BRANCH   4   5
ATOM      5  C   UNL A   1      32.392  26.132  25.460  1.00  0.00     0.338 C 
ATOM      6  O   UNL A   1      32.948  26.246  24.374  1.00  0.00    -0.249 OA
BRANCH   5   7
ATOM      7  C   UNL A   1      31.088  25.311  25.699  1.00  0.00     0.168 C 
BRANCH   7   8
ATOM      8  C   UNL A   1      30.476  25.193  24.276  1.00  0.00     0.044 C 
ATOM      9  C   UNL A   1      29.360  26.151  23.887  1.00  0.00     0.007 C 
ENDBRANCH   7   8
BRANCH   7  10
ATOM     10  C   UNL A   1      31.515  23.964  26.389  1.00  0.00     0.070 C 
ATOM     11  C   UNL A   1      30.326  23.088  26.823  1.00  0.00     0.017 C 
BRANCH  10  12
ATOM     12  C   UNL A   1      32.483  23.103  25.599  1.00  0.00     0.011 A 
ATOM     13  C   UNL A   1      32.187  22.369  24.466  1.00  0.00     0.016 A 
ATOM     14  S   UNL A   1      34.160  23.008  25.951  1.00  0.00    -0.145 S 
ATOM     15  C   UNL A   1      33.266  21.536  24.066  1.00  0.00     0.015 A 
ATOM     16  C   UNL A   1      34.354  21.672  24.902  1.00  0.00     0.002 A 
ATOM     17  C   UNL A   1      35.585  20.838  24.956  1.00  0.00     0.056 C 
ENDBRANCH  10  12
ENDBRANCH   7  10
BRANCH   7  18
ATOM     18  O   UNL A   1      30.194  26.041  26.554  1.00  0.00    -0.378 OA
ATOM     19  H   UNL A   1      29.559  25.428  26.957  1.00  0.00     0.212 HD
ENDBRANCH   7  18
ENDBRANCH   5   7
ENDBRANCH   4   5
ENDBRANCH   3   4
ENDBRANCH   2   3
ENDBRANCH   1   2
BRANCH   1  20
ATOM     20  C   UNL A   1      31.515  31.323  26.244  1.00  0.00     0.202 C 
BRANCH  20  21
ATOM     21  C   UNL A   1      31.559  32.692  26.929  1.00  0.00     0.261 C 
BRANCH  21  22
ATOM     22  O   UNL A   1      32.844  33.313  26.821  1.00  0.00    -0.460 OA
BRANCH  22  23
ATOM     23  C   UNL A   1      33.334  33.769  27.994  1.00  0.00     0.338 C 
ATOM     24  O   UNL A   1      32.803  34.549  28.774  1.00  0.00    -0.246 OA
BRANCH  23  25
ATOM     25  C   UNL A   1      34.582  33.060  28.313  1.00  0.00     0.060 A 
ATOM     26  C   UNL A   1      34.486  31.697  28.615  1.00  0.00     0.016 A 
ATOM     27  C   UNL A   1      35.810  33.724  28.370  1.00  0.00     0.016 A 
ATOM     28  C   UNL A   1      35.613  31.000  29.035  1.00  0.00     0.010 A 
ATOM     29  C   UNL A   1      36.940  33.025  28.799  1.00  0.00     0.010 A 
ATOM     30  C   UNL A   1      36.835  31.672  29.170  1.00  0.00    -0.014 A 
BRANCH  30  31
ATOM     31  C   UNL A   1      37.957  30.997  29.858  1.00  0.00     0.031 A 
ATOM     32  C   UNL A   1      38.197  31.293  31.312  1.00  0.00     0.074 A 
ATOM     33  C   UNL A   1      38.722  30.106  29.206  1.00  0.00     0.049 A 
ATOM     34  N   UNL A   1      39.123  30.833  32.111  1.00  0.00    -0.248 NA
ATOM     35  C   UNL A   1      37.265  32.238  31.949  1.00  0.00     0.031 C 
ATOM     36  C   UNL A   1      38.555  29.714  27.808  1.00  0.00     0.029 A 
ATOM     37  N   UNL A   1      39.796  29.372  29.639  1.00  0.00    -0.354 N 
ATOM     38  C   UNL A   1      38.892  31.436  33.341  1.00  0.00     0.074 A 
ATOM     39  C   UNL A   1      37.758  32.318  33.175  1.00  0.00     0.031 C 
ATOM     40  C   UNL A   1      39.501  28.810  27.495  1.00  0.00     0.029 A 
ATOM     41  C   UNL A   1      40.354  28.588  28.660  1.00  0.00     0.049 A 
ATOM     42  H   UNL A   1      40.135  29.405  30.563  1.00  0.00     0.167 HD
ATOM     43  C   UNL A   1      39.560  31.260  34.505  1.00  0.00     0.037 A 
ATOM     44  C   UNL A   1      41.442  27.797  28.701  1.00  0.00     0.037 A 
ATOM     45  C   UNL A   1      40.686  30.378  34.661  1.00  0.00     0.049 A 
ATOM     46  C   UNL A   1      42.211  27.672  29.990  1.00  0.00     0.074 A 
ATOM     47  C   UNL A   1      41.420  30.110  35.802  1.00  0.00     0.029 A 
ATOM     48  N   UNL A   1      41.246  29.626  33.638  1.00  0.00    -0.354 N 
ATOM     49  N   UNL A   1      41.969  28.223  31.155  1.00  0.00    -0.248 NA
ATOM     50  C   UNL A   1      43.403  26.811  29.969  1.00  0.00     0.031 C 
ATOM     51  C   UNL A   1      42.457  29.237  35.458  1.00  0.00     0.029 A 
ATOM     52  C   UNL A   1      42.335  28.917  34.115  1.00  0.00     0.049 A 
ATOM     53  H   UNL A   1      40.918  29.602  32.710  1.00  0.00     0.167 HD
ATOM     54  C   UNL A   1      42.957  27.755  32.012  1.00  0.00     0.074 A 
ATOM     55  C   UNL A   1      43.796  26.866  31.234  1.00  0.00     0.031 C 
ATOM     56  C   UNL A   1      43.154  28.032  33.325  1.00  0.00     0.037 A 
BRANCH  43  57
ATOM     57  C   UNL A   1      39.107  32.061  35.690  1.00  0.00     0.057 A 
ATOM     58  C   UNL A   1      38.265  31.525  36.673  1.00  0.00     0.134 A 
ATOM     59  C   UNL A   1      39.535  33.384  35.859  1.00  0.00     0.134 A 
ATOM     60  F   UNL A   1      37.805  30.268  36.562  1.00  0.00    -0.206 F 
ATOM     61  C   UNL A   1      37.847  32.281  37.769  1.00  0.00     0.040 A 
ATOM     62  C   UNL A   1      39.145  34.142  36.966  1.00  0.00     0.040 A 
ATOM     63  F   UNL A   1      40.344  33.960  34.957  1.00  0.00    -0.206 F 
ATOM     64  C   UNL A   1      38.293  33.592  37.921  1.00  0.00     0.006 A 
ENDBRANCH  43  57
BRANCH  44  65
ATOM     65  C   UNL A   1      41.875  27.066  27.484  1.00  0.00     0.057 A 
ATOM     66  C   UNL A   1      41.506  25.733  27.267  1.00  0.00     0.134 A 
ATOM     67  C   UNL A   1      42.680  27.678  26.515  1.00  0.00     0.134 A 
ATOM     68  F   UNL A   1      40.755  25.086  28.170  1.00  0.00    -0.206 F 
ATOM     69  C   UNL A   1      41.934  25.031  26.140  1.00  0.00     0.040 A 
ATOM     70  C   UNL A   1      43.094  26.996  25.371  1.00  0.00     0.040 A 
ATOM     71  F   UNL A   1      43.067  28.954  26.662  1.00  0.00    -0.206 F 
ATOM     72  C   UNL A   1      42.727  25.665  25.184  1.00  0.00     0.006 A 
ENDBRANCH  44  65
BRANCH  56  73
ATOM     73  C   UNL A   1      44.295  27.340  34.011  1.00  0.00     0.057 A 
ATOM     74  C   UNL A   1      45.564  27.923  34.109  1.00  0.00     0.134 A 
ATOM     75  C   UNL A   1      44.109  26.091  34.618  1.00  0.00     0.134 A 
ATOM     76  F   UNL A   1      45.813  29.112  33.539  1.00  0.00    -0.206 F 
ATOM     77  C   UNL A   1      46.614  27.279  34.766  1.00  0.00     0.040 A 
ATOM     78  C   UNL A   1      45.142  25.450  35.302  1.00  0.00     0.040 A 
ATOM     79  F   UNL A   1      42.914  25.482  34.570  1.00  0.00    -0.206 F 
ATOM     80  C   UNL A   1      46.401  26.041  35.372  1.00  0.00     0.006 A 
ENDBRANCH  56  73
ENDBRANCH  30  31
ENDBRANCH  23  25
ENDBRANCH  22  23
ENDBRANCH  21  22
ENDBRANCH  20  21
ENDBRANCH   1  20
TORSDOF 18
ENDMDL
MODEL 2
REMARK VINA RESULT:      -9.8      4.702      9.932
REMARK SMILES CC[C@](O)(C(=O)OCCOCCOC(=O)c1ccc(-c2c3nc(c(-c4c(F)cccc4F)c4ccc([nH]4)c(-c4c(F)cccc4F)c4nc(c(-c5c(F)cccc5F)c5ccc2[nH]5)C=C4)C=C3)cc1)[C@@H](C)c1ccc(C)s1
REMARK SMILES IDX 10 1 9 2 8 3 7 4 5 5 6 6 3 7 2 8 1 9 70 10 71 11 72 12 73 13
REMARK SMILES IDX 77 14 74 15 75 16 76 17 4 18 11 20 12 21 13 22 14 23 15 24
REMARK SMILES IDX 16 25 17 26 69 27 18 28 68 29 19 30 20 31 21 32 62 33 22 34
REMARK SMILES IDX 67 35 61 36 63 37 23 38 66 39 60 40 59 41 24 43 50 44 33 45
REMARK SMILES IDX 49 46 34 47 37 48 48 49 64 50 35 51 36 52 47 54 65 55 38 56
REMARK SMILES IDX 25 57 26 58 31 59 27 60 28 61 30 62 32 63 29 64 51 65 52 66
REMARK SMILES IDX 57 67 53 68 54 69 56 70 58 71 55 72 39 73 40 74 45 75 41 76
REMARK SMILES IDX 42 77 44 78 46 79 43 80
REMARK H PARENT 4 19 63 42 37 53
REMARK Flexibility Score: inf
ROOT
ATOM      1  O   UNL A   1      41.133  19.691  25.757  1.00  0.00    -0.374 OA
ENDROOT
BRANCH   1   2
ATOM      2  C   UNL A   1      42.425  19.172  26.087  1.00  0.00     0.202 C 
BRANCH   2   3
ATOM      3  C   UNL A   1      43.590  19.687  25.236  1.00  0.00     0.261 C 
BRANCH   3   4
ATOM      4  O   UNL A   1      44.073  20.927  25.777  1.00  0.00    -0.461 OA
BRANCH   4   5
ATOM      5  C   UNL A   1      44.046  22.015  24.955  1.00  0.00     0.338 C 
ATOM      6  O   UNL A   1      44.425  22.017  23.790  1.00  0.00    -0.249 OA
BRANCH   5   7
ATOM      7  C   UNL A   1      43.488  23.265  25.701  1.00  0.00     0.168 C 
BRANCH   7   8
ATOM      8  C   UNL A   1      43.511  22.829  27.192  1.00  0.00     0.044 C 
ATOM      9  C   UNL A   1      42.492  23.443  28.141  1.00  0.00     0.007 C 
ENDBRANCH   7   8
BRANCH   7  10
ATOM     10  C   UNL A   1      44.412  24.478  25.315  1.00  0.00     0.070 C 
ATOM     11  C   UNL A   1      43.639  25.784  25.054  1.00  0.00     0.017 C 
BRANCH  10  12
ATOM     12  C   UNL A   1      45.542  24.773  26.283  1.00  0.00     0.011 A 
ATOM     13  C   UNL A   1      46.818  24.244  26.235  1.00  0.00     0.016 A 
ATOM     14  S   UNL A   1      45.421  25.926  27.548  1.00  0.00    -0.145 S 
ATOM     15  C   UNL A   1      47.586  24.583  27.382  1.00  0.00     0.015 A 
ATOM     16  C   UNL A   1      46.872  25.370  28.261  1.00  0.00     0.002 A 
ATOM     17  C   UNL A   1      47.230  25.757  29.652  1.00  0.00     0.056 C 
ENDBRANCH  10  12
ENDBRANCH   7  10
BRANCH   7  18
ATOM     18  O   UNL A   1      42.137  23.524  25.291  1.00  0.00    -0.378 OA
ATOM     19  H   UNL A   1      42.079  23.482  24.323  1.00  0.00     0.212 HD
ENDBRANCH   7  18
ENDBRANCH   5   7
ENDBRANCH   4   5
ENDBRANCH   3   4
ENDBRANCH   2   3
ENDBRANCH   1   2
BRANCH   1  20
ATOM     20  C   UNL A   1      40.586  20.657  26.652  1.00  0.00     0.202 C 
BRANCH  20  21
ATOM     21  C   UNL A   1      39.333  21.405  26.190  1.00  0.00     0.261 C 
BRANCH  21  22
ATOM     22  O   UNL A   1      39.608  22.768  25.848  1.00  0.00    -0.460 OA
BRANCH  22  23
ATOM     23  C   UNL A   1      38.661  23.639  26.260  1.00  0.00     0.338 C 
ATOM     24  O   UNL A   1      37.447  23.540  26.131  1.00  0.00    -0.246 OA
BRANCH  23  25
ATOM     25  C   UNL A   1      39.286  24.703  27.059  1.00  0.00     0.060 A 
ATOM     26  C   UNL A   1      38.992  24.734  28.427  1.00  0.00     0.016 A 
ATOM     27  C   UNL A   1      40.098  25.678  26.475  1.00  0.00     0.016 A 
ATOM     28  C   UNL A   1      39.462  25.781  29.211  1.00  0.00     0.010 A 
ATOM     29  C   UNL A   1      40.563  26.734  27.263  1.00  0.00     0.010 A 
ATOM     30  C   UNL A   1      40.212  26.808  28.623  1.00  0.00    -0.014 A 
BRANCH  30  31
ATOM     31  C   UNL A   1      40.485  28.037  29.399  1.00  0.00     0.031 A 
ATOM     32  C   UNL A   1      41.810  28.172  30.096  1.00  0.00     0.074 A 
ATOM     33  C   UNL A   1      39.582  29.030  29.448  1.00  0.00     0.049 A 
ATOM     34  N   UNL A   1      42.261  29.148  30.840  1.00  0.00    -0.248 NA
ATOM     35  C   UNL A   1      42.753  27.055  29.930  1.00  0.00     0.031 C 
ATOM     36  C   UNL A   1      38.282  29.022  28.779  1.00  0.00     0.029 A 
ATOM     37  N   UNL A   1      39.624  30.238  30.094  1.00  0.00    -0.354 N 
ATOM     38  C   UNL A   1      43.534  28.760  31.238  1.00  0.00     0.074 A 
ATOM     39  C   UNL A   1      43.772  27.447  30.679  1.00  0.00     0.031 C 
ATOM     40  C   UNL A   1      37.645  30.174  29.054  1.00  0.00     0.029 A 
ATOM     41  C   UNL A   1      38.479  30.981  29.942  1.00  0.00     0.049 A 
ATOM     42  H   UNL A   1      40.400  30.544  30.617  1.00  0.00     0.167 HD
ATOM     43  C   UNL A   1      44.426  29.443  31.992  1.00  0.00     0.037 A 
ATOM     44  C   UNL A   1      38.142  32.169  30.478  1.00  0.00     0.037 A 
ATOM     45  C   UNL A   1      44.181  30.749  32.543  1.00  0.00     0.049 A 
ATOM     46  C   UNL A   1      39.125  32.878  31.371  1.00  0.00     0.074 A 
ATOM     47  C   UNL A   1      45.026  31.538  33.302  1.00  0.00     0.029 A 
ATOM     48  N   UNL A   1      42.996  31.456  32.398  1.00  0.00    -0.354 N 
ATOM     49  N   UNL A   1      40.337  32.517  31.719  1.00  0.00    -0.248 NA
ATOM     50  C   UNL A   1      38.693  34.160  31.945  1.00  0.00     0.031 C 
ATOM     51  C   UNL A   1      44.334  32.698  33.662  1.00  0.00     0.029 A 
ATOM     52  C   UNL A   1      43.077  32.658  33.079  1.00  0.00     0.049 A 
ATOM     53  H   UNL A   1      42.213  31.147  31.887  1.00  0.00     0.167 HD
ATOM     54  C   UNL A   1      40.824  33.539  32.525  1.00  0.00     0.074 A 
ATOM     55  C   UNL A   1      39.778  34.538  32.606  1.00  0.00     0.031 C 
ATOM     56  C   UNL A   1      42.026  33.644  33.142  1.00  0.00     0.037 A 
BRANCH  43  57
ATOM     57  C   UNL A   1      45.736  28.773  32.290  1.00  0.00     0.057 A 
ATOM     58  C   UNL A   1      46.889  29.025  31.535  1.00  0.00     0.134 A 
ATOM     59  C   UNL A   1      45.849  27.877  33.361  1.00  0.00     0.134 A 
ATOM     60  F   UNL A   1      46.845  29.860  30.485  1.00  0.00    -0.206 F 
ATOM     61  C   UNL A   1      48.101  28.392  31.819  1.00  0.00     0.040 A 
ATOM     62  C   UNL A   1      47.062  27.259  33.671  1.00  0.00     0.040 A 
ATOM     63  F   UNL A   1      44.785  27.592  34.127  1.00  0.00    -0.206 F 
ATOM     64  C   UNL A   1      48.191  27.512  32.895  1.00  0.00     0.006 A 
ENDBRANCH  43  57
BRANCH  44  65
ATOM     65  C   UNL A   1      36.812  32.762  30.190  1.00  0.00     0.057 A 
ATOM     66  C   UNL A   1      36.602  33.561  29.060  1.00  0.00     0.134 A 
ATOM     67  C   UNL A   1      35.723  32.556  31.045  1.00  0.00     0.134 A 
ATOM     68  F   UNL A   1      37.613  33.813  28.215  1.00  0.00    -0.206 F 
ATOM     69  C   UNL A   1      35.362  34.145  28.799  1.00  0.00     0.040 A 
ATOM     70  C   UNL A   1      34.471  33.114  30.783  1.00  0.00     0.040 A 
ATOM     71  F   UNL A   1      35.857  31.800  32.145  1.00  0.00    -0.206 F 
ATOM     72  C   UNL A   1      34.290  33.918  29.659  1.00  0.00     0.006 A 
ENDBRANCH  44  65
BRANCH  56  73
ATOM     73  C   UNL A   1      42.291  34.895  33.927  1.00  0.00     0.057 A 
ATOM     74  C   UNL A   1      42.043  34.975  35.302  1.00  0.00     0.134 A 
ATOM     75  C   UNL A   1      42.841  36.023  33.302  1.00  0.00     0.134 A 
ATOM     76  F   UNL A   1      41.504  33.935  35.958  1.00  0.00    -0.206 F 
ATOM     77  C   UNL A   1      42.310  36.139  36.025  1.00  0.00     0.040 A 
ATOM     78  C   UNL A   1      43.139  37.182  34.019  1.00  0.00     0.040 A 
ATOM     79  F   UNL A   1      43.113  36.009  31.988  1.00  0.00    -0.206 F 
ATOM     80  C   UNL A   1      42.868  37.245  35.384  1.00  0.00     0.006 A 
ENDBRANCH  56  73
ENDBRANCH  30  31
ENDBRANCH  23  25
ENDBRANCH  22  23
ENDBRANCH  21  22
ENDBRANCH  20  21
ENDBRANCH   1  20
TORSDOF 18
ENDMDL
MODEL 3
REMARK VINA RESULT:      -9.8      4.228      7.399
REMARK SMILES CC[C@](O)(C(=O)OCCOCCOC(=O)c1ccc(-c2c3nc(c(-c4c(F)cccc4F)c4ccc([nH]4)c(-c4c(F)cccc4F)c4nc(c(-c5c(F)cccc5F)c5ccc2[nH]5)C=C4)C=C3)cc1)[C@@H](C)c1ccc(C)s1
REMARK SMILES IDX 10 1 9 2 8 3 7 4 5 5 6 6 3 7 2 8 1 9 70 10 71 11 72 12 73 13
REMARK SMILES IDX 77 14 74 15 75 16 76 17 4 18 11 20 12 21 13 22 14 23 15 24
REMARK SMILES IDX 16 25 17 26 69 27 18 28 68 29 19 30 20 31 21 32 62 33 22 34
REMARK SMILES IDX 67 35 61 36 63 37 23 38 66 39 60 40 59 41 24 43 50 44 33 45
REMARK SMILES IDX 49 46 34 47 37 48 48 49 64 50 35 51 36 52 47 54 65 55 38 56
REMARK SMILES IDX 25 57 26 58 31 59 27 60 28 61 30 62 32 63 29 64 51 65 52 66
REMARK SMILES IDX 57 67 53 68 54 69 56 70 58 71 55 72 39 73 40 74 45 75 41 76
REMARK SMILES IDX 42 77 44 78 46 79 43 80
REMARK H PARENT 4 19 63 42 37 53
REMARK Flexibility Score: inf
ROOT
ATOM      1  O   UNL A   1      34.598  19.305  24.644  1.00  0.00    -0.374 OA
ENDROOT
BRANCH   1   2
ATOM      2  C   UNL A   1      33.275  19.323  25.191  1.00  0.00     0.202 C 
BRANCH   2   3
ATOM      3  C   UNL A   1      32.269  20.232  24.478  1.00  0.00     0.261 C 
BRANCH   3   4
ATOM      4  O   UNL A   1      31.832  21.266  25.375  1.00  0.00    -0.461 OA
BRANCH   4   5
ATOM      5  C   UNL A   1      31.799  22.538  24.887  1.00  0.00     0.338 C 
ATOM      6  O   UNL A   1      31.780  22.827  23.696  1.00  0.00    -0.249 OA
BRANCH   5   7
ATOM      7  C   UNL A   1      31.810  23.582  26.045  1.00  0.00     0.168 C 
BRANCH   7   8
ATOM      8  C   UNL A   1      33.301  23.618  26.477  1.00  0.00     0.044 C 
ATOM      9  C   UNL A   1      33.757  22.679  27.584  1.00  0.00     0.007 C 
ENDBRANCH   7   8
BRANCH   7  10
ATOM     10  C   UNL A   1      31.219  24.919  25.462  1.00  0.00     0.070 C 
ATOM     11  C   UNL A   1      29.900  25.352  26.127  1.00  0.00     0.017 C 
BRANCH  10  12
ATOM     12  C   UNL A   1      32.167  26.103  25.455  1.00  0.00     0.011 A 
ATOM     13  C   UNL A   1      33.078  26.414  24.463  1.00  0.00     0.016 A 
ATOM     14  S   UNL A   1      32.159  27.320  26.664  1.00  0.00    -0.145 S 
ATOM     15  C   UNL A   1      33.935  27.486  24.836  1.00  0.00     0.015 A 
ATOM     16  C   UNL A   1      33.639  27.963  26.095  1.00  0.00     0.002 A 
ATOM     17  C   UNL A   1      34.420  28.918  26.926  1.00  0.00     0.056 C 
ENDBRANCH  10  12
ENDBRANCH   7  10
BRANCH   7  18
ATOM     18  O   UNL A   1      30.999  23.118  27.136  1.00  0.00    -0.378 OA
ATOM     19  H   UNL A   1      31.320  23.507  27.965  1.00  0.00     0.212 HD
ENDBRANCH   7  18
ENDBRANCH   5   7
ENDBRANCH   4   5
ENDBRANCH   3   4
ENDBRANCH   2   3
ENDBRANCH   1   2
BRANCH   1  20
ATOM     20  C   UNL A   1      35.456  20.382  25.015  1.00  0.00     0.202 C 
BRANCH  20  21
ATOM     21  C   UNL A   1      36.962  20.110  24.998  1.00  0.00     0.261 C 
BRANCH  21  22
ATOM     22  O   UNL A   1      37.728  21.273  25.329  1.00  0.00    -0.460 OA
BRANCH  22  23
ATOM     23  C   UNL A   1      38.924  21.001  25.895  1.00  0.00     0.338 C 
ATOM     24  O   UNL A   1      39.561  19.957  25.832  1.00  0.00    -0.246 OA
BRANCH  23  25
ATOM     25  C   UNL A   1      39.470  22.224  26.501  1.00  0.00     0.060 A 
ATOM     26  C   UNL A   1      38.905  23.442  26.107  1.00  0.00     0.016 A 
ATOM     27  C   UNL A   1      40.544  22.184  27.394  1.00  0.00     0.016 A 
ATOM     28  C   UNL A   1      39.454  24.637  26.559  1.00  0.00     0.010 A 
ATOM     29  C   UNL A   1      41.099  23.386  27.840  1.00  0.00     0.010 A 
ATOM     30  C   UNL A   1      40.580  24.614  27.392  1.00  0.00    -0.014 A 
BRANCH  30  31
ATOM     31  C   UNL A   1      41.308  25.873  27.656  1.00  0.00     0.031 A 
ATOM     32  C   UNL A   1      40.612  26.964  28.422  1.00  0.00     0.074 A 
ATOM     33  C   UNL A   1      42.580  26.026  27.252  1.00  0.00     0.049 A 
ATOM     34  N   UNL A   1      41.046  28.151  28.756  1.00  0.00    -0.248 NA
ATOM     35  C   UNL A   1      39.241  26.674  28.871  1.00  0.00     0.031 C 
ATOM     36  C   UNL A   1      43.365  25.021  26.537  1.00  0.00     0.029 A 
ATOM     37  N   UNL A   1      43.434  27.089  27.388  1.00  0.00    -0.354 N 
ATOM     38  C   UNL A   1      40.001  28.752  29.446  1.00  0.00     0.074 A 
ATOM     39  C   UNL A   1      38.902  27.812  29.456  1.00  0.00     0.031 C 
ATOM     40  C   UNL A   1      44.589  25.520  26.291  1.00  0.00     0.029 A 
ATOM     41  C   UNL A   1      44.659  26.887  26.803  1.00  0.00     0.049 A 
ATOM     42  H   UNL A   1      43.191  27.920  27.859  1.00  0.00     0.167 HD
ATOM     43  C   UNL A   1      39.968  29.974  30.026  1.00  0.00     0.037 A 
ATOM     44  C   UNL A   1      45.708  27.722  26.682  1.00  0.00     0.037 A 
ATOM     45  C   UNL A   1      41.067  30.902  30.013  1.00  0.00     0.049 A 
ATOM     46  C   UNL A   1      45.621  29.102  27.276  1.00  0.00     0.074 A 
ATOM     47  C   UNL A   1      41.145  32.157  30.590  1.00  0.00     0.029 A 
ATOM     48  N   UNL A   1      42.281  30.676  29.380  1.00  0.00    -0.354 N 
ATOM     49  N   UNL A   1      44.641  29.653  27.952  1.00  0.00    -0.248 NA
ATOM     50  C   UNL A   1      46.789  29.977  27.093  1.00  0.00     0.031 C 
ATOM     51  C   UNL A   1      42.385  32.712  30.261  1.00  0.00     0.029 A 
ATOM     52  C   UNL A   1      43.103  31.780  29.527  1.00  0.00     0.049 A 
ATOM     53  H   UNL A   1      42.522  29.853  28.896  1.00  0.00     0.167 HD
ATOM     54  C   UNL A   1      45.082  30.923  28.299  1.00  0.00     0.074 A 
ATOM     55  C   UNL A   1      46.424  31.057  27.769  1.00  0.00     0.031 C 
ATOM     56  C   UNL A   1      44.439  31.892  28.996  1.00  0.00     0.037 A 
BRANCH  43  57
ATOM     57  C   UNL A   1      38.690  30.386  30.697  1.00  0.00     0.057 A 
ATOM     58  C   UNL A   1      38.446  30.132  32.053  1.00  0.00     0.134 A 
ATOM     59  C   UNL A   1      37.697  31.065  29.979  1.00  0.00     0.134 A 
ATOM     60  F   UNL A   1      39.349  29.471  32.794  1.00  0.00    -0.206 F 
ATOM     61  C   UNL A   1      37.251  30.516  32.665  1.00  0.00     0.040 A 
ATOM     62  C   UNL A   1      36.510  31.478  30.587  1.00  0.00     0.040 A 
ATOM     63  F   UNL A   1      37.866  31.343  28.678  1.00  0.00    -0.206 F 
ATOM     64  C   UNL A   1      36.282  31.198  31.933  1.00  0.00     0.006 A 
ENDBRANCH  43  57
BRANCH  44  65
ATOM     65  C   UNL A   1      46.929  27.279  25.964  1.00  0.00     0.057 A 
ATOM     66  C   UNL A   1      47.990  26.666  26.642  1.00  0.00     0.134 A 
ATOM     67  C   UNL A   1      47.072  27.471  24.584  1.00  0.00     0.134 A 
ATOM     68  F   UNL A   1      47.921  26.476  27.968  1.00  0.00    -0.206 F 
ATOM     69  C   UNL A   1      49.153  26.275  25.978  1.00  0.00     0.040 A 
ATOM     70  C   UNL A   1      48.219  27.061  23.903  1.00  0.00     0.040 A 
ATOM     71  F   UNL A   1      46.093  28.051  23.875  1.00  0.00    -0.206 F 
ATOM     72  C   UNL A   1      49.268  26.467  24.602  1.00  0.00     0.006 A 
ENDBRANCH  44  65
BRANCH  56  73
ATOM     73  C   UNL A   1      45.188  33.166  29.257  1.00  0.00     0.057 A 
ATOM     74  C   UNL A   1      45.071  34.280  28.418  1.00  0.00     0.134 A 
ATOM     75  C   UNL A   1      46.006  33.291  30.388  1.00  0.00     0.134 A 
ATOM     76  F   UNL A   1      44.314  34.223  27.312  1.00  0.00    -0.206 F 
ATOM     77  C   UNL A   1      45.759  35.467  28.680  1.00  0.00     0.040 A 
ATOM     78  C   UNL A   1      46.676  34.480  30.676  1.00  0.00     0.040 A 
ATOM     79  F   UNL A   1      46.154  32.264  31.239  1.00  0.00    -0.206 F 
ATOM     80  C   UNL A   1      46.559  35.570  29.818  1.00  0.00     0.006 A 
ENDBRANCH  56  73
ENDBRANCH  30  31
ENDBRANCH  23  25
ENDBRANCH  22  23
ENDBRANCH  21  22
ENDBRANCH  20  21
ENDBRANCH   1  20
TORSDOF 18
ENDMDL
