MODEL 1
REMARK VINA RESULT:     -11.2      0.000      0.000
REMARK SMILES C[C@H]1[C@@H]([NH2+]C[C@H]2CC[C@@H](C(=O)OCCOCCOC(=O)c3ccc(-c4c5nc(c(-c6c(F)cccc6F)c6ccc([nH]6)c(-c6c(F)cccc6F)c6nc(c(-c7c(F)cccc7F)c7ccc4[nH]7)C=C6)C=C5)cc3)CC2)CCC[C@@H]1C
REMARK SMILES IDX 14 1 13 2 12 3 10 4 11 5 9 6 6 7 7 8 76 9 8 10 75 11 5 12
REMARK SMILES IDX 4 13 3 16 1 17 2 18 80 19 77 20 79 21 81 22 78 23 15 24
REMARK SMILES IDX 16 25 17 26 18 27 19 28 20 29 21 30 22 31 74 32 23 33 73 34
REMARK SMILES IDX 24 35 25 36 26 37 67 38 27 39 72 40 66 41 68 42 28 43 71 44
REMARK SMILES IDX 65 45 64 46 29 48 55 49 38 50 54 51 39 52 42 53 53 54 69 55
REMARK SMILES IDX 40 56 41 57 52 59 70 60 43 61 30 62 31 63 36 64 32 65 33 66
REMARK SMILES IDX 35 67 37 68 34 69 56 70 57 71 62 72 58 73 59 74 61 75 63 76
REMARK SMILES IDX 60 77 44 78 45 79 50 80 46 81 47 82 49 83 51 84 48 85
REMARK H PARENT 4 14 4 15 68 47 42 58
REMARK Flexibility Score: inf
ROOT
ATOM      1  C   UNL A   1      41.276  20.413  26.656  1.00  0.00     0.202 C 
ENDROOT
BRANCH   1   2
ATOM      2  C   UNL A   1      40.176  21.458  26.865  1.00  0.00     0.261 C 
BRANCH   2   3
ATOM      3  O   UNL A   1      39.087  21.279  25.941  1.00  0.00    -0.463 OA
BRANCH   3   4
ATOM      4  C   UNL A   1      38.276  22.356  25.750  1.00  0.00     0.309 C 
ATOM      5  O   UNL A   1      38.420  23.448  26.285  1.00  0.00    -0.252 OA
BRANCH   4   6
ATOM      6  C   UNL A   1      37.103  22.038  24.830  1.00  0.00     0.099 C 
ATOM      7  C   UNL A   1      34.186  22.434  24.254  1.00  0.00     0.044 C 
ATOM      8  C   UNL A   1      35.282  23.196  23.487  1.00  0.00     0.010 C 
ATOM      9  C   UNL A   1      34.747  21.053  24.630  1.00  0.00     0.010 C 
ATOM     10  C   UNL A   1      36.559  23.363  24.303  1.00  0.00     0.016 C 
ATOM     11  C   UNL A   1      36.024  21.144  25.468  1.00  0.00     0.016 C 
BRANCH   7  12
ATOM     12  C   UNL A   1      33.657  23.167  25.514  1.00  0.00     0.264 C 
BRANCH  12  13
ATOM     13  N   UNL A   1      32.491  23.999  25.231  1.00  0.00    -0.343 N 
ATOM     14  H   UNL A   1      32.434  24.132  24.220  1.00  0.00     0.346 HD
ATOM     15  H   UNL A   1      31.685  23.507  25.616  1.00  0.00     0.346 HD
BRANCH  13  16
ATOM     16  C   UNL A   1      32.512  25.330  25.870  1.00  0.00     0.185 C 
ATOM     17  C   UNL A   1      29.963  25.350  26.085  1.00  0.00     0.014 C 
ATOM     18  C   UNL A   1      31.193  26.100  25.541  1.00  0.00     0.047 C 
ATOM     19  C   UNL A   1      31.093  26.456  24.027  1.00  0.00    -0.006 C 
ATOM     20  C   UNL A   1      33.699  26.208  25.424  1.00  0.00     0.065 C 
ATOM     21  C   UNL A   1      32.356  27.197  23.540  1.00  0.00     0.004 C 
ATOM     22  C   UNL A   1      29.881  27.333  23.687  1.00  0.00     0.008 C 
ATOM     23  C   UNL A   1      33.655  26.511  23.931  1.00  0.00     0.006 C 
ENDBRANCH  13  16
ENDBRANCH  12  13
ENDBRANCH   7  12
ENDBRANCH   4   6
ENDBRANCH   3   4
ENDBRANCH   2   3
ENDBRANCH   1   2
BRANCH   1  24
ATOM     24  O   UNL A   1      42.081  20.562  25.486  1.00  0.00    -0.374 OA
BRANCH  24  25
ATOM     25  C   UNL A   1      43.494  20.542  25.667  1.00  0.00     0.202 C 
BRANCH  25  26
ATOM     26  C   UNL A   1      44.251  21.823  25.299  1.00  0.00     0.261 C 
BRANCH  26  27
ATOM     27  O   UNL A   1      43.361  22.928  25.056  1.00  0.00    -0.460 OA
BRANCH  27  28
ATOM     28  C   UNL A   1      43.945  24.145  25.143  1.00  0.00     0.338 C 
ATOM     29  O   UNL A   1      44.927  24.542  24.526  1.00  0.00    -0.246 OA
BRANCH  28  30
ATOM     30  C   UNL A   1      43.144  25.047  25.989  1.00  0.00     0.060 A 
ATOM     31  C   UNL A   1      43.600  26.364  26.129  1.00  0.00     0.016 A 
ATOM     32  C   UNL A   1      42.035  24.599  26.712  1.00  0.00     0.016 A 
ATOM     33  C   UNL A   1      42.991  27.221  27.042  1.00  0.00     0.010 A 
ATOM     34  C   UNL A   1      41.429  25.460  27.636  1.00  0.00     0.010 A 
ATOM     35  C   UNL A   1      41.932  26.760  27.835  1.00  0.00    -0.014 A 
BRANCH  35  36
ATOM     36  C   UNL A   1      41.474  27.583  28.981  1.00  0.00     0.031 A 
ATOM     37  C   UNL A   1      42.219  27.488  30.286  1.00  0.00     0.074 A 
ATOM     38  C   UNL A   1      40.450  28.444  28.850  1.00  0.00     0.049 A 
ATOM     39  N   UNL A   1      41.982  28.091  31.423  1.00  0.00    -0.248 NA
ATOM     40  C   UNL A   1      43.392  26.598  30.310  1.00  0.00     0.031 C 
ATOM     41  C   UNL A   1      39.681  28.664  27.626  1.00  0.00     0.029 A 
ATOM     42  N   UNL A   1      39.879  29.293  29.765  1.00  0.00    -0.354 N 
ATOM     43  C   UNL A   1      42.976  27.660  32.294  1.00  0.00     0.074 A 
ATOM     44  C   UNL A   1      43.798  26.717  31.567  1.00  0.00     0.031 C 
ATOM     45  C   UNL A   1      38.727  29.579  27.872  1.00  0.00     0.029 A 
ATOM     46  C   UNL A   1      38.801  29.986  29.273  1.00  0.00     0.049 A 
ATOM     47  H   UNL A   1      40.211  29.395  30.686  1.00  0.00     0.167 HD
ATOM     48  C   UNL A   1      43.194  28.026  33.579  1.00  0.00     0.037 A 
ATOM     49  C   UNL A   1      37.958  30.834  29.893  1.00  0.00     0.037 A 
ATOM     50  C   UNL A   1      42.376  28.959  34.307  1.00  0.00     0.049 A 
ATOM     51  C   UNL A   1      38.174  31.164  31.347  1.00  0.00     0.074 A 
ATOM     52  C   UNL A   1      42.504  29.378  35.620  1.00  0.00     0.029 A 
ATOM     53  N   UNL A   1      41.278  29.621  33.780  1.00  0.00    -0.354 N 
ATOM     54  N   UNL A   1      39.116  30.750  32.159  1.00  0.00    -0.248 NA
ATOM     55  C   UNL A   1      37.209  32.083  31.971  1.00  0.00     0.031 C 
ATOM     56  C   UNL A   1      41.462  30.269  35.898  1.00  0.00     0.029 A 
ATOM     57  C   UNL A   1      40.712  30.436  34.745  1.00  0.00     0.049 A 
ATOM     58  H   UNL A   1      40.949  29.525  32.857  1.00  0.00     0.167 HD
ATOM     59  C   UNL A   1      38.877  31.380  33.374  1.00  0.00     0.074 A 
ATOM     60  C   UNL A   1      37.708  32.214  33.192  1.00  0.00     0.031 C 
ATOM     61  C   UNL A   1      39.561  31.277  34.539  1.00  0.00     0.037 A 
BRANCH  48  62
ATOM     62  C   UNL A   1      44.363  27.409  34.286  1.00  0.00     0.057 A 
ATOM     63  C   UNL A   1      45.608  28.050  34.343  1.00  0.00     0.134 A 
ATOM     64  C   UNL A   1      44.231  26.190  34.961  1.00  0.00     0.134 A 
ATOM     65  F   UNL A   1      45.802  29.214  33.704  1.00  0.00    -0.206 F 
ATOM     66  C   UNL A   1      46.684  27.493  35.036  1.00  0.00     0.040 A 
ATOM     67  C   UNL A   1      45.293  25.634  35.677  1.00  0.00     0.040 A 
ATOM     68  F   UNL A   1      43.065  25.528  34.950  1.00  0.00    -0.206 F 
ATOM     69  C   UNL A   1      46.525  26.284  35.712  1.00  0.00     0.006 A 
ENDBRANCH  48  62
BRANCH  49  70
ATOM     70  C   UNL A   1      36.805  31.416  29.158  1.00  0.00     0.057 A 
ATOM     71  C   UNL A   1      35.693  30.640  28.812  1.00  0.00     0.134 A 
ATOM     72  C   UNL A   1      36.814  32.752  28.738  1.00  0.00     0.134 A 
ATOM     73  F   UNL A   1      35.636  29.347  29.163  1.00  0.00    -0.206 F 
ATOM     74  C   UNL A   1      34.645  31.163  28.052  1.00  0.00     0.040 A 
ATOM     75  C   UNL A   1      35.761  33.295  28.001  1.00  0.00     0.040 A 
ATOM     76  F   UNL A   1      37.851  33.549  29.038  1.00  0.00    -0.206 F 
ATOM     77  C   UNL A   1      34.677  32.496  27.646  1.00  0.00     0.006 A 
ENDBRANCH  49  70
BRANCH  61  78
ATOM     78  C   UNL A   1      39.096  32.118  35.692  1.00  0.00     0.057 A 
ATOM     79  C   UNL A   1      38.244  31.612  36.680  1.00  0.00     0.134 A 
ATOM     80  C   UNL A   1      39.540  33.439  35.833  1.00  0.00     0.134 A 
ATOM     81  F   UNL A   1      37.774  30.357  36.597  1.00  0.00    -0.206 F 
ATOM     82  C   UNL A   1      37.834  32.396  37.759  1.00  0.00     0.040 A 
ATOM     83  C   UNL A   1      39.156  34.225  36.919  1.00  0.00     0.040 A 
ATOM     84  F   UNL A   1      40.366  33.981  34.925  1.00  0.00    -0.206 F 
ATOM     85  C   UNL A   1      38.295  33.706  37.884  1.00  0.00     0.006 A 
ENDBRANCH  61  78
ENDBRANCH  35  36
ENDBRANCH  28  30
ENDBRANCH  27  28
ENDBRANCH  26  27
ENDBRANCH  25  26
ENDBRANCH  24  25
ENDBRANCH   1  24
TORSDOF 17
ENDMDL
MODEL 2
REMARK VINA RESULT:     -11.1      1.662      2.580
REMARK SMILES C[C@H]1[C@@H]([NH2+]C[C@H]2CC[C@@H](C(=O)OCCOCCOC(=O)c3ccc(-c4c5nc(c(-c6c(F)cccc6F)c6ccc([nH]6)c(-c6c(F)cccc6F)c6nc(c(-c7c(F)cccc7F)c7ccc4[nH]7)C=C6)C=C5)cc3)CC2)CCC[C@@H]1C
REMARK SMILES IDX 14 1 13 2 12 3 10 4 11 5 9 6 6 7 7 8 76 9 8 10 75 11 5 12
REMARK SMILES IDX 4 13 3 16 1 17 2 18 80 19 77 20 79 21 81 22 78 23 15 24
REMARK SMILES IDX 16 25 17 26 18 27 19 28 20 29 21 30 22 31 74 32 23 33 73 34
REMARK SMILES IDX 24 35 25 36 26 37 67 38 27 39 72 40 66 41 68 42 28 43 71 44
REMARK SMILES IDX 65 45 64 46 29 48 55 49 38 50 54 51 39 52 42 53 53 54 69 55
REMARK SMILES IDX 40 56 41 57 52 59 70 60 43 61 30 62 31 63 36 64 32 65 33 66
REMARK SMILES IDX 35 67 37 68 34 69 56 70 57 71 62 72 58 73 59 74 61 75 63 76
REMARK SMILES IDX 60 77 44 78 45 79 50 80 46 81 47 82 49 83 51 84 48 85
REMARK H PARENT 4 14 4 15 68 47 42 58
REMARK Flexibility Score: inf
ROOT
ATOM      1  C   UNL A   1      42.364  21.041  26.960  1.00  0.00     0.202 C 
ENDROOT
BRANCH   1   2
ATOM      2  C   UNL A   1      41.008  21.394  27.578  1.00  0.00     0.261 C 
BRANCH   2   3
ATOM      3  O   UNL A   1      40.019  21.672  26.569  1.00  0.00    -0.463 OA
BRANCH   3   4
ATOM      4  C   UNL A   1      39.312  22.827  26.720  1.00  0.00     0.309 C 
ATOM      5  O   UNL A   1      39.466  23.631  27.630  1.00  0.00    -0.252 OA
BRANCH   4   6
ATOM      6  C   UNL A   1      38.239  22.989  25.650  1.00  0.00     0.099 C 
ATOM      7  C   UNL A   1      35.378  22.531  24.874  1.00  0.00     0.044 C 
ATOM      8  C   UNL A   1      35.890  23.907  25.339  1.00  0.00     0.010 C 
ATOM      9  C   UNL A   1      36.529  21.824  24.141  1.00  0.00     0.010 C 
ATOM     10  C   UNL A   1      37.100  23.801  26.260  1.00  0.00     0.016 C 
ATOM     11  C   UNL A   1      37.775  21.667  25.014  1.00  0.00     0.016 C 
BRANCH   7  12
ATOM     12  C   UNL A   1      34.826  21.635  26.013  1.00  0.00     0.264 C 
BRANCH  12  13
ATOM     13  N   UNL A   1      34.376  20.331  25.532  1.00  0.00    -0.343 N 
ATOM     14  H   UNL A   1      34.693  20.222  24.568  1.00  0.00     0.346 HD
ATOM     15  H   UNL A   1      34.774  19.638  26.166  1.00  0.00     0.346 HD
BRANCH  13  16
ATOM     16  C   UNL A   1      32.914  20.132  25.563  1.00  0.00     0.185 C 
ATOM     17  C   UNL A   1      33.178  17.595  25.369  1.00  0.00     0.014 C 
ATOM     18  C   UNL A   1      32.532  18.851  24.754  1.00  0.00     0.047 C 
ATOM     19  C   UNL A   1      32.817  19.022  23.231  1.00  0.00    -0.006 C 
ATOM     20  C   UNL A   1      32.120  21.318  24.977  1.00  0.00     0.065 C 
ATOM     21  C   UNL A   1      32.153  20.300  22.676  1.00  0.00     0.004 C 
ATOM     22  C   UNL A   1      32.329  17.841  22.384  1.00  0.00     0.008 C 
ATOM     23  C   UNL A   1      32.437  21.544  23.503  1.00  0.00     0.006 C 
ENDBRANCH  13  16
ENDBRANCH  12  13
ENDBRANCH   7  12
ENDBRANCH   4   6
ENDBRANCH   3   4
ENDBRANCH   2   3
ENDBRANCH   1   2
BRANCH   1  24
ATOM     24  O   UNL A   1      42.564  21.427  25.600  1.00  0.00    -0.374 OA
BRANCH  24  25
ATOM     25  C   UNL A   1      43.839  21.144  25.030  1.00  0.00     0.202 C 
BRANCH  25  26
ATOM     26  C   UNL A   1      44.604  22.334  24.438  1.00  0.00     0.261 C 
BRANCH  26  27
ATOM     27  O   UNL A   1      43.828  23.546  24.467  1.00  0.00    -0.460 OA
BRANCH  27  28
ATOM     28  C   UNL A   1      44.473  24.608  25.001  1.00  0.00     0.338 C 
ATOM     29  O   UNL A   1      45.593  25.016  24.717  1.00  0.00    -0.246 OA
BRANCH  28  30
ATOM     30  C   UNL A   1      43.580  25.359  25.902  1.00  0.00     0.060 A 
ATOM     31  C   UNL A   1      43.674  26.757  25.874  1.00  0.00     0.016 A 
ATOM     32  C   UNL A   1      42.747  24.722  26.825  1.00  0.00     0.016 A 
ATOM     33  C   UNL A   1      42.986  27.522  26.811  1.00  0.00     0.010 A 
ATOM     34  C   UNL A   1      42.062  25.493  27.772  1.00  0.00     0.010 A 
ATOM     35  C   UNL A   1      42.212  26.892  27.796  1.00  0.00    -0.014 A 
BRANCH  35  36
ATOM     36  C   UNL A   1      41.710  27.690  28.941  1.00  0.00     0.031 A 
ATOM     37  C   UNL A   1      42.429  27.598  30.261  1.00  0.00     0.074 A 
ATOM     38  C   UNL A   1      40.668  28.527  28.798  1.00  0.00     0.049 A 
ATOM     39  N   UNL A   1      42.152  28.182  31.399  1.00  0.00    -0.248 NA
ATOM     40  C   UNL A   1      43.622  26.737  30.301  1.00  0.00     0.031 C 
ATOM     41  C   UNL A   1      39.920  28.742  27.559  1.00  0.00     0.029 A 
ATOM     42  N   UNL A   1      40.056  29.350  29.709  1.00  0.00    -0.354 N 
ATOM     43  C   UNL A   1      43.137  27.765  32.287  1.00  0.00     0.074 A 
ATOM     44  C   UNL A   1      43.998  26.851  31.567  1.00  0.00     0.031 C 
ATOM     45  C   UNL A   1      38.938  29.631  27.794  1.00  0.00     0.029 A 
ATOM     46  C   UNL A   1      38.971  30.023  29.201  1.00  0.00     0.049 A 
ATOM     47  H   UNL A   1      40.365  29.450  30.638  1.00  0.00     0.167 HD
ATOM     48  C   UNL A   1      43.318  28.121  33.580  1.00  0.00     0.037 A 
ATOM     49  C   UNL A   1      38.094  30.843  29.812  1.00  0.00     0.037 A 
ATOM     50  C   UNL A   1      42.462  29.025  34.300  1.00  0.00     0.049 A 
ATOM     51  C   UNL A   1      38.270  31.161  31.275  1.00  0.00     0.074 A 
ATOM     52  C   UNL A   1      42.551  29.431  35.621  1.00  0.00     0.029 A 
ATOM     53  N   UNL A   1      41.359  29.666  33.757  1.00  0.00    -0.354 N 
ATOM     54  N   UNL A   1      39.205  30.760  32.102  1.00  0.00    -0.248 NA
ATOM     55  C   UNL A   1      37.270  32.047  31.887  1.00  0.00     0.031 C 
ATOM     56  C   UNL A   1      41.481  30.293  35.886  1.00  0.00     0.029 A 
ATOM     57  C   UNL A   1      40.752  30.455  34.719  1.00  0.00     0.049 A 
ATOM     58  H   UNL A   1      41.053  29.573  32.826  1.00  0.00     0.167 HD
ATOM     59  C   UNL A   1      38.924  31.369  33.319  1.00  0.00     0.074 A 
ATOM     60  C   UNL A   1      37.739  32.176  33.120  1.00  0.00     0.031 C 
ATOM     61  C   UNL A   1      39.585  31.269  34.497  1.00  0.00     0.037 A 
BRANCH  48  62
ATOM     62  C   UNL A   1      44.487  27.525  34.306  1.00  0.00     0.057 A 
ATOM     63  C   UNL A   1      45.752  28.126  34.279  1.00  0.00     0.134 A 
ATOM     64  C   UNL A   1      44.335  26.370  35.082  1.00  0.00     0.134 A 
ATOM     65  F   UNL A   1      45.964  29.228  33.542  1.00  0.00    -0.206 F 
ATOM     66  C   UNL A   1      46.828  27.592  34.987  1.00  0.00     0.040 A 
ATOM     67  C   UNL A   1      45.399  25.838  35.813  1.00  0.00     0.040 A 
ATOM     68  F   UNL A   1      43.149  25.748  35.154  1.00  0.00    -0.206 F 
ATOM     69  C   UNL A   1      46.651  26.448  35.764  1.00  0.00     0.006 A 
ENDBRANCH  48  62
BRANCH  49  70
ATOM     70  C   UNL A   1      36.944  31.404  29.058  1.00  0.00     0.057 A 
ATOM     71  C   UNL A   1      36.928  32.739  28.637  1.00  0.00     0.134 A 
ATOM     72  C   UNL A   1      35.808  30.629  28.788  1.00  0.00     0.134 A 
ATOM     73  F   UNL A   1      37.975  33.538  28.888  1.00  0.00    -0.206 F 
ATOM     74  C   UNL A   1      35.815  33.290  27.999  1.00  0.00     0.040 A 
ATOM     75  C   UNL A   1      34.700  31.161  28.129  1.00  0.00     0.040 A 
ATOM     76  F   UNL A   1      35.760  29.343  29.166  1.00  0.00    -0.206 F 
ATOM     77  C   UNL A   1      34.697  32.499  27.742  1.00  0.00     0.006 A 
ENDBRANCH  49  70
BRANCH  61  78
ATOM     78  C   UNL A   1      39.074  32.085  35.649  1.00  0.00     0.057 A 
ATOM     79  C   UNL A   1      38.215  31.546  36.613  1.00  0.00     0.134 A 
ATOM     80  C   UNL A   1      39.482  33.415  35.814  1.00  0.00     0.134 A 
ATOM     81  F   UNL A   1      37.779  30.281  36.505  1.00  0.00    -0.206 F 
ATOM     82  C   UNL A   1      37.761  32.307  37.691  1.00  0.00     0.040 A 
ATOM     83  C   UNL A   1      39.055  34.179  36.900  1.00  0.00     0.040 A 
ATOM     84  F   UNL A   1      40.312  33.988  34.930  1.00  0.00    -0.206 F 
ATOM     85  C   UNL A   1      38.187  33.626  37.841  1.00  0.00     0.006 A 
ENDBRANCH  61  78
ENDBRANCH  35  36
ENDBRANCH  28  30
ENDBRANCH  27  28
ENDBRANCH  26  27
ENDBRANCH  25  26
ENDBRANCH  24  25
ENDBRANCH   1  24
TORSDOF 17
ENDMDL
MODEL 3
REMARK VINA RESULT:     -11.0      4.625      9.931
REMARK SMILES C[C@H]1[C@@H]([NH2+]C[C@H]2CC[C@@H](C(=O)OCCOCCOC(=O)c3ccc(-c4c5nc(c(-c6c(F)cccc6F)c6ccc([nH]6)c(-c6c(F)cccc6F)c6nc(c(-c7c(F)cccc7F)c7ccc4[nH]7)C=C6)C=C5)cc3)CC2)CCC[C@@H]1C
REMARK SMILES IDX 14 1 13 2 12 3 10 4 11 5 9 6 6 7 7 8 76 9 8 10 75 11 5 12
REMARK SMILES IDX 4 13 3 16 1 17 2 18 80 19 77 20 79 21 81 22 78 23 15 24
REMARK SMILES IDX 16 25 17 26 18 27 19 28 20 29 21 30 22 31 74 32 23 33 73 34
REMARK SMILES IDX 24 35 25 36 26 37 67 38 27 39 72 40 66 41 68 42 28 43 71 44
REMARK SMILES IDX 65 45 64 46 29 48 55 49 38 50 54 51 39 52 42 53 53 54 69 55
REMARK SMILES IDX 40 56 41 57 52 59 70 60 43 61 30 62 31 63 36 64 32 65 33 66
REMARK SMILES IDX 35 67 37 68 34 69 56 70 57 71 62 72 58 73 59 74 61 75 63 76
REMARK SMILES IDX 60 77 44 78 45 79 50 80 46 81 47 82 49 83 51 84 48 85
REMARK H PARENT 4 14 4 15 68 47 42 58
REMARK Flexibility Score: inf
ROOT
ATOM      1  C   UNL A   1      34.208  33.950  28.057  1.00  0.00     0.202 C 
ENDROOT
BRANCH   1   2
ATOM      2  C   UNL A   1      34.353  32.443  28.287  1.00  0.00     0.261 C 
BRANCH   2   3
ATOM      3  O   UNL A   1      33.334  31.697  27.596  1.00  0.00    -0.463 OA
BRANCH   3   4
ATOM      4  C   UNL A   1      33.593  30.376  27.383  1.00  0.00     0.309 C 
ATOM      5  O   UNL A   1      34.680  29.838  27.548  1.00  0.00    -0.252 OA
BRANCH   4   6
ATOM      6  C   UNL A   1      32.378  29.631  26.843  1.00  0.00     0.099 C 
ATOM      7  C   UNL A   1      31.362  27.462  25.036  1.00  0.00     0.044 C 
ATOM      8  C   UNL A   1      31.482  27.269  26.559  1.00  0.00     0.010 C 
ATOM      9  C   UNL A   1      31.037  28.941  24.773  1.00  0.00     0.010 C 
ATOM     10  C   UNL A   1      32.559  28.153  27.179  1.00  0.00     0.016 C 
ATOM     11  C   UNL A   1      32.088  29.889  25.354  1.00  0.00     0.016 C 
BRANCH   7  12
ATOM     12  C   UNL A   1      32.618  27.032  24.235  1.00  0.00     0.264 C 
BRANCH  12  13
ATOM     13  N   UNL A   1      32.564  25.634  23.815  1.00  0.00    -0.343 N 
ATOM     14  H   UNL A   1      31.819  25.174  24.340  1.00  0.00     0.346 HD
ATOM     15  H   UNL A   1      32.399  25.642  22.809  1.00  0.00     0.346 HD
BRANCH  13  16
ATOM     16  C   UNL A   1      33.813  24.876  24.027  1.00  0.00     0.185 C 
ATOM     17  C   UNL A   1      33.341  23.386  22.002  1.00  0.00     0.014 C 
ATOM     18  C   UNL A   1      33.642  23.411  23.512  1.00  0.00     0.047 C 
ATOM     19  C   UNL A   1      32.614  22.613  24.370  1.00  0.00    -0.006 C 
ATOM     20  C   UNL A   1      34.250  24.812  25.505  1.00  0.00     0.065 C 
ATOM     21  C   UNL A   1      32.963  22.682  25.872  1.00  0.00     0.004 C 
ATOM     22  C   UNL A   1      32.520  21.131  23.985  1.00  0.00     0.008 C 
ATOM     23  C   UNL A   1      33.225  24.094  26.373  1.00  0.00     0.006 C 
ENDBRANCH  13  16
ENDBRANCH  12  13
ENDBRANCH   7  12
ENDBRANCH   4   6
ENDBRANCH   3   4
ENDBRANCH   2   3
ENDBRANCH   1   2
BRANCH   1  24
ATOM     24  O   UNL A   1      34.409  34.790  29.194  1.00  0.00    -0.374 OA
BRANCH  24  25
ATOM     25  C   UNL A   1      33.870  34.338  30.433  1.00  0.00     0.202 C 
BRANCH  25  26
ATOM     26  C   UNL A   1      34.876  34.047  31.552  1.00  0.00     0.261 C 
BRANCH  26  27
ATOM     27  O   UNL A   1      34.823  32.677  31.988  1.00  0.00    -0.460 OA
BRANCH  27  28
ATOM     28  C   UNL A   1      35.855  32.302  32.778  1.00  0.00     0.338 C 
ATOM     29  O   UNL A   1      35.978  32.499  33.982  1.00  0.00    -0.246 OA
BRANCH  28  30
ATOM     30  C   UNL A   1      36.798  31.450  32.032  1.00  0.00     0.060 A 
ATOM     31  C   UNL A   1      37.868  30.900  32.751  1.00  0.00     0.016 A 
ATOM     32  C   UNL A   1      36.708  31.274  30.649  1.00  0.00     0.016 A 
ATOM     33  C   UNL A   1      38.886  30.227  32.082  1.00  0.00     0.010 A 
ATOM     34  C   UNL A   1      37.737  30.603  29.977  1.00  0.00     0.010 A 
ATOM     35  C   UNL A   1      38.851  30.115  30.686  1.00  0.00    -0.014 A 
BRANCH  35  36
ATOM     36  C   UNL A   1      40.059  29.642  29.967  1.00  0.00     0.031 A 
ATOM     37  C   UNL A   1      41.201  30.601  29.757  1.00  0.00     0.074 A 
ATOM     38  C   UNL A   1      40.167  28.366  29.558  1.00  0.00     0.049 A 
ATOM     39  N   UNL A   1      42.339  30.414  29.136  1.00  0.00    -0.248 NA
ATOM     40  C   UNL A   1      41.041  31.948  30.329  1.00  0.00     0.031 C 
ATOM     41  C   UNL A   1      39.153  27.329  29.746  1.00  0.00     0.029 A 
ATOM     42  N   UNL A   1      41.184  27.727  28.894  1.00  0.00    -0.354 N 
ATOM     43  C   UNL A   1      43.030  31.615  29.247  1.00  0.00     0.074 A 
ATOM     44  C   UNL A   1      42.172  32.535  29.962  1.00  0.00     0.031 C 
ATOM     45  C   UNL A   1      39.594  26.185  29.195  1.00  0.00     0.029 A 
ATOM     46  C   UNL A   1      40.905  26.416  28.593  1.00  0.00     0.049 A 
ATOM     47  H   UNL A   1      42.032  28.166  28.657  1.00  0.00     0.167 HD
ATOM     48  C   UNL A   1      44.273  31.921  28.806  1.00  0.00     0.037 A 
ATOM     49  C   UNL A   1      41.620  25.516  27.891  1.00  0.00     0.037 A 
ATOM     50  C   UNL A   1      45.126  31.011  28.090  1.00  0.00     0.049 A 
ATOM     51  C   UNL A   1      42.968  25.906  27.340  1.00  0.00     0.074 A 
ATOM     52  C   UNL A   1      46.395  31.235  27.583  1.00  0.00     0.029 A 
ATOM     53  N   UNL A   1      44.798  29.700  27.783  1.00  0.00    -0.354 N 
ATOM     54  N   UNL A   1      43.610  27.043  27.451  1.00  0.00    -0.248 NA
ATOM     55  C   UNL A   1      43.691  24.884  26.568  1.00  0.00     0.031 C 
ATOM     56  C   UNL A   1      46.820  30.068  26.938  1.00  0.00     0.029 A 
ATOM     57  C   UNL A   1      45.834  29.106  27.083  1.00  0.00     0.049 A 
ATOM     58  H   UNL A   1      43.953  29.256  28.026  1.00  0.00     0.167 HD
ATOM     59  C   UNL A   1      44.821  26.864  26.793  1.00  0.00     0.074 A 
ATOM     60  C   UNL A   1      44.830  25.504  26.295  1.00  0.00     0.031 C 
ATOM     61  C   UNL A   1      45.835  27.744  26.614  1.00  0.00     0.037 A 
BRANCH  48  62
ATOM     62  C   UNL A   1      44.785  33.303  29.079  1.00  0.00     0.057 A 
ATOM     63  C   UNL A   1      45.590  33.581  30.192  1.00  0.00     0.134 A 
ATOM     64  C   UNL A   1      44.515  34.355  28.196  1.00  0.00     0.134 A 
ATOM     65  F   UNL A   1      45.873  32.618  31.083  1.00  0.00    -0.206 F 
ATOM     66  C   UNL A   1      46.098  34.860  30.422  1.00  0.00     0.040 A 
ATOM     67  C   UNL A   1      45.037  35.634  28.404  1.00  0.00     0.040 A 
ATOM     68  F   UNL A   1      43.754  34.155  27.110  1.00  0.00    -0.206 F 
ATOM     69  C   UNL A   1      45.828  35.889  29.522  1.00  0.00     0.006 A 
ENDBRANCH  48  62
BRANCH  49  70
ATOM     70  C   UNL A   1      41.072  24.159  27.634  1.00  0.00     0.057 A 
ATOM     71  C   UNL A   1      41.547  23.037  28.321  1.00  0.00     0.134 A 
ATOM     72  C   UNL A   1      40.093  23.949  26.654  1.00  0.00     0.134 A 
ATOM     73  F   UNL A   1      42.502  23.171  29.253  1.00  0.00    -0.206 F 
ATOM     74  C   UNL A   1      41.090  21.751  28.025  1.00  0.00     0.040 A 
ATOM     75  C   UNL A   1      39.609  22.672  26.366  1.00  0.00     0.040 A 
ATOM     76  F   UNL A   1      39.596  24.983  25.959  1.00  0.00    -0.206 F 
ATOM     77  C   UNL A   1      40.117  21.567  27.046  1.00  0.00     0.006 A 
ENDBRANCH  49  70
BRANCH  61  78
ATOM     78  C   UNL A   1      47.056  27.255  25.892  1.00  0.00     0.057 A 
ATOM     79  C   UNL A   1      47.237  27.464  24.520  1.00  0.00     0.134 A 
ATOM     80  C   UNL A   1      48.082  26.604  26.590  1.00  0.00     0.134 A 
ATOM     81  F   UNL A   1      46.287  28.071  23.793  1.00  0.00    -0.206 F 
ATOM     82  C   UNL A   1      48.387  27.023  23.862  1.00  0.00     0.040 A 
ATOM     83  C   UNL A   1      49.245  26.180  25.948  1.00  0.00     0.040 A 
ATOM     84  F   UNL A   1      47.974  26.382  27.909  1.00  0.00    -0.206 F 
ATOM     85  C   UNL A   1      49.398  26.385  24.578  1.00  0.00     0.006 A 
ENDBRANCH  61  78
ENDBRANCH  35  36
ENDBRANCH  28  30
ENDBRANCH  27  28
ENDBRANCH  26  27
ENDBRANCH  25  26
ENDBRANCH  24  25
ENDBRANCH   1  24
TORSDOF 17
ENDMDL
