MODEL 1
REMARK VINA RESULT:     -11.6      0.000      0.000
REMARK SMILES CC(=O)OCC1=C(C(=O)OCCOCCOC(=O)c2ccc(-c3c4nc(c(-c5c(F)cccc5F)c5ccc([nH]5)c(-c5c(F)cccc5F)c5nc(c(-c6c(F)cccc6F)c6ccc3[nH]6)C=C5)C=C4)cc2)N2C(=O)[C@H](NC(=O)C3CCCCC3)[C@@H]2SC1
REMARK SMILES IDX 12 1 11 2 10 3 8 4 9 5 7 6 6 7 88 8 73 9 87 10 74 11 86 12
REMARK SMILES IDX 75 13 76 14 5 15 4 16 2 17 1 18 3 19 77 20 78 21 79 23 80 24
REMARK SMILES IDX 81 25 85 26 82 27 84 28 83 29 13 30 14 31 15 32 16 33 17 34
REMARK SMILES IDX 18 35 19 36 20 37 72 38 21 39 71 40 22 41 23 42 24 43 65 44
REMARK SMILES IDX 25 45 70 46 64 47 66 48 26 49 69 50 63 51 62 52 27 54 53 55
REMARK SMILES IDX 36 56 52 57 37 58 40 59 51 60 67 61 38 62 39 63 50 65 68 66
REMARK SMILES IDX 41 67 28 68 29 69 34 70 30 71 31 72 33 73 35 74 32 75 54 76
REMARK SMILES IDX 55 77 60 78 56 79 57 80 59 81 61 82 58 83 42 84 43 85 48 86
REMARK SMILES IDX 44 87 45 88 47 89 49 90 46 91
REMARK H PARENT 77 22 66 53 40 64
REMARK Flexibility Score: inf
ROOT
ATOM      1  C   UNL A   1      32.013  28.644  26.224  1.00  0.00     0.202 C 
ENDROOT
BRANCH   1   2
ATOM      2  C   UNL A   1      31.452  27.363  26.838  1.00  0.00     0.261 C 
BRANCH   2   3
ATOM      3  O   UNL A   1      31.787  26.199  26.072  1.00  0.00    -0.459 OA
BRANCH   3   4
ATOM      4  C   UNL A   1      30.806  25.760  25.240  1.00  0.00     0.355 C 
ATOM      5  O   UNL A   1      29.605  25.902  25.406  1.00  0.00    -0.244 OA
BRANCH   4   6
ATOM      6  C   UNL A   1      31.393  25.056  24.057  1.00  0.00     0.134 C 
ATOM      7  C   UNL A   1      31.790  25.718  22.941  1.00  0.00     0.008 C 
ATOM      8  C   UNL A   1      32.596  25.056  21.831  1.00  0.00     0.108 C 
ATOM      9  N   UNL A   1      31.626  23.721  24.194  1.00  0.00    -0.289 N 
ATOM     10  S   UNL A   1      33.544  23.601  22.377  1.00  0.00    -0.129 SA
ATOM     11  C   UNL A   1      31.433  22.752  25.113  1.00  0.00     0.253 C 
ATOM     12  C   UNL A   1      32.104  22.849  23.144  1.00  0.00     0.181 C 
ATOM     13  O   UNL A   1      30.823  22.701  26.155  1.00  0.00    -0.272 OA
ATOM     14  C   UNL A   1      32.316  21.775  24.249  1.00  0.00     0.205 C 
BRANCH   7  15
ATOM     15  C   UNL A   1      31.565  27.196  22.650  1.00  0.00     0.267 C 
BRANCH  15  16
ATOM     16  O   UNL A   1      30.273  27.576  22.163  1.00  0.00    -0.461 OA
BRANCH  16  17
ATOM     17  C   UNL A   1      29.917  28.883  22.270  1.00  0.00     0.302 C 
ATOM     18  C   UNL A   1      29.704  29.225  23.715  1.00  0.00     0.139 C 
ATOM     19  O   UNL A   1      29.830  29.672  21.343  1.00  0.00    -0.253 OA
ENDBRANCH  16  17
ENDBRANCH  15  16
ENDBRANCH   7  15
BRANCH  14  20
ATOM     20  N   UNL A   1      33.696  21.572  24.764  1.00  0.00    -0.342 N 
ATOM     21  C   UNL A   1      34.374  20.401  24.958  1.00  0.00     0.223 C 
ATOM     22  H   UNL A   1      34.189  22.393  24.995  1.00  0.00     0.164 HD
ATOM     23  O   UNL A   1      35.504  20.439  25.442  1.00  0.00    -0.275 OA
BRANCH  21  24
ATOM     24  C   UNL A   1      33.717  19.103  24.506  1.00  0.00     0.078 C 
ATOM     25  C   UNL A   1      34.807  18.090  24.127  1.00  0.00     0.013 C 
ATOM     26  C   UNL A   1      32.800  18.524  25.591  1.00  0.00     0.013 C 
ATOM     27  C   UNL A   1      34.207  16.757  23.688  1.00  0.00     0.001 C 
ATOM     28  C   UNL A   1      32.181  17.204  25.131  1.00  0.00     0.001 C 
ATOM     29  C   UNL A   1      33.254  16.193  24.738  1.00  0.00     0.000 C 
ENDBRANCH  21  24
ENDBRANCH  14  20
ENDBRANCH   4   6
ENDBRANCH   3   4
ENDBRANCH   2   3
ENDBRANCH   1   2
BRANCH   1  30
ATOM     30  O   UNL A   1      31.907  29.859  26.954  1.00  0.00    -0.374 OA
BRANCH  30  31
ATOM     31  C   UNL A   1      31.675  31.074  26.250  1.00  0.00     0.202 C 
BRANCH  31  32
ATOM     32  C   UNL A   1      31.550  32.391  27.036  1.00  0.00     0.261 C 
BRANCH  32  33
ATOM     33  O   UNL A   1      32.614  33.338  26.845  1.00  0.00    -0.460 OA
BRANCH  33  34
ATOM     34  C   UNL A   1      33.106  33.856  27.999  1.00  0.00     0.338 C 
ATOM     35  O   UNL A   1      32.592  34.695  28.718  1.00  0.00    -0.246 OA
BRANCH  34  36
ATOM     36  C   UNL A   1      34.363  33.183  28.364  1.00  0.00     0.060 A 
ATOM     37  C   UNL A   1      34.308  31.880  28.875  1.00  0.00     0.016 A 
ATOM     38  C   UNL A   1      35.563  33.893  28.347  1.00  0.00     0.016 A 
ATOM     39  C   UNL A   1      35.456  31.289  29.403  1.00  0.00     0.010 A 
ATOM     40  C   UNL A   1      36.710  33.302  28.881  1.00  0.00     0.010 A 
ATOM     41  C   UNL A   1      36.655  32.011  29.439  1.00  0.00    -0.014 A 
BRANCH  41  42
ATOM     42  C   UNL A   1      37.831  31.481  30.171  1.00  0.00     0.031 A 
ATOM     43  C   UNL A   1      38.718  30.471  29.498  1.00  0.00     0.074 A 
ATOM     44  C   UNL A   1      38.085  31.875  31.430  1.00  0.00     0.049 A 
ATOM     45  N   UNL A   1      39.710  29.776  29.994  1.00  0.00    -0.248 NA
ATOM     46  C   UNL A   1      38.443  30.201  28.078  1.00  0.00     0.031 C 
ATOM     47  C   UNL A   1      37.324  32.880  32.170  1.00  0.00     0.029 A 
ATOM     48  N   UNL A   1      39.046  31.458  32.316  1.00  0.00    -0.354 N 
ATOM     49  C   UNL A   1      40.164  28.974  28.954  1.00  0.00     0.074 A 
ATOM     50  C   UNL A   1      39.323  29.247  27.810  1.00  0.00     0.031 C 
ATOM     51  C   UNL A   1      37.835  32.987  33.408  1.00  0.00     0.029 A 
ATOM     52  C   UNL A   1      38.926  32.027  33.560  1.00  0.00     0.049 A 
ATOM     53  H   UNL A   1      39.754  30.815  32.083  1.00  0.00     0.167 HD
ATOM     54  C   UNL A   1      41.194  28.093  28.955  1.00  0.00     0.037 A 
ATOM     55  C   UNL A   1      39.596  31.773  34.700  1.00  0.00     0.037 A 
ATOM     56  C   UNL A   1      42.027  27.829  30.101  1.00  0.00     0.049 A 
ATOM     57  C   UNL A   1      40.684  30.732  34.699  1.00  0.00     0.074 A 
ATOM     58  C   UNL A   1      43.107  26.971  30.201  1.00  0.00     0.029 A 
ATOM     59  N   UNL A   1      41.864  28.414  31.348  1.00  0.00    -0.354 N 
ATOM     60  N   UNL A   1      41.118  29.987  33.710  1.00  0.00    -0.248 NA
ATOM     61  C   UNL A   1      41.377  30.495  35.974  1.00  0.00     0.031 C 
ATOM     62  C   UNL A   1      43.557  26.987  31.525  1.00  0.00     0.029 A 
ATOM     63  C   UNL A   1      42.806  27.913  32.231  1.00  0.00     0.049 A 
ATOM     64  H   UNL A   1      41.180  29.086  31.572  1.00  0.00     0.167 HD
ATOM     65  C   UNL A   1      42.160  29.228  34.232  1.00  0.00     0.074 A 
ATOM     66  C   UNL A   1      42.294  29.606  35.623  1.00  0.00     0.031 C 
ATOM     67  C   UNL A   1      42.939  28.308  33.611  1.00  0.00     0.037 A 
BRANCH  54  68
ATOM     68  C   UNL A   1      41.457  27.326  27.691  1.00  0.00     0.057 A 
ATOM     69  C   UNL A   1      40.882  26.072  27.445  1.00  0.00     0.134 A 
ATOM     70  C   UNL A   1      42.274  27.867  26.688  1.00  0.00     0.134 A 
ATOM     71  F   UNL A   1      40.100  25.490  28.367  1.00  0.00    -0.206 F 
ATOM     72  C   UNL A   1      41.130  25.374  26.261  1.00  0.00     0.040 A 
ATOM     73  C   UNL A   1      42.502  27.193  25.488  1.00  0.00     0.040 A 
ATOM     74  F   UNL A   1      42.852  29.066  26.853  1.00  0.00    -0.206 F 
ATOM     75  C   UNL A   1      41.935  25.938  25.275  1.00  0.00     0.006 A 
ENDBRANCH  54  68
BRANCH  55  76
ATOM     76  C   UNL A   1      39.248  32.505  35.945  1.00  0.00     0.057 A 
ATOM     77  C   UNL A   1      38.296  32.001  36.839  1.00  0.00     0.134 A 
ATOM     78  C   UNL A   1      39.844  33.732  36.264  1.00  0.00     0.134 A 
ATOM     79  F   UNL A   1      37.676  30.841  36.580  1.00  0.00    -0.206 F 
ATOM     80  C   UNL A   1      37.933  32.699  37.992  1.00  0.00     0.040 A 
ATOM     81  C   UNL A   1      39.512  34.426  37.428  1.00  0.00     0.040 A 
ATOM     82  F   UNL A   1      40.768  34.268  35.453  1.00  0.00    -0.206 F 
ATOM     83  C   UNL A   1      38.546  33.914  38.291  1.00  0.00     0.006 A 
ENDBRANCH  55  76
BRANCH  67  84
ATOM     84  C   UNL A   1      44.052  27.688  34.410  1.00  0.00     0.057 A 
ATOM     85  C   UNL A   1      43.894  26.481  35.102  1.00  0.00     0.134 A 
ATOM     86  C   UNL A   1      45.318  28.288  34.441  1.00  0.00     0.134 A 
ATOM     87  F   UNL A   1      42.705  25.859  35.124  1.00  0.00    -0.206 F 
ATOM     88  C   UNL A   1      44.948  25.906  35.815  1.00  0.00     0.040 A 
ATOM     89  C   UNL A   1      46.388  27.706  35.122  1.00  0.00     0.040 A 
ATOM     90  F   UNL A   1      45.542  29.440  33.790  1.00  0.00    -0.206 F 
ATOM     91  C   UNL A   1      46.202  26.514  35.818  1.00  0.00     0.006 A 
ENDBRANCH  67  84
ENDBRANCH  41  42
ENDBRANCH  34  36
ENDBRANCH  33  34
ENDBRANCH  32  33
ENDBRANCH  31  32
ENDBRANCH  30  31
ENDBRANCH   1  30
TORSDOF 19
ENDMDL
MODEL 2
REMARK VINA RESULT:     -11.3      2.306      8.616
REMARK SMILES CC(=O)OCC1=C(C(=O)OCCOCCOC(=O)c2ccc(-c3c4nc(c(-c5c(F)cccc5F)c5ccc([nH]5)c(-c5c(F)cccc5F)c5nc(c(-c6c(F)cccc6F)c6ccc3[nH]6)C=C5)C=C4)cc2)N2C(=O)[C@H](NC(=O)C3CCCCC3)[C@@H]2SC1
REMARK SMILES IDX 12 1 11 2 10 3 8 4 9 5 7 6 6 7 88 8 73 9 87 10 74 11 86 12
REMARK SMILES IDX 75 13 76 14 5 15 4 16 2 17 1 18 3 19 77 20 78 21 79 23 80 24
REMARK SMILES IDX 81 25 85 26 82 27 84 28 83 29 13 30 14 31 15 32 16 33 17 34
REMARK SMILES IDX 18 35 19 36 20 37 72 38 21 39 71 40 22 41 23 42 24 43 65 44
REMARK SMILES IDX 25 45 70 46 64 47 66 48 26 49 69 50 63 51 62 52 27 54 53 55
REMARK SMILES IDX 36 56 52 57 37 58 40 59 51 60 67 61 38 62 39 63 50 65 68 66
REMARK SMILES IDX 41 67 28 68 29 69 34 70 30 71 31 72 33 73 35 74 32 75 54 76
REMARK SMILES IDX 55 77 60 78 56 79 57 80 59 81 61 82 58 83 42 84 43 85 48 86
REMARK SMILES IDX 44 87 45 88 47 89 49 90 46 91
REMARK H PARENT 77 22 66 53 40 64
REMARK Flexibility Score: inf
ROOT
ATOM      1  C   UNL A   1      38.969  20.965  25.684  1.00  0.00     0.202 C 
ENDROOT
BRANCH   1   2
ATOM      2  C   UNL A   1      37.918  21.996  25.282  1.00  0.00     0.261 C 
BRANCH   2   3
ATOM      3  O   UNL A   1      36.682  21.390  24.883  1.00  0.00    -0.459 OA
BRANCH   3   4
ATOM      4  C   UNL A   1      35.657  21.550  25.762  1.00  0.00     0.355 C 
ATOM      5  O   UNL A   1      35.745  21.540  26.979  1.00  0.00    -0.244 OA
BRANCH   4   6
ATOM      6  C   UNL A   1      34.363  21.743  25.033  1.00  0.00     0.134 C 
ATOM      7  C   UNL A   1      33.567  20.703  24.679  1.00  0.00     0.008 C 
ATOM      8  C   UNL A   1      32.151  20.891  24.151  1.00  0.00     0.108 C 
ATOM      9  N   UNL A   1      33.957  23.029  24.843  1.00  0.00    -0.289 N 
ATOM     10  S   UNL A   1      31.380  22.462  24.653  1.00  0.00    -0.129 SA
ATOM     11  C   UNL A   1      34.411  24.276  25.079  1.00  0.00     0.253 C 
ATOM     12  C   UNL A   1      32.788  23.427  24.090  1.00  0.00     0.181 C 
ATOM     13  O   UNL A   1      35.473  24.722  25.447  1.00  0.00    -0.272 OA
ATOM     14  C   UNL A   1      33.002  24.852  24.674  1.00  0.00     0.205 C 
BRANCH   7  15
ATOM     15  C   UNL A   1      33.914  19.226  24.809  1.00  0.00     0.267 C 
BRANCH  15  16
ATOM     16  O   UNL A   1      33.797  18.421  23.631  1.00  0.00    -0.461 OA
BRANCH  16  17
ATOM     17  C   UNL A   1      33.849  17.072  23.780  1.00  0.00     0.302 C 
ATOM     18  C   UNL A   1      33.519  16.714  25.198  1.00  0.00     0.139 C 
ATOM     19  O   UNL A   1      34.081  16.270  22.889  1.00  0.00    -0.253 OA
ENDBRANCH  16  17
ENDBRANCH  15  16
ENDBRANCH   7  15
BRANCH  14  20
ATOM     20  N   UNL A   1      32.152  25.269  25.820  1.00  0.00    -0.342 N 
ATOM     21  C   UNL A   1      31.231  26.277  25.882  1.00  0.00     0.223 C 
ATOM     22  H   UNL A   1      32.268  24.746  26.647  1.00  0.00     0.164 HD
ATOM     23  O   UNL A   1      30.658  26.497  26.948  1.00  0.00    -0.275 OA
BRANCH  21  24
ATOM     24  C   UNL A   1      30.914  27.045  24.605  1.00  0.00     0.078 C 
ATOM     25  C   UNL A   1      29.419  26.902  24.288  1.00  0.00     0.013 C 
ATOM     26  C   UNL A   1      31.299  28.525  24.722  1.00  0.00     0.013 C 
ATOM     27  C   UNL A   1      29.036  27.673  23.027  1.00  0.00     0.001 C 
ATOM     28  C   UNL A   1      30.938  29.283  23.445  1.00  0.00     0.001 C 
ATOM     29  C   UNL A   1      29.457  29.138  23.110  1.00  0.00     0.000 C 
ENDBRANCH  21  24
ENDBRANCH  14  20
ENDBRANCH   4   6
ENDBRANCH   3   4
ENDBRANCH   2   3
ENDBRANCH   1   2
BRANCH   1  30
ATOM     30  O   UNL A   1      39.977  21.337  26.614  1.00  0.00    -0.374 OA
BRANCH  30  31
ATOM     31  C   UNL A   1      41.231  20.666  26.585  1.00  0.00     0.202 C 
BRANCH  31  32
ATOM     32  C   UNL A   1      42.452  21.373  25.970  1.00  0.00     0.261 C 
BRANCH  32  33
ATOM     33  O   UNL A   1      42.168  22.533  25.171  1.00  0.00    -0.460 OA
BRANCH  33  34
ATOM     34  C   UNL A   1      43.093  23.521  25.283  1.00  0.00     0.338 C 
ATOM     35  O   UNL A   1      44.186  23.582  24.750  1.00  0.00    -0.246 OA
BRANCH  34  36
ATOM     36  C   UNL A   1      42.558  24.629  26.092  1.00  0.00     0.060 A 
ATOM     37  C   UNL A   1      43.289  25.821  26.174  1.00  0.00     0.016 A 
ATOM     38  C   UNL A   1      41.428  24.428  26.884  1.00  0.00     0.016 A 
ATOM     39  C   UNL A   1      42.906  26.812  27.078  1.00  0.00     0.010 A 
ATOM     40  C   UNL A   1      41.049  25.420  27.792  1.00  0.00     0.010 A 
ATOM     41  C   UNL A   1      41.804  26.601  27.915  1.00  0.00    -0.014 A 
BRANCH  41  42
ATOM     42  C   UNL A   1      41.501  27.551  29.013  1.00  0.00     0.031 A 
ATOM     43  C   UNL A   1      42.288  27.470  30.290  1.00  0.00     0.074 A 
ATOM     44  C   UNL A   1      40.516  28.457  28.879  1.00  0.00     0.049 A 
ATOM     45  N   UNL A   1      42.103  28.101  31.422  1.00  0.00    -0.248 NA
ATOM     46  C   UNL A   1      43.432  26.543  30.297  1.00  0.00     0.031 C 
ATOM     47  C   UNL A   1      39.715  28.661  27.673  1.00  0.00     0.029 A 
ATOM     48  N   UNL A   1      40.010  29.359  29.779  1.00  0.00    -0.354 N 
ATOM     49  C   UNL A   1      43.093  27.636  32.279  1.00  0.00     0.074 A 
ATOM     50  C   UNL A   1      43.857  26.649  31.547  1.00  0.00     0.031 C 
ATOM     51  C   UNL A   1      38.801  29.615  27.916  1.00  0.00     0.029 A 
ATOM     52  C   UNL A   1      38.924  30.053  29.304  1.00  0.00     0.049 A 
ATOM     53  H   UNL A   1      40.387  29.497  30.677  1.00  0.00     0.167 HD
ATOM     54  C   UNL A   1      43.342  28.003  33.559  1.00  0.00     0.037 A 
ATOM     55  C   UNL A   1      38.101  30.915  29.932  1.00  0.00     0.037 A 
ATOM     56  C   UNL A   1      42.575  28.987  34.278  1.00  0.00     0.049 A 
ATOM     57  C   UNL A   1      38.349  31.248  31.379  1.00  0.00     0.074 A 
ATOM     58  C   UNL A   1      42.756  29.446  35.571  1.00  0.00     0.029 A 
ATOM     59  N   UNL A   1      41.472  29.658  33.768  1.00  0.00    -0.354 N 
ATOM     60  N   UNL A   1      39.294  30.816  32.180  1.00  0.00    -0.248 NA
ATOM     61  C   UNL A   1      37.415  32.192  32.012  1.00  0.00     0.031 C 
ATOM     62  C   UNL A   1      41.727  30.344  35.866  1.00  0.00     0.029 A 
ATOM     63  C   UNL A   1      40.947  30.504  34.731  1.00  0.00     0.049 A 
ATOM     64  H   UNL A   1      41.117  29.549  32.857  1.00  0.00     0.167 HD
ATOM     65  C   UNL A   1      39.094  31.465  33.393  1.00  0.00     0.074 A 
ATOM     66  C   UNL A   1      37.940  32.323  33.221  1.00  0.00     0.031 C 
ATOM     67  C   UNL A   1      39.806  31.365  34.543  1.00  0.00     0.037 A 
BRANCH  54  68
ATOM     68  C   UNL A   1      44.468  27.314  34.276  1.00  0.00     0.057 A 
ATOM     69  C   UNL A   1      45.768  27.834  34.297  1.00  0.00     0.134 A 
ATOM     70  C   UNL A   1      44.238  26.128  34.986  1.00  0.00     0.134 A 
ATOM     71  F   UNL A   1      46.062  28.960  33.628  1.00  0.00    -0.206 F 
ATOM     72  C   UNL A   1      46.804  27.187  34.975  1.00  0.00     0.040 A 
ATOM     73  C   UNL A   1      45.257  25.490  35.695  1.00  0.00     0.040 A 
ATOM     74  F   UNL A   1      43.015  25.577  35.015  1.00  0.00    -0.206 F 
ATOM     75  C   UNL A   1      46.547  26.016  35.684  1.00  0.00     0.006 A 
ENDBRANCH  54  68
BRANCH  55  76
ATOM     76  C   UNL A   1      36.955  31.513  29.201  1.00  0.00     0.057 A 
ATOM     77  C   UNL A   1      35.799  30.770  28.935  1.00  0.00     0.134 A 
ATOM     78  C   UNL A   1      36.991  32.833  28.736  1.00  0.00     0.134 A 
ATOM     79  F   UNL A   1      35.711  29.493  29.337  1.00  0.00    -0.206 F 
ATOM     80  C   UNL A   1      34.731  31.308  28.216  1.00  0.00     0.040 A 
ATOM     81  C   UNL A   1      35.919  33.395  28.042  1.00  0.00     0.040 A 
ATOM     82  F   UNL A   1      38.066  33.603  28.963  1.00  0.00    -0.206 F 
ATOM     83  C   UNL A   1      34.788  32.628  27.771  1.00  0.00     0.006 A 
ENDBRANCH  55  76
BRANCH  67  84
ATOM     84  C   UNL A   1      39.404  32.251  35.689  1.00  0.00     0.057 A 
ATOM     85  C   UNL A   1      39.904  33.549  35.844  1.00  0.00     0.134 A 
ATOM     86  C   UNL A   1      38.459  31.808  36.625  1.00  0.00     0.134 A 
ATOM     87  F   UNL A   1      40.820  34.032  34.990  1.00  0.00    -0.206 F 
ATOM     88  C   UNL A   1      39.496  34.367  36.899  1.00  0.00     0.040 A 
ATOM     89  C   UNL A   1      38.019  32.627  37.665  1.00  0.00     0.040 A 
ATOM     90  F   UNL A   1      37.931  30.578  36.530  1.00  0.00    -0.206 F 
ATOM     91  C   UNL A   1      38.543  33.909  37.808  1.00  0.00     0.006 A 
ENDBRANCH  67  84
ENDBRANCH  41  42
ENDBRANCH  34  36
ENDBRANCH  33  34
ENDBRANCH  32  33
ENDBRANCH  31  32
ENDBRANCH  30  31
ENDBRANCH   1  30
TORSDOF 19
ENDMDL
MODEL 3
REMARK VINA RESULT:     -11.3      2.274      5.413
REMARK SMILES CC(=O)OCC1=C(C(=O)OCCOCCOC(=O)c2ccc(-c3c4nc(c(-c5c(F)cccc5F)c5ccc([nH]5)c(-c5c(F)cccc5F)c5nc(c(-c6c(F)cccc6F)c6ccc3[nH]6)C=C5)C=C4)cc2)N2C(=O)[C@H](NC(=O)C3CCCCC3)[C@@H]2SC1
REMARK SMILES IDX 12 1 11 2 10 3 8 4 9 5 7 6 6 7 88 8 73 9 87 10 74 11 86 12
REMARK SMILES IDX 75 13 76 14 5 15 4 16 2 17 1 18 3 19 77 20 78 21 79 23 80 24
REMARK SMILES IDX 81 25 85 26 82 27 84 28 83 29 13 30 14 31 15 32 16 33 17 34
REMARK SMILES IDX 18 35 19 36 20 37 72 38 21 39 71 40 22 41 23 42 24 43 65 44
REMARK SMILES IDX 25 45 70 46 64 47 66 48 26 49 69 50 63 51 62 52 27 54 53 55
REMARK SMILES IDX 36 56 52 57 37 58 40 59 51 60 67 61 38 62 39 63 50 65 68 66
REMARK SMILES IDX 41 67 28 68 29 69 34 70 30 71 31 72 33 73 35 74 32 75 54 76
REMARK SMILES IDX 55 77 60 78 56 79 57 80 59 81 61 82 58 83 42 84 43 85 48 86
REMARK SMILES IDX 44 87 45 88 47 89 49 90 46 91
REMARK H PARENT 77 22 66 53 40 64
REMARK Flexibility Score: inf
ROOT
ATOM      1  C   UNL A   1      34.759  30.437  27.458  1.00  0.00     0.202 C 
ENDROOT
BRANCH   1   2
ATOM      2  C   UNL A   1      34.948  28.942  27.213  1.00  0.00     0.261 C 
BRANCH   2   3
ATOM      3  O   UNL A   1      34.251  28.487  26.046  1.00  0.00    -0.459 OA
BRANCH   3   4
ATOM      4  C   UNL A   1      33.135  27.754  26.296  1.00  0.00     0.355 C 
ATOM      5  O   UNL A   1      32.484  27.763  27.328  1.00  0.00    -0.244 OA
BRANCH   4   6
ATOM      6  C   UNL A   1      32.788  26.902  25.114  1.00  0.00     0.134 C 
ATOM      7  C   UNL A   1      33.057  25.572  25.073  1.00  0.00     0.008 C 
ATOM      8  C   UNL A   1      32.509  24.653  23.991  1.00  0.00     0.108 C 
ATOM      9  N   UNL A   1      32.075  27.500  24.119  1.00  0.00    -0.289 N 
ATOM     10  S   UNL A   1      30.990  25.270  23.201  1.00  0.00    -0.129 SA
ATOM     11  C   UNL A   1      31.590  28.721  23.820  1.00  0.00     0.253 C 
ATOM     12  C   UNL A   1      31.719  26.877  22.864  1.00  0.00     0.181 C 
ATOM     13  O   UNL A   1      31.744  29.821  24.299  1.00  0.00    -0.272 OA
ATOM     14  C   UNL A   1      30.780  28.093  22.625  1.00  0.00     0.205 C 
BRANCH   7  15
ATOM     15  C   UNL A   1      33.866  24.792  26.100  1.00  0.00     0.267 C 
BRANCH  15  16
ATOM     16  O   UNL A   1      33.768  23.364  26.062  1.00  0.00    -0.461 OA
BRANCH  16  17
ATOM     17  C   UNL A   1      33.146  22.746  27.100  1.00  0.00     0.302 C 
ATOM     18  C   UNL A   1      33.987  21.597  27.572  1.00  0.00     0.139 C 
ATOM     19  O   UNL A   1      32.091  23.096  27.603  1.00  0.00    -0.253 OA
ENDBRANCH  16  17
ENDBRANCH  15  16
ENDBRANCH   7  15
BRANCH  14  20
ATOM     20  N   UNL A   1      29.328  27.912  22.889  1.00  0.00    -0.342 N 
ATOM     21  C   UNL A   1      28.329  28.844  22.861  1.00  0.00     0.223 C 
ATOM     22  H   UNL A   1      29.048  26.995  23.115  1.00  0.00     0.164 HD
ATOM     23  O   UNL A   1      27.185  28.503  23.159  1.00  0.00    -0.275 OA
BRANCH  21  24
ATOM     24  C   UNL A   1      28.671  30.255  22.400  1.00  0.00     0.078 C 
ATOM     25  C   UNL A   1      27.920  30.556  21.095  1.00  0.00     0.013 C 
ATOM     26  C   UNL A   1      28.329  31.300  23.470  1.00  0.00     0.013 C 
ATOM     27  C   UNL A   1      28.206  31.970  20.596  1.00  0.00     0.001 C 
ATOM     28  C   UNL A   1      28.646  32.710  22.972  1.00  0.00     0.001 C 
ATOM     29  C   UNL A   1      27.916  33.018  21.668  1.00  0.00     0.000 C 
ENDBRANCH  21  24
ENDBRANCH  14  20
ENDBRANCH   4   6
ENDBRANCH   3   4
ENDBRANCH   2   3
ENDBRANCH   1   2
BRANCH   1  30
ATOM     30  O   UNL A   1      33.535  30.893  28.019  1.00  0.00    -0.374 OA
BRANCH  30  31
ATOM     31  C   UNL A   1      32.522  31.400  27.158  1.00  0.00     0.202 C 
BRANCH  31  32
ATOM     32  C   UNL A   1      32.170  32.897  27.206  1.00  0.00     0.261 C 
BRANCH  32  33
ATOM     33  O   UNL A   1      33.281  33.799  27.331  1.00  0.00    -0.460 OA
BRANCH  33  34
ATOM     34  C   UNL A   1      33.257  34.552  28.461  1.00  0.00     0.338 C 
ATOM     35  O   UNL A   1      32.362  35.280  28.853  1.00  0.00    -0.246 OA
BRANCH  34  36
ATOM     36  C   UNL A   1      34.467  34.303  29.263  1.00  0.00     0.060 A 
ATOM     37  C   UNL A   1      35.717  34.351  28.633  1.00  0.00     0.016 A 
ATOM     38  C   UNL A   1      34.349  33.871  30.583  1.00  0.00     0.016 A 
ATOM     39  C   UNL A   1      36.859  33.936  29.318  1.00  0.00     0.010 A 
ATOM     40  C   UNL A   1      35.493  33.452  31.266  1.00  0.00     0.010 A 
ATOM     41  C   UNL A   1      36.746  33.452  30.627  1.00  0.00    -0.014 A 
BRANCH  41  42
ATOM     42  C   UNL A   1      37.910  32.825  31.299  1.00  0.00     0.031 A 
ATOM     43  C   UNL A   1      38.527  31.593  30.698  1.00  0.00     0.074 A 
ATOM     44  C   UNL A   1      38.390  33.334  32.447  1.00  0.00     0.049 A 
ATOM     45  N   UNL A   1      39.452  30.806  31.184  1.00  0.00    -0.248 NA
ATOM     46  C   UNL A   1      38.025  31.188  29.375  1.00  0.00     0.031 C 
ATOM     47  C   UNL A   1      37.905  34.548  33.101  1.00  0.00     0.029 A 
ATOM     48  N   UNL A   1      39.383  32.875  33.276  1.00  0.00    -0.354 N 
ATOM     49  C   UNL A   1      39.630  29.805  30.238  1.00  0.00     0.074 A 
ATOM     50  C   UNL A   1      38.698  30.066  29.164  1.00  0.00     0.031 C 
ATOM     51  C   UNL A   1      38.588  34.727  34.244  1.00  0.00     0.029 A 
ATOM     52  C   UNL A   1      39.522  33.618  34.423  1.00  0.00     0.049 A 
ATOM     53  H   UNL A   1      39.941  32.091  33.070  1.00  0.00     0.167 HD
ATOM     54  C   UNL A   1      40.497  28.763  30.263  1.00  0.00     0.037 A 
ATOM     55  C   UNL A   1      40.290  33.405  35.508  1.00  0.00     0.037 A 
ATOM     56  C   UNL A   1      41.423  28.512  31.337  1.00  0.00     0.049 A 
ATOM     57  C   UNL A   1      41.188  32.197  35.550  1.00  0.00     0.074 A 
ATOM     58  C   UNL A   1      42.356  27.497  31.451  1.00  0.00     0.029 A 
ATOM     59  N   UNL A   1      41.524  29.278  32.490  1.00  0.00    -0.354 N 
ATOM     60  N   UNL A   1      41.361  31.261  34.646  1.00  0.00    -0.248 NA
ATOM     61  C   UNL A   1      41.999  32.014  36.763  1.00  0.00     0.031 C 
ATOM     62  C   UNL A   1      42.977  27.611  32.699  1.00  0.00     0.029 A 
ATOM     63  C   UNL A   1      42.484  28.741  33.331  1.00  0.00     0.049 A 
ATOM     64  H   UNL A   1      40.993  30.085  32.680  1.00  0.00     0.167 HD
ATOM     65  C   UNL A   1      42.329  30.407  35.162  1.00  0.00     0.074 A 
ATOM     66  C   UNL A   1      42.707  30.938  36.455  1.00  0.00     0.031 C 
ATOM     67  C   UNL A   1      42.862  29.288  34.611  1.00  0.00     0.037 A 
BRANCH  54  68
ATOM     68  C   UNL A   1      40.463  27.799  29.112  1.00  0.00     0.057 A 
ATOM     69  C   UNL A   1      39.605  26.691  29.091  1.00  0.00     0.134 A 
ATOM     70  C   UNL A   1      41.279  28.002  27.990  1.00  0.00     0.134 A 
ATOM     71  F   UNL A   1      38.805  26.430  30.136  1.00  0.00    -0.206 F 
ATOM     72  C   UNL A   1      39.578  25.808  28.010  1.00  0.00     0.040 A 
ATOM     73  C   UNL A   1      41.237  27.144  26.890  1.00  0.00     0.040 A 
ATOM     74  F   UNL A   1      42.120  29.046  27.939  1.00  0.00    -0.206 F 
ATOM     75  C   UNL A   1      40.390  26.038  26.901  1.00  0.00     0.006 A 
ENDBRANCH  54  68
BRANCH  55  76
ATOM     76  C   UNL A   1      40.233  34.347  36.655  1.00  0.00     0.057 A 
ATOM     77  C   UNL A   1      39.267  34.208  37.659  1.00  0.00     0.134 A 
ATOM     78  C   UNL A   1      41.128  35.418  36.768  1.00  0.00     0.134 A 
ATOM     79  F   UNL A   1      38.369  33.214  37.597  1.00  0.00    -0.206 F 
ATOM     80  C   UNL A   1      39.180  35.110  38.720  1.00  0.00     0.040 A 
ATOM     81  C   UNL A   1      41.072  36.310  37.839  1.00  0.00     0.040 A 
ATOM     82  F   UNL A   1      42.082  35.605  35.844  1.00  0.00    -0.206 F 
ATOM     83  C   UNL A   1      40.088  36.162  38.815  1.00  0.00     0.006 A 
ENDBRANCH  55  76
BRANCH  67  84
ATOM     84  C   UNL A   1      43.959  28.593  35.369  1.00  0.00     0.057 A 
ATOM     85  C   UNL A   1      45.310  28.918  35.197  1.00  0.00     0.134 A 
ATOM     86  C   UNL A   1      43.646  27.618  36.327  1.00  0.00     0.134 A 
ATOM     87  F   UNL A   1      45.680  29.834  34.289  1.00  0.00    -0.206 F 
ATOM     88  C   UNL A   1      46.311  28.281  35.932  1.00  0.00     0.040 A 
ATOM     89  C   UNL A   1      44.636  26.998  37.090  1.00  0.00     0.040 A 
ATOM     90  F   UNL A   1      42.371  27.267  36.551  1.00  0.00    -0.206 F 
ATOM     91  C   UNL A   1      45.974  27.325  36.889  1.00  0.00     0.006 A 
ENDBRANCH  67  84
ENDBRANCH  41  42
ENDBRANCH  34  36
ENDBRANCH  33  34
ENDBRANCH  32  33
ENDBRANCH  31  32
ENDBRANCH  30  31
ENDBRANCH   1  30
TORSDOF 19
ENDMDL
