MODEL 1
REMARK VINA RESULT:      -9.7      0.000      0.000
REMARK SMILES COC(=O)[C@@H]1[C@@H](NC(=O)COCC(=O)OCCOCCOC(=O)c2ccc(-c3c4nc(c(-c5c(F)cccc5F)c5ccc([nH]5)c(-c5c(F)cccc5F)c5nc(c(-c6c(F)cccc6F)c6ccc3[nH]6)C=C5)C=C4)cc2)CCN1C(C)=O
REMARK SMILES IDX 16 1 15 2 13 3 14 4 12 5 11 6 10 7 8 8 7 9 9 11 6 12 5 13
REMARK SMILES IDX 80 14 78 15 79 16 3 17 4 18 2 19 1 20 81 21 82 22 83 23
REMARK SMILES IDX 17 24 18 25 19 26 20 27 21 28 22 29 23 30 24 31 25 32 77 33
REMARK SMILES IDX 26 34 76 35 27 36 28 37 29 38 70 39 30 40 75 41 69 42 71 43
REMARK SMILES IDX 31 44 74 45 68 46 67 47 32 49 58 50 41 51 57 52 42 53 45 54
REMARK SMILES IDX 56 55 72 56 43 57 44 58 55 60 73 61 46 62 33 63 34 64 39 65
REMARK SMILES IDX 35 66 36 67 38 68 40 69 37 70 59 71 60 72 65 73 61 74 62 75
REMARK SMILES IDX 64 76 66 77 63 78 47 79 48 80 53 81 49 82 50 83 52 84 54 85
REMARK SMILES IDX 51 86
REMARK H PARENT 7 10 71 48 45 59
REMARK Flexibility Score: inf
ROOT
ATOM      1  C   UNL A   1      31.213  27.984  22.479  1.00  0.00     0.261 C 
ENDROOT
BRANCH   1   2
ATOM      2  O   UNL A   1      31.725  26.684  22.841  1.00  0.00    -0.462 OA
BRANCH   2   3
ATOM      3  C   UNL A   1      33.049  26.487  22.597  1.00  0.00     0.332 C 
ATOM      4  O   UNL A   1      33.518  26.146  21.516  1.00  0.00    -0.250 OA
BRANCH   3   5
ATOM      5  C   UNL A   1      33.938  26.704  23.833  1.00  0.00     0.283 C 
BRANCH   5   6
ATOM      6  O   UNL A   1      33.483  27.332  25.015  1.00  0.00    -0.360 OA
BRANCH   6   7
ATOM      7  C   UNL A   1      33.363  26.475  26.126  1.00  0.00     0.260 C 
BRANCH   7   8
ATOM      8  C   UNL A   1      32.012  25.797  26.416  1.00  0.00     0.246 C 
ATOM      9  N   UNL A   1      31.943  24.434  26.517  1.00  0.00    -0.349 N 
ATOM     10  H   UNL A   1      31.042  24.052  26.625  1.00  0.00     0.163 HD
ATOM     11  O   UNL A   1      30.984  26.463  26.547  1.00  0.00    -0.272 OA
BRANCH   9  12
ATOM     12  C   UNL A   1      33.045  23.483  26.483  1.00  0.00     0.118 C 
ATOM     13  C   UNL A   1      33.062  22.490  25.295  1.00  0.00     0.217 C 
ATOM     14  N   UNL A   1      33.802  21.339  25.827  1.00  0.00    -0.327 N 
ATOM     15  C   UNL A   1      33.006  22.530  27.683  1.00  0.00     0.049 C 
ATOM     16  C   UNL A   1      33.969  21.428  27.266  1.00  0.00     0.122 C 
BRANCH  13  17
ATOM     17  C   UNL A   1      33.805  23.123  24.119  1.00  0.00     0.330 C 
ATOM     18  O   UNL A   1      34.921  23.622  24.182  1.00  0.00    -0.250 OA
BRANCH  17  19
ATOM     19  O   UNL A   1      32.987  23.156  23.026  1.00  0.00    -0.467 OA
ATOM     20  C   UNL A   1      31.628  22.787  23.265  1.00  0.00     0.282 C 
ENDBRANCH  17  19
ENDBRANCH  13  17
BRANCH  14  21
ATOM     21  C   UNL A   1      34.168  20.297  25.008  1.00  0.00     0.220 C 
ATOM     22  C   UNL A   1      33.054  19.466  24.433  1.00  0.00     0.114 C 
ATOM     23  O   UNL A   1      35.348  19.991  24.841  1.00  0.00    -0.275 OA
ENDBRANCH  14  21
ENDBRANCH   9  12
ENDBRANCH   7   8
ENDBRANCH   6   7
ENDBRANCH   5   6
ENDBRANCH   3   5
ENDBRANCH   2   3
ENDBRANCH   1   2
BRANCH   1  24
ATOM     24  C   UNL A   1      30.053  28.424  23.376  1.00  0.00     0.202 C 
BRANCH  24  25
ATOM     25  O   UNL A   1      30.272  29.602  24.152  1.00  0.00    -0.374 OA
BRANCH  25  26
ATOM     26  C   UNL A   1      31.540  29.725  24.793  1.00  0.00     0.202 C 
BRANCH  26  27
ATOM     27  C   UNL A   1      31.579  30.683  25.995  1.00  0.00     0.261 C 
BRANCH  27  28
ATOM     28  O   UNL A   1      32.673  30.406  26.895  1.00  0.00    -0.460 OA
BRANCH  28  29
ATOM     29  C   UNL A   1      33.354  31.498  27.313  1.00  0.00     0.338 C 
ATOM     30  O   UNL A   1      32.916  32.636  27.461  1.00  0.00    -0.246 OA
BRANCH  29  31
ATOM     31  C   UNL A   1      34.719  31.142  27.734  1.00  0.00     0.060 A 
ATOM     32  C   UNL A   1      34.991  29.792  27.987  1.00  0.00     0.016 A 
ATOM     33  C   UNL A   1      35.680  32.118  28.009  1.00  0.00     0.016 A 
ATOM     34  C   UNL A   1      36.210  29.419  28.557  1.00  0.00     0.010 A 
ATOM     35  C   UNL A   1      36.903  31.741  28.581  1.00  0.00     0.010 A 
ATOM     36  C   UNL A   1      37.160  30.394  28.893  1.00  0.00    -0.014 A 
BRANCH  36  37
ATOM     37  C   UNL A   1      38.352  30.007  29.693  1.00  0.00     0.031 A 
ATOM     38  C   UNL A   1      38.520  30.554  31.085  1.00  0.00     0.074 A 
ATOM     39  C   UNL A   1      39.256  29.137  29.207  1.00  0.00     0.049 A 
ATOM     40  N   UNL A   1      39.465  30.319  31.961  1.00  0.00    -0.248 NA
ATOM     41  C   UNL A   1      37.487  31.492  31.551  1.00  0.00     0.031 C 
ATOM     42  C   UNL A   1      39.205  28.515  27.885  1.00  0.00     0.029 A 
ATOM     43  N   UNL A   1      40.397  28.627  29.776  1.00  0.00    -0.354 N 
ATOM     44  C   UNL A   1      39.139  31.074  33.081  1.00  0.00     0.074 A 
ATOM     45  C   UNL A   1      37.929  31.803  32.761  1.00  0.00     0.031 C 
ATOM     46  C   UNL A   1      40.270  27.708  27.742  1.00  0.00     0.029 A 
ATOM     47  C   UNL A   1      41.088  27.771  28.953  1.00  0.00     0.049 A 
ATOM     48  H   UNL A   1      40.692  28.853  30.688  1.00  0.00     0.167 HD
ATOM     49  C   UNL A   1      39.779  31.146  34.273  1.00  0.00     0.037 A 
ATOM     50  C   UNL A   1      42.251  27.120  29.151  1.00  0.00     0.037 A 
ATOM     51  C   UNL A   1      40.979  30.423  34.602  1.00  0.00     0.049 A 
ATOM     52  C   UNL A   1      42.974  27.258  30.463  1.00  0.00     0.074 A 
ATOM     53  C   UNL A   1      41.677  30.408  35.798  1.00  0.00     0.029 A 
ATOM     54  N   UNL A   1      41.665  29.594  33.729  1.00  0.00    -0.354 N 
ATOM     55  N   UNL A   1      42.629  27.940  31.529  1.00  0.00    -0.248 NA
ATOM     56  C   UNL A   1      44.246  26.533  30.601  1.00  0.00     0.031 C 
ATOM     57  C   UNL A   1      42.809  29.602  35.635  1.00  0.00     0.029 A 
ATOM     58  C   UNL A   1      42.793  29.083  34.351  1.00  0.00     0.049 A 
ATOM     59  H   UNL A   1      41.390  29.396  32.804  1.00  0.00     0.167 HD
ATOM     60  C   UNL A   1      43.628  27.708  32.468  1.00  0.00     0.074 A 
ATOM     61  C   UNL A   1      44.585  26.814  31.852  1.00  0.00     0.031 C 
ATOM     62  C   UNL A   1      43.739  28.194  33.729  1.00  0.00     0.037 A 
BRANCH  49  63
ATOM     63  C   UNL A   1      39.195  32.056  35.313  1.00  0.00     0.057 A 
ATOM     64  C   UNL A   1      39.455  33.433  35.317  1.00  0.00     0.134 A 
ATOM     65  C   UNL A   1      38.337  31.555  36.300  1.00  0.00     0.134 A 
ATOM     66  F   UNL A   1      40.278  33.972  34.406  1.00  0.00    -0.206 F 
ATOM     67  C   UNL A   1      38.898  34.276  36.280  1.00  0.00     0.040 A 
ATOM     68  C   UNL A   1      37.757  32.391  37.254  1.00  0.00     0.040 A 
ATOM     69  F   UNL A   1      38.043  30.246  36.346  1.00  0.00    -0.206 F 
ATOM     70  C   UNL A   1      38.041  33.755  37.249  1.00  0.00     0.006 A 
ENDBRANCH  49  63
BRANCH  50  71
ATOM     71  C   UNL A   1      42.816  26.275  28.069  1.00  0.00     0.057 A 
ATOM     72  C   UNL A   1      43.744  26.786  27.157  1.00  0.00     0.134 A 
ATOM     73  C   UNL A   1      42.423  24.940  27.914  1.00  0.00     0.134 A 
ATOM     74  F   UNL A   1      44.138  28.066  27.240  1.00  0.00    -0.206 F 
ATOM     75  C   UNL A   1      44.254  26.004  26.119  1.00  0.00     0.040 A 
ATOM     76  C   UNL A   1      42.942  24.140  26.895  1.00  0.00     0.040 A 
ATOM     77  F   UNL A   1      41.534  24.393  28.756  1.00  0.00    -0.206 F 
ATOM     78  C   UNL A   1      43.856  24.674  25.991  1.00  0.00     0.006 A 
ENDBRANCH  50  71
BRANCH  62  79
ATOM     79  C   UNL A   1      44.925  27.753  34.536  1.00  0.00     0.057 A 
ATOM     80  C   UNL A   1      46.114  28.492  34.561  1.00  0.00     0.134 A 
ATOM     81  C   UNL A   1      44.862  26.601  35.329  1.00  0.00     0.134 A 
ATOM     82  F   UNL A   1      46.243  29.599  33.815  1.00  0.00    -0.206 F 
ATOM     83  C   UNL A   1      47.205  28.090  35.335  1.00  0.00     0.040 A 
ATOM     84  C   UNL A   1      45.937  26.201  36.123  1.00  0.00     0.040 A 
ATOM     85  F   UNL A   1      43.749  25.852  35.356  1.00  0.00    -0.206 F 
ATOM     86  C   UNL A   1      47.115  26.944  36.124  1.00  0.00     0.006 A 
ENDBRANCH  62  79
ENDBRANCH  36  37
ENDBRANCH  29  31
ENDBRANCH  28  29
ENDBRANCH  27  28
ENDBRANCH  26  27
ENDBRANCH  25  26
ENDBRANCH  24  25
ENDBRANCH   1  24
TORSDOF 21
ENDMDL
MODEL 2
REMARK VINA RESULT:      -9.6      3.851      9.321
REMARK SMILES COC(=O)[C@@H]1[C@@H](NC(=O)COCC(=O)OCCOCCOC(=O)c2ccc(-c3c4nc(c(-c5c(F)cccc5F)c5ccc([nH]5)c(-c5c(F)cccc5F)c5nc(c(-c6c(F)cccc6F)c6ccc3[nH]6)C=C5)C=C4)cc2)CCN1C(C)=O
REMARK SMILES IDX 16 1 15 2 13 3 14 4 12 5 11 6 10 7 8 8 7 9 9 11 6 12 5 13
REMARK SMILES IDX 80 14 78 15 79 16 3 17 4 18 2 19 1 20 81 21 82 22 83 23
REMARK SMILES IDX 17 24 18 25 19 26 20 27 21 28 22 29 23 30 24 31 25 32 77 33
REMARK SMILES IDX 26 34 76 35 27 36 28 37 29 38 70 39 30 40 75 41 69 42 71 43
REMARK SMILES IDX 31 44 74 45 68 46 67 47 32 49 58 50 41 51 57 52 42 53 45 54
REMARK SMILES IDX 56 55 72 56 43 57 44 58 55 60 73 61 46 62 33 63 34 64 39 65
REMARK SMILES IDX 35 66 36 67 38 68 40 69 37 70 59 71 60 72 65 73 61 74 62 75
REMARK SMILES IDX 64 76 66 77 63 78 47 79 48 80 53 81 49 82 50 83 52 84 54 85
REMARK SMILES IDX 51 86
REMARK H PARENT 7 10 71 48 45 59
REMARK Flexibility Score: inf
ROOT
ATOM      1  C   UNL A   1      35.624  20.979  25.511  1.00  0.00     0.261 C 
ENDROOT
BRANCH   1   2
ATOM      2  O   UNL A   1      34.782  20.183  24.651  1.00  0.00    -0.462 OA
BRANCH   2   3
ATOM      3  C   UNL A   1      33.444  20.402  24.775  1.00  0.00     0.332 C 
ATOM      4  O   UNL A   1      32.578  19.842  24.111  1.00  0.00    -0.250 OA
BRANCH   3   5
ATOM      5  C   UNL A   1      33.094  21.465  25.830  1.00  0.00     0.283 C 
BRANCH   5   6
ATOM      6  O   UNL A   1      32.416  22.667  25.524  1.00  0.00    -0.360 OA
BRANCH   6   7
ATOM      7  C   UNL A   1      31.013  22.586  25.605  1.00  0.00     0.260 C 
BRANCH   7   8
ATOM      8  C   UNL A   1      30.266  23.416  26.663  1.00  0.00     0.246 C 
ATOM      9  N   UNL A   1      30.149  24.771  26.507  1.00  0.00    -0.349 N 
ATOM     10  H   UNL A   1      29.730  25.260  27.253  1.00  0.00     0.163 HD
ATOM     11  O   UNL A   1      29.779  22.882  27.660  1.00  0.00    -0.272 OA
BRANCH   9  12
ATOM     12  C   UNL A   1      30.572  25.574  25.368  1.00  0.00     0.118 C 
ATOM     13  C   UNL A   1      31.351  26.872  25.692  1.00  0.00     0.217 C 
ATOM     14  N   UNL A   1      31.075  27.730  24.532  1.00  0.00    -0.327 N 
ATOM     15  C   UNL A   1      29.372  26.119  24.585  1.00  0.00     0.049 C 
ATOM     16  C   UNL A   1      30.003  27.195  23.713  1.00  0.00     0.122 C 
BRANCH  13  17
ATOM     17  C   UNL A   1      32.841  26.554  25.795  1.00  0.00     0.330 C 
ATOM     18  O   UNL A   1      33.660  27.224  26.411  1.00  0.00    -0.250 OA
BRANCH  17  19
ATOM     19  O   UNL A   1      33.137  25.485  24.996  1.00  0.00    -0.467 OA
ATOM     20  C   UNL A   1      34.021  25.760  23.908  1.00  0.00     0.282 C 
ENDBRANCH  17  19
ENDBRANCH  13  17
BRANCH  14  21
ATOM     21  C   UNL A   1      31.728  28.928  24.371  1.00  0.00     0.220 C 
ATOM     22  C   UNL A   1      31.237  30.083  25.202  1.00  0.00     0.114 C 
ATOM     23  O   UNL A   1      32.596  29.080  23.513  1.00  0.00    -0.275 OA
ENDBRANCH  14  21
ENDBRANCH   9  12
ENDBRANCH   7   8
ENDBRANCH   6   7
ENDBRANCH   5   6
ENDBRANCH   3   5
ENDBRANCH   2   3
ENDBRANCH   1   2
BRANCH   1  24
ATOM     24  C   UNL A   1      36.827  21.565  24.767  1.00  0.00     0.202 C 
BRANCH  24  25
ATOM     25  O   UNL A   1      38.114  21.177  25.249  1.00  0.00    -0.374 OA
BRANCH  25  26
ATOM     26  C   UNL A   1      38.494  19.817  25.046  1.00  0.00     0.202 C 
BRANCH  26  27
ATOM     27  C   UNL A   1      39.537  19.272  26.035  1.00  0.00     0.261 C 
BRANCH  27  28
ATOM     28  O   UNL A   1      40.843  19.116  25.440  1.00  0.00    -0.460 OA
BRANCH  28  29
ATOM     29  C   UNL A   1      41.879  19.406  26.261  1.00  0.00     0.338 C 
ATOM     30  O   UNL A   1      42.818  18.672  26.562  1.00  0.00    -0.246 OA
BRANCH  29  31
ATOM     31  C   UNL A   1      41.848  20.818  26.675  1.00  0.00     0.060 A 
ATOM     32  C   UNL A   1      41.809  21.792  25.670  1.00  0.00     0.016 A 
ATOM     33  C   UNL A   1      41.992  21.193  28.013  1.00  0.00     0.016 A 
ATOM     34  C   UNL A   1      41.958  23.141  25.996  1.00  0.00     0.010 A 
ATOM     35  C   UNL A   1      42.140  22.549  28.338  1.00  0.00     0.010 A 
ATOM     36  C   UNL A   1      42.162  23.527  27.328  1.00  0.00    -0.014 A 
BRANCH  36  37
ATOM     37  C   UNL A   1      42.534  24.934  27.631  1.00  0.00     0.031 A 
ATOM     38  C   UNL A   1      43.913  25.427  27.285  1.00  0.00     0.074 A 
ATOM     39  C   UNL A   1      41.639  25.783  28.168  1.00  0.00     0.049 A 
ATOM     40  N   UNL A   1      44.429  26.622  27.433  1.00  0.00    -0.248 NA
ATOM     41  C   UNL A   1      44.833  24.444  26.693  1.00  0.00     0.031 C 
ATOM     42  C   UNL A   1      40.265  25.444  28.534  1.00  0.00     0.029 A 
ATOM     43  N   UNL A   1      41.758  27.111  28.499  1.00  0.00    -0.354 N 
ATOM     44  C   UNL A   1      45.729  26.536  26.950  1.00  0.00     0.074 A 
ATOM     45  C   UNL A   1      45.936  25.163  26.537  1.00  0.00     0.031 C 
ATOM     46  C   UNL A   1      39.668  26.536  29.042  1.00  0.00     0.029 A 
ATOM     47  C   UNL A   1      40.622  27.644  29.055  1.00  0.00     0.049 A 
ATOM     48  H   UNL A   1      42.581  27.632  28.349  1.00  0.00     0.167 HD
ATOM     49  C   UNL A   1      46.663  27.510  26.846  1.00  0.00     0.037 A 
ATOM     50  C   UNL A   1      40.381  28.882  29.529  1.00  0.00     0.037 A 
ATOM     51  C   UNL A   1      46.467  28.878  27.249  1.00  0.00     0.049 A 
ATOM     52  C   UNL A   1      41.453  29.935  29.454  1.00  0.00     0.074 A 
ATOM     53  C   UNL A   1      47.347  29.943  27.148  1.00  0.00     0.029 A 
ATOM     54  N   UNL A   1      45.313  29.369  27.839  1.00  0.00    -0.354 N 
ATOM     55  N   UNL A   1      42.661  29.851  28.954  1.00  0.00    -0.248 NA
ATOM     56  C   UNL A   1      41.125  31.258  30.007  1.00  0.00     0.031 C 
ATOM     57  C   UNL A   1      46.740  31.068  27.716  1.00  0.00     0.029 A 
ATOM     58  C   UNL A   1      45.468  30.714  28.133  1.00  0.00     0.049 A 
ATOM     59  H   UNL A   1      44.503  28.839  28.023  1.00  0.00     0.167 HD
ATOM     60  C   UNL A   1      43.228  31.110  29.111  1.00  0.00     0.074 A 
ATOM     61  C   UNL A   1      42.228  31.944  29.743  1.00  0.00     0.031 C 
ATOM     62  C   UNL A   1      44.467  31.536  28.762  1.00  0.00     0.037 A 
BRANCH  49  63
ATOM     63  C   UNL A   1      47.999  27.127  26.281  1.00  0.00     0.057 A 
ATOM     64  C   UNL A   1      48.263  27.190  24.906  1.00  0.00     0.134 A 
ATOM     65  C   UNL A   1      49.042  26.723  27.123  1.00  0.00     0.134 A 
ATOM     66  F   UNL A   1      47.302  27.558  24.046  1.00  0.00    -0.206 F 
ATOM     67  C   UNL A   1      49.512  26.845  24.388  1.00  0.00     0.040 A 
ATOM     68  C   UNL A   1      50.302  26.397  26.619  1.00  0.00     0.040 A 
ATOM     69  F   UNL A   1      48.855  26.648  28.450  1.00  0.00    -0.206 F 
ATOM     70  C   UNL A   1      50.537  26.452  25.247  1.00  0.00     0.006 A 
ENDBRANCH  49  63
BRANCH  50  71
ATOM     71  C   UNL A   1      39.060  29.197  30.130  1.00  0.00     0.057 A 
ATOM     72  C   UNL A   1      38.803  28.962  31.485  1.00  0.00     0.134 A 
ATOM     73  C   UNL A   1      38.020  29.725  29.355  1.00  0.00     0.134 A 
ATOM     74  F   UNL A   1      39.753  28.434  32.271  1.00  0.00    -0.206 F 
ATOM     75  C   UNL A   1      37.553  29.228  32.047  1.00  0.00     0.040 A 
ATOM     76  C   UNL A   1      36.773  30.016  29.909  1.00  0.00     0.040 A 
ATOM     77  F   UNL A   1      38.205  29.969  28.050  1.00  0.00    -0.206 F 
ATOM     78  C   UNL A   1      36.536  29.762  31.258  1.00  0.00     0.006 A 
ENDBRANCH  50  71
BRANCH  62  79
ATOM     79  C   UNL A   1      44.805  32.972  29.034  1.00  0.00     0.057 A 
ATOM     80  C   UNL A   1      44.452  33.993  28.144  1.00  0.00     0.134 A 
ATOM     81  C   UNL A   1      45.453  33.342  30.219  1.00  0.00     0.134 A 
ATOM     82  F   UNL A   1      43.840  33.704  26.986  1.00  0.00    -0.206 F 
ATOM     83  C   UNL A   1      44.747  35.331  28.415  1.00  0.00     0.040 A 
ATOM     84  C   UNL A   1      45.734  34.677  30.511  1.00  0.00     0.040 A 
ATOM     85  F   UNL A   1      45.813  32.413  31.119  1.00  0.00    -0.206 F 
ATOM     86  C   UNL A   1      45.384  35.676  29.606  1.00  0.00     0.006 A 
ENDBRANCH  62  79
ENDBRANCH  36  37
ENDBRANCH  29  31
ENDBRANCH  28  29
ENDBRANCH  27  28
ENDBRANCH  26  27
ENDBRANCH  25  26
ENDBRANCH  24  25
ENDBRANCH   1  24
TORSDOF 21
ENDMDL
MODEL 3
REMARK VINA RESULT:      -9.6      3.762      8.777
REMARK SMILES COC(=O)[C@@H]1[C@@H](NC(=O)COCC(=O)OCCOCCOC(=O)c2ccc(-c3c4nc(c(-c5c(F)cccc5F)c5ccc([nH]5)c(-c5c(F)cccc5F)c5nc(c(-c6c(F)cccc6F)c6ccc3[nH]6)C=C5)C=C4)cc2)CCN1C(C)=O
REMARK SMILES IDX 16 1 15 2 13 3 14 4 12 5 11 6 10 7 8 8 7 9 9 11 6 12 5 13
REMARK SMILES IDX 80 14 78 15 79 16 3 17 4 18 2 19 1 20 81 21 82 22 83 23
REMARK SMILES IDX 17 24 18 25 19 26 20 27 21 28 22 29 23 30 24 31 25 32 77 33
REMARK SMILES IDX 26 34 76 35 27 36 28 37 29 38 70 39 30 40 75 41 69 42 71 43
REMARK SMILES IDX 31 44 74 45 68 46 67 47 32 49 58 50 41 51 57 52 42 53 45 54
REMARK SMILES IDX 56 55 72 56 43 57 44 58 55 60 73 61 46 62 33 63 34 64 39 65
REMARK SMILES IDX 35 66 36 67 38 68 40 69 37 70 59 71 60 72 65 73 61 74 62 75
REMARK SMILES IDX 64 76 66 77 63 78 47 79 48 80 53 81 49 82 50 83 52 84 54 85
REMARK SMILES IDX 51 86
REMARK H PARENT 7 10 71 48 45 59
REMARK Flexibility Score: inf
ROOT
ATOM      1  C   UNL A   1      34.371  24.757  24.262  1.00  0.00     0.261 C 
ENDROOT
BRANCH   1   2
ATOM      2  O   UNL A   1      34.701  23.992  23.085  1.00  0.00    -0.462 OA
BRANCH   2   3
ATOM      3  C   UNL A   1      33.650  23.665  22.284  1.00  0.00     0.332 C 
ATOM      4  O   UNL A   1      33.295  24.306  21.300  1.00  0.00    -0.250 OA
BRANCH   3   5
ATOM      5  C   UNL A   1      32.900  22.404  22.743  1.00  0.00     0.283 C 
BRANCH   5   6
ATOM      6  O   UNL A   1      31.545  22.411  23.147  1.00  0.00    -0.360 OA
BRANCH   6   7
ATOM      7  C   UNL A   1      30.993  23.695  23.322  1.00  0.00     0.260 C 
BRANCH   7   8
ATOM      8  C   UNL A   1      30.657  24.188  24.741  1.00  0.00     0.246 C 
ATOM      9  N   UNL A   1      29.983  25.367  24.909  1.00  0.00    -0.349 N 
ATOM     10  H   UNL A   1      29.866  25.671  25.839  1.00  0.00     0.163 HD
ATOM     11  O   UNL A   1      30.996  23.542  25.733  1.00  0.00    -0.272 OA
BRANCH   9  12
ATOM     12  C   UNL A   1      29.421  26.225  23.875  1.00  0.00     0.118 C 
ATOM     13  C   UNL A   1      30.144  27.572  23.630  1.00  0.00     0.217 C 
ATOM     14  N   UNL A   1      29.084  28.432  23.089  1.00  0.00    -0.327 N 
ATOM     15  C   UNL A   1      28.007  26.693  24.238  1.00  0.00     0.049 C 
ATOM     16  C   UNL A   1      27.772  27.834  23.257  1.00  0.00     0.122 C 
BRANCH  13  17
ATOM     17  C   UNL A   1      31.258  27.367  22.605  1.00  0.00     0.330 C 
ATOM     18  O   UNL A   1      31.125  26.798  21.529  1.00  0.00    -0.250 OA
BRANCH  17  19
ATOM     19  O   UNL A   1      32.444  27.804  23.125  1.00  0.00    -0.467 OA
ATOM     20  C   UNL A   1      33.499  27.980  22.178  1.00  0.00     0.282 C 
ENDBRANCH  17  19
ENDBRANCH  13  17
BRANCH  14  21
ATOM     21  C   UNL A   1      29.372  29.680  22.593  1.00  0.00     0.220 C 
ATOM     22  C   UNL A   1      29.363  30.818  23.578  1.00  0.00     0.114 C 
ATOM     23  O   UNL A   1      29.524  29.877  21.388  1.00  0.00    -0.275 OA
ENDBRANCH  14  21
ENDBRANCH   9  12
ENDBRANCH   7   8
ENDBRANCH   6   7
ENDBRANCH   5   6
ENDBRANCH   3   5
ENDBRANCH   2   3
ENDBRANCH   1   2
BRANCH   1  24
ATOM     24  C   UNL A   1      34.762  24.036  25.554  1.00  0.00     0.202 C 
BRANCH  24  25
ATOM     25  O   UNL A   1      34.474  22.638  25.605  1.00  0.00    -0.374 OA
BRANCH  25  26
ATOM     26  C   UNL A   1      35.454  21.800  26.215  1.00  0.00     0.202 C 
BRANCH  26  27
ATOM     27  C   UNL A   1      36.376  21.051  25.240  1.00  0.00     0.261 C 
BRANCH  27  28
ATOM     28  O   UNL A   1      37.594  21.771  24.958  1.00  0.00    -0.460 OA
BRANCH  28  29
ATOM     29  C   UNL A   1      38.645  21.438  25.744  1.00  0.00     0.338 C 
ATOM     30  O   UNL A   1      39.205  20.347  25.814  1.00  0.00    -0.246 OA
BRANCH  29  31
ATOM     31  C   UNL A   1      39.174  22.618  26.449  1.00  0.00     0.060 A 
ATOM     32  C   UNL A   1      38.620  23.865  26.137  1.00  0.00     0.016 A 
ATOM     33  C   UNL A   1      40.282  22.530  27.295  1.00  0.00     0.016 A 
ATOM     34  C   UNL A   1      39.199  25.033  26.638  1.00  0.00     0.010 A 
ATOM     35  C   UNL A   1      40.862  23.704  27.797  1.00  0.00     0.010 A 
ATOM     36  C   UNL A   1      40.346  24.963  27.441  1.00  0.00    -0.014 A 
BRANCH  36  37
ATOM     37  C   UNL A   1      41.074  26.214  27.784  1.00  0.00     0.031 A 
ATOM     38  C   UNL A   1      42.498  26.391  27.330  1.00  0.00     0.074 A 
ATOM     39  C   UNL A   1      40.461  27.207  28.452  1.00  0.00     0.049 A 
ATOM     40  N   UNL A   1      43.300  27.414  27.491  1.00  0.00    -0.248 NA
ATOM     41  C   UNL A   1      43.098  25.266  26.595  1.00  0.00     0.031 C 
ATOM     42  C   UNL A   1      39.081  27.176  28.934  1.00  0.00     0.029 A 
ATOM     43  N   UNL A   1      40.927  28.438  28.843  1.00  0.00    -0.354 N 
ATOM     44  C   UNL A   1      44.496  27.059  26.878  1.00  0.00     0.074 A 
ATOM     45  C   UNL A   1      44.326  25.712  26.371  1.00  0.00     0.031 C 
ATOM     46  C   UNL A   1      38.812  28.336  29.559  1.00  0.00     0.029 A 
ATOM     47  C   UNL A   1      40.005  29.181  29.539  1.00  0.00     0.049 A 
ATOM     48  H   UNL A   1      41.837  28.759  28.642  1.00  0.00     0.167 HD
ATOM     49  C   UNL A   1      45.627  27.788  26.736  1.00  0.00     0.037 A 
ATOM     50  C   UNL A   1      40.114  30.400  30.103  1.00  0.00     0.037 A 
ATOM     51  C   UNL A   1      45.804  29.128  27.232  1.00  0.00     0.049 A 
ATOM     52  C   UNL A   1      41.400  31.171  29.980  1.00  0.00     0.074 A 
ATOM     53  C   UNL A   1      46.906  29.957  27.103  1.00  0.00     0.029 A 
ATOM     54  N   UNL A   1      44.858  29.831  27.960  1.00  0.00    -0.354 N 
ATOM     55  N   UNL A   1      42.506  30.841  29.358  1.00  0.00    -0.248 NA
ATOM     56  C   UNL A   1      41.452  32.487  30.636  1.00  0.00     0.031 C 
ATOM     57  C   UNL A   1      46.641  31.147  27.790  1.00  0.00     0.029 A 
ATOM     58  C   UNL A   1      45.360  31.074  28.312  1.00  0.00     0.049 A 
ATOM     59  H   UNL A   1      43.961  29.497  28.194  1.00  0.00     0.167 HD
ATOM     60  C   UNL A   1      43.373  31.913  29.528  1.00  0.00     0.074 A 
ATOM     61  C   UNL A   1      42.663  32.910  30.301  1.00  0.00     0.031 C 
ATOM     62  C   UNL A   1      44.645  32.059  29.081  1.00  0.00     0.037 A 
BRANCH  49  63
ATOM     63  C   UNL A   1      46.777  27.144  26.020  1.00  0.00     0.057 A 
ATOM     64  C   UNL A   1      46.940  27.260  24.633  1.00  0.00     0.134 A 
ATOM     65  C   UNL A   1      47.750  26.429  26.729  1.00  0.00     0.134 A 
ATOM     66  F   UNL A   1      46.036  27.922  23.896  1.00  0.00    -0.206 F 
ATOM     67  C   UNL A   1      48.020  26.668  23.975  1.00  0.00     0.040 A 
ATOM     68  C   UNL A   1      48.846  25.853  26.086  1.00  0.00     0.040 A 
ATOM     69  F   UNL A   1      47.655  26.287  28.060  1.00  0.00    -0.206 F 
ATOM     70  C   UNL A   1      48.979  25.968  24.704  1.00  0.00     0.006 A 
ENDBRANCH  49  63
BRANCH  50  71
ATOM     71  C   UNL A   1      38.965  30.972  30.849  1.00  0.00     0.057 A 
ATOM     72  C   UNL A   1      38.012  31.775  30.213  1.00  0.00     0.134 A 
ATOM     73  C   UNL A   1      38.806  30.743  32.221  1.00  0.00     0.134 A 
ATOM     74  F   UNL A   1      38.126  32.051  28.905  1.00  0.00    -0.206 F 
ATOM     75  C   UNL A   1      36.947  32.340  30.917  1.00  0.00     0.040 A 
ATOM     76  C   UNL A   1      37.735  31.283  32.932  1.00  0.00     0.040 A 
ATOM     77  F   UNL A   1      39.689  29.984  32.887  1.00  0.00    -0.206 F 
ATOM     78  C   UNL A   1      36.805  32.089  32.280  1.00  0.00     0.006 A 
ENDBRANCH  50  71
BRANCH  62  79
ATOM     79  C   UNL A   1      45.345  33.348  29.398  1.00  0.00     0.057 A 
ATOM     80  C   UNL A   1      46.133  33.495  30.546  1.00  0.00     0.134 A 
ATOM     81  C   UNL A   1      45.265  34.438  28.523  1.00  0.00     0.134 A 
ATOM     82  F   UNL A   1      46.241  32.492  31.430  1.00  0.00    -0.206 F 
ATOM     83  C   UNL A   1      46.803  34.689  30.821  1.00  0.00     0.040 A 
ATOM     84  C   UNL A   1      45.947  35.628  28.776  1.00  0.00     0.040 A 
ATOM     85  F   UNL A   1      44.533  34.360  27.401  1.00  0.00    -0.206 F 
ATOM     86  C   UNL A   1      46.716  35.758  29.931  1.00  0.00     0.006 A 
ENDBRANCH  62  79
ENDBRANCH  36  37
ENDBRANCH  29  31
ENDBRANCH  28  29
ENDBRANCH  27  28
ENDBRANCH  26  27
ENDBRANCH  25  26
ENDBRANCH  24  25
ENDBRANCH   1  24
TORSDOF 21
ENDMDL
