MODEL 1
REMARK VINA RESULT:      -9.6      0.000      0.000
REMARK SMILES C=CCN(CC(=O)OCCOCCOC(=O)c1ccc(-c2c3nc(c(-c4c(F)cccc4F)c4ccc([nH]4)c(-c4c(F)cccc4F)c4nc(c(-c5c(F)cccc5F)c5ccc2[nH]5)C=C4)C=C3)cc1)C(=O)N1CCC(CC)(CC)C1
REMARK SMILES IDX 10 1 9 2 8 3 6 4 7 5 5 6 4 7 3 8 2 9 1 10 71 11 72 12 73 13
REMARK SMILES IDX 74 14 81 15 75 16 76 17 77 18 78 19 79 20 80 21 11 22 12 23
REMARK SMILES IDX 13 24 14 25 15 26 16 27 17 28 18 29 70 30 19 31 69 32 20 33
REMARK SMILES IDX 21 34 22 35 63 36 23 37 68 38 62 39 64 40 24 41 67 42 61 43
REMARK SMILES IDX 60 44 25 46 51 47 34 48 50 49 35 50 38 51 49 52 65 53 36 54
REMARK SMILES IDX 37 55 48 57 66 58 39 59 26 60 27 61 32 62 28 63 29 64 31 65
REMARK SMILES IDX 33 66 30 67 52 68 53 69 58 70 54 71 55 72 57 73 59 74 56 75
REMARK SMILES IDX 40 76 41 77 46 78 42 79 43 80 45 81 47 82 44 83
REMARK H PARENT 64 45 38 56
REMARK Flexibility Score: inf
ROOT
ATOM      1  C   UNL A   1      38.418  23.004  26.128  1.00  0.00     0.202 C 
ENDROOT
BRANCH   1   2
ATOM      2  C   UNL A   1      37.175  22.721  25.275  1.00  0.00     0.261 C 
BRANCH   2   3
ATOM      3  O   UNL A   1      35.969  22.622  26.078  1.00  0.00    -0.462 OA
BRANCH   3   4
ATOM      4  C   UNL A   1      35.285  21.451  25.954  1.00  0.00     0.325 C 
ATOM      5  O   UNL A   1      35.717  20.484  25.334  1.00  0.00    -0.250 OA
BRANCH   4   6
ATOM      6  C   UNL A   1      33.881  21.436  26.596  1.00  0.00     0.244 C 
BRANCH   6   7
ATOM      7  N   UNL A   1      32.696  21.943  25.884  1.00  0.00    -0.310 N 
BRANCH   7   8
ATOM      8  C   UNL A   1      32.150  21.030  24.872  1.00  0.00     0.149 C 
BRANCH   8   9
ATOM      9  C   UNL A   1      32.676  21.380  23.504  1.00  0.00    -0.013 C 
ATOM     10  C   UNL A   1      31.924  21.364  22.392  1.00  0.00     0.006 C 
ENDBRANCH   8   9
ENDBRANCH   7   8
BRANCH   7  11
ATOM     11  C   UNL A   1      31.933  23.069  26.189  1.00  0.00     0.320 C 
ATOM     12  O   UNL A   1      30.764  22.944  26.568  1.00  0.00    -0.248 OA
BRANCH  11  13
ATOM     13  N   UNL A   1      32.448  24.344  26.046  1.00  0.00    -0.324 N 
ATOM     14  C   UNL A   1      33.417  24.804  25.092  1.00  0.00     0.122 C 
ATOM     15  C   UNL A   1      31.663  25.495  26.527  1.00  0.00     0.128 C 
ATOM     16  C   UNL A   1      33.634  26.266  25.350  1.00  0.00     0.030 C 
ATOM     17  C   UNL A   1      32.309  26.785  25.933  1.00  0.00    -0.011 C 
BRANCH  17  18
ATOM     18  C   UNL A   1      32.657  27.817  27.043  1.00  0.00     0.005 C 
ATOM     19  C   UNL A   1      31.813  29.096  26.986  1.00  0.00     0.004 C 
ENDBRANCH  17  18
BRANCH  17  20
ATOM     20  C   UNL A   1      31.393  27.518  24.902  1.00  0.00     0.005 C 
ATOM     21  C   UNL A   1      30.178  26.814  24.336  1.00  0.00     0.004 C 
ENDBRANCH  17  20
ENDBRANCH  11  13
ENDBRANCH   7  11
ENDBRANCH   6   7
ENDBRANCH   4   6
ENDBRANCH   3   4
ENDBRANCH   2   3
ENDBRANCH   1   2
BRANCH   1  22
ATOM     22  O   UNL A   1      39.439  22.010  26.126  1.00  0.00    -0.374 OA
BRANCH  22  23
ATOM     23  C   UNL A   1      39.106  20.735  25.596  1.00  0.00     0.202 C 
BRANCH  23  24
ATOM     24  C   UNL A   1      39.964  19.529  26.031  1.00  0.00     0.261 C 
BRANCH  24  25
ATOM     25  O   UNL A   1      41.155  19.363  25.305  1.00  0.00    -0.460 OA
BRANCH  25  26
ATOM     26  C   UNL A   1      42.243  19.121  26.058  1.00  0.00     0.338 C 
ATOM     27  O   UNL A   1      42.890  18.101  26.174  1.00  0.00    -0.246 OA
BRANCH  26  28
ATOM     28  C   UNL A   1      42.606  20.471  26.467  1.00  0.00     0.060 A 
ATOM     29  C   UNL A   1      42.862  21.395  25.455  1.00  0.00     0.016 A 
ATOM     30  C   UNL A   1      42.432  20.848  27.805  1.00  0.00     0.016 A 
ATOM     31  C   UNL A   1      42.977  22.732  25.792  1.00  0.00     0.010 A 
ATOM     32  C   UNL A   1      42.529  22.185  28.137  1.00  0.00     0.010 A 
ATOM     33  C   UNL A   1      42.828  23.118  27.132  1.00  0.00    -0.014 A 
BRANCH  33  34
ATOM     34  C   UNL A   1      43.159  24.494  27.515  1.00  0.00     0.031 A 
ATOM     35  C   UNL A   1      44.600  24.890  27.467  1.00  0.00     0.074 A 
ATOM     36  C   UNL A   1      42.182  25.346  27.862  1.00  0.00     0.049 A 
ATOM     37  N   UNL A   1      45.149  26.039  27.746  1.00  0.00    -0.248 NA
ATOM     38  C   UNL A   1      45.556  23.845  27.054  1.00  0.00     0.031 C 
ATOM     39  C   UNL A   1      40.756  25.022  27.916  1.00  0.00     0.029 A 
ATOM     40  N   UNL A   1      42.246  26.659  28.234  1.00  0.00    -0.354 N 
ATOM     41  C   UNL A   1      46.509  25.856  27.535  1.00  0.00     0.074 A 
ATOM     42  C   UNL A   1      46.712  24.478  27.156  1.00  0.00     0.031 C 
ATOM     43  C   UNL A   1      40.076  26.117  28.297  1.00  0.00     0.029 A 
ATOM     44  C   UNL A   1      41.024  27.201  28.540  1.00  0.00     0.049 A 
ATOM     45  H   UNL A   1      43.089  27.168  28.278  1.00  0.00     0.167 HD
ATOM     46  C   UNL A   1      47.494  26.775  27.636  1.00  0.00     0.037 A 
ATOM     47  C   UNL A   1      40.725  28.436  28.979  1.00  0.00     0.037 A 
ATOM     48  C   UNL A   1      47.259  28.135  28.028  1.00  0.00     0.049 A 
ATOM     49  C   UNL A   1      41.853  29.421  29.144  1.00  0.00     0.074 A 
ATOM     50  C   UNL A   1      48.169  29.165  28.164  1.00  0.00     0.029 A 
ATOM     51  N   UNL A   1      46.011  28.649  28.360  1.00  0.00    -0.354 N 
ATOM     52  N   UNL A   1      43.134  29.259  28.905  1.00  0.00    -0.248 NA
ATOM     53  C   UNL A   1      41.497  30.758  29.633  1.00  0.00     0.031 C 
ATOM     54  C   UNL A   1      47.481  30.289  28.629  1.00  0.00     0.029 A 
ATOM     55  C   UNL A   1      46.132  29.977  28.727  1.00  0.00     0.049 A 
ATOM     56  H   UNL A   1      45.168  28.143  28.338  1.00  0.00     0.167 HD
ATOM     57  C   UNL A   1      43.734  30.478  29.192  1.00  0.00     0.074 A 
ATOM     58  C   UNL A   1      42.670  31.374  29.602  1.00  0.00     0.031 C 
ATOM     59  C   UNL A   1      45.042  30.831  29.127  1.00  0.00     0.037 A 
BRANCH  46  60
ATOM     60  C   UNL A   1      48.892  26.321  27.344  1.00  0.00     0.057 A 
ATOM     61  C   UNL A   1      49.745  25.846  28.350  1.00  0.00     0.134 A 
ATOM     62  C   UNL A   1      49.394  26.357  26.038  1.00  0.00     0.134 A 
ATOM     63  F   UNL A   1      49.336  25.812  29.629  1.00  0.00    -0.206 F 
ATOM     64  C   UNL A   1      51.050  25.439  28.070  1.00  0.00     0.040 A 
ATOM     65  C   UNL A   1      50.688  25.927  25.740  1.00  0.00     0.040 A 
ATOM     66  F   UNL A   1      48.635  26.810  25.029  1.00  0.00    -0.206 F 
ATOM     67  C   UNL A   1      51.522  25.471  26.760  1.00  0.00     0.006 A 
ENDBRANCH  46  60
BRANCH  47  68
ATOM     68  C   UNL A   1      39.321  28.804  29.293  1.00  0.00     0.057 A 
ATOM     69  C   UNL A   1      38.782  28.601  30.569  1.00  0.00     0.134 A 
ATOM     70  C   UNL A   1      38.478  29.356  28.321  1.00  0.00     0.134 A 
ATOM     71  F   UNL A   1      39.533  28.062  31.541  1.00  0.00    -0.206 F 
ATOM     72  C   UNL A   1      37.452  28.909  30.859  1.00  0.00     0.040 A 
ATOM     73  C   UNL A   1      37.154  29.696  28.606  1.00  0.00     0.040 A 
ATOM     74  F   UNL A   1      38.933  29.586  27.080  1.00  0.00    -0.206 F 
ATOM     75  C   UNL A   1      36.634  29.463  29.876  1.00  0.00     0.006 A 
ENDBRANCH  47  68
BRANCH  59  76
ATOM     76  C   UNL A   1      45.378  32.249  29.483  1.00  0.00     0.057 A 
ATOM     77  C   UNL A   1      45.341  33.277  28.533  1.00  0.00     0.134 A 
ATOM     78  C   UNL A   1      45.698  32.593  30.802  1.00  0.00     0.134 A 
ATOM     79  F   UNL A   1      45.052  33.007  27.250  1.00  0.00    -0.206 F 
ATOM     80  C   UNL A   1      45.638  34.595  28.877  1.00  0.00     0.040 A 
ATOM     81  C   UNL A   1      45.965  33.913  31.166  1.00  0.00     0.040 A 
ATOM     82  F   UNL A   1      45.737  31.656  31.761  1.00  0.00    -0.206 F 
ATOM     83  C   UNL A   1      45.942  34.917  30.199  1.00  0.00     0.006 A 
ENDBRANCH  59  76
ENDBRANCH  33  34
ENDBRANCH  26  28
ENDBRANCH  25  26
ENDBRANCH  24  25
ENDBRANCH  23  24
ENDBRANCH  22  23
ENDBRANCH   1  22
TORSDOF 21
ENDMDL
MODEL 2
REMARK VINA RESULT:      -9.5      4.898      9.921
REMARK SMILES C=CCN(CC(=O)OCCOCCOC(=O)c1ccc(-c2c3nc(c(-c4c(F)cccc4F)c4ccc([nH]4)c(-c4c(F)cccc4F)c4nc(c(-c5c(F)cccc5F)c5ccc2[nH]5)C=C4)C=C3)cc1)C(=O)N1CCC(CC)(CC)C1
REMARK SMILES IDX 10 1 9 2 8 3 6 4 7 5 5 6 4 7 3 8 2 9 1 10 71 11 72 12 73 13
REMARK SMILES IDX 74 14 81 15 75 16 76 17 77 18 78 19 79 20 80 21 11 22 12 23
REMARK SMILES IDX 13 24 14 25 15 26 16 27 17 28 18 29 70 30 19 31 69 32 20 33
REMARK SMILES IDX 21 34 22 35 63 36 23 37 68 38 62 39 64 40 24 41 67 42 61 43
REMARK SMILES IDX 60 44 25 46 51 47 34 48 50 49 35 50 38 51 49 52 65 53 36 54
REMARK SMILES IDX 37 55 48 57 66 58 39 59 26 60 27 61 32 62 28 63 29 64 31 65
REMARK SMILES IDX 33 66 30 67 52 68 53 69 58 70 54 71 55 72 57 73 59 74 56 75
REMARK SMILES IDX 40 76 41 77 46 78 42 79 43 80 45 81 47 82 44 83
REMARK H PARENT 64 45 38 56
REMARK Flexibility Score: inf
ROOT
ATOM      1  C   UNL A   1      33.603  29.863  26.659  1.00  0.00     0.202 C 
ENDROOT
BRANCH   1   2
ATOM      2  C   UNL A   1      32.639  29.157  25.697  1.00  0.00     0.261 C 
BRANCH   2   3
ATOM      3  O   UNL A   1      32.863  27.724  25.650  1.00  0.00    -0.462 OA
BRANCH   3   4
ATOM      4  C   UNL A   1      31.736  26.965  25.551  1.00  0.00     0.325 C 
ATOM      5  O   UNL A   1      31.036  26.674  26.517  1.00  0.00    -0.250 OA
BRANCH   4   6
ATOM      6  C   UNL A   1      31.423  26.428  24.137  1.00  0.00     0.244 C 
BRANCH   6   7
ATOM      7  N   UNL A   1      31.987  25.161  23.645  1.00  0.00    -0.310 N 
BRANCH   7   8
ATOM      8  C   UNL A   1      31.020  24.062  23.529  1.00  0.00     0.149 C 
BRANCH   8   9
ATOM      9  C   UNL A   1      31.256  23.033  24.605  1.00  0.00    -0.013 C 
ATOM     10  C   UNL A   1      30.802  23.154  25.862  1.00  0.00     0.006 C 
ENDBRANCH   8   9
ENDBRANCH   7   8
BRANCH   7  11
ATOM     11  C   UNL A   1      33.251  24.942  23.100  1.00  0.00     0.320 C 
ATOM     12  O   UNL A   1      33.474  25.220  21.917  1.00  0.00    -0.248 OA
BRANCH  11  13
ATOM     13  N   UNL A   1      34.269  24.386  23.851  1.00  0.00    -0.324 N 
ATOM     14  C   UNL A   1      34.614  24.664  25.216  1.00  0.00     0.122 C 
ATOM     15  C   UNL A   1      34.789  23.056  23.486  1.00  0.00     0.128 C 
ATOM     16  C   UNL A   1      35.788  23.797  25.564  1.00  0.00     0.030 C 
ATOM     17  C   UNL A   1      35.654  22.546  24.679  1.00  0.00    -0.011 C 
BRANCH  17  18
ATOM     18  C   UNL A   1      37.084  22.140  24.220  1.00  0.00     0.005 C 
ATOM     19  C   UNL A   1      37.572  20.814  24.813  1.00  0.00     0.004 C 
ENDBRANCH  17  18
BRANCH  17  20
ATOM     20  C   UNL A   1      35.041  21.305  25.405  1.00  0.00     0.005 C 
ATOM     21  C   UNL A   1      33.896  20.546  24.766  1.00  0.00     0.004 C 
ENDBRANCH  17  20
ENDBRANCH  11  13
ENDBRANCH   7  11
ENDBRANCH   6   7
ENDBRANCH   4   6
ENDBRANCH   3   4
ENDBRANCH   2   3
ENDBRANCH   1   2
BRANCH   1  22
ATOM     22  O   UNL A   1      33.064  30.916  27.453  1.00  0.00    -0.374 OA
BRANCH  22  23
ATOM     23  C   UNL A   1      32.010  31.683  26.889  1.00  0.00     0.202 C 
BRANCH  23  24
ATOM     24  C   UNL A   1      31.896  33.164  27.306  1.00  0.00     0.261 C 
BRANCH  24  25
ATOM     25  O   UNL A   1      33.119  33.850  27.380  1.00  0.00    -0.460 OA
BRANCH  25  26
ATOM     26  C   UNL A   1      33.349  34.462  28.556  1.00  0.00     0.338 C 
ATOM     27  O   UNL A   1      32.666  35.268  29.153  1.00  0.00    -0.246 OA
BRANCH  26  28
ATOM     28  C   UNL A   1      34.479  33.691  29.055  1.00  0.00     0.060 A 
ATOM     29  C   UNL A   1      35.755  34.129  28.700  1.00  0.00     0.016 A 
ATOM     30  C   UNL A   1      34.263  32.733  30.053  1.00  0.00     0.016 A 
ATOM     31  C   UNL A   1      36.848  33.573  29.340  1.00  0.00     0.010 A 
ATOM     32  C   UNL A   1      35.354  32.191  30.704  1.00  0.00     0.010 A 
ATOM     33  C   UNL A   1      36.644  32.594  30.325  1.00  0.00    -0.014 A 
BRANCH  33  34
ATOM     34  C   UNL A   1      37.800  31.859  30.845  1.00  0.00     0.031 A 
ATOM     35  C   UNL A   1      38.251  32.186  32.233  1.00  0.00     0.074 A 
ATOM     36  C   UNL A   1      38.391  30.919  30.092  1.00  0.00     0.049 A 
ATOM     37  N   UNL A   1      39.234  31.677  32.922  1.00  0.00    -0.248 NA
ATOM     38  C   UNL A   1      37.494  33.235  32.941  1.00  0.00     0.031 C 
ATOM     39  C   UNL A   1      37.989  30.547  28.734  1.00  0.00     0.029 A 
ATOM     40  N   UNL A   1      39.454  30.107  30.366  1.00  0.00    -0.354 N 
ATOM     41  C   UNL A   1      39.207  32.337  34.142  1.00  0.00     0.074 A 
ATOM     42  C   UNL A   1      38.148  33.318  34.086  1.00  0.00     0.031 C 
ATOM     43  C   UNL A   1      38.800  29.570  28.293  1.00  0.00     0.029 A 
ATOM     44  C   UNL A   1      39.789  29.276  29.327  1.00  0.00     0.049 A 
ATOM     45  H   UNL A   1      39.935  30.117  31.225  1.00  0.00     0.167 HD
ATOM     46  C   UNL A   1      39.995  32.123  35.219  1.00  0.00     0.037 A 
ATOM     47  C   UNL A   1      40.796  28.388  29.235  1.00  0.00     0.037 A 
ATOM     48  C   UNL A   1      41.047  31.147  35.237  1.00  0.00     0.049 A 
ATOM     49  C   UNL A   1      41.698  28.217  30.429  1.00  0.00     0.074 A 
ATOM     50  C   UNL A   1      41.912  30.829  36.265  1.00  0.00     0.029 A 
ATOM     51  N   UNL A   1      41.382  30.338  34.158  1.00  0.00    -0.354 N 
ATOM     52  N   UNL A   1      41.646  28.813  31.598  1.00  0.00    -0.248 NA
ATOM     53  C   UNL A   1      42.793  27.249  30.296  1.00  0.00     0.031 C 
ATOM     54  C   UNL A   1      42.806  29.864  35.791  1.00  0.00     0.029 A 
ATOM     55  C   UNL A   1      42.460  29.537  34.488  1.00  0.00     0.049 A 
ATOM     56  H   UNL A   1      40.920  30.335  33.290  1.00  0.00     0.167 HD
ATOM     57  C   UNL A   1      42.685  28.277  32.348  1.00  0.00     0.074 A 
ATOM     58  C   UNL A   1      43.335  27.292  31.505  1.00  0.00     0.031 C 
ATOM     59  C   UNL A   1      43.074  28.568  33.614  1.00  0.00     0.037 A 
BRANCH  46  60
ATOM     60  C   UNL A   1      39.753  32.973  36.430  1.00  0.00     0.057 A 
ATOM     61  C   UNL A   1      40.432  34.181  36.637  1.00  0.00     0.134 A 
ATOM     62  C   UNL A   1      38.827  32.579  37.403  1.00  0.00     0.134 A 
ATOM     63  F   UNL A   1      41.354  34.603  35.756  1.00  0.00    -0.206 F 
ATOM     64  C   UNL A   1      40.211  34.958  37.775  1.00  0.00     0.040 A 
ATOM     65  C   UNL A   1      38.577  33.360  38.532  1.00  0.00     0.040 A 
ATOM     66  F   UNL A   1      38.151  31.428  37.273  1.00  0.00    -0.206 F 
ATOM     67  C   UNL A   1      39.275  34.552  38.722  1.00  0.00     0.006 A 
ENDBRANCH  46  60
BRANCH  47  68
ATOM     68  C   UNL A   1      41.004  27.613  27.987  1.00  0.00     0.057 A 
ATOM     69  C   UNL A   1      40.439  26.344  27.814  1.00  0.00     0.134 A 
ATOM     70  C   UNL A   1      41.785  28.116  26.939  1.00  0.00     0.134 A 
ATOM     71  F   UNL A   1      39.694  25.799  28.786  1.00  0.00    -0.206 F 
ATOM     72  C   UNL A   1      40.663  25.594  26.657  1.00  0.00     0.040 A 
ATOM     73  C   UNL A   1      41.994  27.389  25.765  1.00  0.00     0.040 A 
ATOM     74  F   UNL A   1      42.348  29.330  27.035  1.00  0.00    -0.206 F 
ATOM     75  C   UNL A   1      41.439  26.120  25.626  1.00  0.00     0.006 A 
ENDBRANCH  47  68
BRANCH  59  76
ATOM     76  C   UNL A   1      44.234  27.791  34.162  1.00  0.00     0.057 A 
ATOM     77  C   UNL A   1      45.545  28.279  34.097  1.00  0.00     0.134 A 
ATOM     78  C   UNL A   1      44.028  26.562  34.800  1.00  0.00     0.134 A 
ATOM     79  F   UNL A   1      45.808  29.445  33.487  1.00  0.00    -0.206 F 
ATOM     80  C   UNL A   1      46.615  27.557  34.625  1.00  0.00     0.040 A 
ATOM     81  C   UNL A   1      45.085  25.846  35.362  1.00  0.00     0.040 A 
ATOM     82  F   UNL A   1      42.793  26.048  34.906  1.00  0.00    -0.206 F 
ATOM     83  C   UNL A   1      46.385  26.341  35.268  1.00  0.00     0.006 A 
ENDBRANCH  59  76
ENDBRANCH  33  34
ENDBRANCH  26  28
ENDBRANCH  25  26
ENDBRANCH  24  25
ENDBRANCH  23  24
ENDBRANCH  22  23
ENDBRANCH   1  22
TORSDOF 21
ENDMDL
MODEL 3
REMARK VINA RESULT:      -9.4      4.819      9.015
REMARK SMILES C=CCN(CC(=O)OCCOCCOC(=O)c1ccc(-c2c3nc(c(-c4c(F)cccc4F)c4ccc([nH]4)c(-c4c(F)cccc4F)c4nc(c(-c5c(F)cccc5F)c5ccc2[nH]5)C=C4)C=C3)cc1)C(=O)N1CCC(CC)(CC)C1
REMARK SMILES IDX 10 1 9 2 8 3 6 4 7 5 5 6 4 7 3 8 2 9 1 10 71 11 72 12 73 13
REMARK SMILES IDX 74 14 81 15 75 16 76 17 77 18 78 19 79 20 80 21 11 22 12 23
REMARK SMILES IDX 13 24 14 25 15 26 16 27 17 28 18 29 70 30 19 31 69 32 20 33
REMARK SMILES IDX 21 34 22 35 63 36 23 37 68 38 62 39 64 40 24 41 67 42 61 43
REMARK SMILES IDX 60 44 25 46 51 47 34 48 50 49 35 50 38 51 49 52 65 53 36 54
REMARK SMILES IDX 37 55 48 57 66 58 39 59 26 60 27 61 32 62 28 63 29 64 31 65
REMARK SMILES IDX 33 66 30 67 52 68 53 69 58 70 54 71 55 72 57 73 59 74 56 75
REMARK SMILES IDX 40 76 41 77 46 78 42 79 43 80 45 81 47 82 44 83
REMARK H PARENT 64 45 38 56
REMARK Flexibility Score: inf
ROOT
ATOM      1  C   UNL A   1      32.725  29.672  25.292  1.00  0.00     0.202 C 
ENDROOT
BRANCH   1   2
ATOM      2  C   UNL A   1      33.774  28.554  25.352  1.00  0.00     0.261 C 
BRANCH   2   3
ATOM      3  O   UNL A   1      33.398  27.497  26.274  1.00  0.00    -0.462 OA
BRANCH   3   4
ATOM      4  C   UNL A   1      33.153  26.287  25.698  1.00  0.00     0.325 C 
ATOM      5  O   UNL A   1      32.313  25.499  26.124  1.00  0.00    -0.250 OA
BRANCH   4   6
ATOM      6  C   UNL A   1      34.055  25.933  24.496  1.00  0.00     0.244 C 
BRANCH   6   7
ATOM      7  N   UNL A   1      33.505  25.373  23.250  1.00  0.00    -0.310 N 
BRANCH   7   8
ATOM      8  C   UNL A   1      33.253  26.361  22.193  1.00  0.00     0.149 C 
BRANCH   8   9
ATOM      9  C   UNL A   1      31.773  26.526  21.964  1.00  0.00    -0.013 C 
ATOM     10  C   UNL A   1      30.876  26.646  22.956  1.00  0.00     0.006 C 
ENDBRANCH   8   9
ENDBRANCH   7   8
BRANCH   7  11
ATOM     11  C   UNL A   1      33.387  24.032  22.895  1.00  0.00     0.320 C 
ATOM     12  O   UNL A   1      33.605  23.675  21.733  1.00  0.00    -0.248 OA
BRANCH  11  13
ATOM     13  N   UNL A   1      32.998  23.077  23.816  1.00  0.00    -0.324 N 
ATOM     14  C   UNL A   1      31.753  22.367  23.880  1.00  0.00     0.122 C 
ATOM     15  C   UNL A   1      34.029  22.305  24.533  1.00  0.00     0.128 C 
ATOM     16  C   UNL A   1      31.829  21.442  25.060  1.00  0.00     0.030 C 
ATOM     17  C   UNL A   1      33.320  21.099  25.221  1.00  0.00    -0.011 C 
BRANCH  17  18
ATOM     18  C   UNL A   1      33.626  21.045  26.744  1.00  0.00     0.005 C 
ATOM     19  C   UNL A   1      33.684  22.423  27.414  1.00  0.00     0.004 C 
ENDBRANCH  17  18
BRANCH  17  20
ATOM     20  C   UNL A   1      33.731  19.714  24.625  1.00  0.00     0.005 C 
ATOM     21  C   UNL A   1      32.695  18.620  24.474  1.00  0.00     0.004 C 
ENDBRANCH  17  20
ENDBRANCH  11  13
ENDBRANCH   7  11
ENDBRANCH   6   7
ENDBRANCH   4   6
ENDBRANCH   3   4
ENDBRANCH   2   3
ENDBRANCH   1   2
BRANCH   1  22
ATOM     22  O   UNL A   1      32.659  30.552  26.411  1.00  0.00    -0.374 OA
BRANCH  22  23
ATOM     23  C   UNL A   1      31.528  31.405  26.502  1.00  0.00     0.202 C 
BRANCH  23  24
ATOM     24  C   UNL A   1      31.769  32.883  26.876  1.00  0.00     0.261 C 
BRANCH  24  25
ATOM     25  O   UNL A   1      33.108  33.208  27.152  1.00  0.00    -0.460 OA
BRANCH  25  26
ATOM     26  C   UNL A   1      33.273  34.146  28.101  1.00  0.00     0.338 C 
ATOM     27  O   UNL A   1      32.559  35.082  28.394  1.00  0.00    -0.246 OA
BRANCH  26  28
ATOM     28  C   UNL A   1      34.376  33.578  28.866  1.00  0.00     0.060 A 
ATOM     29  C   UNL A   1      34.161  32.337  29.465  1.00  0.00     0.016 A 
ATOM     30  C   UNL A   1      35.648  34.151  28.755  1.00  0.00     0.016 A 
ATOM     31  C   UNL A   1      35.246  31.662  29.995  1.00  0.00     0.010 A 
ATOM     32  C   UNL A   1      36.733  33.467  29.268  1.00  0.00     0.010 A 
ATOM     33  C   UNL A   1      36.523  32.237  29.911  1.00  0.00    -0.014 A 
BRANCH  33  34
ATOM     34  C   UNL A   1      37.627  31.625  30.655  1.00  0.00     0.031 A 
ATOM     35  C   UNL A   1      38.445  30.596  29.942  1.00  0.00     0.074 A 
ATOM     36  C   UNL A   1      37.885  32.014  31.913  1.00  0.00     0.049 A 
ATOM     37  N   UNL A   1      39.473  29.918  30.371  1.00  0.00    -0.248 NA
ATOM     38  C   UNL A   1      38.046  30.282  28.557  1.00  0.00     0.031 C 
ATOM     39  C   UNL A   1      37.129  33.023  32.657  1.00  0.00     0.029 A 
ATOM     40  N   UNL A   1      38.855  31.606  32.783  1.00  0.00    -0.354 N 
ATOM     41  C   UNL A   1      39.846  29.106  29.309  1.00  0.00     0.074 A 
ATOM     42  C   UNL A   1      38.909  29.334  28.233  1.00  0.00     0.031 C 
ATOM     43  C   UNL A   1      37.672  33.157  33.880  1.00  0.00     0.029 A 
ATOM     44  C   UNL A   1      38.789  32.224  34.006  1.00  0.00     0.049 A 
ATOM     45  H   UNL A   1      39.537  30.932  32.555  1.00  0.00     0.167 HD
ATOM     46  C   UNL A   1      40.895  28.258  29.241  1.00  0.00     0.037 A 
ATOM     47  C   UNL A   1      39.549  32.035  35.099  1.00  0.00     0.037 A 
ATOM     48  C   UNL A   1      41.801  28.046  30.334  1.00  0.00     0.049 A 
ATOM     49  C   UNL A   1      40.672  31.035  35.015  1.00  0.00     0.074 A 
ATOM     50  C   UNL A   1      42.905  27.219  30.392  1.00  0.00     0.029 A 
ATOM     51  N   UNL A   1      41.692  28.667  31.572  1.00  0.00    -0.354 N 
ATOM     52  N   UNL A   1      41.049  30.298  33.996  1.00  0.00    -0.248 NA
ATOM     53  C   UNL A   1      41.478  30.843  36.227  1.00  0.00     0.031 C 
ATOM     54  C   UNL A   1      43.434  27.298  31.684  1.00  0.00     0.029 A 
ATOM     55  C   UNL A   1      42.696  28.220  32.413  1.00  0.00     0.049 A 
ATOM     56  H   UNL A   1      41.004  29.326  31.815  1.00  0.00     0.167 HD
ATOM     57  C   UNL A   1      42.149  29.572  34.435  1.00  0.00     0.074 A 
ATOM     58  C   UNL A   1      42.389  29.977  35.806  1.00  0.00     0.031 C 
ATOM     59  C   UNL A   1      42.895  28.654  33.773  1.00  0.00     0.037 A 
BRANCH  46  60
ATOM     60  C   UNL A   1      41.086  27.497  27.964  1.00  0.00     0.057 A 
ATOM     61  C   UNL A   1      41.859  28.000  26.908  1.00  0.00     0.134 A 
ATOM     62  C   UNL A   1      40.490  26.243  27.786  1.00  0.00     0.134 A 
ATOM     63  F   UNL A   1      42.435  29.210  27.003  1.00  0.00    -0.206 F 
ATOM     64  C   UNL A   1      42.019  27.291  25.717  1.00  0.00     0.040 A 
ATOM     65  C   UNL A   1      40.665  25.512  26.611  1.00  0.00     0.040 A 
ATOM     66  F   UNL A   1      39.728  25.709  28.752  1.00  0.00    -0.206 F 
ATOM     67  C   UNL A   1      41.427  26.039  25.570  1.00  0.00     0.006 A 
ENDBRANCH  46  60
BRANCH  47  68
ATOM     68  C   UNL A   1      39.274  32.791  36.346  1.00  0.00     0.057 A 
ATOM     69  C   UNL A   1      38.392  32.301  37.317  1.00  0.00     0.134 A 
ATOM     70  C   UNL A   1      39.876  34.032  36.594  1.00  0.00     0.134 A 
ATOM     71  F   UNL A   1      37.772  31.127  37.134  1.00  0.00    -0.206 F 
ATOM     72  C   UNL A   1      38.101  33.026  38.474  1.00  0.00     0.040 A 
ATOM     73  C   UNL A   1      39.615  34.753  37.760  1.00  0.00     0.040 A 
ATOM     74  F   UNL A   1      40.738  34.555  35.709  1.00  0.00    -0.206 F 
ATOM     75  C   UNL A   1      38.718  34.255  38.701  1.00  0.00     0.006 A 
ENDBRANCH  47  68
BRANCH  59  76
ATOM     76  C   UNL A   1      44.049  28.053  34.520  1.00  0.00     0.057 A 
ATOM     77  C   UNL A   1      43.925  26.850  35.225  1.00  0.00     0.134 A 
ATOM     78  C   UNL A   1      45.308  28.665  34.494  1.00  0.00     0.134 A 
ATOM     79  F   UNL A   1      42.741  26.222  35.298  1.00  0.00    -0.206 F 
ATOM     80  C   UNL A   1      45.008  26.290  35.903  1.00  0.00     0.040 A 
ATOM     81  C   UNL A   1      46.407  28.098  35.138  1.00  0.00     0.040 A 
ATOM     82  F   UNL A   1      45.495  29.812  33.823  1.00  0.00    -0.206 F 
ATOM     83  C   UNL A   1      46.256  26.910  35.852  1.00  0.00     0.006 A 
ENDBRANCH  59  76
ENDBRANCH  33  34
ENDBRANCH  26  28
ENDBRANCH  25  26
ENDBRANCH  24  25
ENDBRANCH  23  24
ENDBRANCH  22  23
ENDBRANCH   1  22
TORSDOF 21
ENDMDL
