MODEL 1
REMARK VINA RESULT:     -10.9      0.000      0.000
REMARK SMILES Cc1nc([C@@H]2C[N@@H+]3CCC[C@@H]3CO2)sc1CC(=O)OCCOCCOC(=O)c1ccc(-c2c3nc(c(-c4c(F)cccc4F)c4ccc([nH]4)c(-c4c(F)cccc4F)c4nc(c(-c5c(F)cccc5F)c5ccc2[nH]5)C=C4)C=C3)cc1
REMARK SMILES IDX 22 1 21 2 20 3 19 4 17 5 18 6 16 7 15 8 1 9 2 10 3 11 4 12
REMARK SMILES IDX 14 13 5 14 6 15 13 16 7 17 12 18 8 19 11 20 9 22 10 23 23 24
REMARK SMILES IDX 24 25 25 26 26 27 27 28 28 29 29 30 81 31 30 32 80 33 31 34
REMARK SMILES IDX 32 35 33 36 74 37 34 38 79 39 73 40 75 41 35 42 78 43 72 44
REMARK SMILES IDX 71 45 36 47 62 48 45 49 61 50 46 51 49 52 60 53 76 54 47 55
REMARK SMILES IDX 48 56 59 58 77 59 50 60 37 61 38 62 43 63 39 64 40 65 42 66
REMARK SMILES IDX 44 67 41 68 63 69 64 70 69 71 65 72 66 73 68 74 70 75 67 76
REMARK SMILES IDX 51 77 52 78 57 79 53 80 54 81 56 82 58 83 55 84
REMARK H PARENT 7 21 75 46 49 57
REMARK Flexibility Score: inf
ROOT
ATOM      1  O   UNL A   1      45.855  21.134  25.648  1.00  0.00    -0.374 OA
ENDROOT
BRANCH   1   2
ATOM      2  C   UNL A   1      45.356  20.470  24.487  1.00  0.00     0.202 C 
BRANCH   2   3
ATOM      3  C   UNL A   1      44.310  19.378  24.731  1.00  0.00     0.261 C 
BRANCH   3   4
ATOM      4  O   UNL A   1      43.093  19.906  25.289  1.00  0.00    -0.463 OA
BRANCH   4   5
ATOM      5  C   UNL A   1      42.368  19.049  26.054  1.00  0.00     0.311 C 
ATOM      6  O   UNL A   1      42.467  17.826  26.004  1.00  0.00    -0.252 OA
BRANCH   5   7
ATOM      7  C   UNL A   1      41.463  19.715  27.069  1.00  0.00     0.171 C 
BRANCH   7   8
ATOM      8  C   UNL A   1      40.323  20.501  26.500  1.00  0.00     0.039 A 
ATOM      9  C   UNL A   1      40.594  22.802  27.640  1.00  0.00     0.068 C 
ATOM     10  C   UNL A   1      39.954  21.814  26.730  1.00  0.00     0.052 A 
ATOM     11  N   UNL A   1      38.864  22.243  26.000  1.00  0.00    -0.243 NA
ATOM     12  C   UNL A   1      38.372  21.268  25.261  1.00  0.00     0.128 A 
ATOM     13  S   UNL A   1      39.302  19.827  25.288  1.00  0.00    -0.120 S 
BRANCH  12  14
ATOM     14  C   UNL A   1      37.133  21.379  24.388  1.00  0.00     0.232 C 
ATOM     15  C   UNL A   1      36.713  22.867  24.211  1.00  0.00     0.302 C 
ATOM     16  O   UNL A   1      36.110  20.523  24.938  1.00  0.00    -0.359 OA
ATOM     17  N   UNL A   1      35.314  23.222  24.484  1.00  0.00    -0.328 N 
ATOM     18  C   UNL A   1      35.403  21.153  26.007  1.00  0.00     0.226 C 
ATOM     19  C   UNL A   1      35.143  24.643  24.822  1.00  0.00     0.262 C 
ATOM     20  C   UNL A   1      34.670  22.411  25.533  1.00  0.00     0.210 C 
ATOM     21  H   UNL A   1      34.848  23.018  23.600  1.00  0.00     0.348 HD
ATOM     22  C   UNL A   1      34.109  24.676  25.937  1.00  0.00     0.068 C 
ATOM     23  C   UNL A   1      34.371  23.378  26.671  1.00  0.00     0.073 C 
ENDBRANCH  12  14
ENDBRANCH   7   8
ENDBRANCH   5   7
ENDBRANCH   4   5
ENDBRANCH   3   4
ENDBRANCH   2   3
ENDBRANCH   1   2
BRANCH   1  24
ATOM     24  C   UNL A   1      45.830  22.563  25.636  1.00  0.00     0.202 C 
BRANCH  24  25
ATOM     25  C   UNL A   1      45.110  23.216  24.449  1.00  0.00     0.261 C 
BRANCH  25  26
ATOM     26  O   UNL A   1      44.171  24.222  24.876  1.00  0.00    -0.460 OA
BRANCH  26  27
ATOM     27  C   UNL A   1      44.727  25.408  25.214  1.00  0.00     0.338 C 
ATOM     28  O   UNL A   1      45.694  25.948  24.692  1.00  0.00    -0.246 OA
BRANCH  27  29
ATOM     29  C   UNL A   1      43.894  26.105  26.209  1.00  0.00     0.060 A 
ATOM     30  C   UNL A   1      44.193  27.449  26.471  1.00  0.00     0.016 A 
ATOM     31  C   UNL A   1      42.911  25.440  26.945  1.00  0.00     0.016 A 
ATOM     32  C   UNL A   1      43.539  28.124  27.501  1.00  0.00     0.010 A 
ATOM     33  C   UNL A   1      42.265  26.117  27.988  1.00  0.00     0.010 A 
ATOM     34  C   UNL A   1      42.597  27.452  28.291  1.00  0.00    -0.014 A 
BRANCH  34  35
ATOM     35  C   UNL A   1      42.045  28.115  29.498  1.00  0.00     0.031 A 
ATOM     36  C   UNL A   1      40.768  28.903  29.391  1.00  0.00     0.074 A 
ATOM     37  C   UNL A   1      42.660  27.995  30.688  1.00  0.00     0.049 A 
ATOM     38  N   UNL A   1      40.137  29.587  30.311  1.00  0.00    -0.248 NA
ATOM     39  C   UNL A   1      40.116  28.919  28.073  1.00  0.00     0.031 C 
ATOM     40  C   UNL A   1      43.878  27.225  30.934  1.00  0.00     0.029 A 
ATOM     41  N   UNL A   1      42.346  28.531  31.913  1.00  0.00    -0.354 N 
ATOM     42  C   UNL A   1      39.016  30.117  29.685  1.00  0.00     0.074 A 
ATOM     43  C   UNL A   1      39.065  29.694  28.302  1.00  0.00     0.031 C 
ATOM     44  C   UNL A   1      44.219  27.353  32.228  1.00  0.00     0.029 A 
ATOM     45  C   UNL A   1      43.263  28.238  32.891  1.00  0.00     0.049 A 
ATOM     46  H   UNL A   1      41.541  29.074  32.072  1.00  0.00     0.167 HD
ATOM     47  C   UNL A   1      38.034  30.885  30.214  1.00  0.00     0.037 A 
ATOM     48  C   UNL A   1      43.338  28.658  34.170  1.00  0.00     0.037 A 
ATOM     49  C   UNL A   1      37.982  31.307  31.590  1.00  0.00     0.049 A 
ATOM     50  C   UNL A   1      42.279  29.579  34.713  1.00  0.00     0.074 A 
ATOM     51  C   UNL A   1      37.007  32.056  32.226  1.00  0.00     0.029 A 
ATOM     52  N   UNL A   1      38.953  31.027  32.538  1.00  0.00    -0.354 N 
ATOM     53  N   UNL A   1      41.208  30.049  34.121  1.00  0.00    -0.248 NA
ATOM     54  C   UNL A   1      42.442  30.032  36.103  1.00  0.00     0.031 C 
ATOM     55  C   UNL A   1      37.413  32.271  33.547  1.00  0.00     0.029 A 
ATOM     56  C   UNL A   1      38.619  31.618  33.745  1.00  0.00     0.049 A 
ATOM     57  H   UNL A   1      39.761  30.487  32.378  1.00  0.00     0.167 HD
ATOM     58  C   UNL A   1      40.562  30.835  35.067  1.00  0.00     0.074 A 
ATOM     59  C   UNL A   1      41.353  30.770  36.278  1.00  0.00     0.031 C 
ATOM     60  C   UNL A   1      39.416  31.548  34.943  1.00  0.00     0.037 A 
BRANCH  47  61
ATOM     61  C   UNL A   1      36.941  31.342  29.297  1.00  0.00     0.057 A 
ATOM     62  C   UNL A   1      35.873  30.507  28.945  1.00  0.00     0.134 A 
ATOM     63  C   UNL A   1      36.932  32.650  28.795  1.00  0.00     0.134 A 
ATOM     64  F   UNL A   1      35.827  29.240  29.386  1.00  0.00    -0.206 F 
ATOM     65  C   UNL A   1      34.843  30.952  28.114  1.00  0.00     0.040 A 
ATOM     66  C   UNL A   1      35.898  33.112  27.979  1.00  0.00     0.040 A 
ATOM     67  F   UNL A   1      37.924  33.502  29.099  1.00  0.00    -0.206 F 
ATOM     68  C   UNL A   1      34.852  32.260  27.633  1.00  0.00     0.006 A 
ENDBRANCH  47  61
BRANCH  48  69
ATOM     69  C   UNL A   1      44.479  28.239  35.020  1.00  0.00     0.057 A 
ATOM     70  C   UNL A   1      45.650  29.001  35.092  1.00  0.00     0.134 A 
ATOM     71  C   UNL A   1      44.434  27.053  35.763  1.00  0.00     0.134 A 
ATOM     72  F   UNL A   1      45.764  30.133  34.381  1.00  0.00    -0.206 F 
ATOM     73  C   UNL A   1      46.739  28.595  35.866  1.00  0.00     0.040 A 
ATOM     74  C   UNL A   1      45.505  26.647  36.558  1.00  0.00     0.040 A 
ATOM     75  F   UNL A   1      43.340  26.277  35.733  1.00  0.00    -0.206 F 
ATOM     76  C   UNL A   1      46.665  27.417  36.605  1.00  0.00     0.006 A 
ENDBRANCH  48  69
BRANCH  60  77
ATOM     77  C   UNL A   1      38.937  32.301  36.148  1.00  0.00     0.057 A 
ATOM     78  C   UNL A   1      38.142  31.691  37.127  1.00  0.00     0.134 A 
ATOM     79  C   UNL A   1      39.315  33.633  36.357  1.00  0.00     0.134 A 
ATOM     80  F   UNL A   1      37.735  30.422  36.978  1.00  0.00    -0.206 F 
ATOM     81  C   UNL A   1      37.728  32.385  38.265  1.00  0.00     0.040 A 
ATOM     82  C   UNL A   1      38.926  34.330  37.503  1.00  0.00     0.040 A 
ATOM     83  F   UNL A   1      40.082  34.272  35.462  1.00  0.00    -0.206 F 
ATOM     84  C   UNL A   1      38.127  33.707  38.459  1.00  0.00     0.006 A 
ENDBRANCH  60  77
ENDBRANCH  34  35
ENDBRANCH  27  29
ENDBRANCH  26  27
ENDBRANCH  25  26
ENDBRANCH  24  25
ENDBRANCH   1  24
TORSDOF 16
ENDMDL
MODEL 2
REMARK VINA RESULT:     -10.8      1.733      6.807
REMARK SMILES Cc1nc([C@@H]2C[N@@H+]3CCC[C@@H]3CO2)sc1CC(=O)OCCOCCOC(=O)c1ccc(-c2c3nc(c(-c4c(F)cccc4F)c4ccc([nH]4)c(-c4c(F)cccc4F)c4nc(c(-c5c(F)cccc5F)c5ccc2[nH]5)C=C4)C=C3)cc1
REMARK SMILES IDX 22 1 21 2 20 3 19 4 17 5 18 6 16 7 15 8 1 9 2 10 3 11 4 12
REMARK SMILES IDX 14 13 5 14 6 15 13 16 7 17 12 18 8 19 11 20 9 22 10 23 23 24
REMARK SMILES IDX 24 25 25 26 26 27 27 28 28 29 29 30 81 31 30 32 80 33 31 34
REMARK SMILES IDX 32 35 33 36 74 37 34 38 79 39 73 40 75 41 35 42 78 43 72 44
REMARK SMILES IDX 71 45 36 47 62 48 45 49 61 50 46 51 49 52 60 53 76 54 47 55
REMARK SMILES IDX 48 56 59 58 77 59 50 60 37 61 38 62 43 63 39 64 40 65 42 66
REMARK SMILES IDX 44 67 41 68 63 69 64 70 69 71 65 72 66 73 68 74 70 75 67 76
REMARK SMILES IDX 51 77 52 78 57 79 53 80 54 81 56 82 58 83 55 84
REMARK H PARENT 7 21 75 46 49 57
REMARK Flexibility Score: inf
ROOT
ATOM      1  O   UNL A   1      42.188  20.601  27.353  1.00  0.00    -0.374 OA
ENDROOT
BRANCH   1   2
ATOM      2  C   UNL A   1      40.808  20.900  27.556  1.00  0.00     0.202 C 
BRANCH   2   3
ATOM      3  C   UNL A   1      39.953  21.041  26.292  1.00  0.00     0.261 C 
BRANCH   3   4
ATOM      4  O   UNL A   1      39.522  22.397  26.076  1.00  0.00    -0.463 OA
BRANCH   4   5
ATOM      5  C   UNL A   1      38.179  22.603  26.086  1.00  0.00     0.311 C 
ATOM      6  O   UNL A   1      37.645  23.655  26.427  1.00  0.00    -0.252 OA
BRANCH   5   7
ATOM      7  C   UNL A   1      37.356  21.449  25.553  1.00  0.00     0.171 C 
BRANCH   7   8
ATOM      8  C   UNL A   1      35.983  21.804  25.072  1.00  0.00     0.039 A 
ATOM      9  C   UNL A   1      36.463  23.080  22.879  1.00  0.00     0.068 C 
ATOM     10  C   UNL A   1      35.597  22.488  23.933  1.00  0.00     0.052 A 
ATOM     11  N   UNL A   1      34.231  22.606  23.768  1.00  0.00    -0.243 NA
ATOM     12  C   UNL A   1      33.580  22.072  24.783  1.00  0.00     0.128 A 
ATOM     13  S   UNL A   1      34.583  21.253  25.908  1.00  0.00    -0.120 S 
BRANCH  12  14
ATOM     14  C   UNL A   1      32.070  22.087  24.952  1.00  0.00     0.232 C 
ATOM     15  C   UNL A   1      31.423  23.167  24.038  1.00  0.00     0.302 C 
ATOM     16  O   UNL A   1      31.771  22.225  26.356  1.00  0.00    -0.359 OA
ATOM     17  N   UNL A   1      30.486  24.116  24.654  1.00  0.00    -0.328 N 
ATOM     18  C   UNL A   1      31.825  23.587  26.784  1.00  0.00     0.226 C 
ATOM     19  C   UNL A   1      30.363  25.370  23.896  1.00  0.00     0.262 C 
ATOM     20  C   UNL A   1      30.785  24.445  26.060  1.00  0.00     0.210 C 
ATOM     21  H   UNL A   1      29.599  23.611  24.633  1.00  0.00     0.348 HD
ATOM     22  C   UNL A   1      30.287  26.472  24.941  1.00  0.00     0.068 C 
ATOM     23  C   UNL A   1      31.142  25.926  26.065  1.00  0.00     0.073 C 
ENDBRANCH  12  14
ENDBRANCH   7   8
ENDBRANCH   5   7
ENDBRANCH   4   5
ENDBRANCH   3   4
ENDBRANCH   2   3
ENDBRANCH   1   2
BRANCH   1  24
ATOM     24  C   UNL A   1      42.607  20.366  26.007  1.00  0.00     0.202 C 
BRANCH  24  25
ATOM     25  C   UNL A   1      43.567  21.402  25.408  1.00  0.00     0.261 C 
BRANCH  25  26
ATOM     26  O   UNL A   1      43.818  22.492  26.315  1.00  0.00    -0.460 OA
BRANCH  26  27
ATOM     27  C   UNL A   1      43.824  23.717  25.739  1.00  0.00     0.338 C 
ATOM     28  O   UNL A   1      44.201  24.003  24.610  1.00  0.00    -0.246 OA
BRANCH  27  29
ATOM     29  C   UNL A   1      43.122  24.693  26.592  1.00  0.00     0.060 A 
ATOM     30  C   UNL A   1      43.634  25.997  26.633  1.00  0.00     0.016 A 
ATOM     31  C   UNL A   1      42.053  24.323  27.410  1.00  0.00     0.016 A 
ATOM     32  C   UNL A   1      43.106  26.928  27.526  1.00  0.00     0.010 A 
ATOM     33  C   UNL A   1      41.533  25.257  28.316  1.00  0.00     0.010 A 
ATOM     34  C   UNL A   1      42.076  26.554  28.400  1.00  0.00    -0.014 A 
BRANCH  34  35
ATOM     35  C   UNL A   1      41.649  27.487  29.472  1.00  0.00     0.031 A 
ATOM     36  C   UNL A   1      42.370  27.479  30.792  1.00  0.00     0.074 A 
ATOM     37  C   UNL A   1      40.643  28.355  29.264  1.00  0.00     0.049 A 
ATOM     38  N   UNL A   1      42.136  28.184  31.869  1.00  0.00    -0.248 NA
ATOM     39  C   UNL A   1      43.510  26.556  30.911  1.00  0.00     0.031 C 
ATOM     40  C   UNL A   1      39.892  28.493  28.017  1.00  0.00     0.029 A 
ATOM     41  N   UNL A   1      40.074  29.279  30.105  1.00  0.00    -0.354 N 
ATOM     42  C   UNL A   1      43.093  27.789  32.795  1.00  0.00     0.074 A 
ATOM     43  C   UNL A   1      43.899  26.768  32.160  1.00  0.00     0.031 C 
ATOM     44  C   UNL A   1      38.948  29.435  28.181  1.00  0.00     0.029 A 
ATOM     45  C   UNL A   1      39.008  29.942  29.551  1.00  0.00     0.049 A 
ATOM     46  H   UNL A   1      40.401  29.449  31.018  1.00  0.00     0.167 HD
ATOM     47  C   UNL A   1      43.285  28.238  34.058  1.00  0.00     0.037 A 
ATOM     48  C   UNL A   1      38.158  30.836  30.095  1.00  0.00     0.037 A 
ATOM     49  C   UNL A   1      42.486  29.255  34.691  1.00  0.00     0.049 A 
ATOM     50  C   UNL A   1      38.341  31.259  31.528  1.00  0.00     0.074 A 
ATOM     51  C   UNL A   1      42.629  29.800  35.956  1.00  0.00     0.029 A 
ATOM     52  N   UNL A   1      41.387  29.869  34.113  1.00  0.00    -0.354 N 
ATOM     53  N   UNL A   1      39.268  30.901  32.384  1.00  0.00    -0.248 NA
ATOM     54  C   UNL A   1      37.357  32.206  32.073  1.00  0.00     0.031 C 
ATOM     55  C   UNL A   1      41.586  30.709  36.160  1.00  0.00     0.029 A 
ATOM     56  C   UNL A   1      40.820  30.762  35.007  1.00  0.00     0.049 A 
ATOM     57  H   UNL A   1      41.058  29.696  33.201  1.00  0.00     0.167 HD
ATOM     58  C   UNL A   1      38.990  31.591  33.557  1.00  0.00     0.074 A 
ATOM     59  C   UNL A   1      37.816  32.399  33.302  1.00  0.00     0.031 C 
ATOM     60  C   UNL A   1      39.650  31.558  34.741  1.00  0.00     0.037 A 
BRANCH  47  61
ATOM     61  C   UNL A   1      44.393  27.616  34.854  1.00  0.00     0.057 A 
ATOM     62  C   UNL A   1      45.679  28.168  34.887  1.00  0.00     0.134 A 
ATOM     63  C   UNL A   1      44.157  26.476  35.632  1.00  0.00     0.134 A 
ATOM     64  F   UNL A   1      45.972  29.255  34.156  1.00  0.00    -0.206 F 
ATOM     65  C   UNL A   1      46.697  27.599  35.656  1.00  0.00     0.040 A 
ATOM     66  C   UNL A   1      45.160  25.910  36.420  1.00  0.00     0.040 A 
ATOM     67  F   UNL A   1      42.943  25.902  35.648  1.00  0.00    -0.206 F 
ATOM     68  C   UNL A   1      46.436  26.469  36.429  1.00  0.00     0.006 A 
ENDBRANCH  47  61
BRANCH  48  69
ATOM     69  C   UNL A   1      37.031  31.369  29.292  1.00  0.00     0.057 A 
ATOM     70  C   UNL A   1      35.904  30.588  29.012  1.00  0.00     0.134 A 
ATOM     71  C   UNL A   1      37.065  32.666  28.765  1.00  0.00     0.134 A 
ATOM     72  F   UNL A   1      35.825  29.329  29.467  1.00  0.00    -0.206 F 
ATOM     73  C   UNL A   1      34.855  31.075  28.230  1.00  0.00     0.040 A 
ATOM     74  C   UNL A   1      36.014  33.173  28.001  1.00  0.00     0.040 A 
ATOM     75  F   UNL A   1      38.120  33.462  28.995  1.00  0.00    -0.206 F 
ATOM     76  C   UNL A   1      34.907  32.373  27.727  1.00  0.00     0.006 A 
ENDBRANCH  48  69
BRANCH  60  77
ATOM     77  C   UNL A   1      39.130  32.429  35.846  1.00  0.00     0.057 A 
ATOM     78  C   UNL A   1      38.238  31.941  36.809  1.00  0.00     0.134 A 
ATOM     79  C   UNL A   1      39.565  33.754  35.978  1.00  0.00     0.134 A 
ATOM     80  F   UNL A   1      37.773  30.685  36.730  1.00  0.00    -0.206 F 
ATOM     81  C   UNL A   1      37.784  32.745  37.856  1.00  0.00     0.040 A 
ATOM     82  C   UNL A   1      39.136  34.560  37.034  1.00  0.00     0.040 A 
ATOM     83  F   UNL A   1      40.425  34.280  35.094  1.00  0.00    -0.206 F 
ATOM     84  C   UNL A   1      38.240  34.057  37.975  1.00  0.00     0.006 A 
ENDBRANCH  60  77
ENDBRANCH  34  35
ENDBRANCH  27  29
ENDBRANCH  26  27
ENDBRANCH  25  26
ENDBRANCH  24  25
ENDBRANCH   1  24
TORSDOF 16
ENDMDL
MODEL 3
REMARK VINA RESULT:     -10.6      5.249     10.625
REMARK SMILES Cc1nc([C@@H]2C[N@@H+]3CCC[C@@H]3CO2)sc1CC(=O)OCCOCCOC(=O)c1ccc(-c2c3nc(c(-c4c(F)cccc4F)c4ccc([nH]4)c(-c4c(F)cccc4F)c4nc(c(-c5c(F)cccc5F)c5ccc2[nH]5)C=C4)C=C3)cc1
REMARK SMILES IDX 22 1 21 2 20 3 19 4 17 5 18 6 16 7 15 8 1 9 2 10 3 11 4 12
REMARK SMILES IDX 14 13 5 14 6 15 13 16 7 17 12 18 8 19 11 20 9 22 10 23 23 24
REMARK SMILES IDX 24 25 25 26 26 27 27 28 28 29 29 30 81 31 30 32 80 33 31 34
REMARK SMILES IDX 32 35 33 36 74 37 34 38 79 39 73 40 75 41 35 42 78 43 72 44
REMARK SMILES IDX 71 45 36 47 62 48 45 49 61 50 46 51 49 52 60 53 76 54 47 55
REMARK SMILES IDX 48 56 59 58 77 59 50 60 37 61 38 62 43 63 39 64 40 65 42 66
REMARK SMILES IDX 44 67 41 68 63 69 64 70 69 71 65 72 66 73 68 74 70 75 67 76
REMARK SMILES IDX 51 77 52 78 57 79 53 80 54 81 56 82 58 83 55 84
REMARK H PARENT 7 21 75 46 49 57
REMARK Flexibility Score: inf
ROOT
ATOM      1  O   UNL A   1      33.541  32.640  28.891  1.00  0.00    -0.374 OA
ENDROOT
BRANCH   1   2
ATOM      2  C   UNL A   1      34.080  31.779  27.890  1.00  0.00     0.202 C 
BRANCH   2   3
ATOM      3  C   UNL A   1      33.095  30.808  27.231  1.00  0.00     0.261 C 
BRANCH   3   4
ATOM      4  O   UNL A   1      33.756  29.863  26.370  1.00  0.00    -0.463 OA
BRANCH   4   5
ATOM      5  C   UNL A   1      32.968  29.233  25.461  1.00  0.00     0.311 C 
ATOM      6  O   UNL A   1      33.216  29.168  24.259  1.00  0.00    -0.252 OA
BRANCH   5   7
ATOM      7  C   UNL A   1      31.769  28.518  26.048  1.00  0.00     0.171 C 
BRANCH   7   8
ATOM      8  C   UNL A   1      31.440  27.195  25.428  1.00  0.00     0.039 A 
ATOM      9  C   UNL A   1      29.857  27.853  23.496  1.00  0.00     0.068 C 
ATOM     10  C   UNL A   1      30.636  26.907  24.339  1.00  0.00     0.052 A 
ATOM     11  N   UNL A   1      30.582  25.570  24.001  1.00  0.00    -0.243 NA
ATOM     12  C   UNL A   1      31.286  24.837  24.842  1.00  0.00     0.128 A 
ATOM     13  S   UNL A   1      32.183  25.747  25.986  1.00  0.00    -0.120 S 
BRANCH  12  14
ATOM     14  C   UNL A   1      31.386  23.321  24.800  1.00  0.00     0.232 C 
ATOM     15  C   UNL A   1      32.325  22.798  25.925  1.00  0.00     0.302 C 
ATOM     16  O   UNL A   1      31.765  22.928  23.465  1.00  0.00    -0.359 OA
ATOM     17  N   UNL A   1      33.397  21.867  25.547  1.00  0.00    -0.328 N 
ATOM     18  C   UNL A   1      33.175  23.019  23.259  1.00  0.00     0.226 C 
ATOM     19  C   UNL A   1      34.513  21.864  26.504  1.00  0.00     0.262 C 
ATOM     20  C   UNL A   1      33.941  22.079  24.193  1.00  0.00     0.210 C 
ATOM     21  H   UNL A   1      32.930  20.960  25.558  1.00  0.00     0.348 HD
ATOM     22  C   UNL A   1      35.774  21.767  25.660  1.00  0.00     0.068 C 
ATOM     23  C   UNL A   1      35.388  22.509  24.398  1.00  0.00     0.073 C 
ENDBRANCH  12  14
ENDBRANCH   7   8
ENDBRANCH   5   7
ENDBRANCH   4   5
ENDBRANCH   3   4
ENDBRANCH   2   3
ENDBRANCH   1   2
BRANCH   1  24
ATOM     24  C   UNL A   1      34.413  33.640  29.422  1.00  0.00     0.202 C 
BRANCH  24  25
ATOM     25  C   UNL A   1      34.543  33.681  30.950  1.00  0.00     0.261 C 
BRANCH  25  26
ATOM     26  O   UNL A   1      34.541  32.362  31.527  1.00  0.00    -0.460 OA
BRANCH  26  27
ATOM     27  C   UNL A   1      35.563  32.115  32.379  1.00  0.00     0.338 C 
ATOM     28  O   UNL A   1      35.596  32.346  33.581  1.00  0.00    -0.246 OA
BRANCH  27  29
ATOM     29  C   UNL A   1      36.618  31.334  31.711  1.00  0.00     0.060 A 
ATOM     30  C   UNL A   1      37.668  30.856  32.507  1.00  0.00     0.016 A 
ATOM     31  C   UNL A   1      36.638  31.155  30.326  1.00  0.00     0.016 A 
ATOM     32  C   UNL A   1      38.767  30.234  31.916  1.00  0.00     0.010 A 
ATOM     33  C   UNL A   1      37.751  30.542  29.734  1.00  0.00     0.010 A 
ATOM     34  C   UNL A   1      38.833  30.106  30.522  1.00  0.00    -0.014 A 
BRANCH  34  35
ATOM     35  C   UNL A   1      40.083  29.617  29.889  1.00  0.00     0.031 A 
ATOM     36  C   UNL A   1      41.244  30.558  29.719  1.00  0.00     0.074 A 
ATOM     37  C   UNL A   1      40.195  28.337  29.492  1.00  0.00     0.049 A 
ATOM     38  N   UNL A   1      42.409  30.345  29.162  1.00  0.00    -0.248 NA
ATOM     39  C   UNL A   1      41.070  31.918  30.251  1.00  0.00     0.031 C 
ATOM     40  C   UNL A   1      39.160  27.315  29.639  1.00  0.00     0.029 A 
ATOM     41  N   UNL A   1      41.232  27.682  28.874  1.00  0.00    -0.354 N 
ATOM     42  C   UNL A   1      43.105  31.542  29.272  1.00  0.00     0.074 A 
ATOM     43  C   UNL A   1      42.225  32.483  29.931  1.00  0.00     0.031 C 
ATOM     44  C   UNL A   1      39.608  26.164  29.109  1.00  0.00     0.029 A 
ATOM     45  C   UNL A   1      40.945  26.377  28.557  1.00  0.00     0.049 A 
ATOM     46  H   UNL A   1      42.097  28.108  28.677  1.00  0.00     0.167 HD
ATOM     47  C   UNL A   1      44.364  31.830  28.865  1.00  0.00     0.037 A 
ATOM     48  C   UNL A   1      41.668  25.467  27.876  1.00  0.00     0.037 A 
ATOM     49  C   UNL A   1      45.243  30.895  28.211  1.00  0.00     0.049 A 
ATOM     50  C   UNL A   1      43.033  25.836  27.359  1.00  0.00     0.074 A 
ATOM     51  C   UNL A   1      46.549  31.086  27.794  1.00  0.00     0.029 A 
ATOM     52  N   UNL A   1      44.899  29.598  27.867  1.00  0.00    -0.354 N 
ATOM     53  N   UNL A   1      43.692  26.961  27.496  1.00  0.00    -0.248 NA
ATOM     54  C   UNL A   1      43.752  24.810  26.589  1.00  0.00     0.031 C 
ATOM     55  C   UNL A   1      46.979  29.919  27.155  1.00  0.00     0.029 A 
ATOM     56  C   UNL A   1      45.955  28.987  27.212  1.00  0.00     0.049 A 
ATOM     57  H   UNL A   1      44.032  29.172  28.061  1.00  0.00     0.167 HD
ATOM     58  C   UNL A   1      44.906  26.773  26.848  1.00  0.00     0.074 A 
ATOM     59  C   UNL A   1      44.900  25.421  26.328  1.00  0.00     0.031 C 
ATOM     60  C   UNL A   1      45.935  27.642  26.697  1.00  0.00     0.037 A 
BRANCH  47  61
ATOM     61  C   UNL A   1      44.865  33.224  29.093  1.00  0.00     0.057 A 
ATOM     62  C   UNL A   1      44.620  34.256  28.178  1.00  0.00     0.134 A 
ATOM     63  C   UNL A   1      45.562  33.548  30.263  1.00  0.00     0.134 A 
ATOM     64  F   UNL A   1      43.965  34.009  27.033  1.00  0.00    -0.206 F 
ATOM     65  C   UNL A   1      45.064  35.559  28.414  1.00  0.00     0.040 A 
ATOM     66  C   UNL A   1      45.994  34.851  30.519  1.00  0.00     0.040 A 
ATOM     67  F   UNL A   1      45.824  32.606  31.183  1.00  0.00    -0.206 F 
ATOM     68  C   UNL A   1      45.749  35.860  29.590  1.00  0.00     0.006 A 
ENDBRANCH  47  61
BRANCH  48  69
ATOM     69  C   UNL A   1      41.101  24.122  27.609  1.00  0.00     0.057 A 
ATOM     70  C   UNL A   1      41.580  22.986  28.271  1.00  0.00     0.134 A 
ATOM     71  C   UNL A   1      40.081  23.939  26.667  1.00  0.00     0.134 A 
ATOM     72  F   UNL A   1      42.575  23.095  29.164  1.00  0.00    -0.206 F 
ATOM     73  C   UNL A   1      41.071  21.715  28.000  1.00  0.00     0.040 A 
ATOM     74  C   UNL A   1      39.548  22.677  26.403  1.00  0.00     0.040 A 
ATOM     75  F   UNL A   1      39.583  24.988  25.996  1.00  0.00    -0.206 F 
ATOM     76  C   UNL A   1      40.048  21.560  27.066  1.00  0.00     0.006 A 
ENDBRANCH  48  69
BRANCH  60  77
ATOM     77  C   UNL A   1      47.146  27.158  25.955  1.00  0.00     0.057 A 
ATOM     78  C   UNL A   1      47.265  27.307  24.568  1.00  0.00     0.134 A 
ATOM     79  C   UNL A   1      48.223  26.584  26.641  1.00  0.00     0.134 A 
ATOM     80  F   UNL A   1      46.263  27.837  23.852  1.00  0.00    -0.206 F 
ATOM     81  C   UNL A   1      48.410  26.887  23.886  1.00  0.00     0.040 A 
ATOM     82  C   UNL A   1      49.381  26.181  25.973  1.00  0.00     0.040 A 
ATOM     83  F   UNL A   1      48.175  26.420  27.971  1.00  0.00    -0.206 F 
ATOM     84  C   UNL A   1      49.475  26.329  24.591  1.00  0.00     0.006 A 
ENDBRANCH  60  77
ENDBRANCH  34  35
ENDBRANCH  27  29
ENDBRANCH  26  27
ENDBRANCH  25  26
ENDBRANCH  24  25
ENDBRANCH   1  24
TORSDOF 16
ENDMDL
