MODEL 1
REMARK VINA RESULT:     -10.5      0.000      0.000
REMARK SMILES [NH3+][C@@](C(=O)OCCOCCOC(=O)c1ccc(-c2c3nc(c(-c4c(F)cccc4F)c4ccc([nH]4)c(-c4c(F)cccc4F)c4nc(c(-c5c(F)cccc5F)c5ccc2[nH]5)C=C4)C=C3)cc1)(c1ccc([P@TB4](=O)([O-])[O-])cc1)C1CC1
REMARK SMILES IDX 8 1 7 2 6 3 5 4 3 5 4 6 2 7 1 8 68 12 69 13 77 14 70 15
REMARK SMILES IDX 76 16 71 17 72 18 73 19 74 20 75 21 78 22 79 23 80 24 9 25
REMARK SMILES IDX 10 26 11 27 12 28 13 29 14 30 15 31 67 32 16 33 66 34 17 35
REMARK SMILES IDX 18 36 19 37 60 38 20 39 65 40 59 41 61 42 21 43 64 44 58 45
REMARK SMILES IDX 57 46 22 48 48 49 31 50 47 51 32 52 35 53 46 54 62 55 33 56
REMARK SMILES IDX 34 57 45 59 63 60 36 61 23 62 24 63 29 64 25 65 26 66 28 67
REMARK SMILES IDX 30 68 27 69 49 70 50 71 55 72 51 73 52 74 54 75 56 76 53 77
REMARK SMILES IDX 37 78 38 79 43 80 39 81 40 82 42 83 44 84 41 85
REMARK H PARENT 1 9 1 10 1 11 61 47 35 58
REMARK Flexibility Score: inf
ROOT
ATOM      1  O   UNL A   1      34.962  21.897  23.872  1.00  0.00       nan OA
ENDROOT
BRANCH   1   2
ATOM      2  C   UNL A   1      33.634  22.413  23.813  1.00  0.00       nan C 
BRANCH   2   3
ATOM      3  C   UNL A   1      33.145  22.903  22.446  1.00  0.00       nan C 
BRANCH   3   4
ATOM      4  O   UNL A   1      32.205  23.981  22.571  1.00  0.00       nan OA
BRANCH   4   5
ATOM      5  C   UNL A   1      32.756  25.235  22.548  1.00  0.00       nan C 
ATOM      6  O   UNL A   1      33.506  25.636  21.662  1.00  0.00       nan OA
BRANCH   5   7
ATOM      7  C   UNL A   1      32.291  26.115  23.780  1.00  0.00       nan C 
BRANCH   7   8
ATOM      8  N   UNL A   1      31.502  25.307  24.751  1.00  0.00       nan N 
ATOM      9  H   UNL A   1      31.524  25.759  25.666  1.00  0.00       nan HD
ATOM     10  H   UNL A   1      31.906  24.374  24.823  1.00  0.00       nan HD
ATOM     11  H   UNL A   1      30.537  25.238  24.430  1.00  0.00       nan HD
ENDBRANCH   7   8
BRANCH   7  12
ATOM     12  C   UNL A   1      31.435  27.330  23.337  1.00  0.00       nan A 
ATOM     13  C   UNL A   1      32.001  28.481  22.762  1.00  0.00       nan A 
ATOM     14  C   UNL A   1      30.032  27.313  23.473  1.00  0.00       nan A 
ATOM     15  C   UNL A   1      31.211  29.572  22.377  1.00  0.00       nan A 
ATOM     16  C   UNL A   1      29.239  28.409  23.080  1.00  0.00       nan A 
ATOM     17  C   UNL A   1      29.815  29.559  22.522  1.00  0.00       nan A 
BRANCH  17  18
ATOM     18  P   UNL A   1      28.812  31.045  22.151  1.00  0.00       nan P 
ATOM     19  O   UNL A   1      27.653  30.244  21.536  1.00  0.00       nan OA
ATOM     20  O   UNL A   1      28.351  31.203  23.718  1.00  0.00       nan OA
ATOM     21  O   UNL A   1      27.864  32.448  21.801  1.00  0.00       nan OA
ENDBRANCH  17  18
ENDBRANCH   7  12
BRANCH   7  22
ATOM     22  C   UNL A   1      33.567  26.609  24.466  1.00  0.00       nan C 
ATOM     23  C   UNL A   1      33.642  27.170  25.873  1.00  0.00       nan C 
ATOM     24  C   UNL A   1      34.192  25.801  25.590  1.00  0.00       nan C 
ENDBRANCH   7  22
ENDBRANCH   5   7
ENDBRANCH   4   5
ENDBRANCH   3   4
ENDBRANCH   2   3
ENDBRANCH   1   2
BRANCH   1  25
ATOM     25  C   UNL A   1      35.320  21.093  24.997  1.00  0.00       nan C 
BRANCH  25  26
ATOM     26  C   UNL A   1      36.721  20.464  25.001  1.00  0.00       inf C 
BRANCH  26  27
ATOM     27  O   UNL A   1      37.778  21.444  24.949  1.00  0.00    -0.460 OA
BRANCH  27  28
ATOM     28  C   UNL A   1      38.831  21.181  25.759  1.00  0.00     0.338 C 
ATOM     29  O   UNL A   1      39.457  20.130  25.846  1.00  0.00    -0.246 OA
BRANCH  28  30
ATOM     30  C   UNL A   1      39.279  22.401  26.448  1.00  0.00     0.060 A 
ATOM     31  C   UNL A   1      38.676  23.613  26.087  1.00  0.00     0.016 A 
ATOM     32  C   UNL A   1      40.366  22.382  27.324  1.00  0.00     0.016 A 
ATOM     33  C   UNL A   1      39.184  24.818  26.570  1.00  0.00     0.010 A 
ATOM     34  C   UNL A   1      40.883  23.594  27.798  1.00  0.00     0.010 A 
ATOM     35  C   UNL A   1      40.317  24.818  27.394  1.00  0.00    -0.014 A 
BRANCH  35  36
ATOM     36  C   UNL A   1      40.989  26.103  27.709  1.00  0.00     0.031 A 
ATOM     37  C   UNL A   1      42.404  26.322  27.247  1.00  0.00     0.074 A 
ATOM     38  C   UNL A   1      40.336  27.080  28.361  1.00  0.00     0.049 A 
ATOM     39  N   UNL A   1      43.185  27.357  27.425  1.00  0.00    -0.248 NA
ATOM     40  C   UNL A   1      43.021  25.228  26.479  1.00  0.00     0.031 C 
ATOM     41  C   UNL A   1      38.951  27.006  28.823  1.00  0.00     0.029 A 
ATOM     42  N   UNL A   1      40.756  28.326  28.751  1.00  0.00    -0.354 N 
ATOM     43  C   UNL A   1      44.382  27.041  26.795  1.00  0.00     0.074 A 
ATOM     44  C   UNL A   1      44.236  25.706  26.254  1.00  0.00     0.031 C 
ATOM     45  C   UNL A   1      38.639  28.156  29.447  1.00  0.00     0.029 A 
ATOM     46  C   UNL A   1      39.809  29.033  29.449  1.00  0.00     0.049 A 
ATOM     47  H   UNL A   1      41.653  28.681  28.550  1.00  0.00     0.167 HD
ATOM     48  C   UNL A   1      45.499  27.796  26.671  1.00  0.00     0.037 A 
ATOM     49  C   UNL A   1      39.885  30.241  30.039  1.00  0.00     0.037 A 
ATOM     50  C   UNL A   1      45.647  29.123  27.209  1.00  0.00     0.049 A 
ATOM     51  C   UNL A   1      41.161  31.034  29.947  1.00  0.00     0.074 A 
ATOM     52  C   UNL A   1      46.737  29.973  27.122  1.00  0.00     0.029 A 
ATOM     53  N   UNL A   1      44.676  29.791  27.938  1.00  0.00    -0.354 N 
ATOM     54  N   UNL A   1      42.279  30.733  29.332  1.00  0.00    -0.248 NA
ATOM     55  C   UNL A   1      41.185  32.336  30.631  1.00  0.00     0.031 C 
ATOM     56  C   UNL A   1      46.440  31.139  27.836  1.00  0.00     0.029 A 
ATOM     57  C   UNL A   1      45.149  31.033  28.329  1.00  0.00     0.049 A 
ATOM     58  H   UNL A   1      43.782  29.435  28.147  1.00  0.00     0.167 HD
ATOM     59  C   UNL A   1      43.128  31.815  29.532  1.00  0.00     0.074 A 
ATOM     60  C   UNL A   1      42.392  32.784  30.316  1.00  0.00     0.031 C 
ATOM     61  C   UNL A   1      44.402  31.990  29.103  1.00  0.00     0.037 A 
BRANCH  48  62
ATOM     62  C   UNL A   1      46.662  27.194  25.939  1.00  0.00     0.057 A 
ATOM     63  C   UNL A   1      46.888  27.443  24.580  1.00  0.00     0.134 A 
ATOM     64  C   UNL A   1      47.584  26.382  26.612  1.00  0.00     0.134 A 
ATOM     65  F   UNL A   1      46.033  28.201  23.877  1.00  0.00    -0.206 F 
ATOM     66  C   UNL A   1      47.981  26.891  23.910  1.00  0.00     0.040 A 
ATOM     67  C   UNL A   1      48.693  25.842  25.957  1.00  0.00     0.040 A 
ATOM     68  F   UNL A   1      47.428  26.107  27.915  1.00  0.00    -0.206 F 
ATOM     69  C   UNL A   1      48.890  26.093  24.601  1.00  0.00     0.006 A 
ENDBRANCH  48  62
BRANCH  49  70
ATOM     70  C   UNL A   1      38.720  30.776  30.786  1.00  0.00     0.057 A 
ATOM     71  C   UNL A   1      38.516  30.466  32.135  1.00  0.00     0.134 A 
ATOM     72  C   UNL A   1      37.770  31.593  30.162  1.00  0.00     0.134 A 
ATOM     73  F   UNL A   1      39.379  29.668  32.782  1.00  0.00    -0.206 F 
ATOM     74  C   UNL A   1      37.402  30.936  32.834  1.00  0.00     0.040 A 
ATOM     75  C   UNL A   1      36.664  32.089  30.853  1.00  0.00     0.040 A 
ATOM     76  F   UNL A   1      37.907  31.926  28.869  1.00  0.00    -0.206 F 
ATOM     77  C   UNL A   1      36.475  31.755  32.192  1.00  0.00     0.006 A 
ENDBRANCH  49  70
BRANCH  61  78
ATOM     78  C   UNL A   1      45.069  33.289  29.443  1.00  0.00     0.057 A 
ATOM     79  C   UNL A   1      44.958  34.416  28.618  1.00  0.00     0.134 A 
ATOM     80  C   UNL A   1      45.798  33.427  30.631  1.00  0.00     0.134 A 
ATOM     81  F   UNL A   1      44.283  34.346  27.460  1.00  0.00    -0.206 F 
ATOM     82  C   UNL A   1      45.563  35.628  28.954  1.00  0.00     0.040 A 
ATOM     83  C   UNL A   1      46.389  34.639  30.988  1.00  0.00     0.040 A 
ATOM     84  F   UNL A   1      45.936  32.389  31.469  1.00  0.00    -0.206 F 
ATOM     85  C   UNL A   1      46.276  35.743  30.146  1.00  0.00     0.006 A 
ENDBRANCH  61  78
ENDBRANCH  35  36
ENDBRANCH  28  30
ENDBRANCH  27  28
ENDBRANCH  26  27
ENDBRANCH  25  26
ENDBRANCH   1  25
TORSDOF 18
ENDMDL
MODEL 2
REMARK VINA RESULT:     -10.4      4.206      9.240
REMARK SMILES [NH3+][C@@](C(=O)OCCOCCOC(=O)c1ccc(-c2c3nc(c(-c4c(F)cccc4F)c4ccc([nH]4)c(-c4c(F)cccc4F)c4nc(c(-c5c(F)cccc5F)c5ccc2[nH]5)C=C4)C=C3)cc1)(c1ccc([P@TB4](=O)([O-])[O-])cc1)C1CC1
REMARK SMILES IDX 8 1 7 2 6 3 5 4 3 5 4 6 2 7 1 8 68 12 69 13 77 14 70 15
REMARK SMILES IDX 76 16 71 17 72 18 73 19 74 20 75 21 78 22 79 23 80 24 9 25
REMARK SMILES IDX 10 26 11 27 12 28 13 29 14 30 15 31 67 32 16 33 66 34 17 35
REMARK SMILES IDX 18 36 19 37 60 38 20 39 65 40 59 41 61 42 21 43 64 44 58 45
REMARK SMILES IDX 57 46 22 48 48 49 31 50 47 51 32 52 35 53 46 54 62 55 33 56
REMARK SMILES IDX 34 57 45 59 63 60 36 61 23 62 24 63 29 64 25 65 26 66 28 67
REMARK SMILES IDX 30 68 27 69 49 70 50 71 55 72 51 73 52 74 54 75 56 76 53 77
REMARK SMILES IDX 37 78 38 79 43 80 39 81 40 82 42 83 44 84 41 85
REMARK H PARENT 1 9 1 10 1 11 61 47 35 58
REMARK Flexibility Score: inf
ROOT
ATOM      1  O   UNL A   1      32.728  27.851  24.677  1.00  0.00       nan OA
ENDROOT
BRANCH   1   2
ATOM      2  C   UNL A   1      32.522  27.576  23.293  1.00  0.00       nan C 
BRANCH   2   3
ATOM      3  C   UNL A   1      33.327  26.419  22.692  1.00  0.00       nan C 
BRANCH   3   4
ATOM      4  O   UNL A   1      33.874  25.565  23.709  1.00  0.00       nan OA
BRANCH   4   5
ATOM      5  C   UNL A   1      33.732  24.223  23.475  1.00  0.00       nan C 
ATOM      6  O   UNL A   1      34.014  23.682  22.409  1.00  0.00       nan OA
BRANCH   5   7
ATOM      7  C   UNL A   1      33.190  23.448  24.746  1.00  0.00       nan C 
BRANCH   7   8
ATOM      8  N   UNL A   1      33.903  23.876  25.981  1.00  0.00       nan N 
ATOM      9  H   UNL A   1      33.354  24.592  26.458  1.00  0.00       nan HD
ATOM     10  H   UNL A   1      34.815  24.258  25.731  1.00  0.00       nan HD
ATOM     11  H   UNL A   1      34.026  23.074  26.599  1.00  0.00       nan HD
ENDBRANCH   7   8
BRANCH   7  12
ATOM     12  C   UNL A   1      33.341  21.912  24.596  1.00  0.00       nan A 
ATOM     13  C   UNL A   1      32.388  21.124  23.926  1.00  0.00       nan A 
ATOM     14  C   UNL A   1      34.467  21.242  25.115  1.00  0.00       nan A 
ATOM     15  C   UNL A   1      32.538  19.735  23.811  1.00  0.00       nan A 
ATOM     16  C   UNL A   1      34.617  19.846  24.993  1.00  0.00       nan A 
ATOM     17  C   UNL A   1      33.654  19.067  24.336  1.00  0.00       nan A 
BRANCH  17  18
ATOM     18  P   UNL A   1      33.764  17.240  24.306  1.00  0.00       nan P 
ATOM     19  O   UNL A   1      32.468  17.039  25.108  1.00  0.00       nan OA
ATOM     20  O   UNL A   1      33.241  17.171  22.752  1.00  0.00       nan OA
ATOM     21  O   UNL A   1      33.867  15.513  24.277  1.00  0.00       nan OA
ENDBRANCH  17  18
ENDBRANCH   7  12
BRANCH   7  22
ATOM     22  C   UNL A   1      31.709  23.809  24.876  1.00  0.00       nan C 
ATOM     23  C   UNL A   1      30.824  23.456  26.054  1.00  0.00       nan C 
ATOM     24  C   UNL A   1      31.267  24.877  25.861  1.00  0.00       nan C 
ENDBRANCH   7  22
ENDBRANCH   5   7
ENDBRANCH   4   5
ENDBRANCH   3   4
ENDBRANCH   2   3
ENDBRANCH   1   2
BRANCH   1  25
ATOM     25  C   UNL A   1      31.764  28.659  25.352  1.00  0.00       nan C 
BRANCH  25  26
ATOM     26  C   UNL A   1      32.149  30.112  25.662  1.00  0.00       inf C 
BRANCH  26  27
ATOM     27  O   UNL A   1      32.514  30.315  27.042  1.00  0.00    -0.460 OA
BRANCH  27  28
ATOM     28  C   UNL A   1      33.264  31.420  27.270  1.00  0.00     0.338 C 
ATOM     29  O   UNL A   1      32.882  32.584  27.298  1.00  0.00    -0.246 OA
BRANCH  28  30
ATOM     30  C   UNL A   1      34.633  31.051  27.666  1.00  0.00     0.060 A 
ATOM     31  C   UNL A   1      34.916  29.690  27.843  1.00  0.00     0.016 A 
ATOM     32  C   UNL A   1      35.579  32.022  27.996  1.00  0.00     0.016 A 
ATOM     33  C   UNL A   1      36.135  29.296  28.392  1.00  0.00     0.010 A 
ATOM     34  C   UNL A   1      36.799  31.625  28.558  1.00  0.00     0.010 A 
ATOM     35  C   UNL A   1      37.067  30.263  28.792  1.00  0.00    -0.014 A 
BRANCH  35  36
ATOM     36  C   UNL A   1      38.251  29.850  29.585  1.00  0.00     0.031 A 
ATOM     37  C   UNL A   1      38.430  30.399  30.974  1.00  0.00     0.074 A 
ATOM     38  C   UNL A   1      39.135  28.966  29.092  1.00  0.00     0.049 A 
ATOM     39  N   UNL A   1      39.395  30.187  31.833  1.00  0.00    -0.248 NA
ATOM     40  C   UNL A   1      37.379  31.308  31.462  1.00  0.00     0.031 C 
ATOM     41  C   UNL A   1      39.050  28.330  27.779  1.00  0.00     0.029 A 
ATOM     42  N   UNL A   1      40.282  28.452  29.642  1.00  0.00    -0.354 N 
ATOM     43  C   UNL A   1      39.070  30.933  32.958  1.00  0.00     0.074 A 
ATOM     44  C   UNL A   1      37.834  31.626  32.664  1.00  0.00     0.031 C 
ATOM     45  C   UNL A   1      40.110  27.519  27.618  1.00  0.00     0.029 A 
ATOM     46  C   UNL A   1      40.958  27.599  28.807  1.00  0.00     0.049 A 
ATOM     47  H   UNL A   1      40.592  28.675  30.550  1.00  0.00     0.167 HD
ATOM     48  C   UNL A   1      39.735  31.027  34.134  1.00  0.00     0.037 A 
ATOM     49  C   UNL A   1      42.137  26.970  28.975  1.00  0.00     0.037 A 
ATOM     50  C   UNL A   1      40.966  30.339  34.428  1.00  0.00     0.049 A 
ATOM     51  C   UNL A   1      42.895  27.144  30.264  1.00  0.00     0.074 A 
ATOM     52  C   UNL A   1      41.708  30.360  35.597  1.00  0.00     0.029 A 
ATOM     53  N   UNL A   1      41.636  29.509  33.544  1.00  0.00    -0.354 N 
ATOM     54  N   UNL A   1      42.569  27.837  31.328  1.00  0.00    -0.248 NA
ATOM     55  C   UNL A   1      44.186  26.448  30.375  1.00  0.00     0.031 C 
ATOM     56  C   UNL A   1      42.850  29.576  35.403  1.00  0.00     0.029 A 
ATOM     57  C   UNL A   1      42.796  29.031  34.130  1.00  0.00     0.049 A 
ATOM     58  H   UNL A   1      41.332  29.292  32.633  1.00  0.00     0.167 HD
ATOM     59  C   UNL A   1      43.596  27.639  32.242  1.00  0.00     0.074 A 
ATOM     60  C   UNL A   1      44.552  26.753  31.612  1.00  0.00     0.031 C 
ATOM     61  C   UNL A   1      43.734  28.144  33.493  1.00  0.00     0.037 A 
BRANCH  48  62
ATOM     62  C   UNL A   1      39.156  31.924  35.186  1.00  0.00     0.057 A 
ATOM     63  C   UNL A   1      39.359  33.310  35.167  1.00  0.00     0.134 A 
ATOM     64  C   UNL A   1      38.357  31.400  36.210  1.00  0.00     0.134 A 
ATOM     65  F   UNL A   1      40.125  33.872  34.220  1.00  0.00    -0.206 F 
ATOM     66  C   UNL A   1      38.803  34.141  36.141  1.00  0.00     0.040 A 
ATOM     67  C   UNL A   1      37.778  32.225  37.177  1.00  0.00     0.040 A 
ATOM     68  F   UNL A   1      38.120  30.083  36.284  1.00  0.00    -0.206 F 
ATOM     69  C   UNL A   1      38.005  33.599  37.146  1.00  0.00     0.006 A 
ENDBRANCH  48  62
BRANCH  49  70
ATOM     70  C   UNL A   1      42.689  26.124  27.887  1.00  0.00     0.057 A 
ATOM     71  C   UNL A   1      42.403  24.757  27.813  1.00  0.00     0.134 A 
ATOM     72  C   UNL A   1      43.535  26.662  26.909  1.00  0.00     0.134 A 
ATOM     73  F   UNL A   1      41.619  24.180  28.735  1.00  0.00    -0.206 F 
ATOM     74  C   UNL A   1      42.950  23.949  26.813  1.00  0.00     0.040 A 
ATOM     75  C   UNL A   1      44.070  25.871  25.891  1.00  0.00     0.040 A 
ATOM     76  F   UNL A   1      43.849  27.966  26.926  1.00  0.00    -0.206 F 
ATOM     77  C   UNL A   1      43.783  24.508  25.846  1.00  0.00     0.006 A 
ENDBRANCH  49  70
BRANCH  61  78
ATOM     78  C   UNL A   1      44.945  27.727  34.273  1.00  0.00     0.057 A 
ATOM     79  C   UNL A   1      46.130  28.473  34.253  1.00  0.00     0.134 A 
ATOM     80  C   UNL A   1      44.911  26.588  35.088  1.00  0.00     0.134 A 
ATOM     81  F   UNL A   1      46.231  29.567  33.483  1.00  0.00    -0.206 F 
ATOM     82  C   UNL A   1      47.245  28.090  35.001  1.00  0.00     0.040 A 
ATOM     83  C   UNL A   1      46.011  26.208  35.857  1.00  0.00     0.040 A 
ATOM     84  F   UNL A   1      43.803  25.836  35.159  1.00  0.00    -0.206 F 
ATOM     85  C   UNL A   1      47.184  26.957  35.811  1.00  0.00     0.006 A 
ENDBRANCH  61  78
ENDBRANCH  35  36
ENDBRANCH  28  30
ENDBRANCH  27  28
ENDBRANCH  26  27
ENDBRANCH  25  26
ENDBRANCH   1  25
TORSDOF 18
ENDMDL
MODEL 3
REMARK VINA RESULT:     -10.4      2.003      6.745
REMARK SMILES [NH3+][C@@](C(=O)OCCOCCOC(=O)c1ccc(-c2c3nc(c(-c4c(F)cccc4F)c4ccc([nH]4)c(-c4c(F)cccc4F)c4nc(c(-c5c(F)cccc5F)c5ccc2[nH]5)C=C4)C=C3)cc1)(c1ccc([P@TB4](=O)([O-])[O-])cc1)C1CC1
REMARK SMILES IDX 8 1 7 2 6 3 5 4 3 5 4 6 2 7 1 8 68 12 69 13 77 14 70 15
REMARK SMILES IDX 76 16 71 17 72 18 73 19 74 20 75 21 78 22 79 23 80 24 9 25
REMARK SMILES IDX 10 26 11 27 12 28 13 29 14 30 15 31 67 32 16 33 66 34 17 35
REMARK SMILES IDX 18 36 19 37 60 38 20 39 65 40 59 41 61 42 21 43 64 44 58 45
REMARK SMILES IDX 57 46 22 48 48 49 31 50 47 51 32 52 35 53 46 54 62 55 33 56
REMARK SMILES IDX 34 57 45 59 63 60 36 61 23 62 24 63 29 64 25 65 26 66 28 67
REMARK SMILES IDX 30 68 27 69 49 70 50 71 55 72 51 73 52 74 54 75 56 76 53 77
REMARK SMILES IDX 37 78 38 79 43 80 39 81 40 82 42 83 44 84 41 85
REMARK H PARENT 1 9 1 10 1 11 61 47 35 58
REMARK Flexibility Score: inf
ROOT
ATOM      1  O   UNL A   1      34.979  20.618  24.851  1.00  0.00       nan OA
ENDROOT
BRANCH   1   2
ATOM      2  C   UNL A   1      33.851  20.560  25.721  1.00  0.00       nan C 
BRANCH   2   3
ATOM      3  C   UNL A   1      34.021  21.178  27.113  1.00  0.00       nan C 
BRANCH   3   4
ATOM      4  O   UNL A   1      33.979  22.612  27.068  1.00  0.00       nan OA
BRANCH   4   5
ATOM      5  C   UNL A   1      32.735  23.150  26.872  1.00  0.00       nan C 
ATOM      6  O   UNL A   1      31.782  22.958  27.622  1.00  0.00       nan OA
BRANCH   5   7
ATOM      7  C   UNL A   1      32.676  24.070  25.584  1.00  0.00       nan C 
BRANCH   7   8
ATOM      8  N   UNL A   1      33.865  23.854  24.714  1.00  0.00       nan N 
ATOM      9  H   UNL A   1      33.562  23.494  23.808  1.00  0.00       nan HD
ATOM     10  H   UNL A   1      34.490  23.180  25.155  1.00  0.00       nan HD
ATOM     11  H   UNL A   1      34.355  24.738  24.581  1.00  0.00       nan HD
ENDBRANCH   7   8
BRANCH   7  12
ATOM     12  C   UNL A   1      32.597  25.575  25.948  1.00  0.00       nan A 
ATOM     13  C   UNL A   1      31.446  26.154  26.512  1.00  0.00       nan A 
ATOM     14  C   UNL A   1      33.701  26.427  25.745  1.00  0.00       nan A 
ATOM     15  C   UNL A   1      31.392  27.519  26.825  1.00  0.00       nan A 
ATOM     16  C   UNL A   1      33.646  27.798  26.065  1.00  0.00       nan A 
ATOM     17  C   UNL A   1      32.488  28.369  26.614  1.00  0.00       nan A 
BRANCH  17  18
ATOM     18  P   UNL A   1      32.353  30.173  26.890  1.00  0.00       nan P 
ATOM     19  O   UNL A   1      33.865  30.418  26.757  1.00  0.00       nan OA
ATOM     20  O   UNL A   1      31.810  30.430  25.363  1.00  0.00       nan OA
ATOM     21  O   UNL A   1      32.226  31.879  27.150  1.00  0.00       nan OA
ENDBRANCH  17  18
ENDBRANCH   7  12
BRANCH   7  22
ATOM     22  C   UNL A   1      31.417  23.660  24.815  1.00  0.00       nan C 
ATOM     23  C   UNL A   1      30.944  24.285  23.517  1.00  0.00       nan C 
ATOM     24  C   UNL A   1      31.535  22.904  23.503  1.00  0.00       nan C 
ENDBRANCH   7  22
ENDBRANCH   5   7
ENDBRANCH   4   5
ENDBRANCH   3   4
ENDBRANCH   2   3
ENDBRANCH   1   2
BRANCH   1  25
ATOM     25  C   UNL A   1      35.970  19.596  24.969  1.00  0.00       nan C 
BRANCH  25  26
ATOM     26  C   UNL A   1      37.419  19.972  24.626  1.00  0.00       inf C 
BRANCH  26  27
ATOM     27  O   UNL A   1      37.892  21.117  25.365  1.00  0.00    -0.460 OA
BRANCH  27  28
ATOM     28  C   UNL A   1      39.056  20.917  26.030  1.00  0.00     0.338 C 
ATOM     29  O   UNL A   1      39.740  19.900  26.040  1.00  0.00    -0.246 OA
BRANCH  28  30
ATOM     30  C   UNL A   1      39.528  22.167  26.644  1.00  0.00     0.060 A 
ATOM     31  C   UNL A   1      38.989  23.371  26.173  1.00  0.00     0.016 A 
ATOM     32  C   UNL A   1      40.581  22.172  27.561  1.00  0.00     0.016 A 
ATOM     33  C   UNL A   1      39.528  24.588  26.585  1.00  0.00     0.010 A 
ATOM     34  C   UNL A   1      41.130  23.395  27.965  1.00  0.00     0.010 A 
ATOM     35  C   UNL A   1      40.630  24.607  27.451  1.00  0.00    -0.014 A 
BRANCH  35  36
ATOM     36  C   UNL A   1      41.342  25.885  27.697  1.00  0.00     0.031 A 
ATOM     37  C   UNL A   1      40.638  26.983  28.447  1.00  0.00     0.074 A 
ATOM     38  C   UNL A   1      42.613  26.052  27.295  1.00  0.00     0.049 A 
ATOM     39  N   UNL A   1      41.064  28.181  28.757  1.00  0.00    -0.248 NA
ATOM     40  C   UNL A   1      39.272  26.691  28.911  1.00  0.00     0.031 C 
ATOM     41  C   UNL A   1      43.417  25.051  26.599  1.00  0.00     0.029 A 
ATOM     42  N   UNL A   1      43.450  27.133  27.415  1.00  0.00    -0.354 N 
ATOM     43  C   UNL A   1      40.022  28.785  29.449  1.00  0.00     0.074 A 
ATOM     44  C   UNL A   1      38.932  27.833  29.490  1.00  0.00     0.031 C 
ATOM     45  C   UNL A   1      44.631  25.569  26.340  1.00  0.00     0.029 A 
ATOM     46  C   UNL A   1      44.678  26.946  26.831  1.00  0.00     0.049 A 
ATOM     47  H   UNL A   1      43.194  27.966  27.875  1.00  0.00     0.167 HD
ATOM     48  C   UNL A   1      39.978  30.018  30.009  1.00  0.00     0.037 A 
ATOM     49  C   UNL A   1      45.713  27.795  26.691  1.00  0.00     0.037 A 
ATOM     50  C   UNL A   1      41.059  30.967  29.968  1.00  0.00     0.049 A 
ATOM     51  C   UNL A   1      45.616  29.185  27.260  1.00  0.00     0.074 A 
ATOM     52  C   UNL A   1      41.114  32.237  30.518  1.00  0.00     0.029 A 
ATOM     53  N   UNL A   1      42.275  30.751  29.339  1.00  0.00    -0.354 N 
ATOM     54  N   UNL A   1      44.633  29.738  27.929  1.00  0.00    -0.248 NA
ATOM     55  C   UNL A   1      46.773  30.070  27.054  1.00  0.00     0.031 C 
ATOM     56  C   UNL A   1      42.348  32.805  30.184  1.00  0.00     0.029 A 
ATOM     57  C   UNL A   1      43.078  31.873  29.464  1.00  0.00     0.049 A 
ATOM     58  H   UNL A   1      42.529  29.923  28.871  1.00  0.00     0.167 HD
ATOM     59  C   UNL A   1      45.062  31.021  28.247  1.00  0.00     0.074 A 
ATOM     60  C   UNL A   1      46.397  31.162  27.706  1.00  0.00     0.031 C 
ATOM     61  C   UNL A   1      44.408  31.995  28.927  1.00  0.00     0.037 A 
BRANCH  48  62
ATOM     62  C   UNL A   1      38.707  30.419  30.695  1.00  0.00     0.057 A 
ATOM     63  C   UNL A   1      38.446  30.074  32.027  1.00  0.00     0.134 A 
ATOM     64  C   UNL A   1      37.747  31.190  30.026  1.00  0.00     0.134 A 
ATOM     65  F   UNL A   1      39.320  29.326  32.719  1.00  0.00    -0.206 F 
ATOM     66  C   UNL A   1      37.268  30.465  32.665  1.00  0.00     0.040 A 
ATOM     67  C   UNL A   1      36.575  31.605  30.661  1.00  0.00     0.040 A 
ATOM     68  F   UNL A   1      37.936  31.557  28.751  1.00  0.00    -0.206 F 
ATOM     69  C   UNL A   1      36.330  31.238  31.982  1.00  0.00     0.006 A 
ENDBRANCH  48  62
BRANCH  49  70
ATOM     70  C   UNL A   1      46.935  27.364  25.966  1.00  0.00     0.057 A 
ATOM     71  C   UNL A   1      48.030  26.820  26.646  1.00  0.00     0.134 A 
ATOM     72  C   UNL A   1      47.043  27.507  24.578  1.00  0.00     0.134 A 
ATOM     73  F   UNL A   1      47.995  26.681  27.980  1.00  0.00    -0.206 F 
ATOM     74  C   UNL A   1      49.196  26.447  25.974  1.00  0.00     0.040 A 
ATOM     75  C   UNL A   1      48.193  27.118  23.890  1.00  0.00     0.040 A 
ATOM     76  F   UNL A   1      46.027  28.023  23.869  1.00  0.00    -0.206 F 
ATOM     77  C   UNL A   1      49.277  26.592  24.590  1.00  0.00     0.006 A 
ENDBRANCH  49  70
BRANCH  61  78
ATOM     78  C   UNL A   1      45.139  33.285  29.153  1.00  0.00     0.057 A 
ATOM     79  C   UNL A   1      45.887  33.517  30.314  1.00  0.00     0.134 A 
ATOM     80  C   UNL A   1      45.128  34.291  28.178  1.00  0.00     0.134 A 
ATOM     81  F   UNL A   1      45.928  32.598  31.291  1.00  0.00    -0.206 F 
ATOM     82  C   UNL A   1      46.583  34.712  30.506  1.00  0.00     0.040 A 
ATOM     83  C   UNL A   1      45.838  35.480  28.348  1.00  0.00     0.040 A 
ATOM     84  F   UNL A   1      44.439  34.127  27.039  1.00  0.00    -0.206 F 
ATOM     85  C   UNL A   1      46.564  35.695  29.518  1.00  0.00     0.006 A 
ENDBRANCH  61  78
ENDBRANCH  35  36
ENDBRANCH  28  30
ENDBRANCH  27  28
ENDBRANCH  26  27
ENDBRANCH  25  26
ENDBRANCH   1  25
TORSDOF 18
ENDMDL
