MODEL 1
REMARK VINA RESULT:     -11.4      0.000      0.000
REMARK SMILES O=C(CC1CC[NH+](C[C@@H]2Cc3ccccc32)CC1)OCCOCCOC(=O)c1ccc(-c2c3nc(c(-c4c(F)cccc4F)c4ccc([nH]4)c(-c4c(F)cccc4F)c4nc(c(-c5c(F)cccc5F)c5ccc2[nH]5)C=C4)C=C3)cc1
REMARK SMILES IDX 21 1 20 2 19 3 2 4 1 5 3 6 4 7 5 8 18 9 6 10 17 11 7 12 8 14
REMARK SMILES IDX 9 15 10 16 16 17 11 18 15 19 12 20 14 21 13 22 22 23 23 24
REMARK SMILES IDX 24 25 25 26 26 27 27 28 28 29 29 30 81 31 30 32 80 33 31 34
REMARK SMILES IDX 32 35 33 36 74 37 34 38 79 39 73 40 75 41 35 42 78 43 72 44
REMARK SMILES IDX 71 45 36 47 62 48 45 49 61 50 46 51 49 52 60 53 76 54 47 55
REMARK SMILES IDX 48 56 59 58 77 59 50 60 37 61 38 62 43 63 39 64 40 65 42 66
REMARK SMILES IDX 44 67 41 68 63 69 64 70 69 71 65 72 66 73 68 74 70 75 67 76
REMARK SMILES IDX 51 77 52 78 57 79 53 80 54 81 56 82 58 83 55 84
REMARK H PARENT 7 13 75 46 49 57
REMARK Flexibility Score: inf
ROOT
ATOM      1  C   UNL A   1      40.031  21.218  26.671  1.00  0.00     0.202 C 
ENDROOT
BRANCH   1   2
ATOM      2  C   UNL A   1      38.903  21.746  25.785  1.00  0.00     0.261 C 
BRANCH   2   3
ATOM      3  O   UNL A   1      38.032  20.751  25.250  1.00  0.00    -0.463 OA
BRANCH   3   4
ATOM      4  C   UNL A   1      36.688  20.826  25.213  1.00  0.00     0.306 C 
ATOM      5  O   UNL A   1      36.053  19.812  24.916  1.00  0.00    -0.252 OA
BRANCH   4   6
ATOM      6  C   UNL A   1      35.961  22.149  25.367  1.00  0.00     0.126 C 
BRANCH   6   7
ATOM      7  C   UNL A   1      35.312  22.835  24.151  1.00  0.00     0.011 C 
ATOM      8  C   UNL A   1      35.255  24.357  24.305  1.00  0.00     0.066 C 
ATOM      9  C   UNL A   1      33.889  22.330  23.901  1.00  0.00     0.066 C 
ATOM     10  C   UNL A   1      34.329  24.756  25.451  1.00  0.00     0.262 C 
ATOM     11  C   UNL A   1      32.947  22.744  25.024  1.00  0.00     0.262 C 
ATOM     12  N   UNL A   1      32.999  24.172  25.330  1.00  0.00    -0.334 N 
ATOM     13  H   UNL A   1      32.655  24.596  24.469  1.00  0.00     0.348 HD
BRANCH  12  14
ATOM     14  C   UNL A   1      32.043  24.603  26.368  1.00  0.00     0.270 C 
BRANCH  14  15
ATOM     15  C   UNL A   1      30.963  25.673  26.088  1.00  0.00     0.079 C 
ATOM     16  C   UNL A   1      30.651  26.226  24.645  1.00  0.00     0.050 C 
ATOM     17  C   UNL A   1      31.260  27.108  26.452  1.00  0.00    -0.036 A 
ATOM     18  C   UNL A   1      31.132  27.553  25.157  1.00  0.00    -0.043 A 
ATOM     19  C   UNL A   1      31.619  27.951  27.481  1.00  0.00     0.004 A 
ATOM     20  C   UNL A   1      31.415  28.850  24.800  1.00  0.00     0.004 A 
ATOM     21  C   UNL A   1      31.914  29.276  27.150  1.00  0.00     0.000 A 
ATOM     22  C   UNL A   1      31.823  29.721  25.816  1.00  0.00     0.000 A 
ENDBRANCH  14  15
ENDBRANCH  12  14
ENDBRANCH   6   7
ENDBRANCH   4   6
ENDBRANCH   3   4
ENDBRANCH   2   3
ENDBRANCH   1   2
BRANCH   1  23
ATOM     23  O   UNL A   1      41.065  20.439  26.085  1.00  0.00    -0.374 OA
BRANCH  23  24
ATOM     24  C   UNL A   1      42.409  20.761  26.469  1.00  0.00     0.202 C 
BRANCH  24  25
ATOM     25  C   UNL A   1      43.271  21.466  25.415  1.00  0.00     0.261 C 
BRANCH  25  26
ATOM     26  O   UNL A   1      42.703  22.727  25.032  1.00  0.00    -0.460 OA
BRANCH  26  27
ATOM     27  C   UNL A   1      43.541  23.790  25.111  1.00  0.00     0.338 C 
ATOM     28  O   UNL A   1      44.516  24.021  24.415  1.00  0.00    -0.246 OA
BRANCH  27  29
ATOM     29  C   UNL A   1      42.931  24.791  26.011  1.00  0.00     0.060 A 
ATOM     30  C   UNL A   1      43.400  26.112  25.937  1.00  0.00     0.016 A 
ATOM     31  C   UNL A   1      41.890  24.451  26.875  1.00  0.00     0.016 A 
ATOM     32  C   UNL A   1      42.863  27.091  26.766  1.00  0.00     0.010 A 
ATOM     33  C   UNL A   1      41.365  25.427  27.718  1.00  0.00     0.010 A 
ATOM     34  C   UNL A   1      41.878  26.738  27.694  1.00  0.00    -0.014 A 
BRANCH  34  35
ATOM     35  C   UNL A   1      41.534  27.661  28.795  1.00  0.00     0.031 A 
ATOM     36  C   UNL A   1      42.315  27.545  30.073  1.00  0.00     0.074 A 
ATOM     37  C   UNL A   1      40.539  28.553  28.671  1.00  0.00     0.049 A 
ATOM     38  N   UNL A   1      42.121  28.135  31.222  1.00  0.00    -0.248 NA
ATOM     39  C   UNL A   1      43.461  26.621  30.051  1.00  0.00     0.031 C 
ATOM     40  C   UNL A   1      39.744  28.771  27.465  1.00  0.00     0.029 A 
ATOM     41  N   UNL A   1      40.011  29.423  29.590  1.00  0.00    -0.354 N 
ATOM     42  C   UNL A   1      43.105  27.634  32.066  1.00  0.00     0.074 A 
ATOM     43  C   UNL A   1      43.875  26.675  31.307  1.00  0.00     0.031 C 
ATOM     44  C   UNL A   1      38.803  29.694  27.729  1.00  0.00     0.029 A 
ATOM     45  C   UNL A   1      38.908  30.096  29.130  1.00  0.00     0.049 A 
ATOM     46  H   UNL A   1      40.386  29.551  30.491  1.00  0.00     0.167 HD
ATOM     47  C   UNL A   1      43.342  27.952  33.360  1.00  0.00     0.037 A 
ATOM     48  C   UNL A   1      38.059  30.913  29.784  1.00  0.00     0.037 A 
ATOM     49  C   UNL A   1      42.564  28.908  34.101  1.00  0.00     0.049 A 
ATOM     50  C   UNL A   1      38.304  31.208  31.242  1.00  0.00     0.074 A 
ATOM     51  C   UNL A   1      42.737  29.334  35.404  1.00  0.00     0.029 A 
ATOM     52  N   UNL A   1      41.456  29.575  33.601  1.00  0.00    -0.354 N 
ATOM     53  N   UNL A   1      39.255  30.763  32.027  1.00  0.00    -0.248 NA
ATOM     54  C   UNL A   1      37.359  32.119  31.903  1.00  0.00     0.031 C 
ATOM     55  C   UNL A   1      41.693  30.212  35.713  1.00  0.00     0.029 A 
ATOM     56  C   UNL A   1      40.911  30.386  34.582  1.00  0.00     0.049 A 
ATOM     57  H   UNL A   1      41.107  29.486  32.684  1.00  0.00     0.167 HD
ATOM     58  C   UNL A   1      39.043  31.360  33.264  1.00  0.00     0.074 A 
ATOM     59  C   UNL A   1      37.875  32.206  33.121  1.00  0.00     0.031 C 
ATOM     60  C   UNL A   1      39.752  31.226  34.413  1.00  0.00     0.037 A 
BRANCH  47  61
ATOM     61  C   UNL A   1      44.455  27.226  34.056  1.00  0.00     0.057 A 
ATOM     62  C   UNL A   1      44.254  26.009  34.723  1.00  0.00     0.134 A 
ATOM     63  C   UNL A   1      45.754  27.752  34.058  1.00  0.00     0.134 A 
ATOM     64  F   UNL A   1      43.032  25.458  34.777  1.00  0.00    -0.206 F 
ATOM     65  C   UNL A   1      45.294  25.360  35.390  1.00  0.00     0.040 A 
ATOM     66  C   UNL A   1      46.809  27.096  34.694  1.00  0.00     0.040 A 
ATOM     67  F   UNL A   1      46.019  28.913  33.439  1.00  0.00    -0.206 F 
ATOM     68  C   UNL A   1      46.578  25.901  35.371  1.00  0.00     0.006 A 
ENDBRANCH  47  61
BRANCH  48  69
ATOM     69  C   UNL A   1      36.889  31.485  29.072  1.00  0.00     0.057 A 
ATOM     70  C   UNL A   1      35.749  30.719  28.813  1.00  0.00     0.134 A 
ATOM     71  C   UNL A   1      36.882  32.819  28.639  1.00  0.00     0.134 A 
ATOM     72  F   UNL A   1      35.702  29.431  29.183  1.00  0.00    -0.206 F 
ATOM     73  C   UNL A   1      34.647  31.252  28.139  1.00  0.00     0.040 A 
ATOM     74  C   UNL A   1      35.779  33.371  27.989  1.00  0.00     0.040 A 
ATOM     75  F   UNL A   1      37.944  33.608  28.860  1.00  0.00    -0.206 F 
ATOM     76  C   UNL A   1      34.658  32.585  27.732  1.00  0.00     0.006 A 
ENDBRANCH  48  69
BRANCH  60  77
ATOM     77  C   UNL A   1      39.314  32.040  35.597  1.00  0.00     0.057 A 
ATOM     78  C   UNL A   1      39.717  33.369  35.776  1.00  0.00     0.134 A 
ATOM     79  C   UNL A   1      38.418  31.503  36.531  1.00  0.00     0.134 A 
ATOM     80  F   UNL A   1      40.580  33.938  34.922  1.00  0.00    -0.206 F 
ATOM     81  C   UNL A   1      39.255  34.130  36.851  1.00  0.00     0.040 A 
ATOM     82  C   UNL A   1      37.928  32.264  37.593  1.00  0.00     0.040 A 
ATOM     83  F   UNL A   1      37.985  30.239  36.413  1.00  0.00    -0.206 F 
ATOM     84  C   UNL A   1      38.349  33.581  37.756  1.00  0.00     0.006 A 
ENDBRANCH  60  77
ENDBRANCH  34  35
ENDBRANCH  27  29
ENDBRANCH  26  27
ENDBRANCH  25  26
ENDBRANCH  24  25
ENDBRANCH  23  24
ENDBRANCH   1  23
TORSDOF 17
ENDMDL
MODEL 2
REMARK VINA RESULT:     -11.3      1.485      3.430
REMARK SMILES O=C(CC1CC[NH+](C[C@@H]2Cc3ccccc32)CC1)OCCOCCOC(=O)c1ccc(-c2c3nc(c(-c4c(F)cccc4F)c4ccc([nH]4)c(-c4c(F)cccc4F)c4nc(c(-c5c(F)cccc5F)c5ccc2[nH]5)C=C4)C=C3)cc1
REMARK SMILES IDX 21 1 20 2 19 3 2 4 1 5 3 6 4 7 5 8 18 9 6 10 17 11 7 12 8 14
REMARK SMILES IDX 9 15 10 16 16 17 11 18 15 19 12 20 14 21 13 22 22 23 23 24
REMARK SMILES IDX 24 25 25 26 26 27 27 28 28 29 29 30 81 31 30 32 80 33 31 34
REMARK SMILES IDX 32 35 33 36 74 37 34 38 79 39 73 40 75 41 35 42 78 43 72 44
REMARK SMILES IDX 71 45 36 47 62 48 45 49 61 50 46 51 49 52 60 53 76 54 47 55
REMARK SMILES IDX 48 56 59 58 77 59 50 60 37 61 38 62 43 63 39 64 40 65 42 66
REMARK SMILES IDX 44 67 41 68 63 69 64 70 69 71 65 72 66 73 68 74 70 75 67 76
REMARK SMILES IDX 51 77 52 78 57 79 53 80 54 81 56 82 58 83 55 84
REMARK H PARENT 7 13 75 46 49 57
REMARK Flexibility Score: inf
ROOT
ATOM      1  C   UNL A   1      40.749  21.296  27.368  1.00  0.00     0.202 C 
ENDROOT
BRANCH   1   2
ATOM      2  C   UNL A   1      40.007  21.711  26.098  1.00  0.00     0.261 C 
BRANCH   2   3
ATOM      3  O   UNL A   1      38.595  21.853  26.237  1.00  0.00    -0.463 OA
BRANCH   3   4
ATOM      4  C   UNL A   1      37.895  22.980  26.001  1.00  0.00     0.306 C 
ATOM      5  O   UNL A   1      38.479  24.062  26.084  1.00  0.00    -0.252 OA
BRANCH   4   6
ATOM      6  C   UNL A   1      36.391  22.953  25.798  1.00  0.00     0.126 C 
BRANCH   6   7
ATOM      7  C   UNL A   1      35.669  24.134  25.124  1.00  0.00     0.011 C 
ATOM      8  C   UNL A   1      34.304  24.417  25.755  1.00  0.00     0.066 C 
ATOM      9  C   UNL A   1      35.457  23.895  23.626  1.00  0.00     0.066 C 
ATOM     10  C   UNL A   1      33.341  23.255  25.522  1.00  0.00     0.262 C 
ATOM     11  C   UNL A   1      34.478  22.755  23.378  1.00  0.00     0.262 C 
ATOM     12  N   UNL A   1      33.224  22.895  24.114  1.00  0.00    -0.334 N 
ATOM     13  H   UNL A   1      32.821  23.740  23.709  1.00  0.00     0.348 HD
BRANCH  12  14
ATOM     14  C   UNL A   1      32.236  21.836  23.833  1.00  0.00     0.270 C 
BRANCH  14  15
ATOM     15  C   UNL A   1      32.220  20.506  24.622  1.00  0.00     0.079 C 
ATOM     16  C   UNL A   1      33.353  20.092  25.637  1.00  0.00     0.050 C 
ATOM     17  C   UNL A   1      32.563  19.230  23.891  1.00  0.00    -0.036 A 
ATOM     18  C   UNL A   1      33.645  18.960  24.695  1.00  0.00    -0.043 A 
ATOM     19  C   UNL A   1      32.230  18.429  22.821  1.00  0.00     0.004 A 
ATOM     20  C   UNL A   1      34.497  17.910  24.444  1.00  0.00     0.004 A 
ATOM     21  C   UNL A   1      33.078  17.354  22.539  1.00  0.00     0.000 A 
ATOM     22  C   UNL A   1      34.210  17.102  23.339  1.00  0.00     0.000 A 
ENDBRANCH  14  15
ENDBRANCH  12  14
ENDBRANCH   6   7
ENDBRANCH   4   6
ENDBRANCH   3   4
ENDBRANCH   2   3
ENDBRANCH   1   2
BRANCH   1  23
ATOM     23  O   UNL A   1      42.142  21.029  27.300  1.00  0.00    -0.374 OA
BRANCH  23  24
ATOM     24  C   UNL A   1      42.672  20.698  26.008  1.00  0.00     0.202 C 
BRANCH  24  25
ATOM     25  C   UNL A   1      43.669  21.693  25.403  1.00  0.00     0.261 C 
BRANCH  25  26
ATOM     26  O   UNL A   1      43.031  22.933  25.063  1.00  0.00    -0.460 OA
BRANCH  26  27
ATOM     27  C   UNL A   1      43.816  24.034  25.158  1.00  0.00     0.338 C 
ATOM     28  O   UNL A   1      44.782  24.320  24.470  1.00  0.00    -0.246 OA
BRANCH  27  29
ATOM     29  C   UNL A   1      43.152  24.995  26.064  1.00  0.00     0.060 A 
ATOM     30  C   UNL A   1      43.515  26.348  25.965  1.00  0.00     0.016 A 
ATOM     31  C   UNL A   1      42.163  24.586  26.957  1.00  0.00     0.016 A 
ATOM     32  C   UNL A   1      42.924  27.292  26.799  1.00  0.00     0.010 A 
ATOM     33  C   UNL A   1      41.585  25.528  27.805  1.00  0.00     0.010 A 
ATOM     34  C   UNL A   1      41.994  26.874  27.756  1.00  0.00    -0.014 A 
BRANCH  34  35
ATOM     35  C   UNL A   1      41.607  27.780  28.857  1.00  0.00     0.031 A 
ATOM     36  C   UNL A   1      42.374  27.681  30.144  1.00  0.00     0.074 A 
ATOM     37  C   UNL A   1      40.587  28.642  28.723  1.00  0.00     0.049 A 
ATOM     38  N   UNL A   1      42.147  28.258  31.293  1.00  0.00    -0.248 NA
ATOM     39  C   UNL A   1      43.548  26.792  30.133  1.00  0.00     0.031 C 
ATOM     40  C   UNL A   1      39.801  28.842  27.508  1.00  0.00     0.029 A 
ATOM     41  N   UNL A   1      40.020  29.490  29.640  1.00  0.00    -0.354 N 
ATOM     42  C   UNL A   1      43.133  27.783  32.148  1.00  0.00     0.074 A 
ATOM     43  C   UNL A   1      43.943  26.852  31.395  1.00  0.00     0.031 C 
ATOM     44  C   UNL A   1      38.829  29.734  27.764  1.00  0.00     0.029 A 
ATOM     45  C   UNL A   1      38.903  30.132  29.168  1.00  0.00     0.049 A 
ATOM     46  H   UNL A   1      40.379  29.624  30.547  1.00  0.00     0.167 HD
ATOM     47  C   UNL A   1      43.344  28.101  33.447  1.00  0.00     0.037 A 
ATOM     48  C   UNL A   1      38.021  30.919  29.815  1.00  0.00     0.037 A 
ATOM     49  C   UNL A   1      42.527  29.028  34.182  1.00  0.00     0.049 A 
ATOM     50  C   UNL A   1      38.237  31.213  31.277  1.00  0.00     0.074 A 
ATOM     51  C   UNL A   1      42.669  29.452  35.490  1.00  0.00     0.029 A 
ATOM     52  N   UNL A   1      41.405  29.664  33.670  1.00  0.00    -0.354 N 
ATOM     53  N   UNL A   1      39.191  30.793  32.073  1.00  0.00    -0.248 NA
ATOM     54  C   UNL A   1      37.256  32.090  31.930  1.00  0.00     0.031 C 
ATOM     55  C   UNL A   1      41.595  30.296  35.789  1.00  0.00     0.029 A 
ATOM     56  C   UNL A   1      40.823  30.452  34.648  1.00  0.00     0.049 A 
ATOM     57  H   UNL A   1      41.072  29.569  32.748  1.00  0.00     0.167 HD
ATOM     58  C   UNL A   1      38.944  31.376  33.310  1.00  0.00     0.074 A 
ATOM     59  C   UNL A   1      37.753  32.186  33.156  1.00  0.00     0.031 C 
ATOM     60  C   UNL A   1      39.641  31.257  34.468  1.00  0.00     0.037 A 
BRANCH  47  61
ATOM     61  C   UNL A   1      44.469  27.405  34.155  1.00  0.00     0.057 A 
ATOM     62  C   UNL A   1      44.322  26.133  34.726  1.00  0.00     0.134 A 
ATOM     63  C   UNL A   1      45.725  28.018  34.264  1.00  0.00     0.134 A 
ATOM     64  F   UNL A   1      43.142  25.497  34.674  1.00  0.00    -0.206 F 
ATOM     65  C   UNL A   1      45.371  25.511  35.406  1.00  0.00     0.040 A 
ATOM     66  C   UNL A   1      46.790  27.392  34.914  1.00  0.00     0.040 A 
ATOM     67  F   UNL A   1      45.937  29.235  33.741  1.00  0.00    -0.206 F 
ATOM     68  C   UNL A   1      46.612  26.139  35.495  1.00  0.00     0.006 A 
ENDBRANCH  47  61
BRANCH  48  69
ATOM     69  C   UNL A   1      36.844  31.459  29.090  1.00  0.00     0.057 A 
ATOM     70  C   UNL A   1      36.795  32.793  28.673  1.00  0.00     0.134 A 
ATOM     71  C   UNL A   1      35.740  30.649  28.789  1.00  0.00     0.134 A 
ATOM     72  F   UNL A   1      37.811  33.623  28.948  1.00  0.00    -0.206 F 
ATOM     73  C   UNL A   1      35.688  33.306  27.994  1.00  0.00     0.040 A 
ATOM     74  C   UNL A   1      34.640  31.142  28.088  1.00  0.00     0.040 A 
ATOM     75  F   UNL A   1      35.726  29.359  29.158  1.00  0.00    -0.206 F 
ATOM     76  C   UNL A   1      34.609  32.478  27.693  1.00  0.00     0.006 A 
ENDBRANCH  48  69
BRANCH  60  77
ATOM     77  C   UNL A   1      39.163  32.051  35.650  1.00  0.00     0.057 A 
ATOM     78  C   UNL A   1      39.480  33.404  35.815  1.00  0.00     0.134 A 
ATOM     79  C   UNL A   1      38.312  31.465  36.597  1.00  0.00     0.134 A 
ATOM     80  F   UNL A   1      40.298  34.021  34.949  1.00  0.00    -0.206 F 
ATOM     81  C   UNL A   1      38.981  34.143  36.889  1.00  0.00     0.040 A 
ATOM     82  C   UNL A   1      37.783  32.201  37.658  1.00  0.00     0.040 A 
ATOM     83  F   UNL A   1      37.959  30.175  36.492  1.00  0.00    -0.206 F 
ATOM     84  C   UNL A   1      38.120  33.544  37.807  1.00  0.00     0.006 A 
ENDBRANCH  60  77
ENDBRANCH  34  35
ENDBRANCH  27  29
ENDBRANCH  26  27
ENDBRANCH  25  26
ENDBRANCH  24  25
ENDBRANCH  23  24
ENDBRANCH   1  23
TORSDOF 17
ENDMDL
MODEL 3
REMARK VINA RESULT:     -11.0      5.019      9.885
REMARK SMILES O=C(CC1CC[NH+](C[C@@H]2Cc3ccccc32)CC1)OCCOCCOC(=O)c1ccc(-c2c3nc(c(-c4c(F)cccc4F)c4ccc([nH]4)c(-c4c(F)cccc4F)c4nc(c(-c5c(F)cccc5F)c5ccc2[nH]5)C=C4)C=C3)cc1
REMARK SMILES IDX 21 1 20 2 19 3 2 4 1 5 3 6 4 7 5 8 18 9 6 10 17 11 7 12 8 14
REMARK SMILES IDX 9 15 10 16 16 17 11 18 15 19 12 20 14 21 13 22 22 23 23 24
REMARK SMILES IDX 24 25 25 26 26 27 27 28 28 29 29 30 81 31 30 32 80 33 31 34
REMARK SMILES IDX 32 35 33 36 74 37 34 38 79 39 73 40 75 41 35 42 78 43 72 44
REMARK SMILES IDX 71 45 36 47 62 48 45 49 61 50 46 51 49 52 60 53 76 54 47 55
REMARK SMILES IDX 48 56 59 58 77 59 50 60 37 61 38 62 43 63 39 64 40 65 42 66
REMARK SMILES IDX 44 67 41 68 63 69 64 70 69 71 65 72 66 73 68 74 70 75 67 76
REMARK SMILES IDX 51 77 52 78 57 79 53 80 54 81 56 82 58 83 55 84
REMARK H PARENT 7 13 75 46 49 57
REMARK Flexibility Score: inf
ROOT
ATOM      1  C   UNL A   1      34.935  33.957  28.156  1.00  0.00     0.202 C 
ENDROOT
BRANCH   1   2
ATOM      2  C   UNL A   1      33.801  32.943  28.003  1.00  0.00     0.261 C 
BRANCH   2   3
ATOM      3  O   UNL A   1      34.122  31.609  28.391  1.00  0.00    -0.463 OA
BRANCH   3   4
ATOM      4  C   UNL A   1      34.566  30.640  27.567  1.00  0.00     0.306 C 
ATOM      5  O   UNL A   1      35.770  30.373  27.572  1.00  0.00    -0.252 OA
BRANCH   4   6
ATOM      6  C   UNL A   1      33.659  29.994  26.537  1.00  0.00     0.126 C 
BRANCH   6   7
ATOM      7  C   UNL A   1      32.166  29.770  26.835  1.00  0.00     0.011 C 
ATOM      8  C   UNL A   1      31.904  28.421  27.509  1.00  0.00     0.066 C 
ATOM      9  C   UNL A   1      31.312  29.839  25.566  1.00  0.00     0.066 C 
ATOM     10  C   UNL A   1      32.238  27.266  26.567  1.00  0.00     0.262 C 
ATOM     11  C   UNL A   1      31.615  28.678  24.629  1.00  0.00     0.262 C 
ATOM     12  N   UNL A   1      31.557  27.373  25.282  1.00  0.00    -0.334 N 
ATOM     13  H   UNL A   1      30.576  27.302  25.552  1.00  0.00     0.348 HD
BRANCH  12  14
ATOM     14  C   UNL A   1      31.779  26.231  24.374  1.00  0.00     0.270 C 
BRANCH  14  15
ATOM     15  C   UNL A   1      33.123  26.028  23.635  1.00  0.00     0.079 C 
ATOM     16  C   UNL A   1      33.262  25.175  22.317  1.00  0.00     0.050 C 
ATOM     17  C   UNL A   1      34.132  25.074  24.227  1.00  0.00    -0.036 A 
ATOM     18  C   UNL A   1      34.129  24.252  23.124  1.00  0.00    -0.043 A 
ATOM     19  C   UNL A   1      34.875  24.784  25.351  1.00  0.00     0.004 A 
ATOM     20  C   UNL A   1      34.816  23.061  23.100  1.00  0.00     0.004 A 
ATOM     21  C   UNL A   1      35.583  23.580  25.357  1.00  0.00     0.000 A 
ATOM     22  C   UNL A   1      35.546  22.718  24.242  1.00  0.00     0.000 A 
ENDBRANCH  14  15
ENDBRANCH  12  14
ENDBRANCH   6   7
ENDBRANCH   4   6
ENDBRANCH   3   4
ENDBRANCH   2   3
ENDBRANCH   1   2
BRANCH   1  23
ATOM     23  O   UNL A   1      34.918  34.853  29.258  1.00  0.00    -0.374 OA
BRANCH  23  24
ATOM     24  C   UNL A   1      33.941  34.601  30.278  1.00  0.00     0.202 C 
BRANCH  24  25
ATOM     25  C   UNL A   1      34.476  34.132  31.636  1.00  0.00     0.261 C 
BRANCH  25  26
ATOM     26  O   UNL A   1      35.022  32.807  31.555  1.00  0.00    -0.460 OA
BRANCH  26  27
ATOM     27  C   UNL A   1      35.997  32.525  32.454  1.00  0.00     0.338 C 
ATOM     28  O   UNL A   1      35.963  32.686  33.663  1.00  0.00    -0.246 OA
BRANCH  27  29
ATOM     29  C   UNL A   1      37.033  31.722  31.771  1.00  0.00     0.060 A 
ATOM     30  C   UNL A   1      37.842  30.887  32.559  1.00  0.00     0.016 A 
ATOM     31  C   UNL A   1      37.178  31.752  30.384  1.00  0.00     0.016 A 
ATOM     32  C   UNL A   1      38.835  30.115  31.966  1.00  0.00     0.010 A 
ATOM     33  C   UNL A   1      38.186  30.994  29.793  1.00  0.00     0.010 A 
ATOM     34  C   UNL A   1      39.041  30.207  30.586  1.00  0.00    -0.014 A 
BRANCH  34  35
ATOM     35  C   UNL A   1      40.279  29.668  29.986  1.00  0.00     0.031 A 
ATOM     36  C   UNL A   1      41.429  30.615  29.793  1.00  0.00     0.074 A 
ATOM     37  C   UNL A   1      40.365  28.386  29.599  1.00  0.00     0.049 A 
ATOM     38  N   UNL A   1      42.562  30.429  29.170  1.00  0.00    -0.248 NA
ATOM     39  C   UNL A   1      41.266  31.961  30.367  1.00  0.00     0.031 C 
ATOM     40  C   UNL A   1      39.323  27.378  29.773  1.00  0.00     0.029 A 
ATOM     41  N   UNL A   1      41.376  27.724  28.950  1.00  0.00    -0.354 N 
ATOM     42  C   UNL A   1      43.235  31.641  29.256  1.00  0.00     0.074 A 
ATOM     43  C   UNL A   1      42.375  32.561  29.965  1.00  0.00     0.031 C 
ATOM     44  C   UNL A   1      39.735  26.228  29.211  1.00  0.00     0.029 A 
ATOM     45  C   UNL A   1      41.049  26.436  28.606  1.00  0.00     0.049 A 
ATOM     46  H   UNL A   1      42.248  28.133  28.749  1.00  0.00     0.167 HD
ATOM     47  C   UNL A   1      44.465  31.955  28.785  1.00  0.00     0.037 A 
ATOM     48  C   UNL A   1      41.723  25.545  27.853  1.00  0.00     0.037 A 
ATOM     49  C   UNL A   1      45.307  31.028  28.079  1.00  0.00     0.049 A 
ATOM     50  C   UNL A   1      43.065  25.933  27.286  1.00  0.00     0.074 A 
ATOM     51  C   UNL A   1      46.584  31.225  27.589  1.00  0.00     0.029 A 
ATOM     52  N   UNL A   1      44.946  29.729  27.753  1.00  0.00    -0.354 N 
ATOM     53  N   UNL A   1      43.715  27.066  27.400  1.00  0.00    -0.248 NA
ATOM     54  C   UNL A   1      43.766  24.919  26.487  1.00  0.00     0.031 C 
ATOM     55  C   UNL A   1      46.970  30.065  26.910  1.00  0.00     0.029 A 
ATOM     56  C   UNL A   1      45.962  29.122  27.036  1.00  0.00     0.049 A 
ATOM     57  H   UNL A   1      44.092  29.301  27.996  1.00  0.00     0.167 HD
ATOM     58  C   UNL A   1      44.912  26.893  26.715  1.00  0.00     0.074 A 
ATOM     59  C   UNL A   1      44.899  25.541  26.195  1.00  0.00     0.031 C 
ATOM     60  C   UNL A   1      45.931  27.770  26.535  1.00  0.00     0.037 A 
BRANCH  47  61
ATOM     61  C   UNL A   1      44.941  33.364  28.981  1.00  0.00     0.057 A 
ATOM     62  C   UNL A   1      45.609  33.774  30.144  1.00  0.00     0.134 A 
ATOM     63  C   UNL A   1      44.730  34.330  27.987  1.00  0.00     0.134 A 
ATOM     64  F   UNL A   1      45.828  32.906  31.143  1.00  0.00    -0.206 F 
ATOM     65  C   UNL A   1      46.021  35.095  30.324  1.00  0.00     0.040 A 
ATOM     66  C   UNL A   1      45.166  35.647  28.142  1.00  0.00     0.040 A 
ATOM     67  F   UNL A   1      44.097  34.008  26.849  1.00  0.00    -0.206 F 
ATOM     68  C   UNL A   1      45.805  36.035  29.317  1.00  0.00     0.006 A 
ENDBRANCH  47  61
BRANCH  48  69
ATOM     69  C   UNL A   1      41.128  24.215  27.574  1.00  0.00     0.057 A 
ATOM     70  C   UNL A   1      40.098  24.059  26.642  1.00  0.00     0.134 A 
ATOM     71  C   UNL A   1      41.582  23.063  28.231  1.00  0.00     0.134 A 
ATOM     72  F   UNL A   1      39.606  25.126  25.995  1.00  0.00    -0.206 F 
ATOM     73  C   UNL A   1      39.532  22.810  26.379  1.00  0.00     0.040 A 
ATOM     74  C   UNL A   1      41.044  21.805  27.959  1.00  0.00     0.040 A 
ATOM     75  F   UNL A   1      42.570  23.143  29.134  1.00  0.00    -0.206 F 
ATOM     76  C   UNL A   1      40.010  21.676  27.033  1.00  0.00     0.006 A 
ENDBRANCH  48  69
BRANCH  60  77
ATOM     77  C   UNL A   1      47.137  27.288  25.782  1.00  0.00     0.057 A 
ATOM     78  C   UNL A   1      47.290  27.503  24.407  1.00  0.00     0.134 A 
ATOM     79  C   UNL A   1      48.192  26.664  26.462  1.00  0.00     0.134 A 
ATOM     80  F   UNL A   1      46.314  28.086  23.697  1.00  0.00    -0.206 F 
ATOM     81  C   UNL A   1      48.444  27.099  23.732  1.00  0.00     0.040 A 
ATOM     82  C   UNL A   1      49.361  26.283  25.803  1.00  0.00     0.040 A 
ATOM     83  F   UNL A   1      48.114  26.438  27.782  1.00  0.00    -0.206 F 
ATOM     84  C   UNL A   1      49.488  26.498  24.433  1.00  0.00     0.006 A 
ENDBRANCH  60  77
ENDBRANCH  34  35
ENDBRANCH  27  29
ENDBRANCH  26  27
ENDBRANCH  25  26
ENDBRANCH  24  25
ENDBRANCH  23  24
ENDBRANCH   1  23
TORSDOF 17
ENDMDL
