MODEL 1
REMARK VINA RESULT:     -11.9      0.000      0.000
REMARK SMILES Cc1cc(C(=O)OCCOCCOC(=O)c2ccc(-c3c4nc(c(-c5c(F)cccc5F)c5ccc([nH]5)c(-c5c(F)cccc5F)c5nc(c(-c6c(F)cccc6F)c6ccc3[nH]6)C=C5)C=C4)cc2)ccc1NS(=O)(=O)c1ccc2c(c1)CCC2
REMARK SMILES IDX 9 1 8 2 7 3 5 4 6 5 4 6 1 7 2 8 3 9 72 10 71 11 70 12 73 13
REMARK SMILES IDX 74 15 75 16 76 17 77 18 78 19 82 20 79 21 81 22 80 23 83 24
REMARK SMILES IDX 85 25 84 26 10 27 11 28 12 29 13 30 14 31 15 32 16 33 17 34
REMARK SMILES IDX 69 35 18 36 68 37 19 38 20 39 21 40 62 41 22 42 67 43 61 44
REMARK SMILES IDX 63 45 23 46 66 47 60 48 59 49 24 51 50 52 33 53 49 54 34 55
REMARK SMILES IDX 37 56 48 57 64 58 35 59 36 60 47 62 65 63 38 64 25 65 26 66
REMARK SMILES IDX 31 67 27 68 28 69 30 70 32 71 29 72 51 73 52 74 57 75 53 76
REMARK SMILES IDX 54 77 56 78 58 79 55 80 39 81 40 82 45 83 41 84 42 85 44 86
REMARK SMILES IDX 46 87 43 88
REMARK H PARENT 73 14 63 50 37 61
REMARK Flexibility Score: inf
ROOT
ATOM      1  C   UNL A   1      33.406  28.016  25.853  1.00  0.00     0.202 C 
ENDROOT
BRANCH   1   2
ATOM      2  C   UNL A   1      33.935  27.756  24.471  1.00  0.00     0.261 C 
BRANCH   2   3
ATOM      3  O   UNL A   1      32.901  27.462  23.505  1.00  0.00    -0.460 OA
BRANCH   3   4
ATOM      4  C   UNL A   1      33.174  26.663  22.419  1.00  0.00     0.338 C 
ATOM      5  O   UNL A   1      34.093  26.704  21.662  1.00  0.00    -0.246 OA
BRANCH   4   6
ATOM      6  C   UNL A   1      32.184  25.562  22.487  1.00  0.00     0.060 A 
ATOM      7  C   UNL A   1      32.569  21.951  23.466  1.00  0.00     0.046 C 
ATOM      8  C   UNL A   1      31.956  23.310  23.288  1.00  0.00    -0.026 A 
ATOM      9  C   UNL A   1      32.700  24.276  22.603  1.00  0.00     0.021 A 
ATOM     10  C   UNL A   1      30.726  23.692  23.858  1.00  0.00     0.052 A 
ATOM     11  C   UNL A   1      30.082  24.834  23.382  1.00  0.00     0.028 A 
ATOM     12  C   UNL A   1      30.834  25.807  22.730  1.00  0.00     0.018 A 
BRANCH  10  13
ATOM     13  N   UNL A   1      30.449  23.193  25.168  1.00  0.00    -0.279 N 
ATOM     14  H   UNL A   1      29.835  22.424  25.217  1.00  0.00     0.180 HD
BRANCH  13  15
ATOM     15  S   UNL A   1      31.037  23.755  26.624  1.00  0.00     0.261 S 
ATOM     16  O   UNL A   1      31.018  25.202  26.578  1.00  0.00    -0.201 OA
ATOM     17  O   UNL A   1      30.294  23.029  27.634  1.00  0.00    -0.201 OA
BRANCH  15  18
ATOM     18  C   UNL A   1      32.749  23.268  26.826  1.00  0.00     0.088 A 
ATOM     19  C   UNL A   1      33.144  22.037  27.377  1.00  0.00     0.022 A 
ATOM     20  C   UNL A   1      33.687  24.089  26.183  1.00  0.00     0.026 A 
ATOM     21  C   UNL A   1      34.412  21.513  27.083  1.00  0.00     0.005 A 
ATOM     22  C   UNL A   1      34.951  23.583  25.951  1.00  0.00    -0.043 A 
ATOM     23  C   UNL A   1      35.280  22.274  26.316  1.00  0.00    -0.045 A 
ATOM     24  C   UNL A   1      36.102  24.241  25.260  1.00  0.00     0.036 C 
ATOM     25  C   UNL A   1      36.604  21.884  25.731  1.00  0.00     0.036 C 
ATOM     26  C   UNL A   1      36.820  23.008  24.700  1.00  0.00     0.010 C 
ENDBRANCH  15  18
ENDBRANCH  13  15
ENDBRANCH  10  13
ENDBRANCH   4   6
ENDBRANCH   3   4
ENDBRANCH   2   3
ENDBRANCH   1   2
BRANCH   1  27
ATOM     27  O   UNL A   1      33.964  29.254  26.262  1.00  0.00    -0.374 OA
BRANCH  27  28
ATOM     28  C   UNL A   1      33.174  30.015  27.157  1.00  0.00     0.202 C 
BRANCH  28  29
ATOM     29  C   UNL A   1      33.754  31.406  27.450  1.00  0.00     0.261 C 
BRANCH  29  30
ATOM     30  O   UNL A   1      34.526  31.366  28.668  1.00  0.00    -0.460 OA
BRANCH  30  31
ATOM     31  C   UNL A   1      35.847  31.672  28.542  1.00  0.00     0.338 C 
ATOM     32  O   UNL A   1      36.294  32.742  28.162  1.00  0.00    -0.246 OA
BRANCH  31  33
ATOM     33  C   UNL A   1      36.659  30.427  28.650  1.00  0.00     0.060 A 
ATOM     34  C   UNL A   1      36.680  29.707  29.859  1.00  0.00     0.016 A 
ATOM     35  C   UNL A   1      37.630  30.183  27.683  1.00  0.00     0.016 A 
ATOM     36  C   UNL A   1      37.769  28.880  30.167  1.00  0.00     0.010 A 
ATOM     37  C   UNL A   1      38.743  29.450  28.033  1.00  0.00     0.010 A 
ATOM     38  C   UNL A   1      38.847  28.830  29.288  1.00  0.00    -0.014 A 
BRANCH  38  39
ATOM     39  C   UNL A   1      40.174  28.269  29.574  1.00  0.00     0.031 A 
ATOM     40  C   UNL A   1      40.519  26.949  28.995  1.00  0.00     0.074 A 
ATOM     41  C   UNL A   1      41.163  29.045  30.090  1.00  0.00     0.049 A 
ATOM     42  N   UNL A   1      41.626  26.339  29.234  1.00  0.00    -0.248 NA
ATOM     43  C   UNL A   1      39.638  26.166  28.126  1.00  0.00     0.031 C 
ATOM     44  C   UNL A   1      42.613  28.873  29.952  1.00  0.00     0.029 A 
ATOM     45  N   UNL A   1      41.074  30.195  30.884  1.00  0.00    -0.354 N 
ATOM     46  C   UNL A   1      41.759  25.322  28.325  1.00  0.00     0.074 A 
ATOM     47  C   UNL A   1      40.447  25.168  27.755  1.00  0.00     0.031 C 
ATOM     48  C   UNL A   1      43.249  29.646  30.850  1.00  0.00     0.029 A 
ATOM     49  C   UNL A   1      42.227  30.256  31.681  1.00  0.00     0.049 A 
ATOM     50  H   UNL A   1      40.334  30.844  30.884  1.00  0.00     0.167 HD
ATOM     51  C   UNL A   1      43.010  24.833  28.101  1.00  0.00     0.037 A 
ATOM     52  C   UNL A   1      42.138  30.236  33.036  1.00  0.00     0.037 A 
ATOM     53  C   UNL A   1      43.945  25.350  29.113  1.00  0.00     0.049 A 
ATOM     54  C   UNL A   1      42.813  28.991  33.521  1.00  0.00     0.074 A 
ATOM     55  C   UNL A   1      44.990  26.255  29.083  1.00  0.00     0.029 A 
ATOM     56  N   UNL A   1      43.652  25.140  30.464  1.00  0.00    -0.354 N 
ATOM     57  N   UNL A   1      42.942  27.933  32.764  1.00  0.00    -0.248 NA
ATOM     58  C   UNL A   1      43.514  28.866  34.792  1.00  0.00     0.031 C 
ATOM     59  C   UNL A   1      45.241  26.670  30.427  1.00  0.00     0.029 A 
ATOM     60  C   UNL A   1      44.383  25.984  31.277  1.00  0.00     0.049 A 
ATOM     61  H   UNL A   1      43.005  24.474  30.794  1.00  0.00     0.167 HD
ATOM     62  C   UNL A   1      43.803  27.065  33.353  1.00  0.00     0.074 A 
ATOM     63  C   UNL A   1      44.092  27.659  34.648  1.00  0.00     0.031 C 
ATOM     64  C   UNL A   1      44.243  25.936  32.731  1.00  0.00     0.037 A 
BRANCH  51  65
ATOM     65  C   UNL A   1      43.440  24.005  26.906  1.00  0.00     0.057 A 
ATOM     66  C   UNL A   1      43.360  22.599  26.952  1.00  0.00     0.134 A 
ATOM     67  C   UNL A   1      44.023  24.503  25.720  1.00  0.00     0.134 A 
ATOM     68  F   UNL A   1      42.862  21.964  28.023  1.00  0.00    -0.206 F 
ATOM     69  C   UNL A   1      43.802  21.768  25.910  1.00  0.00     0.040 A 
ATOM     70  C   UNL A   1      44.424  23.686  24.651  1.00  0.00     0.040 A 
ATOM     71  F   UNL A   1      44.295  25.799  25.541  1.00  0.00    -0.206 F 
ATOM     72  C   UNL A   1      44.321  22.309  24.745  1.00  0.00     0.006 A 
ENDBRANCH  51  65
BRANCH  52  73
ATOM     73  C   UNL A   1      40.906  30.923  33.520  1.00  0.00     0.057 A 
ATOM     74  C   UNL A   1      39.832  30.095  33.912  1.00  0.00     0.134 A 
ATOM     75  C   UNL A   1      40.934  32.208  34.075  1.00  0.00     0.134 A 
ATOM     76  F   UNL A   1      39.748  28.840  33.442  1.00  0.00    -0.206 F 
ATOM     77  C   UNL A   1      38.914  30.472  34.901  1.00  0.00     0.040 A 
ATOM     78  C   UNL A   1      40.020  32.594  35.071  1.00  0.00     0.040 A 
ATOM     79  F   UNL A   1      41.931  33.055  33.782  1.00  0.00    -0.206 F 
ATOM     80  C   UNL A   1      39.037  31.711  35.518  1.00  0.00     0.006 A 
ENDBRANCH  52  73
BRANCH  64  81
ATOM     81  C   UNL A   1      44.630  24.703  33.495  1.00  0.00     0.057 A 
ATOM     82  C   UNL A   1      45.959  24.261  33.609  1.00  0.00     0.134 A 
ATOM     83  C   UNL A   1      43.699  24.038  34.316  1.00  0.00     0.134 A 
ATOM     84  F   UNL A   1      46.969  24.882  32.983  1.00  0.00    -0.206 F 
ATOM     85  C   UNL A   1      46.325  23.191  34.426  1.00  0.00     0.040 A 
ATOM     86  C   UNL A   1      44.065  23.010  35.183  1.00  0.00     0.040 A 
ATOM     87  F   UNL A   1      42.403  24.386  34.344  1.00  0.00    -0.206 F 
ATOM     88  C   UNL A   1      45.379  22.569  35.228  1.00  0.00     0.006 A 
ENDBRANCH  64  81
ENDBRANCH  38  39
ENDBRANCH  31  33
ENDBRANCH  30  31
ENDBRANCH  29  30
ENDBRANCH  28  29
ENDBRANCH  27  28
ENDBRANCH   1  27
TORSDOF 17
ENDMDL
MODEL 2
REMARK VINA RESULT:     -11.9      2.617      4.389
REMARK SMILES Cc1cc(C(=O)OCCOCCOC(=O)c2ccc(-c3c4nc(c(-c5c(F)cccc5F)c5ccc([nH]5)c(-c5c(F)cccc5F)c5nc(c(-c6c(F)cccc6F)c6ccc3[nH]6)C=C5)C=C4)cc2)ccc1NS(=O)(=O)c1ccc2c(c1)CCC2
REMARK SMILES IDX 9 1 8 2 7 3 5 4 6 5 4 6 1 7 2 8 3 9 72 10 71 11 70 12 73 13
REMARK SMILES IDX 74 15 75 16 76 17 77 18 78 19 82 20 79 21 81 22 80 23 83 24
REMARK SMILES IDX 85 25 84 26 10 27 11 28 12 29 13 30 14 31 15 32 16 33 17 34
REMARK SMILES IDX 69 35 18 36 68 37 19 38 20 39 21 40 62 41 22 42 67 43 61 44
REMARK SMILES IDX 63 45 23 46 66 47 60 48 59 49 24 51 50 52 33 53 49 54 34 55
REMARK SMILES IDX 37 56 48 57 64 58 35 59 36 60 47 62 65 63 38 64 25 65 26 66
REMARK SMILES IDX 31 67 27 68 28 69 30 70 32 71 29 72 51 73 52 74 57 75 53 76
REMARK SMILES IDX 54 77 56 78 58 79 55 80 39 81 40 82 45 83 41 84 42 85 44 86
REMARK SMILES IDX 46 87 43 88
REMARK H PARENT 73 14 63 50 37 61
REMARK Flexibility Score: inf
ROOT
ATOM      1  C   UNL A   1      33.643  33.686  27.916  1.00  0.00     0.202 C 
ENDROOT
BRANCH   1   2
ATOM      2  C   UNL A   1      34.180  32.290  28.060  1.00  0.00     0.261 C 
BRANCH   2   3
ATOM      3  O   UNL A   1      33.268  31.271  27.596  1.00  0.00    -0.460 OA
BRANCH   3   4
ATOM      4  C   UNL A   1      33.733  30.017  27.277  1.00  0.00     0.338 C 
ATOM      5  O   UNL A   1      34.809  29.540  27.463  1.00  0.00    -0.246 OA
BRANCH   4   6
ATOM      6  C   UNL A   1      32.540  29.260  26.829  1.00  0.00     0.060 A 
ATOM      7  C   UNL A   1      30.357  29.666  23.792  1.00  0.00     0.046 C 
ATOM      8  C   UNL A   1      31.100  29.014  24.922  1.00  0.00    -0.026 A 
ATOM      9  C   UNL A   1      31.786  29.843  25.815  1.00  0.00     0.021 A 
ATOM     10  C   UNL A   1      31.229  27.620  25.071  1.00  0.00     0.052 A 
ATOM     11  C   UNL A   1      31.642  27.102  26.299  1.00  0.00     0.028 A 
ATOM     12  C   UNL A   1      32.353  27.923  27.169  1.00  0.00     0.018 A 
BRANCH  10  13
ATOM     13  N   UNL A   1      31.395  26.863  23.869  1.00  0.00    -0.279 N 
ATOM     14  H   UNL A   1      30.577  26.466  23.491  1.00  0.00     0.180 HD
BRANCH  13  15
ATOM     15  S   UNL A   1      32.806  26.573  23.030  1.00  0.00     0.261 S 
ATOM     16  O   UNL A   1      32.458  26.379  21.638  1.00  0.00    -0.201 OA
ATOM     17  O   UNL A   1      33.708  27.633  23.434  1.00  0.00    -0.201 OA
BRANCH  15  18
ATOM     18  C   UNL A   1      33.555  25.046  23.592  1.00  0.00     0.088 A 
ATOM     19  C   UNL A   1      33.508  23.846  22.863  1.00  0.00     0.022 A 
ATOM     20  C   UNL A   1      34.403  25.167  24.702  1.00  0.00     0.026 A 
ATOM     21  C   UNL A   1      34.473  22.852  23.087  1.00  0.00     0.005 A 
ATOM     22  C   UNL A   1      35.311  24.154  24.948  1.00  0.00    -0.043 A 
ATOM     23  C   UNL A   1      35.404  23.051  24.094  1.00  0.00    -0.045 A 
ATOM     24  C   UNL A   1      36.334  24.067  26.034  1.00  0.00     0.036 C 
ATOM     25  C   UNL A   1      36.620  22.236  24.423  1.00  0.00     0.036 C 
ATOM     26  C   UNL A   1      37.393  23.206  25.337  1.00  0.00     0.010 C 
ENDBRANCH  15  18
ENDBRANCH  13  15
ENDBRANCH  10  13
ENDBRANCH   4   6
ENDBRANCH   3   4
ENDBRANCH   2   3
ENDBRANCH   1   2
BRANCH   1  27
ATOM     27  O   UNL A   1      33.446  34.171  29.234  1.00  0.00    -0.374 OA
BRANCH  27  28
ATOM     28  C   UNL A   1      32.919  35.481  29.333  1.00  0.00     0.202 C 
BRANCH  28  29
ATOM     29  C   UNL A   1      33.269  36.183  30.652  1.00  0.00     0.261 C 
BRANCH  29  30
ATOM     30  O   UNL A   1      33.236  35.231  31.735  1.00  0.00    -0.460 OA
BRANCH  30  31
ATOM     31  C   UNL A   1      34.392  35.095  32.440  1.00  0.00     0.338 C 
ATOM     32  O   UNL A   1      34.897  35.953  33.148  1.00  0.00    -0.246 OA
BRANCH  31  33
ATOM     33  C   UNL A   1      35.105  33.864  31.996  1.00  0.00     0.060 A 
ATOM     34  C   UNL A   1      35.030  32.692  32.772  1.00  0.00     0.016 A 
ATOM     35  C   UNL A   1      36.090  33.984  31.020  1.00  0.00     0.016 A 
ATOM     36  C   UNL A   1      36.043  31.727  32.689  1.00  0.00     0.010 A 
ATOM     37  C   UNL A   1      37.132  33.083  31.015  1.00  0.00     0.010 A 
ATOM     38  C   UNL A   1      37.145  31.974  31.875  1.00  0.00    -0.014 A 
BRANCH  38  39
ATOM     39  C   UNL A   1      38.415  31.238  31.889  1.00  0.00     0.031 A 
ATOM     40  C   UNL A   1      38.537  30.029  31.038  1.00  0.00     0.074 A 
ATOM     41  C   UNL A   1      39.538  31.793  32.414  1.00  0.00     0.049 A 
ATOM     42  N   UNL A   1      39.579  29.277  31.024  1.00  0.00    -0.248 NA
ATOM     43  C   UNL A   1      37.484  29.526  30.154  1.00  0.00     0.031 C 
ATOM     44  C   UNL A   1      40.936  31.507  32.071  1.00  0.00     0.029 A 
ATOM     45  N   UNL A   1      39.670  32.767  33.412  1.00  0.00    -0.354 N 
ATOM     46  C   UNL A   1      39.495  28.451  29.933  1.00  0.00     0.074 A 
ATOM     47  C   UNL A   1      38.123  28.545  29.508  1.00  0.00     0.031 C 
ATOM     48  C   UNL A   1      41.748  32.020  33.012  1.00  0.00     0.029 A 
ATOM     49  C   UNL A   1      40.897  32.554  34.060  1.00  0.00     0.049 A 
ATOM     50  H   UNL A   1      39.019  33.474  33.623  1.00  0.00     0.167 HD
ATOM     51  C   UNL A   1      40.648  27.892  29.471  1.00  0.00     0.037 A 
ATOM     52  C   UNL A   1      40.943  32.276  35.388  1.00  0.00     0.037 A 
ATOM     53  C   UNL A   1      41.736  28.103  30.439  1.00  0.00     0.049 A 
ATOM     54  C   UNL A   1      41.506  30.898  35.548  1.00  0.00     0.074 A 
ATOM     55  C   UNL A   1      42.876  28.887  30.450  1.00  0.00     0.029 A 
ATOM     56  N   UNL A   1      41.558  27.661  31.754  1.00  0.00    -0.354 N 
ATOM     57  N   UNL A   1      41.428  30.003  34.599  1.00  0.00    -0.248 NA
ATOM     58  C   UNL A   1      42.311  30.455  36.679  1.00  0.00     0.031 C 
ATOM     59  C   UNL A   1      43.310  29.001  31.806  1.00  0.00     0.029 A 
ATOM     60  C   UNL A   1      42.464  28.251  32.613  1.00  0.00     0.049 A 
ATOM     61  H   UNL A   1      40.870  27.012  32.032  1.00  0.00     0.167 HD
ATOM     62  C   UNL A   1      42.232  28.953  34.908  1.00  0.00     0.074 A 
ATOM     63  C   UNL A   1      42.720  29.248  36.246  1.00  0.00     0.031 C 
ATOM     64  C   UNL A   1      42.466  27.931  34.040  1.00  0.00     0.037 A 
BRANCH  51  65
ATOM     65  C   UNL A   1      40.852  27.278  28.100  1.00  0.00     0.057 A 
ATOM     66  C   UNL A   1      40.364  25.985  27.824  1.00  0.00     0.134 A 
ATOM     67  C   UNL A   1      41.587  27.848  27.038  1.00  0.00     0.134 A 
ATOM     68  F   UNL A   1      39.672  25.291  28.739  1.00  0.00    -0.206 F 
ATOM     69  C   UNL A   1      40.573  25.329  26.600  1.00  0.00     0.040 A 
ATOM     70  C   UNL A   1      41.763  27.222  25.794  1.00  0.00     0.040 A 
ATOM     71  F   UNL A   1      42.231  29.014  27.152  1.00  0.00    -0.206 F 
ATOM     72  C   UNL A   1      41.261  25.952  25.571  1.00  0.00     0.006 A 
ENDBRANCH  51  65
BRANCH  52  73
ATOM     73  C   UNL A   1      39.858  32.974  36.138  1.00  0.00     0.057 A 
ATOM     74  C   UNL A   1      38.762  32.185  36.547  1.00  0.00     0.134 A 
ATOM     75  C   UNL A   1      40.089  34.145  36.870  1.00  0.00     0.134 A 
ATOM     76  F   UNL A   1      38.491  31.034  35.910  1.00  0.00    -0.206 F 
ATOM     77  C   UNL A   1      38.020  32.470  37.700  1.00  0.00     0.040 A 
ATOM     78  C   UNL A   1      39.351  34.437  38.030  1.00  0.00     0.040 A 
ATOM     79  F   UNL A   1      41.124  34.943  36.572  1.00  0.00    -0.206 F 
ATOM     80  C   UNL A   1      38.346  33.577  38.473  1.00  0.00     0.006 A 
ENDBRANCH  52  73
BRANCH  64  81
ATOM     81  C   UNL A   1      42.774  26.539  34.509  1.00  0.00     0.057 A 
ATOM     82  C   UNL A   1      41.839  25.737  35.183  1.00  0.00     0.134 A 
ATOM     83  C   UNL A   1      43.956  25.885  34.110  1.00  0.00     0.134 A 
ATOM     84  F   UNL A   1      40.621  26.190  35.512  1.00  0.00    -0.206 F 
ATOM     85  C   UNL A   1      42.087  24.401  35.501  1.00  0.00     0.040 A 
ATOM     86  C   UNL A   1      44.188  24.535  34.366  1.00  0.00     0.040 A 
ATOM     87  F   UNL A   1      44.916  26.517  33.418  1.00  0.00    -0.206 F 
ATOM     88  C   UNL A   1      43.261  23.790  35.080  1.00  0.00     0.006 A 
ENDBRANCH  64  81
ENDBRANCH  38  39
ENDBRANCH  31  33
ENDBRANCH  30  31
ENDBRANCH  29  30
ENDBRANCH  28  29
ENDBRANCH  27  28
ENDBRANCH   1  27
TORSDOF 17
ENDMDL
MODEL 3
REMARK VINA RESULT:     -11.6      3.088      5.581
REMARK SMILES Cc1cc(C(=O)OCCOCCOC(=O)c2ccc(-c3c4nc(c(-c5c(F)cccc5F)c5ccc([nH]5)c(-c5c(F)cccc5F)c5nc(c(-c6c(F)cccc6F)c6ccc3[nH]6)C=C5)C=C4)cc2)ccc1NS(=O)(=O)c1ccc2c(c1)CCC2
REMARK SMILES IDX 9 1 8 2 7 3 5 4 6 5 4 6 1 7 2 8 3 9 72 10 71 11 70 12 73 13
REMARK SMILES IDX 74 15 75 16 76 17 77 18 78 19 82 20 79 21 81 22 80 23 83 24
REMARK SMILES IDX 85 25 84 26 10 27 11 28 12 29 13 30 14 31 15 32 16 33 17 34
REMARK SMILES IDX 69 35 18 36 68 37 19 38 20 39 21 40 62 41 22 42 67 43 61 44
REMARK SMILES IDX 63 45 23 46 66 47 60 48 59 49 24 51 50 52 33 53 49 54 34 55
REMARK SMILES IDX 37 56 48 57 64 58 35 59 36 60 47 62 65 63 38 64 25 65 26 66
REMARK SMILES IDX 31 67 27 68 28 69 30 70 32 71 29 72 51 73 52 74 57 75 53 76
REMARK SMILES IDX 54 77 56 78 58 79 55 80 39 81 40 82 45 83 41 84 42 85 44 86
REMARK SMILES IDX 46 87 43 88
REMARK H PARENT 73 14 63 50 37 61
REMARK Flexibility Score: inf
ROOT
ATOM      1  C   UNL A   1      33.275  35.501  28.763  1.00  0.00     0.202 C 
ENDROOT
BRANCH   1   2
ATOM      2  C   UNL A   1      34.700  35.236  28.367  1.00  0.00     0.261 C 
BRANCH   2   3
ATOM      3  O   UNL A   1      34.867  34.028  27.592  1.00  0.00    -0.460 OA
BRANCH   3   4
ATOM      4  C   UNL A   1      35.803  33.091  27.963  1.00  0.00     0.338 C 
ATOM      5  O   UNL A   1      36.914  33.248  28.362  1.00  0.00    -0.246 OA
BRANCH   4   6
ATOM      6  C   UNL A   1      35.076  31.799  27.974  1.00  0.00     0.060 A 
ATOM      7  C   UNL A   1      31.615  30.901  26.808  1.00  0.00     0.046 C 
ATOM      8  C   UNL A   1      33.079  30.778  27.116  1.00  0.00    -0.026 A 
ATOM      9  C   UNL A   1      33.707  31.860  27.742  1.00  0.00     0.021 A 
ATOM     10  C   UNL A   1      33.871  29.683  26.720  1.00  0.00     0.052 A 
ATOM     11  C   UNL A   1      35.117  29.493  27.318  1.00  0.00     0.028 A 
ATOM     12  C   UNL A   1      35.751  30.581  27.911  1.00  0.00     0.018 A 
BRANCH  10  13
ATOM     13  N   UNL A   1      33.589  29.124  25.435  1.00  0.00    -0.279 N 
ATOM     14  H   UNL A   1      33.897  29.647  24.659  1.00  0.00     0.180 HD
BRANCH  13  15
ATOM     15  S   UNL A   1      32.803  27.695  25.090  1.00  0.00     0.261 S 
ATOM     16  O   UNL A   1      33.708  26.870  24.318  1.00  0.00    -0.201 OA
ATOM     17  O   UNL A   1      32.277  27.240  26.361  1.00  0.00    -0.201 OA
BRANCH  15  18
ATOM     18  C   UNL A   1      31.379  28.009  24.050  1.00  0.00     0.088 A 
ATOM     19  C   UNL A   1      30.494  27.004  23.625  1.00  0.00     0.022 A 
ATOM     20  C   UNL A   1      31.053  29.361  23.871  1.00  0.00     0.026 A 
ATOM     21  C   UNL A   1      29.186  27.339  23.241  1.00  0.00     0.005 A 
ATOM     22  C   UNL A   1      29.780  29.677  23.436  1.00  0.00    -0.043 A 
ATOM     23  C   UNL A   1      28.829  28.677  23.212  1.00  0.00    -0.045 A 
ATOM     24  C   UNL A   1      29.186  31.030  23.206  1.00  0.00     0.036 C 
ATOM     25  C   UNL A   1      27.473  29.283  23.003  1.00  0.00     0.036 C 
ATOM     26  C   UNL A   1      27.711  30.727  23.486  1.00  0.00     0.010 C 
ENDBRANCH  15  18
ENDBRANCH  13  15
ENDBRANCH  10  13
ENDBRANCH   4   6
ENDBRANCH   3   4
ENDBRANCH   2   3
ENDBRANCH   1   2
BRANCH   1  27
ATOM     27  O   UNL A   1      33.315  36.587  29.674  1.00  0.00    -0.374 OA
BRANCH  27  28
ATOM     28  C   UNL A   1      32.483  36.463  30.812  1.00  0.00     0.202 C 
BRANCH  28  29
ATOM     29  C   UNL A   1      33.225  35.965  32.060  1.00  0.00     0.261 C 
BRANCH  29  30
ATOM     30  O   UNL A   1      33.498  34.554  31.936  1.00  0.00    -0.460 OA
BRANCH  30  31
ATOM     31  C   UNL A   1      34.433  34.054  32.789  1.00  0.00     0.338 C 
ATOM     32  O   UNL A   1      34.575  34.379  33.958  1.00  0.00    -0.246 OA
BRANCH  31  33
ATOM     33  C   UNL A   1      35.445  33.276  32.019  1.00  0.00     0.060 A 
ATOM     34  C   UNL A   1      35.290  31.886  31.865  1.00  0.00     0.016 A 
ATOM     35  C   UNL A   1      36.677  33.869  31.756  1.00  0.00     0.016 A 
ATOM     36  C   UNL A   1      36.409  31.076  31.623  1.00  0.00     0.010 A 
ATOM     37  C   UNL A   1      37.784  33.061  31.618  1.00  0.00     0.010 A 
ATOM     38  C   UNL A   1      37.671  31.661  31.595  1.00  0.00    -0.014 A 
BRANCH  38  39
ATOM     39  C   UNL A   1      38.956  30.953  31.652  1.00  0.00     0.031 A 
ATOM     40  C   UNL A   1      39.158  29.789  30.757  1.00  0.00     0.074 A 
ATOM     41  C   UNL A   1      40.032  31.508  32.270  1.00  0.00     0.049 A 
ATOM     42  N   UNL A   1      40.218  29.061  30.772  1.00  0.00    -0.248 NA
ATOM     43  C   UNL A   1      38.173  29.304  29.788  1.00  0.00     0.031 C 
ATOM     44  C   UNL A   1      41.454  31.269  31.999  1.00  0.00     0.029 A 
ATOM     45  N   UNL A   1      40.080  32.436  33.317  1.00  0.00    -0.354 N 
ATOM     46  C   UNL A   1      40.220  28.285  29.642  1.00  0.00     0.074 A 
ATOM     47  C   UNL A   1      38.874  28.368  29.139  1.00  0.00     0.031 C 
ATOM     48  C   UNL A   1      42.195  31.754  33.010  1.00  0.00     0.029 A 
ATOM     49  C   UNL A   1      41.271  32.220  34.027  1.00  0.00     0.049 A 
ATOM     50  H   UNL A   1      39.400  33.119  33.519  1.00  0.00     0.167 HD
ATOM     51  C   UNL A   1      41.411  27.774  29.226  1.00  0.00     0.037 A 
ATOM     52  C   UNL A   1      41.244  31.882  35.342  1.00  0.00     0.037 A 
ATOM     53  C   UNL A   1      42.434  27.963  30.267  1.00  0.00     0.049 A 
ATOM     54  C   UNL A   1      41.831  30.510  35.474  1.00  0.00     0.074 A 
ATOM     55  C   UNL A   1      43.552  28.770  30.382  1.00  0.00     0.029 A 
ATOM     56  N   UNL A   1      42.188  27.456  31.547  1.00  0.00    -0.354 N 
ATOM     57  N   UNL A   1      41.832  29.659  34.482  1.00  0.00    -0.248 NA
ATOM     58  C   UNL A   1      42.577  30.033  36.630  1.00  0.00     0.031 C 
ATOM     59  C   UNL A   1      43.901  28.830  31.766  1.00  0.00     0.029 A 
ATOM     60  C   UNL A   1      43.027  28.025  32.485  1.00  0.00     0.049 A 
ATOM     61  H   UNL A   1      41.502  26.780  31.753  1.00  0.00     0.167 HD
ATOM     62  C   UNL A   1      42.641  28.614  34.791  1.00  0.00     0.074 A 
ATOM     63  C   UNL A   1      43.041  28.857  36.168  1.00  0.00     0.031 C 
ATOM     64  C   UNL A   1      42.952  27.639  33.893  1.00  0.00     0.037 A 
BRANCH  51  65
ATOM     65  C   UNL A   1      41.712  27.229  27.843  1.00  0.00     0.057 A 
ATOM     66  C   UNL A   1      41.760  25.837  27.626  1.00  0.00     0.134 A 
ATOM     67  C   UNL A   1      42.051  27.994  26.707  1.00  0.00     0.134 A 
ATOM     68  F   UNL A   1      41.496  24.968  28.612  1.00  0.00    -0.206 F 
ATOM     69  C   UNL A   1      42.096  25.263  26.390  1.00  0.00     0.040 A 
ATOM     70  C   UNL A   1      42.342  27.433  25.453  1.00  0.00     0.040 A 
ATOM     71  F   UNL A   1      42.180  29.324  26.747  1.00  0.00    -0.206 F 
ATOM     72  C   UNL A   1      42.373  26.060  25.291  1.00  0.00     0.006 A 
ENDBRANCH  51  65
BRANCH  52  73
ATOM     73  C   UNL A   1      40.100  32.520  36.055  1.00  0.00     0.057 A 
ATOM     74  C   UNL A   1      38.968  31.711  36.288  1.00  0.00     0.134 A 
ATOM     75  C   UNL A   1      40.270  33.613  36.913  1.00  0.00     0.134 A 
ATOM     76  F   UNL A   1      38.750  30.629  35.523  1.00  0.00    -0.206 F 
ATOM     77  C   UNL A   1      38.126  31.895  37.392  1.00  0.00     0.040 A 
ATOM     78  C   UNL A   1      39.432  33.805  38.026  1.00  0.00     0.040 A 
ATOM     79  F   UNL A   1      41.331  34.422  36.786  1.00  0.00    -0.206 F 
ATOM     80  C   UNL A   1      38.387  32.920  38.293  1.00  0.00     0.006 A 
ENDBRANCH  52  73
BRANCH  64  81
ATOM     81  C   UNL A   1      43.265  26.234  34.317  1.00  0.00     0.057 A 
ATOM     82  C   UNL A   1      42.321  25.393  34.929  1.00  0.00     0.134 A 
ATOM     83  C   UNL A   1      44.468  25.612  33.930  1.00  0.00     0.134 A 
ATOM     84  F   UNL A   1      41.087  25.817  35.237  1.00  0.00    -0.206 F 
ATOM     85  C   UNL A   1      42.580  24.048  35.202  1.00  0.00     0.040 A 
ATOM     86  C   UNL A   1      44.712  24.255  34.140  1.00  0.00     0.040 A 
ATOM     87  F   UNL A   1      45.440  26.284  33.294  1.00  0.00    -0.206 F 
ATOM     88  C   UNL A   1      43.774  23.471  34.794  1.00  0.00     0.006 A 
ENDBRANCH  64  81
ENDBRANCH  38  39
ENDBRANCH  31  33
ENDBRANCH  30  31
ENDBRANCH  29  30
ENDBRANCH  28  29
ENDBRANCH  27  28
ENDBRANCH   1  27
TORSDOF 17
ENDMDL
