MODEL 1
REMARK VINA RESULT:     -10.7      0.000      0.000
REMARK SMILES CCCCCCNC(=O)Oc1cccc(-c2ccc([C@@H](C)C(=O)OCCOCCOC(=O)c3ccc(-c4c5nc(c(-c6c(F)cccc6F)c6ccc([nH]6)c(-c6c(F)cccc6F)c6nc(c(-c7c(F)cccc7F)c7ccc4[nH]7)C=C6)C=C5)cc3)cc2Cl)c1
REMARK SMILES IDX 22 1 23 2 20 3 21 4 19 5 16 6 17 7 88 8 18 9 87 10 89 11
REMARK SMILES IDX 15 12 11 13 12 14 90 15 13 16 14 17 10 18 8 19 7 20 9 22
REMARK SMILES IDX 6 23 5 24 4 25 3 26 2 27 1 28 24 29 25 30 26 31 27 32 28 33
REMARK SMILES IDX 29 34 30 35 31 36 32 37 33 38 34 39 86 40 35 41 85 42 36 43
REMARK SMILES IDX 37 44 38 45 79 46 39 47 84 48 78 49 80 50 40 51 83 52 77 53
REMARK SMILES IDX 76 54 41 56 67 57 50 58 66 59 51 60 54 61 65 62 81 63 52 64
REMARK SMILES IDX 53 65 64 67 82 68 55 69 42 70 43 71 48 72 44 73 45 74 47 75
REMARK SMILES IDX 49 76 46 77 68 78 69 79 74 80 70 81 71 82 73 83 75 84 72 85
REMARK SMILES IDX 56 86 57 87 62 88 58 89 59 90 61 91 63 92 60 93
REMARK H PARENT 7 21 80 55 54 66
REMARK Flexibility Score: inf
ROOT
ATOM      1  C   UNL A   1      41.024  21.580  27.318  1.00  0.00     0.313 C 
ATOM      2  O   UNL A   1      40.500  20.685  27.975  1.00  0.00    -0.252 OA
ENDROOT
BRANCH   1   3
ATOM      3  C   UNL A   1      40.210  22.729  26.741  1.00  0.00     0.126 C 
ATOM      4  C   UNL A   1      40.066  23.820  27.799  1.00  0.00     0.025 C 
BRANCH   3   5
ATOM      5  C   UNL A   1      38.875  22.402  26.077  1.00  0.00    -0.033 A 
ATOM      6  C   UNL A   1      36.276  21.813  25.030  1.00  0.00     0.000 A 
ATOM      7  C   UNL A   1      37.323  20.873  24.985  1.00  0.00     0.010 A 
ATOM      8  C   UNL A   1      36.566  23.069  25.592  1.00  0.00     0.049 A 
ATOM      9  C   UNL A   1      38.597  21.157  25.504  1.00  0.00     0.005 A 
ATOM     10  C   UNL A   1      37.845  23.357  26.099  1.00  0.00     0.025 A 
ATOM     11  Cl  UNL A   1      35.369  24.310  25.759  1.00  0.00    -0.084 Cl
BRANCH   6  12
ATOM     12  C   UNL A   1      34.937  21.429  24.537  1.00  0.00    -0.013 A 
ATOM     13  C   UNL A   1      32.857  21.940  23.388  1.00  0.00     0.133 A 
ATOM     14  C   UNL A   1      32.360  20.669  23.659  1.00  0.00     0.047 A 
ATOM     15  C   UNL A   1      34.127  22.329  23.823  1.00  0.00     0.056 A 
ATOM     16  C   UNL A   1      33.154  19.761  24.354  1.00  0.00     0.004 A 
ATOM     17  C   UNL A   1      34.429  20.141  24.788  1.00  0.00     0.009 A 
BRANCH  13  18
ATOM     18  O   UNL A   1      31.979  22.844  22.767  1.00  0.00    -0.410 OA
BRANCH  18  19
ATOM     19  C   UNL A   1      32.499  24.042  22.303  1.00  0.00     0.412 C 
ATOM     20  N   UNL A   1      31.934  25.142  22.891  1.00  0.00    -0.321 N 
ATOM     21  H   UNL A   1      32.280  26.018  22.603  1.00  0.00     0.167 HD
ATOM     22  O   UNL A   1      33.368  24.167  21.447  1.00  0.00    -0.224 OA
BRANCH  20  23
ATOM     23  C   UNL A   1      30.883  25.161  23.890  1.00  0.00     0.119 C 
BRANCH  23  24
ATOM     24  C   UNL A   1      30.398  26.580  24.190  1.00  0.00     0.021 C 
BRANCH  24  25
ATOM     25  C   UNL A   1      30.378  27.528  22.984  1.00  0.00     0.002 C 
BRANCH  25  26
ATOM     26  C   UNL A   1      29.949  28.970  23.279  1.00  0.00    -0.000 C 
BRANCH  26  27
ATOM     27  C   UNL A   1      29.574  29.809  22.055  1.00  0.00    -0.003 C 
ATOM     28  C   UNL A   1      28.092  30.143  21.984  1.00  0.00     0.004 C 
ENDBRANCH  26  27
ENDBRANCH  25  26
ENDBRANCH  24  25
ENDBRANCH  23  24
ENDBRANCH  20  23
ENDBRANCH  18  19
ENDBRANCH  13  18
ENDBRANCH   6  12
ENDBRANCH   3   5
ENDBRANCH   1   3
BRANCH   1  29
ATOM     29  O   UNL A   1      42.344  21.627  27.001  1.00  0.00    -0.463 OA
BRANCH  29  30
ATOM     30  C   UNL A   1      42.662  21.477  25.606  1.00  0.00     0.261 C 
BRANCH  30  31
ATOM     31  C   UNL A   1      44.067  20.900  25.415  1.00  0.00     0.202 C 
BRANCH  31  32
ATOM     32  O   UNL A   1      44.649  21.070  24.124  1.00  0.00    -0.374 OA
BRANCH  32  33
ATOM     33  C   UNL A   1      44.676  22.391  23.583  1.00  0.00     0.202 C 
BRANCH  33  34
ATOM     34  C   UNL A   1      45.390  23.463  24.416  1.00  0.00     0.261 C 
BRANCH  34  35
ATOM     35  O   UNL A   1      44.469  24.346  25.080  1.00  0.00    -0.460 OA
BRANCH  35  36
ATOM     36  C   UNL A   1      44.946  25.592  25.316  1.00  0.00     0.338 C 
ATOM     37  O   UNL A   1      45.803  26.189  24.695  1.00  0.00    -0.246 OA
BRANCH  36  38
ATOM     38  C   UNL A   1      44.119  26.251  26.347  1.00  0.00     0.060 A 
ATOM     39  C   UNL A   1      44.399  27.594  26.635  1.00  0.00     0.016 A 
ATOM     40  C   UNL A   1      43.142  25.560  27.065  1.00  0.00     0.016 A 
ATOM     41  C   UNL A   1      43.727  28.243  27.669  1.00  0.00     0.010 A 
ATOM     42  C   UNL A   1      42.476  26.210  28.110  1.00  0.00     0.010 A 
ATOM     43  C   UNL A   1      42.786  27.544  28.435  1.00  0.00    -0.014 A 
BRANCH  43  44
ATOM     44  C   UNL A   1      42.219  28.171  29.653  1.00  0.00     0.031 A 
ATOM     45  C   UNL A   1      40.932  28.938  29.552  1.00  0.00     0.074 A 
ATOM     46  C   UNL A   1      42.837  28.049  30.840  1.00  0.00     0.049 A 
ATOM     47  N   UNL A   1      40.296  29.618  30.471  1.00  0.00    -0.248 NA
ATOM     48  C   UNL A   1      40.274  28.942  28.235  1.00  0.00     0.031 C 
ATOM     49  C   UNL A   1      44.068  27.297  31.077  1.00  0.00     0.029 A 
ATOM     50  N   UNL A   1      42.520  28.573  32.068  1.00  0.00    -0.354 N 
ATOM     51  C   UNL A   1      39.173  30.141  29.843  1.00  0.00     0.074 A 
ATOM     52  C   UNL A   1      39.224  29.718  28.460  1.00  0.00     0.031 C 
ATOM     53  C   UNL A   1      44.417  27.431  32.367  1.00  0.00     0.029 A 
ATOM     54  C   UNL A   1      43.454  28.304  33.037  1.00  0.00     0.049 A 
ATOM     55  H   UNL A   1      41.700  29.093  32.238  1.00  0.00     0.167 HD
ATOM     56  C   UNL A   1      38.188  30.906  30.373  1.00  0.00     0.037 A 
ATOM     57  C   UNL A   1      43.544  28.741  34.307  1.00  0.00     0.037 A 
ATOM     58  C   UNL A   1      38.136  31.321  31.751  1.00  0.00     0.049 A 
ATOM     59  C   UNL A   1      42.480  29.654  34.855  1.00  0.00     0.074 A 
ATOM     60  C   UNL A   1      37.149  32.045  32.396  1.00  0.00     0.029 A 
ATOM     61  N   UNL A   1      39.123  31.062  32.690  1.00  0.00    -0.354 N 
ATOM     62  N   UNL A   1      41.399  30.108  34.267  1.00  0.00    -0.248 NA
ATOM     63  C   UNL A   1      42.650  30.120  36.238  1.00  0.00     0.031 C 
ATOM     64  C   UNL A   1      37.568  32.276  33.710  1.00  0.00     0.029 A 
ATOM     65  C   UNL A   1      38.790  31.653  33.897  1.00  0.00     0.049 A 
ATOM     66  H   UNL A   1      39.937  30.535  32.523  1.00  0.00     0.167 HD
ATOM     67  C   UNL A   1      40.757  30.903  35.209  1.00  0.00     0.074 A 
ATOM     68  C   UNL A   1      41.559  30.855  36.413  1.00  0.00     0.031 C 
ATOM     69  C   UNL A   1      39.606  31.611  35.085  1.00  0.00     0.037 A 
BRANCH  56  70
ATOM     70  C   UNL A   1      37.105  31.375  29.448  1.00  0.00     0.057 A 
ATOM     71  C   UNL A   1      37.127  32.646  28.860  1.00  0.00     0.134 A 
ATOM     72  C   UNL A   1      36.037  30.530  29.120  1.00  0.00     0.134 A 
ATOM     73  F   UNL A   1      38.116  33.509  29.141  1.00  0.00    -0.206 F 
ATOM     74  C   UNL A   1      36.110  33.070  28.001  1.00  0.00     0.040 A 
ATOM     75  C   UNL A   1      35.029  30.933  28.245  1.00  0.00     0.040 A 
ATOM     76  F   UNL A   1      35.959  29.297  29.644  1.00  0.00    -0.206 F 
ATOM     77  C   UNL A   1      35.060  32.209  27.688  1.00  0.00     0.006 A 
ENDBRANCH  56  70
BRANCH  57  78
ATOM     78  C   UNL A   1      44.713  28.355  35.136  1.00  0.00     0.057 A 
ATOM     79  C   UNL A   1      45.891  29.109  35.130  1.00  0.00     0.134 A 
ATOM     80  C   UNL A   1      44.674  27.222  35.959  1.00  0.00     0.134 A 
ATOM     81  F   UNL A   1      45.998  30.190  34.343  1.00  0.00    -0.206 F 
ATOM     82  C   UNL A   1      46.992  28.747  35.909  1.00  0.00     0.040 A 
ATOM     83  C   UNL A   1      45.758  26.862  36.759  1.00  0.00     0.040 A 
ATOM     84  F   UNL A   1      43.573  26.458  36.006  1.00  0.00    -0.206 F 
ATOM     85  C   UNL A   1      46.924  27.624  36.733  1.00  0.00     0.006 A 
ENDBRANCH  57  78
BRANCH  69  86
ATOM     86  C   UNL A   1      39.146  32.395  36.279  1.00  0.00     0.057 A 
ATOM     87  C   UNL A   1      39.562  33.714  36.495  1.00  0.00     0.134 A 
ATOM     88  C   UNL A   1      38.230  31.848  37.187  1.00  0.00     0.134 A 
ATOM     89  F   UNL A   1      40.447  34.291  35.669  1.00  0.00    -0.206 F 
ATOM     90  C   UNL A   1      39.094  34.458  37.580  1.00  0.00     0.040 A 
ATOM     91  C   UNL A   1      37.736  32.589  38.261  1.00  0.00     0.040 A 
ATOM     92  F   UNL A   1      37.785  30.592  37.033  1.00  0.00    -0.206 F 
ATOM     93  C   UNL A   1      38.171  33.898  38.461  1.00  0.00     0.006 A 
ENDBRANCH  69  86
ENDBRANCH  43  44
ENDBRANCH  36  38
ENDBRANCH  35  36
ENDBRANCH  34  35
ENDBRANCH  33  34
ENDBRANCH  32  33
ENDBRANCH  31  32
ENDBRANCH  30  31
ENDBRANCH  29  30
ENDBRANCH   1  29
TORSDOF 23
ENDMDL
MODEL 2
REMARK VINA RESULT:     -10.5      3.050      9.436
REMARK SMILES CCCCCCNC(=O)Oc1cccc(-c2ccc([C@@H](C)C(=O)OCCOCCOC(=O)c3ccc(-c4c5nc(c(-c6c(F)cccc6F)c6ccc([nH]6)c(-c6c(F)cccc6F)c6nc(c(-c7c(F)cccc7F)c7ccc4[nH]7)C=C6)C=C5)cc3)cc2Cl)c1
REMARK SMILES IDX 22 1 23 2 20 3 21 4 19 5 16 6 17 7 88 8 18 9 87 10 89 11
REMARK SMILES IDX 15 12 11 13 12 14 90 15 13 16 14 17 10 18 8 19 7 20 9 22
REMARK SMILES IDX 6 23 5 24 4 25 3 26 2 27 1 28 24 29 25 30 26 31 27 32 28 33
REMARK SMILES IDX 29 34 30 35 31 36 32 37 33 38 34 39 86 40 35 41 85 42 36 43
REMARK SMILES IDX 37 44 38 45 79 46 39 47 84 48 78 49 80 50 40 51 83 52 77 53
REMARK SMILES IDX 76 54 41 56 67 57 50 58 66 59 51 60 54 61 65 62 81 63 52 64
REMARK SMILES IDX 53 65 64 67 82 68 55 69 42 70 43 71 48 72 44 73 45 74 47 75
REMARK SMILES IDX 49 76 46 77 68 78 69 79 74 80 70 81 71 82 73 83 75 84 72 85
REMARK SMILES IDX 56 86 57 87 62 88 58 89 59 90 61 91 63 92 60 93
REMARK H PARENT 7 21 80 55 54 66
REMARK Flexibility Score: inf
ROOT
ATOM      1  C   UNL A   1      30.478  28.660  23.394  1.00  0.00     0.313 C 
ATOM      2  O   UNL A   1      30.638  29.555  22.569  1.00  0.00    -0.252 OA
ENDROOT
BRANCH   1   3
ATOM      3  C   UNL A   1      29.790  27.352  23.031  1.00  0.00     0.126 C 
ATOM      4  C   UNL A   1      28.394  27.333  23.649  1.00  0.00     0.025 C 
BRANCH   3   5
ATOM      5  C   UNL A   1      30.542  26.049  23.287  1.00  0.00    -0.033 A 
ATOM      6  C   UNL A   1      32.032  23.696  23.953  1.00  0.00     0.000 A 
ATOM      7  C   UNL A   1      32.283  24.423  22.773  1.00  0.00     0.010 A 
ATOM      8  C   UNL A   1      30.998  24.162  24.785  1.00  0.00     0.049 A 
ATOM      9  C   UNL A   1      31.558  25.581  22.448  1.00  0.00     0.005 A 
ATOM     10  C   UNL A   1      30.264  25.313  24.452  1.00  0.00     0.025 A 
ATOM     11  Cl  UNL A   1      30.604  23.400  26.291  1.00  0.00    -0.084 Cl
BRANCH   6  12
ATOM     12  C   UNL A   1      32.878  22.530  24.279  1.00  0.00    -0.013 A 
ATOM     13  C   UNL A   1      34.960  21.557  25.070  1.00  0.00     0.133 A 
ATOM     14  C   UNL A   1      34.482  20.270  24.839  1.00  0.00     0.047 A 
ATOM     15  C   UNL A   1      34.178  22.681  24.792  1.00  0.00     0.056 A 
ATOM     16  C   UNL A   1      33.192  20.102  24.344  1.00  0.00     0.004 A 
ATOM     17  C   UNL A   1      32.400  21.223  24.067  1.00  0.00     0.009 A 
BRANCH  13  18
ATOM     18  O   UNL A   1      36.299  21.669  25.480  1.00  0.00    -0.410 OA
BRANCH  18  19
ATOM     19  C   UNL A   1      37.226  22.122  24.555  1.00  0.00     0.412 C 
ATOM     20  N   UNL A   1      38.484  22.269  25.074  1.00  0.00    -0.321 N 
ATOM     21  H   UNL A   1      39.182  22.576  24.452  1.00  0.00     0.167 HD
ATOM     22  O   UNL A   1      36.999  22.392  23.380  1.00  0.00    -0.224 OA
BRANCH  20  23
ATOM     23  C   UNL A   1      38.904  22.021  26.441  1.00  0.00     0.119 C 
BRANCH  23  24
ATOM     24  C   UNL A   1      40.251  21.301  26.509  1.00  0.00     0.021 C 
BRANCH  24  25
ATOM     25  C   UNL A   1      41.466  22.163  26.141  1.00  0.00     0.002 C 
BRANCH  25  26
ATOM     26  C   UNL A   1      42.524  22.324  27.238  1.00  0.00    -0.000 C 
BRANCH  26  27
ATOM     27  C   UNL A   1      42.041  22.991  28.528  1.00  0.00    -0.003 C 
ATOM     28  C   UNL A   1      43.157  23.654  29.320  1.00  0.00     0.004 C 
ENDBRANCH  26  27
ENDBRANCH  25  26
ENDBRANCH  24  25
ENDBRANCH  23  24
ENDBRANCH  20  23
ENDBRANCH  18  19
ENDBRANCH  13  18
ENDBRANCH   6  12
ENDBRANCH   3   5
ENDBRANCH   1   3
BRANCH   1  29
ATOM     29  O   UNL A   1      30.847  28.744  24.698  1.00  0.00    -0.463 OA
BRANCH  29  30
ATOM     30  C   UNL A   1      31.831  29.748  25.009  1.00  0.00     0.261 C 
BRANCH  30  31
ATOM     31  C   UNL A   1      32.834  29.239  26.047  1.00  0.00     0.202 C 
BRANCH  31  32
ATOM     32  O   UNL A   1      33.632  30.229  26.692  1.00  0.00    -0.374 OA
BRANCH  32  33
ATOM     33  C   UNL A   1      32.955  31.217  27.468  1.00  0.00     0.202 C 
BRANCH  33  34
ATOM     34  C   UNL A   1      33.451  32.663  27.329  1.00  0.00     0.261 C 
BRANCH  34  35
ATOM     35  O   UNL A   1      32.582  33.606  27.981  1.00  0.00    -0.460 OA
BRANCH  35  36
ATOM     36  C   UNL A   1      33.220  34.592  28.658  1.00  0.00     0.338 C 
ATOM     37  O   UNL A   1      32.863  35.745  28.802  1.00  0.00    -0.246 OA
BRANCH  36  38
ATOM     38  C   UNL A   1      34.359  34.022  29.405  1.00  0.00     0.060 A 
ATOM     39  C   UNL A   1      35.637  34.182  28.851  1.00  0.00     0.016 A 
ATOM     40  C   UNL A   1      34.181  33.291  30.580  1.00  0.00     0.016 A 
ATOM     41  C   UNL A   1      36.740  33.579  29.451  1.00  0.00     0.010 A 
ATOM     42  C   UNL A   1      35.289  32.676  31.175  1.00  0.00     0.010 A 
ATOM     43  C   UNL A   1      36.567  32.794  30.597  1.00  0.00    -0.014 A 
BRANCH  43  44
ATOM     44  C   UNL A   1      37.703  31.995  31.119  1.00  0.00     0.031 A 
ATOM     45  C   UNL A   1      38.292  32.344  32.456  1.00  0.00     0.074 A 
ATOM     46  C   UNL A   1      38.197  30.962  30.414  1.00  0.00     0.049 A 
ATOM     47  N   UNL A   1      39.324  31.823  33.069  1.00  0.00    -0.248 NA
ATOM     48  C   UNL A   1      37.630  33.427  33.200  1.00  0.00     0.031 C 
ATOM     49  C   UNL A   1      37.687  30.499  29.125  1.00  0.00     0.029 A 
ATOM     50  N   UNL A   1      39.253  30.128  30.680  1.00  0.00    -0.354 N 
ATOM     51  C   UNL A   1      39.444  32.524  34.263  1.00  0.00     0.074 A 
ATOM     52  C   UNL A   1      38.394  33.518  34.279  1.00  0.00     0.031 C 
ATOM     53  C   UNL A   1      38.448  29.478  28.699  1.00  0.00     0.029 A 
ATOM     54  C   UNL A   1      39.518  29.240  29.667  1.00  0.00     0.049 A 
ATOM     55  H   UNL A   1      39.771  30.161  31.517  1.00  0.00     0.167 HD
ATOM     56  C   UNL A   1      40.350  32.350  35.255  1.00  0.00     0.037 A 
ATOM     57  C   UNL A   1      40.528  28.362  29.519  1.00  0.00     0.037 A 
ATOM     58  C   UNL A   1      41.391  31.356  35.239  1.00  0.00     0.049 A 
ATOM     59  C   UNL A   1      41.569  28.239  30.598  1.00  0.00     0.074 A 
ATOM     60  C   UNL A   1      42.318  31.064  36.223  1.00  0.00     0.029 A 
ATOM     61  N   UNL A   1      41.651  30.504  34.177  1.00  0.00    -0.354 N 
ATOM     62  N   UNL A   1      41.651  28.874  31.743  1.00  0.00    -0.248 NA
ATOM     63  C   UNL A   1      42.663  27.285  30.364  1.00  0.00     0.031 C 
ATOM     64  C   UNL A   1      43.178  30.076  35.732  1.00  0.00     0.029 A 
ATOM     65  C   UNL A   1      42.755  29.718  34.463  1.00  0.00     0.049 A 
ATOM     66  H   UNL A   1      41.128  30.463  33.345  1.00  0.00     0.167 HD
ATOM     67  C   UNL A   1      42.794  28.391  32.368  1.00  0.00     0.074 A 
ATOM     68  C   UNL A   1      43.365  27.397  31.485  1.00  0.00     0.031 C 
ATOM     69  C   UNL A   1      43.323  28.743  33.567  1.00  0.00     0.037 A 
BRANCH  56  70
ATOM     70  C   UNL A   1      40.277  33.285  36.426  1.00  0.00     0.057 A 
ATOM     71  C   UNL A   1      41.057  34.447  36.501  1.00  0.00     0.134 A 
ATOM     72  C   UNL A   1      39.393  33.030  37.482  1.00  0.00     0.134 A 
ATOM     73  F   UNL A   1      41.931  34.743  35.527  1.00  0.00    -0.206 F 
ATOM     74  C   UNL A   1      40.979  35.307  37.599  1.00  0.00     0.040 A 
ATOM     75  C   UNL A   1      39.290  33.894  38.572  1.00  0.00     0.040 A 
ATOM     76  F   UNL A   1      38.614  31.939  37.470  1.00  0.00    -0.206 F 
ATOM     77  C   UNL A   1      40.089  35.034  38.635  1.00  0.00     0.006 A 
ENDBRANCH  56  70
BRANCH  57  78
ATOM     78  C   UNL A   1      40.627  27.560  28.274  1.00  0.00     0.057 A 
ATOM     79  C   UNL A   1      41.351  28.017  27.168  1.00  0.00     0.134 A 
ATOM     80  C   UNL A   1      40.002  26.311  28.166  1.00  0.00     0.134 A 
ATOM     81  F   UNL A   1      41.949  29.217  27.201  1.00  0.00    -0.206 F 
ATOM     82  C   UNL A   1      41.445  27.264  25.996  1.00  0.00     0.040 A 
ATOM     83  C   UNL A   1      40.106  25.538  27.010  1.00  0.00     0.040 A 
ATOM     84  F   UNL A   1      39.292  25.819  29.193  1.00  0.00    -0.206 F 
ATOM     85  C   UNL A   1      40.828  26.016  25.919  1.00  0.00     0.006 A 
ENDBRANCH  57  78
BRANCH  69  86
ATOM     86  C   UNL A   1      44.585  28.051  33.993  1.00  0.00     0.057 A 
ATOM     87  C   UNL A   1      45.845  28.612  33.754  1.00  0.00     0.134 A 
ATOM     88  C   UNL A   1      44.538  26.845  34.705  1.00  0.00     0.134 A 
ATOM     89  F   UNL A   1      45.960  29.758  33.067  1.00  0.00    -0.206 F 
ATOM     90  C   UNL A   1      47.016  27.991  34.194  1.00  0.00     0.040 A 
ATOM     91  C   UNL A   1      45.699  26.227  35.172  1.00  0.00     0.040 A 
ATOM     92  F   UNL A   1      43.362  26.259  34.975  1.00  0.00    -0.206 F 
ATOM     93  C   UNL A   1      46.943  26.800  34.915  1.00  0.00     0.006 A 
ENDBRANCH  69  86
ENDBRANCH  43  44
ENDBRANCH  36  38
ENDBRANCH  35  36
ENDBRANCH  34  35
ENDBRANCH  33  34
ENDBRANCH  32  33
ENDBRANCH  31  32
ENDBRANCH  30  31
ENDBRANCH  29  30
ENDBRANCH   1  29
TORSDOF 23
ENDMDL
MODEL 3
REMARK VINA RESULT:     -10.5      3.008      8.950
REMARK SMILES CCCCCCNC(=O)Oc1cccc(-c2ccc([C@@H](C)C(=O)OCCOCCOC(=O)c3ccc(-c4c5nc(c(-c6c(F)cccc6F)c6ccc([nH]6)c(-c6c(F)cccc6F)c6nc(c(-c7c(F)cccc7F)c7ccc4[nH]7)C=C6)C=C5)cc3)cc2Cl)c1
REMARK SMILES IDX 22 1 23 2 20 3 21 4 19 5 16 6 17 7 88 8 18 9 87 10 89 11
REMARK SMILES IDX 15 12 11 13 12 14 90 15 13 16 14 17 10 18 8 19 7 20 9 22
REMARK SMILES IDX 6 23 5 24 4 25 3 26 2 27 1 28 24 29 25 30 26 31 27 32 28 33
REMARK SMILES IDX 29 34 30 35 31 36 32 37 33 38 34 39 86 40 35 41 85 42 36 43
REMARK SMILES IDX 37 44 38 45 79 46 39 47 84 48 78 49 80 50 40 51 83 52 77 53
REMARK SMILES IDX 76 54 41 56 67 57 50 58 66 59 51 60 54 61 65 62 81 63 52 64
REMARK SMILES IDX 53 65 64 67 82 68 55 69 42 70 43 71 48 72 44 73 45 74 47 75
REMARK SMILES IDX 49 76 46 77 68 78 69 79 74 80 70 81 71 82 73 83 75 84 72 85
REMARK SMILES IDX 56 86 57 87 62 88 58 89 59 90 61 91 63 92 60 93
REMARK H PARENT 7 21 80 55 54 66
REMARK Flexibility Score: inf
ROOT
ATOM      1  C   UNL A   1      30.441  28.236  23.790  1.00  0.00     0.313 C 
ATOM      2  O   UNL A   1      30.116  29.255  23.189  1.00  0.00    -0.252 OA
ENDROOT
BRANCH   1   3
ATOM      3  C   UNL A   1      29.962  26.861  23.350  1.00  0.00     0.126 C 
ATOM      4  C   UNL A   1      28.559  26.620  23.899  1.00  0.00     0.025 C 
BRANCH   3   5
ATOM      5  C   UNL A   1      30.881  25.666  23.595  1.00  0.00    -0.033 A 
ATOM      6  C   UNL A   1      32.701  23.545  24.217  1.00  0.00     0.000 A 
ATOM      7  C   UNL A   1      32.688  24.163  22.951  1.00  0.00     0.010 A 
ATOM      8  C   UNL A   1      31.762  23.998  25.161  1.00  0.00     0.049 A 
ATOM      9  C   UNL A   1      31.801  25.208  22.647  1.00  0.00     0.005 A 
ATOM     10  C   UNL A   1      30.866  25.035  24.851  1.00  0.00     0.025 A 
ATOM     11  Cl  UNL A   1      31.689  23.367  26.773  1.00  0.00    -0.084 Cl
BRANCH   6  12
ATOM     12  C   UNL A   1      33.708  22.502  24.503  1.00  0.00    -0.013 A 
ATOM     13  C   UNL A   1      36.009  21.783  24.805  1.00  0.00     0.133 A 
ATOM     14  C   UNL A   1      35.604  20.466  25.003  1.00  0.00     0.047 A 
ATOM     15  C   UNL A   1      35.081  22.796  24.551  1.00  0.00     0.056 A 
ATOM     16  C   UNL A   1      34.246  20.160  24.972  1.00  0.00     0.004 A 
ATOM     17  C   UNL A   1      33.310  21.170  24.723  1.00  0.00     0.009 A 
BRANCH  13  18
ATOM     18  O   UNL A   1      37.394  22.017  24.754  1.00  0.00    -0.410 OA
BRANCH  18  19
ATOM     19  C   UNL A   1      37.948  22.852  25.712  1.00  0.00     0.412 C 
ATOM     20  N   UNL A   1      39.061  22.326  26.310  1.00  0.00    -0.321 N 
ATOM     21  H   UNL A   1      39.499  22.888  26.990  1.00  0.00     0.167 HD
ATOM     22  O   UNL A   1      37.520  23.953  26.042  1.00  0.00    -0.224 OA
BRANCH  20  23
ATOM     23  C   UNL A   1      39.669  21.035  26.054  1.00  0.00     0.119 C 
BRANCH  23  24
ATOM     24  C   UNL A   1      41.167  21.030  26.358  1.00  0.00     0.021 C 
BRANCH  24  25
ATOM     25  C   UNL A   1      41.950  22.215  25.777  1.00  0.00     0.002 C 
BRANCH  25  26
ATOM     26  C   UNL A   1      42.699  23.081  26.796  1.00  0.00    -0.000 C 
BRANCH  26  27
ATOM     27  C   UNL A   1      42.431  22.751  28.266  1.00  0.00    -0.003 C 
ATOM     28  C   UNL A   1      43.062  23.741  29.233  1.00  0.00     0.004 C 
ENDBRANCH  26  27
ENDBRANCH  25  26
ENDBRANCH  24  25
ENDBRANCH  23  24
ENDBRANCH  20  23
ENDBRANCH  18  19
ENDBRANCH  13  18
ENDBRANCH   6  12
ENDBRANCH   3   5
ENDBRANCH   1   3
BRANCH   1  29
ATOM     29  O   UNL A   1      31.209  28.218  24.910  1.00  0.00    -0.463 OA
BRANCH  29  30
ATOM     30  C   UNL A   1      31.992  29.401  25.155  1.00  0.00     0.261 C 
BRANCH  30  31
ATOM     31  C   UNL A   1      33.359  29.050  25.745  1.00  0.00     0.202 C 
BRANCH  31  32
ATOM     32  O   UNL A   1      33.777  29.818  26.872  1.00  0.00    -0.374 OA
BRANCH  32  33
ATOM     33  C   UNL A   1      32.941  30.903  27.274  1.00  0.00     0.202 C 
BRANCH  33  34
ATOM     34  C   UNL A   1      33.649  32.165  27.788  1.00  0.00     0.261 C 
BRANCH  34  35
ATOM     35  O   UNL A   1      32.855  33.351  27.605  1.00  0.00    -0.460 OA
BRANCH  35  36
ATOM     36  C   UNL A   1      33.167  34.376  28.436  1.00  0.00     0.338 C 
ATOM     37  O   UNL A   1      32.545  35.406  28.610  1.00  0.00    -0.246 OA
BRANCH  36  38
ATOM     38  C   UNL A   1      34.303  33.988  29.295  1.00  0.00     0.060 A 
ATOM     39  C   UNL A   1      35.592  34.255  28.816  1.00  0.00     0.016 A 
ATOM     40  C   UNL A   1      34.119  33.319  30.506  1.00  0.00     0.016 A 
ATOM     41  C   UNL A   1      36.707  33.819  29.530  1.00  0.00     0.010 A 
ATOM     42  C   UNL A   1      35.239  32.873  31.216  1.00  0.00     0.010 A 
ATOM     43  C   UNL A   1      36.537  33.096  30.717  1.00  0.00    -0.014 A 
BRANCH  43  44
ATOM     44  C   UNL A   1      37.710  32.466  31.368  1.00  0.00     0.031 A 
ATOM     45  C   UNL A   1      38.386  31.305  30.697  1.00  0.00     0.074 A 
ATOM     46  C   UNL A   1      38.177  32.931  32.540  1.00  0.00     0.049 A 
ATOM     47  N   UNL A   1      39.380  30.566  31.118  1.00  0.00    -0.248 NA
ATOM     48  C   UNL A   1      37.868  30.922  29.374  1.00  0.00     0.031 C 
ATOM     49  C   UNL A   1      37.635  34.075  33.270  1.00  0.00     0.029 A 
ATOM     50  N   UNL A   1      39.205  32.482  33.330  1.00  0.00    -0.354 N 
ATOM     51  C   UNL A   1      39.599  29.624  30.121  1.00  0.00     0.074 A 
ATOM     52  C   UNL A   1      38.621  29.871  29.083  1.00  0.00     0.031 C 
ATOM     53  C   UNL A   1      38.321  34.223  34.416  1.00  0.00     0.029 A 
ATOM     54  C   UNL A   1      39.324  33.164  34.515  1.00  0.00     0.049 A 
ATOM     55  H   UNL A   1      39.802  31.741  33.071  1.00  0.00     0.167 HD
ATOM     56  C   UNL A   1      40.532  28.643  30.076  1.00  0.00     0.037 A 
ATOM     57  C   UNL A   1      40.123  32.938  35.574  1.00  0.00     0.037 A 
ATOM     58  C   UNL A   1      41.507  28.404  31.108  1.00  0.00     0.049 A 
ATOM     59  C   UNL A   1      41.100  31.793  35.537  1.00  0.00     0.074 A 
ATOM     60  C   UNL A   1      42.531  27.473  31.125  1.00  0.00     0.029 A 
ATOM     61  N   UNL A   1      41.567  29.090  32.310  1.00  0.00    -0.354 N 
ATOM     62  N   UNL A   1      41.330  30.935  34.573  1.00  0.00    -0.248 NA
ATOM     63  C   UNL A   1      41.924  31.581  36.736  1.00  0.00     0.031 C 
ATOM     64  C   UNL A   1      43.172  27.555  32.366  1.00  0.00     0.029 A 
ATOM     65  C   UNL A   1      42.581  28.571  33.099  1.00  0.00     0.049 A 
ATOM     66  H   UNL A   1      40.978  29.835  32.565  1.00  0.00     0.167 HD
ATOM     67  C   UNL A   1      42.327  30.090  35.043  1.00  0.00     0.074 A 
ATOM     68  C   UNL A   1      42.673  30.549  36.371  1.00  0.00     0.031 C 
ATOM     69  C   UNL A   1      42.904  29.027  34.427  1.00  0.00     0.037 A 
BRANCH  56  70
ATOM     70  C   UNL A   1      40.515  27.729  28.887  1.00  0.00     0.057 A 
ATOM     71  C   UNL A   1      39.721  26.576  28.845  1.00  0.00     0.134 A 
ATOM     72  C   UNL A   1      41.287  28.024  27.756  1.00  0.00     0.134 A 
ATOM     73  F   UNL A   1      38.967  26.231  29.900  1.00  0.00    -0.206 F 
ATOM     74  C   UNL A   1      39.717  25.734  27.731  1.00  0.00     0.040 A 
ATOM     75  C   UNL A   1      41.273  27.204  26.628  1.00  0.00     0.040 A 
ATOM     76  F   UNL A   1      42.065  29.117  27.728  1.00  0.00    -0.206 F 
ATOM     77  C   UNL A   1      40.491  26.051  26.616  1.00  0.00     0.006 A 
ENDBRANCH  56  70
BRANCH  57  78
ATOM     78  C   UNL A   1      39.999  33.791  36.783  1.00  0.00     0.057 A 
ATOM     79  C   UNL A   1      39.034  33.534  37.761  1.00  0.00     0.134 A 
ATOM     80  C   UNL A   1      40.852  34.883  36.988  1.00  0.00     0.134 A 
ATOM     81  F   UNL A   1      38.171  32.518  37.609  1.00  0.00    -0.206 F 
ATOM     82  C   UNL A   1      38.916  34.335  38.898  1.00  0.00     0.040 A 
ATOM     83  C   UNL A   1      40.761  35.679  38.130  1.00  0.00     0.040 A 
ATOM     84  F   UNL A   1      41.799  35.181  36.085  1.00  0.00    -0.206 F 
ATOM     85  C   UNL A   1      39.787  35.407  39.088  1.00  0.00     0.006 A 
ENDBRANCH  57  78
BRANCH  69  86
ATOM     86  C   UNL A   1      43.966  28.284  35.184  1.00  0.00     0.057 A 
ATOM     87  C   UNL A   1      45.264  28.791  35.315  1.00  0.00     0.134 A 
ATOM     88  C   UNL A   1      43.671  27.082  35.841  1.00  0.00     0.134 A 
ATOM     89  F   UNL A   1      45.613  29.931  34.701  1.00  0.00    -0.206 F 
ATOM     90  C   UNL A   1      46.237  28.123  36.061  1.00  0.00     0.040 A 
ATOM     91  C   UNL A   1      44.628  26.417  36.609  1.00  0.00     0.040 A 
ATOM     92  F   UNL A   1      42.444  26.546  35.763  1.00  0.00    -0.206 F 
ATOM     93  C   UNL A   1      45.916  26.936  36.719  1.00  0.00     0.006 A 
ENDBRANCH  69  86
ENDBRANCH  43  44
ENDBRANCH  36  38
ENDBRANCH  35  36
ENDBRANCH  34  35
ENDBRANCH  33  34
ENDBRANCH  32  33
ENDBRANCH  31  32
ENDBRANCH  30  31
ENDBRANCH  29  30
ENDBRANCH   1  29
TORSDOF 23
ENDMDL
