MODEL 1
REMARK VINA RESULT:     -12.0      0.000      0.000
REMARK SMILES Cc1cccc(-c2ncc(C[NH+]3CCC4(CC3)NC(=O)C[C@H]4C(=O)OCCOCCOC(=O)c3ccc(-c4c5nc(c(-c6c(F)cccc6F)c6ccc([nH]6)c(-c6c(F)cccc6F)c6nc(c(-c7c(F)cccc7F)c7ccc4[nH]7)C=C6)C=C5)cc3)cn2)c1
REMARK SMILES IDX 27 1 26 2 25 3 23 4 24 5 22 6 12 7 13 8 17 9 14 11 16 12
REMARK SMILES IDX 15 13 18 14 19 15 21 17 20 18 11 19 10 20 7 21 8 22 89 23
REMARK SMILES IDX 9 24 88 25 6 26 1 27 2 28 3 29 90 30 4 31 5 32 28 33 29 34
REMARK SMILES IDX 30 35 31 36 32 37 33 38 34 39 35 40 87 41 36 42 86 43 37 44
REMARK SMILES IDX 38 45 39 46 80 47 40 48 85 49 79 50 81 51 41 52 84 53 78 54
REMARK SMILES IDX 77 55 42 57 68 58 51 59 67 60 52 61 55 62 66 63 82 64 53 65
REMARK SMILES IDX 54 66 65 68 83 69 56 70 43 71 44 72 49 73 45 74 46 75 48 76
REMARK SMILES IDX 50 77 47 78 69 79 70 80 75 81 71 82 72 83 74 84 76 85 73 86
REMARK SMILES IDX 57 87 58 88 63 89 59 90 60 91 62 92 64 93 61 94
REMARK H PARENT 12 10 18 16 81 56 55 67
REMARK Flexibility Score: inf
ROOT
ATOM      1  C   UNL A   1      33.005  28.952  23.674  1.00  0.00     0.202 C 
ENDROOT
BRANCH   1   2
ATOM      2  C   UNL A   1      33.320  27.949  22.595  1.00  0.00     0.261 C 
BRANCH   2   3
ATOM      3  O   UNL A   1      33.380  26.531  22.901  1.00  0.00    -0.463 OA
BRANCH   3   4
ATOM      4  C   UNL A   1      32.885  25.590  22.049  1.00  0.00     0.311 C 
ATOM      5  O   UNL A   1      33.279  25.393  20.910  1.00  0.00    -0.252 OA
BRANCH   4   6
ATOM      6  C   UNL A   1      31.790  24.745  22.728  1.00  0.00     0.134 C 
ATOM      7  N   UNL A   1      34.101  21.683  24.058  1.00  0.00    -0.331 N 
ATOM      8  C   UNL A   1      32.648  21.475  24.049  1.00  0.00     0.264 C 
ATOM      9  C   UNL A   1      34.411  22.962  23.458  1.00  0.00     0.264 C 
ATOM     10  H   UNL A   1      34.429  20.901  23.491  1.00  0.00     0.348 HD
ATOM     11  C   UNL A   1      31.712  22.669  24.405  1.00  0.00     0.091 C 
ATOM     12  C   UNL A   1      33.715  24.041  24.264  1.00  0.00     0.091 C 
ATOM     13  C   UNL A   1      32.227  24.096  24.062  1.00  0.00     0.064 C 
ATOM     14  N   UNL A   1      31.676  25.015  25.045  1.00  0.00    -0.349 N 
ATOM     15  C   UNL A   1      30.805  25.950  24.545  1.00  0.00     0.221 C 
ATOM     16  H   UNL A   1      31.911  24.969  26.000  1.00  0.00     0.164 HD
ATOM     17  C   UNL A   1      30.589  25.635  23.088  1.00  0.00     0.117 C 
ATOM     18  O   UNL A   1      30.274  26.818  25.192  1.00  0.00    -0.275 OA
BRANCH   7  19
ATOM     19  C   UNL A   1      34.926  21.364  25.258  1.00  0.00     0.302 C 
BRANCH  19  20
ATOM     20  C   UNL A   1      36.399  21.728  25.237  1.00  0.00     0.043 A 
ATOM     21  C   UNL A   1      39.010  22.031  26.005  1.00  0.00     0.159 A 
ATOM     22  N   UNL A   1      38.651  20.881  25.398  1.00  0.00    -0.236 NA
ATOM     23  N   UNL A   1      38.192  23.094  26.157  1.00  0.00    -0.236 NA
ATOM     24  C   UNL A   1      37.363  20.769  24.999  1.00  0.00     0.124 A 
ATOM     25  C   UNL A   1      36.905  22.921  25.754  1.00  0.00     0.124 A 
BRANCH  21  26
ATOM     26  C   UNL A   1      40.371  22.083  26.566  1.00  0.00     0.019 A 
ATOM     27  C   UNL A   1      44.014  21.399  25.521  1.00  0.00     0.044 C 
ATOM     28  C   UNL A   1      42.814  21.821  26.324  1.00  0.00    -0.050 A 
ATOM     29  C   UNL A   1      42.997  22.459  27.552  1.00  0.00     0.003 A 
ATOM     30  C   UNL A   1      41.503  21.631  25.847  1.00  0.00     0.015 A 
ATOM     31  C   UNL A   1      41.895  22.873  28.298  1.00  0.00     0.001 A 
ATOM     32  C   UNL A   1      40.596  22.680  27.813  1.00  0.00     0.012 A 
ENDBRANCH  21  26
ENDBRANCH  19  20
ENDBRANCH   7  19
ENDBRANCH   4   6
ENDBRANCH   3   4
ENDBRANCH   2   3
ENDBRANCH   1   2
BRANCH   1  33
ATOM     33  O   UNL A   1      33.869  28.690  24.762  1.00  0.00    -0.374 OA
BRANCH  33  34
ATOM     34  C   UNL A   1      33.301  28.264  25.991  1.00  0.00     0.202 C 
BRANCH  34  35
ATOM     35  C   UNL A   1      33.173  29.307  27.117  1.00  0.00     0.261 C 
BRANCH  35  36
ATOM     36  O   UNL A   1      33.769  30.563  26.719  1.00  0.00    -0.460 OA
BRANCH  36  37
ATOM     37  C   UNL A   1      34.598  31.162  27.618  1.00  0.00     0.338 C 
ATOM     38  O   UNL A   1      34.685  32.364  27.804  1.00  0.00    -0.246 OA
BRANCH  37  39
ATOM     39  C   UNL A   1      35.618  30.172  28.081  1.00  0.00     0.060 A 
ATOM     40  C   UNL A   1      35.598  29.706  29.409  1.00  0.00     0.016 A 
ATOM     41  C   UNL A   1      36.787  30.078  27.336  1.00  0.00     0.016 A 
ATOM     42  C   UNL A   1      36.794  29.322  30.037  1.00  0.00     0.010 A 
ATOM     43  C   UNL A   1      37.968  29.897  28.012  1.00  0.00     0.010 A 
ATOM     44  C   UNL A   1      37.994  29.520  29.366  1.00  0.00    -0.014 A 
BRANCH  44  45
ATOM     45  C   UNL A   1      39.351  29.430  29.924  1.00  0.00     0.031 A 
ATOM     46  C   UNL A   1      40.113  28.215  29.564  1.00  0.00     0.074 A 
ATOM     47  C   UNL A   1      39.998  30.476  30.508  1.00  0.00     0.049 A 
ATOM     48  N   UNL A   1      41.252  27.927  30.075  1.00  0.00    -0.248 NA
ATOM     49  C   UNL A   1      39.650  27.185  28.633  1.00  0.00     0.031 C 
ATOM     50  C   UNL A   1      41.438  30.687  30.696  1.00  0.00     0.029 A 
ATOM     51  N   UNL A   1      39.466  31.627  31.108  1.00  0.00    -0.354 N 
ATOM     52  C   UNL A   1      41.814  26.930  29.322  1.00  0.00     0.074 A 
ATOM     53  C   UNL A   1      40.729  26.406  28.541  1.00  0.00     0.031 C 
ATOM     54  C   UNL A   1      41.630  31.652  31.616  1.00  0.00     0.029 A 
ATOM     55  C   UNL A   1      40.327  32.012  32.146  1.00  0.00     0.049 A 
ATOM     56  H   UNL A   1      38.634  32.083  30.846  1.00  0.00     0.167 HD
ATOM     57  C   UNL A   1      43.166  26.784  29.399  1.00  0.00     0.037 A 
ATOM     58  C   UNL A   1      39.861  31.978  33.420  1.00  0.00     0.037 A 
ATOM     59  C   UNL A   1      43.698  27.580  30.532  1.00  0.00     0.049 A 
ATOM     60  C   UNL A   1      40.561  30.865  34.154  1.00  0.00     0.074 A 
ATOM     61  C   UNL A   1      44.504  28.694  30.691  1.00  0.00     0.029 A 
ATOM     62  N   UNL A   1      43.095  27.404  31.776  1.00  0.00    -0.354 N 
ATOM     63  N   UNL A   1      41.510  30.151  33.609  1.00  0.00    -0.248 NA
ATOM     64  C   UNL A   1      40.259  30.420  35.506  1.00  0.00     0.031 C 
ATOM     65  C   UNL A   1      44.333  29.187  32.035  1.00  0.00     0.029 A 
ATOM     66  C   UNL A   1      43.456  28.353  32.710  1.00  0.00     0.049 A 
ATOM     67  H   UNL A   1      42.469  26.670  31.970  1.00  0.00     0.167 HD
ATOM     68  C   UNL A   1      41.912  29.157  34.433  1.00  0.00     0.074 A 
ATOM     69  C   UNL A   1      41.081  29.357  35.618  1.00  0.00     0.031 C 
ATOM     70  C   UNL A   1      42.872  28.255  34.056  1.00  0.00     0.037 A 
BRANCH  57  71
ATOM     71  C   UNL A   1      44.013  26.019  28.396  1.00  0.00     0.057 A 
ATOM     72  C   UNL A   1      45.031  25.160  28.847  1.00  0.00     0.134 A 
ATOM     73  C   UNL A   1      43.944  26.115  26.986  1.00  0.00     0.134 A 
ATOM     74  F   UNL A   1      45.258  24.971  30.154  1.00  0.00    -0.206 F 
ATOM     75  C   UNL A   1      45.890  24.459  27.981  1.00  0.00     0.040 A 
ATOM     76  C   UNL A   1      44.769  25.391  26.111  1.00  0.00     0.040 A 
ATOM     77  F   UNL A   1      43.115  26.941  26.349  1.00  0.00    -0.206 F 
ATOM     78  C   UNL A   1      45.754  24.563  26.606  1.00  0.00     0.006 A 
ENDBRANCH  57  71
BRANCH  58  79
ATOM     79  C   UNL A   1      38.426  32.433  33.456  1.00  0.00     0.057 A 
ATOM     80  C   UNL A   1      38.191  33.816  33.258  1.00  0.00     0.134 A 
ATOM     81  C   UNL A   1      37.360  31.583  33.144  1.00  0.00     0.134 A 
ATOM     82  F   UNL A   1      39.169  34.697  33.513  1.00  0.00    -0.206 F 
ATOM     83  C   UNL A   1      37.031  34.309  32.643  1.00  0.00     0.040 A 
ATOM     84  C   UNL A   1      36.185  32.069  32.537  1.00  0.00     0.040 A 
ATOM     85  F   UNL A   1      37.492  30.254  33.269  1.00  0.00    -0.206 F 
ATOM     86  C   UNL A   1      36.039  33.425  32.239  1.00  0.00     0.006 A 
ENDBRANCH  58  79
BRANCH  70  87
ATOM     87  C   UNL A   1      43.267  27.122  34.955  1.00  0.00     0.057 A 
ATOM     88  C   UNL A   1      42.423  26.033  35.199  1.00  0.00     0.134 A 
ATOM     89  C   UNL A   1      44.501  27.093  35.637  1.00  0.00     0.134 A 
ATOM     90  F   UNL A   1      41.160  26.018  34.747  1.00  0.00    -0.206 F 
ATOM     91  C   UNL A   1      42.842  24.918  35.929  1.00  0.00     0.040 A 
ATOM     92  C   UNL A   1      44.904  26.018  36.422  1.00  0.00     0.040 A 
ATOM     93  F   UNL A   1      45.395  28.086  35.558  1.00  0.00    -0.206 F 
ATOM     94  C   UNL A   1      44.093  24.903  36.534  1.00  0.00     0.006 A 
ENDBRANCH  70  87
ENDBRANCH  44  45
ENDBRANCH  37  39
ENDBRANCH  36  37
ENDBRANCH  35  36
ENDBRANCH  34  35
ENDBRANCH  33  34
ENDBRANCH   1  33
TORSDOF 17
ENDMDL
MODEL 2
REMARK VINA RESULT:     -11.9      2.447      4.645
REMARK SMILES Cc1cccc(-c2ncc(C[NH+]3CCC4(CC3)NC(=O)C[C@H]4C(=O)OCCOCCOC(=O)c3ccc(-c4c5nc(c(-c6c(F)cccc6F)c6ccc([nH]6)c(-c6c(F)cccc6F)c6nc(c(-c7c(F)cccc7F)c7ccc4[nH]7)C=C6)C=C5)cc3)cn2)c1
REMARK SMILES IDX 27 1 26 2 25 3 23 4 24 5 22 6 12 7 13 8 17 9 14 11 16 12
REMARK SMILES IDX 15 13 18 14 19 15 21 17 20 18 11 19 10 20 7 21 8 22 89 23
REMARK SMILES IDX 9 24 88 25 6 26 1 27 2 28 3 29 90 30 4 31 5 32 28 33 29 34
REMARK SMILES IDX 30 35 31 36 32 37 33 38 34 39 35 40 87 41 36 42 86 43 37 44
REMARK SMILES IDX 38 45 39 46 80 47 40 48 85 49 79 50 81 51 41 52 84 53 78 54
REMARK SMILES IDX 77 55 42 57 68 58 51 59 67 60 52 61 55 62 66 63 82 64 53 65
REMARK SMILES IDX 54 66 65 68 83 69 56 70 43 71 44 72 49 73 45 74 46 75 48 76
REMARK SMILES IDX 50 77 47 78 69 79 70 80 75 81 71 82 72 83 74 84 76 85 73 86
REMARK SMILES IDX 57 87 58 88 63 89 59 90 60 91 62 92 64 93 61 94
REMARK H PARENT 12 10 18 16 81 56 55 67
REMARK Flexibility Score: inf
ROOT
ATOM      1  C   UNL A   1      31.773  30.461  25.696  1.00  0.00     0.202 C 
ENDROOT
BRANCH   1   2
ATOM      2  C   UNL A   1      31.949  29.253  24.813  1.00  0.00     0.261 C 
BRANCH   2   3
ATOM      3  O   UNL A   1      30.901  28.854  23.890  1.00  0.00    -0.463 OA
BRANCH   3   4
ATOM      4  C   UNL A   1      31.072  27.831  23.007  1.00  0.00     0.311 C 
ATOM      5  O   UNL A   1      30.222  27.421  22.232  1.00  0.00    -0.252 OA
BRANCH   4   6
ATOM      6  C   UNL A   1      32.510  27.283  23.060  1.00  0.00     0.134 C 
ATOM      7  N   UNL A   1      32.212  25.077  26.455  1.00  0.00    -0.331 N 
ATOM      8  C   UNL A   1      33.562  25.360  25.953  1.00  0.00     0.264 C 
ATOM      9  C   UNL A   1      31.237  25.775  25.646  1.00  0.00     0.264 C 
ATOM     10  H   UNL A   1      32.259  25.446  27.405  1.00  0.00     0.348 HD
ATOM     11  C   UNL A   1      33.806  25.381  24.414  1.00  0.00     0.091 C 
ATOM     12  C   UNL A   1      31.383  25.294  24.216  1.00  0.00     0.091 C 
ATOM     13  C   UNL A   1      32.610  25.808  23.516  1.00  0.00     0.064 C 
ATOM     14  N   UNL A   1      32.731  25.103  22.251  1.00  0.00    -0.349 N 
ATOM     15  C   UNL A   1      32.953  25.902  21.157  1.00  0.00     0.221 C 
ATOM     16  H   UNL A   1      32.659  24.123  22.183  1.00  0.00     0.164 HD
ATOM     17  C   UNL A   1      33.134  27.311  21.655  1.00  0.00     0.117 C 
ATOM     18  O   UNL A   1      33.046  25.511  20.020  1.00  0.00    -0.275 OA
BRANCH   7  19
ATOM     19  C   UNL A   1      31.797  23.698  26.844  1.00  0.00     0.302 C 
BRANCH  19  20
ATOM     20  C   UNL A   1      32.366  22.528  26.062  1.00  0.00     0.043 A 
ATOM     21  C   UNL A   1      33.119  19.987  25.371  1.00  0.00     0.159 A 
ATOM     22  N   UNL A   1      31.872  20.395  25.052  1.00  0.00    -0.236 NA
ATOM     23  N   UNL A   1      34.063  20.789  25.908  1.00  0.00    -0.236 NA
ATOM     24  C   UNL A   1      31.537  21.665  25.375  1.00  0.00     0.124 A 
ATOM     25  C   UNL A   1      33.666  22.050  26.228  1.00  0.00     0.124 A 
BRANCH  21  26
ATOM     26  C   UNL A   1      33.422  18.563  25.150  1.00  0.00     0.019 A 
ATOM     27  C   UNL A   1      31.986  15.085  25.965  1.00  0.00     0.044 C 
ATOM     28  C   UNL A   1      32.854  16.174  25.395  1.00  0.00    -0.050 A 
ATOM     29  C   UNL A   1      33.853  15.848  24.477  1.00  0.00     0.003 A 
ATOM     30  C   UNL A   1      32.654  17.527  25.730  1.00  0.00     0.015 A 
ATOM     31  C   UNL A   1      34.653  16.849  23.927  1.00  0.00     0.001 A 
ATOM     32  C   UNL A   1      34.444  18.191  24.266  1.00  0.00     0.012 A 
ENDBRANCH  21  26
ENDBRANCH  19  20
ENDBRANCH   7  19
ENDBRANCH   4   6
ENDBRANCH   3   4
ENDBRANCH   2   3
ENDBRANCH   1   2
BRANCH   1  33
ATOM     33  O   UNL A   1      32.339  30.151  26.955  1.00  0.00    -0.374 OA
BRANCH  33  34
ATOM     34  C   UNL A   1      33.389  30.970  27.446  1.00  0.00     0.202 C 
BRANCH  34  35
ATOM     35  C   UNL A   1      34.748  30.300  27.720  1.00  0.00     0.261 C 
BRANCH  35  36
ATOM     36  O   UNL A   1      35.799  31.290  27.793  1.00  0.00    -0.460 OA
BRANCH  36  37
ATOM     37  C   UNL A   1      36.574  31.284  28.913  1.00  0.00     0.338 C 
ATOM     38  O   UNL A   1      36.811  32.254  29.612  1.00  0.00    -0.246 OA
BRANCH  37  39
ATOM     39  C   UNL A   1      37.362  30.014  28.957  1.00  0.00     0.060 A 
ATOM     40  C   UNL A   1      37.468  29.289  30.159  1.00  0.00     0.016 A 
ATOM     41  C   UNL A   1      38.302  29.822  27.952  1.00  0.00     0.016 A 
ATOM     42  C   UNL A   1      38.615  28.521  30.417  1.00  0.00     0.010 A 
ATOM     43  C   UNL A   1      39.497  29.239  28.292  1.00  0.00     0.010 A 
ATOM     44  C   UNL A   1      39.676  28.584  29.523  1.00  0.00    -0.014 A 
BRANCH  44  45
ATOM     45  C   UNL A   1      41.040  28.073  29.724  1.00  0.00     0.031 A 
ATOM     46  C   UNL A   1      41.319  26.744  29.139  1.00  0.00     0.074 A 
ATOM     47  C   UNL A   1      42.074  28.838  30.170  1.00  0.00     0.049 A 
ATOM     48  N   UNL A   1      42.413  26.107  29.340  1.00  0.00    -0.248 NA
ATOM     49  C   UNL A   1      40.382  25.983  28.312  1.00  0.00     0.031 C 
ATOM     50  C   UNL A   1      43.517  28.632  30.004  1.00  0.00     0.029 A 
ATOM     51  N   UNL A   1      42.045  30.017  30.927  1.00  0.00    -0.354 N 
ATOM     52  C   UNL A   1      42.480  25.083  28.433  1.00  0.00     0.074 A 
ATOM     53  C   UNL A   1      41.142  24.957  27.925  1.00  0.00     0.031 C 
ATOM     54  C   UNL A   1      44.182  29.405  30.885  1.00  0.00     0.029 A 
ATOM     55  C   UNL A   1      43.192  30.043  31.734  1.00  0.00     0.049 A 
ATOM     56  H   UNL A   1      41.342  30.706  30.899  1.00  0.00     0.167 HD
ATOM     57  C   UNL A   1      43.714  24.572  28.166  1.00  0.00     0.037 A 
ATOM     58  C   UNL A   1      43.037  29.999  33.082  1.00  0.00     0.037 A 
ATOM     59  C   UNL A   1      44.694  25.069  29.163  1.00  0.00     0.049 A 
ATOM     60  C   UNL A   1      43.536  28.667  33.576  1.00  0.00     0.074 A 
ATOM     61  C   UNL A   1      45.800  25.902  29.161  1.00  0.00     0.029 A 
ATOM     62  N   UNL A   1      44.364  24.928  30.510  1.00  0.00    -0.354 N 
ATOM     63  N   UNL A   1      44.092  27.787  32.785  1.00  0.00    -0.248 NA
ATOM     64  C   UNL A   1      43.433  28.176  34.941  1.00  0.00     0.031 C 
ATOM     65  C   UNL A   1      46.086  26.275  30.524  1.00  0.00     0.029 A 
ATOM     66  C   UNL A   1      45.184  25.639  31.361  1.00  0.00     0.049 A 
ATOM     67  H   UNL A   1      43.615  24.373  30.823  1.00  0.00     0.167 HD
ATOM     68  C   UNL A   1      44.367  26.638  33.444  1.00  0.00     0.074 A 
ATOM     69  C   UNL A   1      43.919  26.926  34.805  1.00  0.00     0.031 C 
ATOM     70  C   UNL A   1      44.917  25.558  32.805  1.00  0.00     0.037 A 
BRANCH  57  71
ATOM     71  C   UNL A   1      44.056  23.720  26.955  1.00  0.00     0.057 A 
ATOM     72  C   UNL A   1      44.750  24.286  25.872  1.00  0.00     0.134 A 
ATOM     73  C   UNL A   1      43.688  22.371  26.743  1.00  0.00     0.134 A 
ATOM     74  F   UNL A   1      45.152  25.565  25.890  1.00  0.00    -0.206 F 
ATOM     75  C   UNL A   1      45.057  23.577  24.697  1.00  0.00     0.040 A 
ATOM     76  C   UNL A   1      44.022  21.640  25.592  1.00  0.00     0.040 A 
ATOM     77  F   UNL A   1      42.946  21.671  27.601  1.00  0.00    -0.206 F 
ATOM     78  C   UNL A   1      44.704  22.245  24.556  1.00  0.00     0.006 A 
ENDBRANCH  57  71
BRANCH  58  79
ATOM     79  C   UNL A   1      41.840  30.816  33.490  1.00  0.00     0.057 A 
ATOM     80  C   UNL A   1      40.665  30.099  33.827  1.00  0.00     0.134 A 
ATOM     81  C   UNL A   1      41.956  32.093  34.048  1.00  0.00     0.134 A 
ATOM     82  F   UNL A   1      40.486  28.859  33.350  1.00  0.00    -0.206 F 
ATOM     83  C   UNL A   1      39.742  30.558  34.778  1.00  0.00     0.040 A 
ATOM     84  C   UNL A   1      41.028  32.568  34.996  1.00  0.00     0.040 A 
ATOM     85  F   UNL A   1      43.044  32.840  33.814  1.00  0.00    -0.206 F 
ATOM     86  C   UNL A   1      39.949  31.782  35.401  1.00  0.00     0.006 A 
ENDBRANCH  58  79
BRANCH  70  87
ATOM     87  C   UNL A   1      45.164  24.270  33.534  1.00  0.00     0.057 A 
ATOM     88  C   UNL A   1      44.136  23.364  33.818  1.00  0.00     0.134 A 
ATOM     89  C   UNL A   1      46.440  23.902  34.005  1.00  0.00     0.134 A 
ATOM     90  F   UNL A   1      42.853  23.671  33.573  1.00  0.00    -0.206 F 
ATOM     91  C   UNL A   1      44.386  22.109  34.377  1.00  0.00     0.040 A 
ATOM     92  C   UNL A   1      46.692  22.682  34.625  1.00  0.00     0.040 A 
ATOM     93  F   UNL A   1      47.517  24.685  33.867  1.00  0.00    -0.206 F 
ATOM     94  C   UNL A   1      45.672  21.760  34.772  1.00  0.00     0.006 A 
ENDBRANCH  70  87
ENDBRANCH  44  45
ENDBRANCH  37  39
ENDBRANCH  36  37
ENDBRANCH  35  36
ENDBRANCH  34  35
ENDBRANCH  33  34
ENDBRANCH   1  33
TORSDOF 17
ENDMDL
MODEL 3
REMARK VINA RESULT:     -11.4      1.512      2.187
REMARK SMILES Cc1cccc(-c2ncc(C[NH+]3CCC4(CC3)NC(=O)C[C@H]4C(=O)OCCOCCOC(=O)c3ccc(-c4c5nc(c(-c6c(F)cccc6F)c6ccc([nH]6)c(-c6c(F)cccc6F)c6nc(c(-c7c(F)cccc7F)c7ccc4[nH]7)C=C6)C=C5)cc3)cn2)c1
REMARK SMILES IDX 27 1 26 2 25 3 23 4 24 5 22 6 12 7 13 8 17 9 14 11 16 12
REMARK SMILES IDX 15 13 18 14 19 15 21 17 20 18 11 19 10 20 7 21 8 22 89 23
REMARK SMILES IDX 9 24 88 25 6 26 1 27 2 28 3 29 90 30 4 31 5 32 28 33 29 34
REMARK SMILES IDX 30 35 31 36 32 37 33 38 34 39 35 40 87 41 36 42 86 43 37 44
REMARK SMILES IDX 38 45 39 46 80 47 40 48 85 49 79 50 81 51 41 52 84 53 78 54
REMARK SMILES IDX 77 55 42 57 68 58 51 59 67 60 52 61 55 62 66 63 82 64 53 65
REMARK SMILES IDX 54 66 65 68 83 69 56 70 43 71 44 72 49 73 45 74 46 75 48 76
REMARK SMILES IDX 50 77 47 78 69 79 70 80 75 81 71 82 72 83 74 84 76 85 73 86
REMARK SMILES IDX 57 87 58 88 63 89 59 90 60 91 62 92 64 93 61 94
REMARK H PARENT 12 10 18 16 81 56 55 67
REMARK Flexibility Score: inf
ROOT
ATOM      1  C   UNL A   1      32.865  29.054  24.430  1.00  0.00     0.202 C 
ENDROOT
BRANCH   1   2
ATOM      2  C   UNL A   1      33.329  27.784  25.094  1.00  0.00     0.261 C 
BRANCH   2   3
ATOM      3  O   UNL A   1      32.684  26.517  24.798  1.00  0.00    -0.463 OA
BRANCH   3   4
ATOM      4  C   UNL A   1      32.068  25.781  25.764  1.00  0.00     0.311 C 
ATOM      5  O   UNL A   1      31.797  26.177  26.887  1.00  0.00    -0.252 OA
BRANCH   4   6
ATOM      6  C   UNL A   1      31.690  24.382  25.242  1.00  0.00     0.134 C 
ATOM      7  N   UNL A   1      35.412  22.777  25.010  1.00  0.00    -0.331 N 
ATOM      8  C   UNL A   1      34.330  22.071  24.313  1.00  0.00     0.264 C 
ATOM      9  C   UNL A   1      34.905  24.013  25.566  1.00  0.00     0.264 C 
ATOM     10  H   UNL A   1      36.079  22.939  24.255  1.00  0.00     0.348 HD
ATOM     11  C   UNL A   1      32.916  22.026  24.964  1.00  0.00     0.091 C 
ATOM     12  C   UNL A   1      33.787  23.671  26.530  1.00  0.00     0.091 C 
ATOM     13  C   UNL A   1      32.514  23.230  25.864  1.00  0.00     0.064 C 
ATOM     14  N   UNL A   1      31.618  22.734  26.896  1.00  0.00    -0.349 N 
ATOM     15  C   UNL A   1      30.338  23.226  26.842  1.00  0.00     0.221 C 
ATOM     16  H   UNL A   1      31.909  22.091  27.583  1.00  0.00     0.164 HD
ATOM     17  C   UNL A   1      30.228  24.066  25.598  1.00  0.00     0.117 C 
ATOM     18  O   UNL A   1      29.462  22.963  27.627  1.00  0.00    -0.275 OA
BRANCH   7  19
ATOM     19  C   UNL A   1      36.362  22.058  25.907  1.00  0.00     0.302 C 
BRANCH  19  20
ATOM     20  C   UNL A   1      37.834  22.420  25.836  1.00  0.00     0.043 A 
ATOM     21  C   UNL A   1      40.442  22.842  26.558  1.00  0.00     0.159 A 
ATOM     22  N   UNL A   1      40.088  21.613  26.126  1.00  0.00    -0.236 NA
ATOM     23  N   UNL A   1      39.620  23.912  26.550  1.00  0.00    -0.236 NA
ATOM     24  C   UNL A   1      38.802  21.440  25.744  1.00  0.00     0.124 A 
ATOM     25  C   UNL A   1      38.335  23.678  26.174  1.00  0.00     0.124 A 
BRANCH  21  26
ATOM     26  C   UNL A   1      41.801  22.980  27.109  1.00  0.00     0.019 A 
ATOM     27  C   UNL A   1      43.580  23.329  30.506  1.00  0.00     0.044 C 
ATOM     28  C   UNL A   1      43.340  23.171  29.029  1.00  0.00    -0.050 A 
ATOM     29  C   UNL A   1      44.422  22.953  28.175  1.00  0.00     0.003 A 
ATOM     30  C   UNL A   1      42.041  23.192  28.487  1.00  0.00     0.015 A 
ATOM     31  C   UNL A   1      44.213  22.786  26.807  1.00  0.00     0.001 A 
ATOM     32  C   UNL A   1      42.917  22.807  26.280  1.00  0.00     0.012 A 
ENDBRANCH  21  26
ENDBRANCH  19  20
ENDBRANCH   7  19
ENDBRANCH   4   6
ENDBRANCH   3   4
ENDBRANCH   2   3
ENDBRANCH   1   2
BRANCH   1  33
ATOM     33  O   UNL A   1      32.078  29.759  25.369  1.00  0.00    -0.374 OA
BRANCH  33  34
ATOM     34  C   UNL A   1      32.496  29.780  26.725  1.00  0.00     0.202 C 
BRANCH  34  35
ATOM     35  C   UNL A   1      33.301  31.002  27.205  1.00  0.00     0.261 C 
BRANCH  35  36
ATOM     36  O   UNL A   1      34.700  30.668  27.347  1.00  0.00    -0.460 OA
BRANCH  36  37
ATOM     37  C   UNL A   1      35.280  30.941  28.548  1.00  0.00     0.338 C 
ATOM     38  O   UNL A   1      35.125  31.968  29.189  1.00  0.00    -0.246 OA
BRANCH  37  39
ATOM     39  C   UNL A   1      36.388  29.968  28.791  1.00  0.00     0.060 A 
ATOM     40  C   UNL A   1      36.506  29.328  30.039  1.00  0.00     0.016 A 
ATOM     41  C   UNL A   1      37.493  30.050  27.953  1.00  0.00     0.016 A 
ATOM     42  C   UNL A   1      37.770  28.943  30.515  1.00  0.00     0.010 A 
ATOM     43  C   UNL A   1      38.735  29.859  28.506  1.00  0.00     0.010 A 
ATOM     44  C   UNL A   1      38.896  29.308  29.789  1.00  0.00    -0.014 A 
BRANCH  44  45
ATOM     45  C   UNL A   1      40.298  29.233  30.225  1.00  0.00     0.031 A 
ATOM     46  C   UNL A   1      41.103  28.154  29.614  1.00  0.00     0.074 A 
ATOM     47  C   UNL A   1      40.923  30.219  30.926  1.00  0.00     0.049 A 
ATOM     48  N   UNL A   1      42.297  27.876  29.985  1.00  0.00    -0.248 NA
ATOM     49  C   UNL A   1      40.629  27.255  28.560  1.00  0.00     0.031 C 
ATOM     50  C   UNL A   1      42.357  30.506  31.042  1.00  0.00     0.029 A 
ATOM     51  N   UNL A   1      40.372  31.213  31.746  1.00  0.00    -0.354 N 
ATOM     52  C   UNL A   1      42.856  27.060  29.038  1.00  0.00     0.074 A 
ATOM     53  C   UNL A   1      41.745  26.586  28.261  1.00  0.00     0.031 C 
ATOM     54  C   UNL A   1      42.565  31.322  32.094  1.00  0.00     0.029 A 
ATOM     55  C   UNL A   1      41.290  31.491  32.769  1.00  0.00     0.049 A 
ATOM     56  H   UNL A   1      39.493  31.640  31.625  1.00  0.00     0.167 HD
ATOM     57  C   UNL A   1      44.216  27.007  28.991  1.00  0.00     0.037 A 
ATOM     58  C   UNL A   1      40.936  31.217  34.050  1.00  0.00     0.037 A 
ATOM     59  C   UNL A   1      44.790  27.648  30.200  1.00  0.00     0.049 A 
ATOM     60  C   UNL A   1      41.765  30.057  34.536  1.00  0.00     0.074 A 
ATOM     61  C   UNL A   1      45.534  28.781  30.483  1.00  0.00     0.029 A 
ATOM     62  N   UNL A   1      44.306  27.229  31.437  1.00  0.00    -0.354 N 
ATOM     63  N   UNL A   1      42.709  29.515  33.813  1.00  0.00    -0.248 NA
ATOM     64  C   UNL A   1      41.606  29.378  35.813  1.00  0.00     0.031 C 
ATOM     65  C   UNL A   1      45.445  29.037  31.899  1.00  0.00     0.029 A 
ATOM     66  C   UNL A   1      44.683  28.040  32.488  1.00  0.00     0.049 A 
ATOM     67  H   UNL A   1      43.747  26.427  31.551  1.00  0.00     0.167 HD
ATOM     68  C   UNL A   1      43.241  28.435  34.428  1.00  0.00     0.074 A 
ATOM     69  C   UNL A   1      42.501  28.378  35.687  1.00  0.00     0.031 C 
ATOM     70  C   UNL A   1      44.221  27.683  33.837  1.00  0.00     0.037 A 
BRANCH  57  71
ATOM     71  C   UNL A   1      45.023  26.481  27.816  1.00  0.00     0.057 A 
ATOM     72  C   UNL A   1      46.166  25.693  28.046  1.00  0.00     0.134 A 
ATOM     73  C   UNL A   1      44.793  26.749  26.446  1.00  0.00     0.134 A 
ATOM     74  F   UNL A   1      46.550  25.364  29.286  1.00  0.00    -0.206 F 
ATOM     75  C   UNL A   1      46.992  25.214  27.014  1.00  0.00     0.040 A 
ATOM     76  C   UNL A   1      45.587  26.245  25.405  1.00  0.00     0.040 A 
ATOM     77  F   UNL A   1      43.820  27.551  26.012  1.00  0.00    -0.206 F 
ATOM     78  C   UNL A   1      46.699  25.478  25.685  1.00  0.00     0.006 A 
ENDBRANCH  57  71
BRANCH  58  79
ATOM     79  C   UNL A   1      39.483  31.548  34.265  1.00  0.00     0.057 A 
ATOM     80  C   UNL A   1      39.154  32.921  34.385  1.00  0.00     0.134 A 
ATOM     81  C   UNL A   1      38.449  30.709  33.837  1.00  0.00     0.134 A 
ATOM     82  F   UNL A   1      40.094  33.797  34.768  1.00  0.00    -0.206 F 
ATOM     83  C   UNL A   1      37.927  33.448  33.958  1.00  0.00     0.040 A 
ATOM     84  C   UNL A   1      37.207  31.227  33.418  1.00  0.00     0.040 A 
ATOM     85  F   UNL A   1      38.667  29.397  33.664  1.00  0.00    -0.206 F 
ATOM     86  C   UNL A   1      36.962  32.600  33.429  1.00  0.00     0.006 A 
ENDBRANCH  58  79
BRANCH  70  87
ATOM     87  C   UNL A   1      44.762  26.452  34.504  1.00  0.00     0.057 A 
ATOM     88  C   UNL A   1      45.971  26.456  35.210  1.00  0.00     0.134 A 
ATOM     89  C   UNL A   1      44.105  25.207  34.439  1.00  0.00     0.134 A 
ATOM     90  F   UNL A   1      46.774  27.531  35.207  1.00  0.00    -0.206 F 
ATOM     91  C   UNL A   1      46.407  25.348  35.939  1.00  0.00     0.040 A 
ATOM     92  C   UNL A   1      44.565  24.076  35.106  1.00  0.00     0.040 A 
ATOM     93  F   UNL A   1      42.971  25.021  33.753  1.00  0.00    -0.206 F 
ATOM     94  C   UNL A   1      45.696  24.155  35.899  1.00  0.00     0.006 A 
ENDBRANCH  70  87
ENDBRANCH  44  45
ENDBRANCH  37  39
ENDBRANCH  36  37
ENDBRANCH  35  36
ENDBRANCH  34  35
ENDBRANCH  33  34
ENDBRANCH   1  33
TORSDOF 17
ENDMDL
