MODEL 1
REMARK VINA RESULT:     -10.9      0.000      0.000
REMARK SMILES [NH3+][C@]1(C(=O)OCCOCCOC(=O)c2ccc(-c3c4nc(c(-c5c(F)cccc5F)c5ccc([nH]5)c(-c5c(F)cccc5F)c5nc(c(-c6c(F)cccc6F)c6ccc3[nH]6)C=C5)C=C4)cc2)CC[C@@H]([NH+]2CCC(C(F)(F)F)CC2)C1
REMARK SMILES IDX 8 1 7 2 6 3 5 4 3 5 4 6 2 7 68 8 81 9 69 10 70 11 1 12 71 16
REMARK SMILES IDX 72 17 80 18 73 20 79 21 74 22 75 23 76 24 77 25 78 26 9 27
REMARK SMILES IDX 10 28 11 29 12 30 13 31 14 32 15 33 67 34 16 35 66 36 17 37
REMARK SMILES IDX 18 38 19 39 60 40 20 41 65 42 59 43 61 44 21 45 64 46 58 47
REMARK SMILES IDX 57 48 22 50 48 51 31 52 47 53 32 54 35 55 46 56 62 57 33 58
REMARK SMILES IDX 34 59 45 61 63 62 36 63 23 64 24 65 29 66 25 67 26 68 28 69
REMARK SMILES IDX 30 70 27 71 49 72 50 73 55 74 51 75 52 76 54 77 56 78 53 79
REMARK SMILES IDX 37 80 38 81 43 82 39 83 40 84 42 85 44 86 41 87
REMARK H PARENT 1 13 1 14 1 15 71 19 61 49 35 60
REMARK Flexibility Score: inf
ROOT
ATOM      1  O   UNL A   1      42.639  21.561  27.640  1.00  0.00    -0.374 OA
ENDROOT
BRANCH   1   2
ATOM      2  C   UNL A   1      41.255  21.544  27.973  1.00  0.00     0.202 C 
BRANCH   2   3
ATOM      3  C   UNL A   1      40.258  21.208  26.860  1.00  0.00     0.261 C 
BRANCH   3   4
ATOM      4  O   UNL A   1      39.248  22.217  26.684  1.00  0.00    -0.459 OA
BRANCH   4   5
ATOM      5  C   UNL A   1      38.310  21.910  25.737  1.00  0.00     0.368 C 
ATOM      6  O   UNL A   1      38.335  20.881  25.074  1.00  0.00    -0.245 OA
BRANCH   5   7
ATOM      7  C   UNL A   1      37.210  22.995  25.611  1.00  0.00     0.198 C 
ATOM      8  C   UNL A   1      36.968  23.334  24.136  1.00  0.00     0.087 C 
ATOM      9  C   UNL A   1      35.865  22.446  26.150  1.00  0.00     0.145 C 
ATOM     10  C   UNL A   1      35.455  23.447  23.991  1.00  0.00     0.072 C 
ATOM     11  C   UNL A   1      34.857  22.440  24.983  1.00  0.00     0.191 C 
BRANCH   7  12
ATOM     12  N   UNL A   1      37.561  24.245  26.336  1.00  0.00    -0.343 N 
ATOM     13  H   UNL A   1      36.986  24.323  27.176  1.00  0.00     0.345 HD
ATOM     14  H   UNL A   1      37.390  25.048  25.732  1.00  0.00     0.345 HD
ATOM     15  H   UNL A   1      38.546  24.220  26.599  1.00  0.00     0.345 HD
ENDBRANCH   7  12
BRANCH  11  16
ATOM     16  N   UNL A   1      34.476  21.135  24.393  1.00  0.00    -0.332 N 
ATOM     17  C   UNL A   1      35.059  19.952  25.028  1.00  0.00     0.263 C 
ATOM     18  C   UNL A   1      33.016  21.006  24.255  1.00  0.00     0.263 C 
ATOM     19  H   UNL A   1      34.900  21.155  23.466  1.00  0.00     0.348 HD
ATOM     20  C   UNL A   1      34.731  18.667  24.274  1.00  0.00     0.074 C 
ATOM     21  C   UNL A   1      32.625  19.740  23.486  1.00  0.00     0.074 C 
ATOM     22  C   UNL A   1      33.219  18.491  24.142  1.00  0.00     0.106 C 
BRANCH  22  23
ATOM     23  C   UNL A   1      32.889  17.235  23.361  1.00  0.00     0.392 C 
ATOM     24  F   UNL A   1      33.960  16.815  22.650  1.00  0.00    -0.171 F 
ATOM     25  F   UNL A   1      32.539  16.228  24.192  1.00  0.00    -0.171 F 
ATOM     26  F   UNL A   1      31.872  17.428  22.497  1.00  0.00    -0.171 F 
ENDBRANCH  22  23
ENDBRANCH  11  16
ENDBRANCH   5   7
ENDBRANCH   4   5
ENDBRANCH   3   4
ENDBRANCH   2   3
ENDBRANCH   1   2
BRANCH   1  27
ATOM     27  C   UNL A   1      43.068  20.855  26.477  1.00  0.00     0.202 C 
BRANCH  27  28
ATOM     28  C   UNL A   1      43.691  21.668  25.332  1.00  0.00     0.261 C 
BRANCH  28  29
ATOM     29  O   UNL A   1      42.905  22.824  24.984  1.00  0.00    -0.460 OA
BRANCH  29  30
ATOM     30  C   UNL A   1      43.591  23.995  24.983  1.00  0.00     0.338 C 
ATOM     31  O   UNL A   1      44.554  24.291  24.289  1.00  0.00    -0.246 OA
BRANCH  30  32
ATOM     32  C   UNL A   1      42.904  24.988  25.824  1.00  0.00     0.060 A 
ATOM     33  C   UNL A   1      43.475  26.263  25.934  1.00  0.00     0.016 A 
ATOM     34  C   UNL A   1      41.784  24.643  26.581  1.00  0.00     0.016 A 
ATOM     35  C   UNL A   1      42.952  27.190  26.833  1.00  0.00     0.010 A 
ATOM     36  C   UNL A   1      41.270  25.567  27.495  1.00  0.00     0.010 A 
ATOM     37  C   UNL A   1      41.871  26.831  27.648  1.00  0.00    -0.014 A 
BRANCH  37  38
ATOM     38  C   UNL A   1      41.473  27.703  28.777  1.00  0.00     0.031 A 
ATOM     39  C   UNL A   1      42.237  27.609  30.067  1.00  0.00     0.074 A 
ATOM     40  C   UNL A   1      40.451  28.569  28.655  1.00  0.00     0.049 A 
ATOM     41  N   UNL A   1      41.998  28.184  31.218  1.00  0.00    -0.248 NA
ATOM     42  C   UNL A   1      43.432  26.750  30.058  1.00  0.00     0.031 C 
ATOM     43  C   UNL A   1      39.678  28.800  27.437  1.00  0.00     0.029 A 
ATOM     44  N   UNL A   1      39.882  29.407  29.581  1.00  0.00    -0.354 N 
ATOM     45  C   UNL A   1      43.006  27.752  32.070  1.00  0.00     0.074 A 
ATOM     46  C   UNL A   1      43.847  26.850  31.312  1.00  0.00     0.031 C 
ATOM     47  C   UNL A   1      38.718  29.704  27.697  1.00  0.00     0.029 A 
ATOM     48  C   UNL A   1      38.786  30.084  29.107  1.00  0.00     0.049 A 
ATOM     49  H   UNL A   1      40.227  29.512  30.497  1.00  0.00     0.167 HD
ATOM     50  C   UNL A   1      43.214  28.081  33.367  1.00  0.00     0.037 A 
ATOM     51  C   UNL A   1      37.919  30.889  29.750  1.00  0.00     0.037 A 
ATOM     52  C   UNL A   1      42.372  28.971  34.121  1.00  0.00     0.049 A 
ATOM     53  C   UNL A   1      38.112  31.160  31.219  1.00  0.00     0.074 A 
ATOM     54  C   UNL A   1      42.491  29.359  35.443  1.00  0.00     0.029 A 
ATOM     55  N   UNL A   1      41.253  29.611  33.612  1.00  0.00    -0.354 N 
ATOM     56  N   UNL A   1      39.062  30.741  32.020  1.00  0.00    -0.248 NA
ATOM     57  C   UNL A   1      37.107  32.008  31.876  1.00  0.00     0.031 C 
ATOM     58  C   UNL A   1      41.420  30.205  35.747  1.00  0.00     0.029 A 
ATOM     59  C   UNL A   1      40.660  30.377  34.601  1.00  0.00     0.049 A 
ATOM     60  H   UNL A   1      40.927  29.533  32.687  1.00  0.00     0.167 HD
ATOM     61  C   UNL A   1      38.788  31.302  33.262  1.00  0.00     0.074 A 
ATOM     62  C   UNL A   1      37.584  32.091  33.110  1.00  0.00     0.031 C 
ATOM     63  C   UNL A   1      39.475  31.176  34.423  1.00  0.00     0.037 A 
BRANCH  50  64
ATOM     64  C   UNL A   1      44.385  27.451  34.059  1.00  0.00     0.057 A 
ATOM     65  C   UNL A   1      44.281  26.210  34.700  1.00  0.00     0.134 A 
ATOM     66  C   UNL A   1      45.638  28.076  34.058  1.00  0.00     0.134 A 
ATOM     67  F   UNL A   1      43.105  25.567  34.751  1.00  0.00    -0.206 F 
ATOM     68  C   UNL A   1      45.378  25.623  35.333  1.00  0.00     0.040 A 
ATOM     69  C   UNL A   1      46.747  27.488  34.667  1.00  0.00     0.040 A 
ATOM     70  F   UNL A   1      45.805  29.265  33.458  1.00  0.00    -0.206 F 
ATOM     71  C   UNL A   1      46.617  26.259  35.312  1.00  0.00     0.006 A 
ENDBRANCH  50  64
BRANCH  51  72
ATOM     72  C   UNL A   1      36.768  31.479  29.022  1.00  0.00     0.057 A 
ATOM     73  C   UNL A   1      36.761  32.829  28.650  1.00  0.00     0.134 A 
ATOM     74  C   UNL A   1      35.635  30.718  28.709  1.00  0.00     0.134 A 
ATOM     75  F   UNL A   1      37.806  33.615  28.945  1.00  0.00    -0.206 F 
ATOM     76  C   UNL A   1      35.663  33.403  28.007  1.00  0.00     0.040 A 
ATOM     77  C   UNL A   1      34.540  31.273  28.046  1.00  0.00     0.040 A 
ATOM     78  F   UNL A   1      35.580  29.419  29.040  1.00  0.00    -0.206 F 
ATOM     79  C   UNL A   1      34.550  32.623  27.700  1.00  0.00     0.006 A 
ENDBRANCH  51  72
BRANCH  63  80
ATOM     80  C   UNL A   1      38.977  31.947  35.610  1.00  0.00     0.057 A 
ATOM     81  C   UNL A   1      38.180  31.354  36.596  1.00  0.00     0.134 A 
ATOM     82  C   UNL A   1      39.356  33.283  35.796  1.00  0.00     0.134 A 
ATOM     83  F   UNL A   1      37.774  30.081  36.468  1.00  0.00    -0.206 F 
ATOM     84  C   UNL A   1      37.768  32.067  37.723  1.00  0.00     0.040 A 
ATOM     85  C   UNL A   1      38.968  33.999  36.929  1.00  0.00     0.040 A 
ATOM     86  F   UNL A   1      40.126  33.905  34.891  1.00  0.00    -0.206 F 
ATOM     87  C   UNL A   1      38.171  33.391  37.896  1.00  0.00     0.006 A 
ENDBRANCH  63  80
ENDBRANCH  37  38
ENDBRANCH  30  32
ENDBRANCH  29  30
ENDBRANCH  28  29
ENDBRANCH  27  28
ENDBRANCH   1  27
TORSDOF 17
ENDMDL
MODEL 2
REMARK VINA RESULT:     -10.6      3.761      6.097
REMARK SMILES [NH3+][C@]1(C(=O)OCCOCCOC(=O)c2ccc(-c3c4nc(c(-c5c(F)cccc5F)c5ccc([nH]5)c(-c5c(F)cccc5F)c5nc(c(-c6c(F)cccc6F)c6ccc3[nH]6)C=C5)C=C4)cc2)CC[C@@H]([NH+]2CCC(C(F)(F)F)CC2)C1
REMARK SMILES IDX 8 1 7 2 6 3 5 4 3 5 4 6 2 7 68 8 81 9 69 10 70 11 1 12 71 16
REMARK SMILES IDX 72 17 80 18 73 20 79 21 74 22 75 23 76 24 77 25 78 26 9 27
REMARK SMILES IDX 10 28 11 29 12 30 13 31 14 32 15 33 67 34 16 35 66 36 17 37
REMARK SMILES IDX 18 38 19 39 60 40 20 41 65 42 59 43 61 44 21 45 64 46 58 47
REMARK SMILES IDX 57 48 22 50 48 51 31 52 47 53 32 54 35 55 46 56 62 57 33 58
REMARK SMILES IDX 34 59 45 61 63 62 36 63 23 64 24 65 29 66 25 67 26 68 28 69
REMARK SMILES IDX 30 70 27 71 49 72 50 73 55 74 51 75 52 76 54 77 56 78 53 79
REMARK SMILES IDX 37 80 38 81 43 82 39 83 40 84 42 85 44 86 41 87
REMARK H PARENT 1 13 1 14 1 15 71 19 61 49 35 60
REMARK Flexibility Score: inf
ROOT
ATOM      1  O   UNL A   1      37.781  21.230  24.664  1.00  0.00    -0.374 OA
ENDROOT
BRANCH   1   2
ATOM      2  C   UNL A   1      36.577  21.972  24.831  1.00  0.00     0.202 C 
BRANCH   2   3
ATOM      3  C   UNL A   1      36.655  23.295  25.598  1.00  0.00     0.261 C 
BRANCH   3   4
ATOM      4  O   UNL A   1      35.616  24.221  25.234  1.00  0.00    -0.459 OA
BRANCH   4   5
ATOM      5  C   UNL A   1      34.361  23.831  25.613  1.00  0.00     0.368 C 
ATOM      6  O   UNL A   1      34.094  23.420  26.735  1.00  0.00    -0.245 OA
BRANCH   5   7
ATOM      7  C   UNL A   1      33.319  23.980  24.475  1.00  0.00     0.198 C 
ATOM      8  C   UNL A   1      33.993  23.793  23.111  1.00  0.00     0.087 C 
ATOM      9  C   UNL A   1      32.255  22.859  24.584  1.00  0.00     0.145 C 
ATOM     10  C   UNL A   1      33.027  22.940  22.297  1.00  0.00     0.072 C 
ATOM     11  C   UNL A   1      32.335  22.007  23.301  1.00  0.00     0.191 C 
BRANCH   7  12
ATOM     12  N   UNL A   1      32.645  25.306  24.494  1.00  0.00    -0.343 N 
ATOM     13  H   UNL A   1      33.231  25.992  24.017  1.00  0.00     0.345 HD
ATOM     14  H   UNL A   1      32.496  25.598  25.459  1.00  0.00     0.345 HD
ATOM     15  H   UNL A   1      31.746  25.236  24.017  1.00  0.00     0.345 HD
ENDBRANCH   7  12
BRANCH  11  16
ATOM     16  N   UNL A   1      32.920  20.650  23.396  1.00  0.00    -0.332 N 
ATOM     17  C   UNL A   1      33.440  20.269  24.710  1.00  0.00     0.263 C 
ATOM     18  C   UNL A   1      32.008  19.625  22.862  1.00  0.00     0.263 C 
ATOM     19  H   UNL A   1      33.750  20.701  22.805  1.00  0.00     0.348 HD
ATOM     20  C   UNL A   1      34.150  18.918  24.685  1.00  0.00     0.074 C 
ATOM     21  C   UNL A   1      32.673  18.248  22.794  1.00  0.00     0.074 C 
ATOM     22  C   UNL A   1      33.216  17.828  24.162  1.00  0.00     0.106 C 
BRANCH  22  23
ATOM     23  C   UNL A   1      33.928  16.492  24.100  1.00  0.00     0.392 C 
ATOM     24  F   UNL A   1      33.103  15.489  24.479  1.00  0.00    -0.171 F 
ATOM     25  F   UNL A   1      34.338  16.222  22.841  1.00  0.00    -0.171 F 
ATOM     26  F   UNL A   1      35.011  16.458  24.904  1.00  0.00    -0.171 F 
ENDBRANCH  22  23
ENDBRANCH  11  16
ENDBRANCH   5   7
ENDBRANCH   4   5
ENDBRANCH   3   4
ENDBRANCH   2   3
ENDBRANCH   1   2
BRANCH   1  27
ATOM     27  C   UNL A   1      37.782  19.848  25.016  1.00  0.00     0.202 C 
BRANCH  27  28
ATOM     28  C   UNL A   1      39.116  19.217  25.439  1.00  0.00     0.261 C 
BRANCH  28  29
ATOM     29  O   UNL A   1      39.584  19.712  26.708  1.00  0.00    -0.460 OA
BRANCH  29  30
ATOM     30  C   UNL A   1      40.890  20.083  26.724  1.00  0.00     0.338 C 
ATOM     31  O   UNL A   1      41.846  19.452  26.296  1.00  0.00    -0.246 OA
BRANCH  30  32
ATOM     32  C   UNL A   1      41.016  21.479  27.173  1.00  0.00     0.060 A 
ATOM     33  C   UNL A   1      40.290  22.459  26.482  1.00  0.00     0.016 A 
ATOM     34  C   UNL A   1      41.913  21.836  28.180  1.00  0.00     0.016 A 
ATOM     35  C   UNL A   1      40.489  23.808  26.767  1.00  0.00     0.010 A 
ATOM     36  C   UNL A   1      42.125  23.191  28.453  1.00  0.00     0.010 A 
ATOM     37  C   UNL A   1      41.439  24.182  27.726  1.00  0.00    -0.014 A 
BRANCH  37  38
ATOM     38  C   UNL A   1      41.842  25.601  27.855  1.00  0.00     0.031 A 
ATOM     39  C   UNL A   1      43.182  26.023  27.320  1.00  0.00     0.074 A 
ATOM     40  C   UNL A   1      41.029  26.502  28.433  1.00  0.00     0.049 A 
ATOM     41  N   UNL A   1      43.792  27.175  27.423  1.00  0.00    -0.248 NA
ATOM     42  C   UNL A   1      43.935  25.006  26.568  1.00  0.00     0.031 C 
ATOM     43  C   UNL A   1      39.681  26.230  28.929  1.00  0.00     0.029 A 
ATOM     44  N   UNL A   1      41.231  27.830  28.712  1.00  0.00    -0.354 N 
ATOM     45  C   UNL A   1      45.001  27.021  26.757  1.00  0.00     0.074 A 
ATOM     46  C   UNL A   1      45.049  25.658  26.271  1.00  0.00     0.031 C 
ATOM     47  C   UNL A   1      39.185  27.355  29.474  1.00  0.00     0.029 A 
ATOM     48  C   UNL A   1      40.193  28.410  29.398  1.00  0.00     0.049 A 
ATOM     49  H   UNL A   1      42.042  28.320  28.445  1.00  0.00     0.167 HD
ATOM     50  C   UNL A   1      45.981  27.934  26.563  1.00  0.00     0.037 A 
ATOM     51  C   UNL A   1      40.088  29.641  29.935  1.00  0.00     0.037 A 
ATOM     52  C   UNL A   1      45.935  29.286  27.053  1.00  0.00     0.049 A 
ATOM     53  C   UNL A   1      41.235  30.609  29.795  1.00  0.00     0.074 A 
ATOM     54  C   UNL A   1      46.882  30.285  26.921  1.00  0.00     0.029 A 
ATOM     55  N   UNL A   1      44.880  29.824  27.773  1.00  0.00    -0.354 N 
ATOM     56  N   UNL A   1      42.377  30.453  29.171  1.00  0.00    -0.248 NA
ATOM     57  C   UNL A   1      41.080  31.920  30.442  1.00  0.00     0.031 C 
ATOM     58  C   UNL A   1      46.417  31.420  27.593  1.00  0.00     0.029 A 
ATOM     59  C   UNL A   1      45.161  31.138  28.107  1.00  0.00     0.049 A 
ATOM     60  H   UNL A   1      44.054  29.345  28.011  1.00  0.00     0.167 HD
ATOM     61  C   UNL A   1      43.060  31.655  29.320  1.00  0.00     0.074 A 
ATOM     62  C   UNL A   1      42.204  32.529  30.093  1.00  0.00     0.031 C 
ATOM     63  C   UNL A   1      44.285  32.001  28.856  1.00  0.00     0.037 A 
BRANCH  50  64
ATOM     64  C   UNL A   1      47.199  27.491  25.810  1.00  0.00     0.057 A 
ATOM     65  C   UNL A   1      48.292  26.903  26.459  1.00  0.00     0.134 A 
ATOM     66  C   UNL A   1      47.268  27.625  24.419  1.00  0.00     0.134 A 
ATOM     67  F   UNL A   1      48.295  26.761  27.793  1.00  0.00    -0.206 F 
ATOM     68  C   UNL A   1      49.419  26.481  25.752  1.00  0.00     0.040 A 
ATOM     69  C   UNL A   1      48.379  27.185  23.697  1.00  0.00     0.040 A 
ATOM     70  F   UNL A   1      46.253  28.177  23.737  1.00  0.00    -0.206 F 
ATOM     71  C   UNL A   1      49.462  26.616  24.365  1.00  0.00     0.006 A 
ENDBRANCH  50  64
BRANCH  51  72
ATOM     72  C   UNL A   1      38.865  30.028  30.682  1.00  0.00     0.057 A 
ATOM     73  C   UNL A   1      38.710  29.702  32.034  1.00  0.00     0.134 A 
ATOM     74  C   UNL A   1      37.810  30.703  30.055  1.00  0.00     0.134 A 
ATOM     75  F   UNL A   1      39.675  29.034  32.683  1.00  0.00    -0.206 F 
ATOM     76  C   UNL A   1      37.543  30.020  32.732  1.00  0.00     0.040 A 
ATOM     77  C   UNL A   1      36.648  31.046  30.746  1.00  0.00     0.040 A 
ATOM     78  F   UNL A   1      37.898  31.041  28.760  1.00  0.00    -0.206 F 
ATOM     79  C   UNL A   1      36.509  30.698  32.088  1.00  0.00     0.006 A 
ENDBRANCH  51  72
BRANCH  63  80
ATOM     80  C   UNL A   1      44.755  33.400  29.123  1.00  0.00     0.057 A 
ATOM     81  C   UNL A   1      44.439  34.463  28.268  1.00  0.00     0.134 A 
ATOM     82  C   UNL A   1      45.479  33.695  30.285  1.00  0.00     0.134 A 
ATOM     83  F   UNL A   1      43.758  34.243  27.133  1.00  0.00    -0.206 F 
ATOM     84  C   UNL A   1      44.835  35.770  28.556  1.00  0.00     0.040 A 
ATOM     85  C   UNL A   1      45.863  35.000  30.594  1.00  0.00     0.040 A 
ATOM     86  F   UNL A   1      45.806  32.722  31.149  1.00  0.00    -0.206 F 
ATOM     87  C   UNL A   1      45.542  36.042  29.727  1.00  0.00     0.006 A 
ENDBRANCH  63  80
ENDBRANCH  37  38
ENDBRANCH  30  32
ENDBRANCH  29  30
ENDBRANCH  28  29
ENDBRANCH  27  28
ENDBRANCH   1  27
TORSDOF 17
ENDMDL
MODEL 3
REMARK VINA RESULT:     -10.6      4.010      6.420
REMARK SMILES [NH3+][C@]1(C(=O)OCCOCCOC(=O)c2ccc(-c3c4nc(c(-c5c(F)cccc5F)c5ccc([nH]5)c(-c5c(F)cccc5F)c5nc(c(-c6c(F)cccc6F)c6ccc3[nH]6)C=C5)C=C4)cc2)CC[C@@H]([NH+]2CCC(C(F)(F)F)CC2)C1
REMARK SMILES IDX 8 1 7 2 6 3 5 4 3 5 4 6 2 7 68 8 81 9 69 10 70 11 1 12 71 16
REMARK SMILES IDX 72 17 80 18 73 20 79 21 74 22 75 23 76 24 77 25 78 26 9 27
REMARK SMILES IDX 10 28 11 29 12 30 13 31 14 32 15 33 67 34 16 35 66 36 17 37
REMARK SMILES IDX 18 38 19 39 60 40 20 41 65 42 59 43 61 44 21 45 64 46 58 47
REMARK SMILES IDX 57 48 22 50 48 51 31 52 47 53 32 54 35 55 46 56 62 57 33 58
REMARK SMILES IDX 34 59 45 61 63 62 36 63 23 64 24 65 29 66 25 67 26 68 28 69
REMARK SMILES IDX 30 70 27 71 49 72 50 73 55 74 51 75 52 76 54 77 56 78 53 79
REMARK SMILES IDX 37 80 38 81 43 82 39 83 40 84 42 85 44 86 41 87
REMARK H PARENT 1 13 1 14 1 15 71 19 61 49 35 60
REMARK Flexibility Score: inf
ROOT
ATOM      1  O   UNL A   1      37.359  21.219  24.878  1.00  0.00    -0.374 OA
ENDROOT
BRANCH   1   2
ATOM      2  C   UNL A   1      37.029  22.509  24.376  1.00  0.00     0.202 C 
BRANCH   2   3
ATOM      3  C   UNL A   1      36.844  23.643  25.389  1.00  0.00     0.261 C 
BRANCH   3   4
ATOM      4  O   UNL A   1      35.666  24.432  25.146  1.00  0.00    -0.459 OA
BRANCH   4   5
ATOM      5  C   UNL A   1      34.504  23.843  25.560  1.00  0.00     0.368 C 
ATOM      6  O   UNL A   1      34.383  23.280  26.641  1.00  0.00    -0.245 OA
BRANCH   5   7
ATOM      7  C   UNL A   1      33.360  23.981  24.523  1.00  0.00     0.198 C 
ATOM      8  C   UNL A   1      33.909  23.811  23.102  1.00  0.00     0.087 C 
ATOM      9  C   UNL A   1      32.329  22.842  24.722  1.00  0.00     0.145 C 
ATOM     10  C   UNL A   1      32.887  22.947  22.374  1.00  0.00     0.072 C 
ATOM     11  C   UNL A   1      32.305  21.998  23.431  1.00  0.00     0.191 C 
BRANCH   7  12
ATOM     12  N   UNL A   1      32.669  25.295  24.612  1.00  0.00    -0.343 N 
ATOM     13  H   UNL A   1      31.931  25.243  25.315  1.00  0.00     0.345 HD
ATOM     14  H   UNL A   1      32.262  25.527  23.707  1.00  0.00     0.345 HD
ATOM     15  H   UNL A   1      33.342  26.014  24.878  1.00  0.00     0.345 HD
ENDBRANCH   7  12
BRANCH  11  16
ATOM     16  N   UNL A   1      32.918  20.649  23.464  1.00  0.00    -0.332 N 
ATOM     17  C   UNL A   1      33.556  20.268  24.724  1.00  0.00     0.263 C 
ATOM     18  C   UNL A   1      31.979  19.613  23.002  1.00  0.00     0.263 C 
ATOM     19  H   UNL A   1      33.692  20.719  22.804  1.00  0.00     0.348 HD
ATOM     20  C   UNL A   1      34.283  18.930  24.626  1.00  0.00     0.074 C 
ATOM     21  C   UNL A   1      32.659  18.248  22.865  1.00  0.00     0.074 C 
ATOM     22  C   UNL A   1      33.324  17.828  24.177  1.00  0.00     0.106 C 
BRANCH  22  23
ATOM     23  C   UNL A   1      34.050  16.505  24.043  1.00  0.00     0.392 C 
ATOM     24  F   UNL A   1      34.402  16.278  22.757  1.00  0.00    -0.171 F 
ATOM     25  F   UNL A   1      35.185  16.500  24.777  1.00  0.00    -0.171 F 
ATOM     26  F   UNL A   1      33.291  15.467  24.450  1.00  0.00    -0.171 F 
ENDBRANCH  22  23
ENDBRANCH  11  16
ENDBRANCH   5   7
ENDBRANCH   4   5
ENDBRANCH   3   4
ENDBRANCH   2   3
ENDBRANCH   1   2
BRANCH   1  27
ATOM     27  C   UNL A   1      38.577  21.062  25.604  1.00  0.00     0.202 C 
BRANCH  27  28
ATOM     28  C   UNL A   1      39.238  19.676  25.606  1.00  0.00     0.261 C 
BRANCH  28  29
ATOM     29  O   UNL A   1      40.177  19.513  26.686  1.00  0.00    -0.460 OA
BRANCH  29  30
ATOM     30  C   UNL A   1      41.477  19.466  26.301  1.00  0.00     0.338 C 
ATOM     31  O   UNL A   1      42.056  18.540  25.750  1.00  0.00    -0.246 OA
BRANCH  30  32
ATOM     32  C   UNL A   1      42.105  20.787  26.468  1.00  0.00     0.060 A 
ATOM     33  C   UNL A   1      42.286  21.268  27.771  1.00  0.00     0.016 A 
ATOM     34  C   UNL A   1      42.407  21.587  25.365  1.00  0.00     0.016 A 
ATOM     35  C   UNL A   1      42.733  22.571  27.980  1.00  0.00     0.010 A 
ATOM     36  C   UNL A   1      42.840  22.900  25.576  1.00  0.00     0.010 A 
ATOM     37  C   UNL A   1      42.973  23.407  26.882  1.00  0.00    -0.014 A 
BRANCH  37  38
ATOM     38  C   UNL A   1      43.197  24.856  27.090  1.00  0.00     0.031 A 
ATOM     39  C   UNL A   1      44.536  25.439  26.732  1.00  0.00     0.074 A 
ATOM     40  C   UNL A   1      42.226  25.643  27.584  1.00  0.00     0.049 A 
ATOM     41  N   UNL A   1      44.997  26.646  26.933  1.00  0.00    -0.248 NA
ATOM     42  C   UNL A   1      45.481  24.536  26.055  1.00  0.00     0.031 C 
ATOM     43  C   UNL A   1      40.868  25.210  27.906  1.00  0.00     0.029 A 
ATOM     44  N   UNL A   1      42.243  26.975  27.914  1.00  0.00    -0.354 N 
ATOM     45  C   UNL A   1      46.286  26.647  26.416  1.00  0.00     0.074 A 
ATOM     46  C   UNL A   1      46.543  25.315  25.910  1.00  0.00     0.031 C 
ATOM     47  C   UNL A   1      40.188  26.254  28.410  1.00  0.00     0.029 A 
ATOM     48  C   UNL A   1      41.073  27.415  28.481  1.00  0.00     0.049 A 
ATOM     49  H   UNL A   1      43.021  27.559  27.758  1.00  0.00     0.167 HD
ATOM     50  C   UNL A   1      47.174  27.667  26.363  1.00  0.00     0.037 A 
ATOM     51  C   UNL A   1      40.769  28.608  29.027  1.00  0.00     0.037 A 
ATOM     52  C   UNL A   1      46.919  28.988  26.873  1.00  0.00     0.049 A 
ATOM     53  C   UNL A   1      41.808  29.698  29.049  1.00  0.00     0.074 A 
ATOM     54  C   UNL A   1      47.758  30.088  26.878  1.00  0.00     0.029 A 
ATOM     55  N   UNL A   1      45.733  29.384  27.470  1.00  0.00    -0.354 N 
ATOM     56  N   UNL A   1      43.027  29.689  28.566  1.00  0.00    -0.248 NA
ATOM     57  C   UNL A   1      41.432  30.961  29.700  1.00  0.00     0.031 C 
ATOM     58  C   UNL A   1      47.092  31.141  27.513  1.00  0.00     0.029 A 
ATOM     59  C   UNL A   1      45.824  30.708  27.864  1.00  0.00     0.049 A 
ATOM     60  H   UNL A   1      44.943  28.810  27.595  1.00  0.00     0.167 HD
ATOM     61  C   UNL A   1      43.549  30.951  28.823  1.00  0.00     0.074 A 
ATOM     62  C   UNL A   1      42.515  31.701  29.504  1.00  0.00     0.031 C 
ATOM     63  C   UNL A   1      44.774  31.444  28.519  1.00  0.00     0.037 A 
BRANCH  50  64
ATOM     64  C   UNL A   1      48.515  27.384  25.755  1.00  0.00     0.057 A 
ATOM     65  C   UNL A   1      48.725  27.452  24.372  1.00  0.00     0.134 A 
ATOM     66  C   UNL A   1      49.614  27.071  26.562  1.00  0.00     0.134 A 
ATOM     67  F   UNL A   1      47.709  27.732  23.542  1.00  0.00    -0.206 F 
ATOM     68  C   UNL A   1      49.979  27.200  23.813  1.00  0.00     0.040 A 
ATOM     69  C   UNL A   1      50.878  26.839  26.017  1.00  0.00     0.040 A 
ATOM     70  F   UNL A   1      49.480  26.993  27.895  1.00  0.00    -0.206 F 
ATOM     71  C   UNL A   1      51.061  26.899  24.637  1.00  0.00     0.006 A 
ENDBRANCH  50  64
BRANCH  51  72
ATOM     72  C   UNL A   1      39.430  28.834  29.628  1.00  0.00     0.057 A 
ATOM     73  C   UNL A   1      38.382  29.379  28.876  1.00  0.00     0.134 A 
ATOM     74  C   UNL A   1      39.175  28.541  30.973  1.00  0.00     0.134 A 
ATOM     75  F   UNL A   1      38.573  29.704  27.589  1.00  0.00    -0.206 F 
ATOM     76  C   UNL A   1      37.134  29.638  29.445  1.00  0.00     0.040 A 
ATOM     77  C   UNL A   1      37.926  28.774  31.549  1.00  0.00     0.040 A 
ATOM     78  F   UNL A   1      40.139  28.018  31.746  1.00  0.00    -0.206 F 
ATOM     79  C   UNL A   1      36.903  29.332  30.785  1.00  0.00     0.006 A 
ENDBRANCH  51  72
BRANCH  63  80
ATOM     80  C   UNL A   1      45.050  32.876  28.871  1.00  0.00     0.057 A 
ATOM     81  C   UNL A   1      45.688  33.235  30.064  1.00  0.00     0.134 A 
ATOM     82  C   UNL A   1      44.729  33.901  27.971  1.00  0.00     0.134 A 
ATOM     83  F   UNL A   1      46.010  32.301  30.971  1.00  0.00    -0.206 F 
ATOM     84  C   UNL A   1      45.990  34.567  30.354  1.00  0.00     0.040 A 
ATOM     85  C   UNL A   1      45.044  35.233  28.241  1.00  0.00     0.040 A 
ATOM     86  F   UNL A   1      44.125  33.620  26.807  1.00  0.00    -0.206 F 
ATOM     87  C   UNL A   1      45.675  35.569  29.436  1.00  0.00     0.006 A 
ENDBRANCH  63  80
ENDBRANCH  37  38
ENDBRANCH  30  32
ENDBRANCH  29  30
ENDBRANCH  28  29
ENDBRANCH  27  28
ENDBRANCH   1  27
TORSDOF 17
ENDMDL
