MODEL 1
REMARK VINA RESULT:     -10.0      0.000      0.000
REMARK SMILES CC[C@](C)(Nc1cccc(Cl)c1C(N)=O)C(=O)OCCOCCOC(=O)c1ccc(-c2c3nc(c(-c4c(F)cccc4F)c4ccc([nH]4)c(-c4c(F)cccc4F)c4nc(c(-c5c(F)cccc5F)c5ccc2[nH]5)C=C4)C=C3)cc1
REMARK SMILES IDX 20 1 19 2 18 3 16 4 17 5 3 6 4 7 2 8 1 9 5 10 6 12 7 13
REMARK SMILES IDX 12 14 8 15 10 16 9 17 11 18 13 19 14 20 15 21 21 24 22 25
REMARK SMILES IDX 23 26 24 27 25 28 26 29 27 30 28 31 80 32 29 33 79 34 30 35
REMARK SMILES IDX 31 36 32 37 73 38 33 39 78 40 72 41 74 42 34 43 77 44 71 45
REMARK SMILES IDX 70 46 35 48 61 49 44 50 60 51 45 52 48 53 59 54 75 55 46 56
REMARK SMILES IDX 47 57 58 59 76 60 49 61 36 62 37 63 42 64 38 65 39 66 41 67
REMARK SMILES IDX 43 68 40 69 62 70 63 71 68 72 64 73 65 74 67 75 69 76 66 77
REMARK SMILES IDX 50 78 51 79 56 80 52 81 53 82 55 83 57 84 54 85
REMARK H PARENT 5 11 14 22 14 23 74 47 48 58
REMARK Flexibility Score: inf
ROOT
ATOM      1  C   UNL A   1      35.053  21.073  25.366  1.00  0.00     0.202 C 
ENDROOT
BRANCH   1   2
ATOM      2  C   UNL A   1      33.733  20.634  24.736  1.00  0.00     0.261 C 
BRANCH   2   3
ATOM      3  O   UNL A   1      33.302  21.584  23.741  1.00  0.00    -0.462 OA
BRANCH   3   4
ATOM      4  C   UNL A   1      32.792  22.742  24.229  1.00  0.00     0.331 C 
ATOM      5  O   UNL A   1      31.967  22.767  25.140  1.00  0.00    -0.249 OA
BRANCH   4   6
ATOM      6  C   UNL A   1      33.232  24.021  23.464  1.00  0.00     0.133 C 
ATOM      7  C   UNL A   1      33.229  23.581  21.971  1.00  0.00     0.047 C 
BRANCH   6   8
ATOM      8  C   UNL A   1      34.665  24.351  23.937  1.00  0.00     0.037 C 
ATOM      9  C   UNL A   1      34.816  24.676  25.417  1.00  0.00     0.007 C 
ENDBRANCH   6   8
BRANCH   6  10
ATOM     10  N   UNL A   1      32.382  25.253  23.463  1.00  0.00    -0.369 N 
ATOM     11  H   UNL A   1      31.542  25.127  22.965  1.00  0.00     0.161 HD
BRANCH  10  12
ATOM     12  C   UNL A   1      32.490  26.527  23.995  1.00  0.00     0.049 A 
ATOM     13  C   UNL A   1      33.124  27.543  23.267  1.00  0.00     0.026 A 
ATOM     14  C   UNL A   1      31.839  26.890  25.224  1.00  0.00     0.081 A 
ATOM     15  C   UNL A   1      33.179  28.857  23.731  1.00  0.00     0.004 A 
ATOM     16  C   UNL A   1      31.989  28.202  25.725  1.00  0.00     0.055 A 
ATOM     17  C   UNL A   1      32.620  29.179  24.957  1.00  0.00     0.021 A 
ATOM     18  Cl  UNL A   1      31.509  28.723  27.309  1.00  0.00    -0.083 Cl
BRANCH  14  19
ATOM     19  C   UNL A   1      30.894  25.964  25.951  1.00  0.00     0.252 C 
ATOM     20  N   UNL A   1      31.404  25.100  26.876  1.00  0.00    -0.365 N 
ATOM     21  O   UNL A   1      29.693  25.895  25.724  1.00  0.00    -0.269 OA
ATOM     22  H   UNL A   1      32.365  25.119  27.090  1.00  0.00     0.159 HD
ATOM     23  H   UNL A   1      30.812  24.456  27.326  1.00  0.00     0.159 HD
ENDBRANCH  14  19
ENDBRANCH  10  12
ENDBRANCH   6  10
ENDBRANCH   4   6
ENDBRANCH   3   4
ENDBRANCH   2   3
ENDBRANCH   1   2
BRANCH   1  24
ATOM     24  O   UNL A   1      36.094  20.098  25.346  1.00  0.00    -0.374 OA
BRANCH  24  25
ATOM     25  C   UNL A   1      37.286  20.470  24.650  1.00  0.00     0.202 C 
BRANCH  25  26
ATOM     26  C   UNL A   1      38.503  19.569  24.897  1.00  0.00     0.261 C 
BRANCH  26  27
ATOM     27  O   UNL A   1      39.082  19.797  26.196  1.00  0.00    -0.460 OA
BRANCH  27  28
ATOM     28  C   UNL A   1      40.425  19.995  26.211  1.00  0.00     0.338 C 
ATOM     29  O   UNL A   1      41.283  19.281  25.734  1.00  0.00    -0.246 OA
BRANCH  28  30
ATOM     30  C   UNL A   1      40.702  21.355  26.730  1.00  0.00     0.060 A 
ATOM     31  C   UNL A   1      39.991  22.433  26.191  1.00  0.00     0.016 A 
ATOM     32  C   UNL A   1      41.648  21.578  27.727  1.00  0.00     0.016 A 
ATOM     33  C   UNL A   1      40.263  23.735  26.617  1.00  0.00     0.010 A 
ATOM     34  C   UNL A   1      41.867  22.874  28.205  1.00  0.00     0.010 A 
ATOM     35  C   UNL A   1      41.228  23.976  27.608  1.00  0.00    -0.014 A 
BRANCH  35  36
ATOM     36  C   UNL A   1      41.701  25.367  27.880  1.00  0.00     0.031 A 
ATOM     37  C   UNL A   1      43.056  25.794  27.359  1.00  0.00     0.074 A 
ATOM     38  C   UNL A   1      40.943  26.259  28.549  1.00  0.00     0.049 A 
ATOM     39  N   UNL A   1      43.676  26.942  27.487  1.00  0.00    -0.248 NA
ATOM     40  C   UNL A   1      43.830  24.784  26.618  1.00  0.00     0.031 C 
ATOM     41  C   UNL A   1      39.626  25.994  29.126  1.00  0.00     0.029 A 
ATOM     42  N   UNL A   1      41.179  27.579  28.854  1.00  0.00    -0.354 N 
ATOM     43  C   UNL A   1      44.911  26.775  26.872  1.00  0.00     0.074 A 
ATOM     44  C   UNL A   1      44.985  25.400  26.436  1.00  0.00     0.031 C 
ATOM     45  C   UNL A   1      39.162  27.119  29.697  1.00  0.00     0.029 A 
ATOM     46  C   UNL A   1      40.158  28.180  29.552  1.00  0.00     0.049 A 
ATOM     47  H   UNL A   1      42.003  28.052  28.597  1.00  0.00     0.167 HD
ATOM     48  C   UNL A   1      45.889  27.686  26.650  1.00  0.00     0.037 A 
ATOM     49  C   UNL A   1      40.038  29.438  30.023  1.00  0.00     0.037 A 
ATOM     50  C   UNL A   1      45.805  29.070  27.030  1.00  0.00     0.049 A 
ATOM     51  C   UNL A   1      41.139  30.437  29.772  1.00  0.00     0.074 A 
ATOM     52  C   UNL A   1      46.715  30.085  26.791  1.00  0.00     0.029 A 
ATOM     53  N   UNL A   1      44.750  29.634  27.728  1.00  0.00    -0.354 N 
ATOM     54  N   UNL A   1      42.274  30.277  29.133  1.00  0.00    -0.248 NA
ATOM     55  C   UNL A   1      40.936  31.797  30.294  1.00  0.00     0.031 C 
ATOM     56  C   UNL A   1      46.235  31.252  27.391  1.00  0.00     0.029 A 
ATOM     57  C   UNL A   1      44.997  30.978  27.949  1.00  0.00     0.049 A 
ATOM     58  H   UNL A   1      43.944  29.151  28.022  1.00  0.00     0.167 HD
ATOM     59  C   UNL A   1      42.901  31.519  29.151  1.00  0.00     0.074 A 
ATOM     60  C   UNL A   1      42.014  32.425  29.848  1.00  0.00     0.031 C 
ATOM     61  C   UNL A   1      44.103  31.876  28.634  1.00  0.00     0.037 A 
BRANCH  48  62
ATOM     62  C   UNL A   1      47.135  27.213  25.955  1.00  0.00     0.057 A 
ATOM     63  C   UNL A   1      48.209  26.646  26.656  1.00  0.00     0.134 A 
ATOM     64  C   UNL A   1      47.252  27.303  24.561  1.00  0.00     0.134 A 
ATOM     65  F   UNL A   1      48.170  26.542  27.993  1.00  0.00    -0.206 F 
ATOM     66  C   UNL A   1      49.365  26.218  26.000  1.00  0.00     0.040 A 
ATOM     67  C   UNL A   1      48.388  26.845  23.892  1.00  0.00     0.040 A 
ATOM     68  F   UNL A   1      46.259  27.826  23.827  1.00  0.00    -0.206 F 
ATOM     69  C   UNL A   1      49.453  26.310  24.613  1.00  0.00     0.006 A 
ENDBRANCH  48  62
BRANCH  49  70
ATOM     70  C   UNL A   1      38.818  29.843  30.774  1.00  0.00     0.057 A 
ATOM     71  C   UNL A   1      37.734  30.450  30.128  1.00  0.00     0.134 A 
ATOM     72  C   UNL A   1      38.719  29.661  32.158  1.00  0.00     0.134 A 
ATOM     73  F   UNL A   1      37.775  30.676  28.807  1.00  0.00    -0.206 F 
ATOM     74  C   UNL A   1      36.607  30.880  30.832  1.00  0.00     0.040 A 
ATOM     75  C   UNL A   1      37.587  30.061  32.872  1.00  0.00     0.040 A 
ATOM     76  F   UNL A   1      39.721  29.084  32.839  1.00  0.00    -0.206 F 
ATOM     77  C   UNL A   1      36.530  30.680  32.209  1.00  0.00     0.006 A 
ENDBRANCH  49  70
BRANCH  61  78
ATOM     78  C   UNL A   1      44.516  33.315  28.759  1.00  0.00     0.057 A 
ATOM     79  C   UNL A   1      44.192  34.270  27.788  1.00  0.00     0.134 A 
ATOM     80  C   UNL A   1      45.205  33.760  29.897  1.00  0.00     0.134 A 
ATOM     81  F   UNL A   1      43.541  33.911  26.671  1.00  0.00    -0.206 F 
ATOM     82  C   UNL A   1      44.561  35.610  27.930  1.00  0.00     0.040 A 
ATOM     83  C   UNL A   1      45.551  35.102  30.064  1.00  0.00     0.040 A 
ATOM     84  F   UNL A   1      45.534  32.902  30.873  1.00  0.00    -0.206 F 
ATOM     85  C   UNL A   1      45.236  36.029  29.075  1.00  0.00     0.006 A 
ENDBRANCH  61  78
ENDBRANCH  35  36
ENDBRANCH  28  30
ENDBRANCH  27  28
ENDBRANCH  26  27
ENDBRANCH  25  26
ENDBRANCH  24  25
ENDBRANCH   1  24
TORSDOF 18
ENDMDL
MODEL 2
REMARK VINA RESULT:     -10.0      2.880      7.838
REMARK SMILES CC[C@](C)(Nc1cccc(Cl)c1C(N)=O)C(=O)OCCOCCOC(=O)c1ccc(-c2c3nc(c(-c4c(F)cccc4F)c4ccc([nH]4)c(-c4c(F)cccc4F)c4nc(c(-c5c(F)cccc5F)c5ccc2[nH]5)C=C4)C=C3)cc1
REMARK SMILES IDX 20 1 19 2 18 3 16 4 17 5 3 6 4 7 2 8 1 9 5 10 6 12 7 13
REMARK SMILES IDX 12 14 8 15 10 16 9 17 11 18 13 19 14 20 15 21 21 24 22 25
REMARK SMILES IDX 23 26 24 27 25 28 26 29 27 30 28 31 80 32 29 33 79 34 30 35
REMARK SMILES IDX 31 36 32 37 73 38 33 39 78 40 72 41 74 42 34 43 77 44 71 45
REMARK SMILES IDX 70 46 35 48 61 49 44 50 60 51 45 52 48 53 59 54 75 55 46 56
REMARK SMILES IDX 47 57 58 59 76 60 49 61 36 62 37 63 42 64 38 65 39 66 41 67
REMARK SMILES IDX 43 68 40 69 62 70 63 71 68 72 64 73 65 74 67 75 69 76 66 77
REMARK SMILES IDX 50 78 51 79 56 80 52 81 53 82 55 83 57 84 54 85
REMARK H PARENT 5 11 14 22 14 23 74 47 48 58
REMARK Flexibility Score: inf
ROOT
ATOM      1  C   UNL A   1      32.261  29.037  26.722  1.00  0.00     0.202 C 
ENDROOT
BRANCH   1   2
ATOM      2  C   UNL A   1      32.086  28.105  25.525  1.00  0.00     0.261 C 
BRANCH   2   3
ATOM      3  O   UNL A   1      32.590  26.788  25.825  1.00  0.00    -0.462 OA
BRANCH   3   4
ATOM      4  C   UNL A   1      33.454  26.277  24.915  1.00  0.00     0.331 C 
ATOM      5  O   UNL A   1      33.994  26.971  24.055  1.00  0.00    -0.249 OA
BRANCH   4   6
ATOM      6  C   UNL A   1      33.608  24.730  24.959  1.00  0.00     0.133 C 
ATOM      7  C   UNL A   1      34.184  24.375  23.558  1.00  0.00     0.047 C 
BRANCH   6   8
ATOM      8  C   UNL A   1      32.189  24.147  25.133  1.00  0.00     0.037 C 
ATOM      9  C   UNL A   1      31.883  23.544  26.498  1.00  0.00     0.007 C 
ENDBRANCH   6   8
BRANCH   6  10
ATOM     10  N   UNL A   1      34.566  24.075  25.903  1.00  0.00    -0.369 N 
ATOM     11  H   UNL A   1      34.291  24.177  26.844  1.00  0.00     0.161 HD
BRANCH  10  12
ATOM     12  C   UNL A   1      35.745  23.360  25.776  1.00  0.00     0.049 A 
ATOM     13  C   UNL A   1      36.979  23.995  25.973  1.00  0.00     0.026 A 
ATOM     14  C   UNL A   1      35.747  21.935  25.587  1.00  0.00     0.081 A 
ATOM     15  C   UNL A   1      38.182  23.292  25.935  1.00  0.00     0.004 A 
ATOM     16  C   UNL A   1      36.978  21.256  25.454  1.00  0.00     0.055 A 
ATOM     17  C   UNL A   1      38.179  21.931  25.670  1.00  0.00     0.021 A 
ATOM     18  Cl  UNL A   1      37.155  19.605  24.954  1.00  0.00    -0.083 Cl
BRANCH  14  19
ATOM     19  C   UNL A   1      34.489  21.103  25.645  1.00  0.00     0.252 C 
ATOM     20  N   UNL A   1      33.882  20.749  24.475  1.00  0.00    -0.365 N 
ATOM     21  O   UNL A   1      33.937  20.768  26.685  1.00  0.00    -0.269 OA
ATOM     22  H   UNL A   1      34.289  20.998  23.614  1.00  0.00     0.159 HD
ATOM     23  H   UNL A   1      33.036  20.246  24.493  1.00  0.00     0.159 HD
ENDBRANCH  14  19
ENDBRANCH  10  12
ENDBRANCH   6  10
ENDBRANCH   4   6
ENDBRANCH   3   4
ENDBRANCH   2   3
ENDBRANCH   1   2
BRANCH   1  24
ATOM     24  O   UNL A   1      33.179  30.112  26.529  1.00  0.00    -0.374 OA
BRANCH  24  25
ATOM     25  C   UNL A   1      33.017  31.236  27.395  1.00  0.00     0.202 C 
BRANCH  25  26
ATOM     26  C   UNL A   1      34.295  31.723  28.092  1.00  0.00     0.261 C 
BRANCH  26  27
ATOM     27  O   UNL A   1      35.144  30.626  28.478  1.00  0.00    -0.460 OA
BRANCH  27  28
ATOM     28  C   UNL A   1      35.982  30.873  29.517  1.00  0.00     0.338 C 
ATOM     29  O   UNL A   1      35.711  31.398  30.577  1.00  0.00    -0.246 OA
BRANCH  28  30
ATOM     30  C   UNL A   1      37.279  30.207  29.255  1.00  0.00     0.060 A 
ATOM     31  C   UNL A   1      38.041  29.776  30.346  1.00  0.00     0.016 A 
ATOM     32  C   UNL A   1      37.750  30.008  27.959  1.00  0.00     0.016 A 
ATOM     33  C   UNL A   1      39.294  29.192  30.140  1.00  0.00     0.010 A 
ATOM     34  C   UNL A   1      38.970  29.357  27.751  1.00  0.00     0.010 A 
ATOM     35  C   UNL A   1      39.788  29.003  28.840  1.00  0.00    -0.014 A 
BRANCH  35  36
ATOM     36  C   UNL A   1      41.216  28.622  28.623  1.00  0.00     0.031 A 
ATOM     37  C   UNL A   1      41.542  27.199  28.225  1.00  0.00     0.074 A 
ATOM     38  C   UNL A   1      42.218  29.516  28.744  1.00  0.00     0.049 A 
ATOM     39  N   UNL A   1      42.706  26.640  27.999  1.00  0.00    -0.248 NA
ATOM     40  C   UNL A   1      40.405  26.272  28.089  1.00  0.00     0.031 C 
ATOM     41  C   UNL A   1      42.067  30.917  29.136  1.00  0.00     0.029 A 
ATOM     42  N   UNL A   1      43.571  29.373  28.543  1.00  0.00    -0.354 N 
ATOM     43  C   UNL A   1      42.438  25.303  27.728  1.00  0.00     0.074 A 
ATOM     44  C   UNL A   1      41.014  25.116  27.887  1.00  0.00     0.031 C 
ATOM     45  C   UNL A   1      43.274  31.508  29.128  1.00  0.00     0.029 A 
ATOM     46  C   UNL A   1      44.291  30.524  28.757  1.00  0.00     0.049 A 
ATOM     47  H   UNL A   1      43.988  28.523  28.270  1.00  0.00     0.167 HD
ATOM     48  C   UNL A   1      43.285  24.320  27.343  1.00  0.00     0.037 A 
ATOM     49  C   UNL A   1      45.616  30.761  28.667  1.00  0.00     0.037 A 
ATOM     50  C   UNL A   1      44.695  24.505  27.128  1.00  0.00     0.049 A 
ATOM     51  C   UNL A   1      46.545  29.653  28.243  1.00  0.00     0.074 A 
ATOM     52  C   UNL A   1      45.625  23.586  26.675  1.00  0.00     0.029 A 
ATOM     53  N   UNL A   1      45.378  25.691  27.351  1.00  0.00    -0.354 N 
ATOM     54  N   UNL A   1      46.265  28.410  27.930  1.00  0.00    -0.248 NA
ATOM     55  C   UNL A   1      47.976  29.983  28.145  1.00  0.00     0.031 C 
ATOM     56  C   UNL A   1      46.880  24.200  26.674  1.00  0.00     0.029 A 
ATOM     57  C   UNL A   1      46.722  25.519  27.066  1.00  0.00     0.049 A 
ATOM     58  H   UNL A   1      44.967  26.529  27.664  1.00  0.00     0.167 HD
ATOM     59  C   UNL A   1      47.474  27.824  27.569  1.00  0.00     0.074 A 
ATOM     60  C   UNL A   1      48.487  28.850  27.686  1.00  0.00     0.031 C 
ATOM     61  C   UNL A   1      47.721  26.550  27.175  1.00  0.00     0.037 A 
BRANCH  48  62
ATOM     62  C   UNL A   1      42.707  22.950  27.121  1.00  0.00     0.057 A 
ATOM     63  C   UNL A   1      42.425  22.459  25.839  1.00  0.00     0.134 A 
ATOM     64  C   UNL A   1      42.453  22.100  28.206  1.00  0.00     0.134 A 
ATOM     65  F   UNL A   1      42.630  23.225  24.756  1.00  0.00    -0.206 F 
ATOM     66  C   UNL A   1      41.879  21.188  25.645  1.00  0.00     0.040 A 
ATOM     67  C   UNL A   1      41.942  20.814  28.022  1.00  0.00     0.040 A 
ATOM     68  F   UNL A   1      42.708  22.501  29.460  1.00  0.00    -0.206 F 
ATOM     69  C   UNL A   1      41.644  20.359  26.740  1.00  0.00     0.006 A 
ENDBRANCH  48  62
BRANCH  49  70
ATOM     70  C   UNL A   1      46.156  32.115  28.971  1.00  0.00     0.057 A 
ATOM     71  C   UNL A   1      46.508  32.482  30.276  1.00  0.00     0.134 A 
ATOM     72  C   UNL A   1      46.303  33.083  27.971  1.00  0.00     0.134 A 
ATOM     73  F   UNL A   1      46.366  31.610  31.285  1.00  0.00    -0.206 F 
ATOM     74  C   UNL A   1      46.966  33.766  30.579  1.00  0.00     0.040 A 
ATOM     75  C   UNL A   1      46.787  34.363  28.254  1.00  0.00     0.040 A 
ATOM     76  F   UNL A   1      45.987  32.797  26.699  1.00  0.00    -0.206 F 
ATOM     77  C   UNL A   1      47.112  34.709  29.563  1.00  0.00     0.006 A 
ENDBRANCH  49  70
BRANCH  61  78
ATOM     78  C   UNL A   1      49.132  26.199  26.796  1.00  0.00     0.057 A 
ATOM     79  C   UNL A   1      49.620  26.376  25.495  1.00  0.00     0.134 A 
ATOM     80  C   UNL A   1      50.031  25.726  27.763  1.00  0.00     0.134 A 
ATOM     81  F   UNL A   1      48.813  26.817  24.519  1.00  0.00    -0.206 F 
ATOM     82  C   UNL A   1      50.942  26.069  25.164  1.00  0.00     0.040 A 
ATOM     83  C   UNL A   1      51.362  25.447  27.450  1.00  0.00     0.040 A 
ATOM     84  F   UNL A   1      49.635  25.548  29.032  1.00  0.00    -0.206 F 
ATOM     85  C   UNL A   1      51.818  25.610  26.145  1.00  0.00     0.006 A 
ENDBRANCH  61  78
ENDBRANCH  35  36
ENDBRANCH  28  30
ENDBRANCH  27  28
ENDBRANCH  26  27
ENDBRANCH  25  26
ENDBRANCH  24  25
ENDBRANCH   1  24
TORSDOF 18
ENDMDL
MODEL 3
REMARK VINA RESULT:     -10.0      4.014      9.216
REMARK SMILES CC[C@](C)(Nc1cccc(Cl)c1C(N)=O)C(=O)OCCOCCOC(=O)c1ccc(-c2c3nc(c(-c4c(F)cccc4F)c4ccc([nH]4)c(-c4c(F)cccc4F)c4nc(c(-c5c(F)cccc5F)c5ccc2[nH]5)C=C4)C=C3)cc1
REMARK SMILES IDX 20 1 19 2 18 3 16 4 17 5 3 6 4 7 2 8 1 9 5 10 6 12 7 13
REMARK SMILES IDX 12 14 8 15 10 16 9 17 11 18 13 19 14 20 15 21 21 24 22 25
REMARK SMILES IDX 23 26 24 27 25 28 26 29 27 30 28 31 80 32 29 33 79 34 30 35
REMARK SMILES IDX 31 36 32 37 73 38 33 39 78 40 72 41 74 42 34 43 77 44 71 45
REMARK SMILES IDX 70 46 35 48 61 49 44 50 60 51 45 52 48 53 59 54 75 55 46 56
REMARK SMILES IDX 47 57 58 59 76 60 49 61 36 62 37 63 42 64 38 65 39 66 41 67
REMARK SMILES IDX 43 68 40 69 62 70 63 71 68 72 64 73 65 74 67 75 69 76 66 77
REMARK SMILES IDX 50 78 51 79 56 80 52 81 53 82 55 83 57 84 54 85
REMARK H PARENT 5 11 14 22 14 23 74 47 48 58
REMARK Flexibility Score: inf
ROOT
ATOM      1  C   UNL A   1      32.196  28.871  23.285  1.00  0.00     0.202 C 
ENDROOT
BRANCH   1   2
ATOM      2  C   UNL A   1      32.165  27.549  22.520  1.00  0.00     0.261 C 
BRANCH   2   3
ATOM      3  O   UNL A   1      32.497  26.449  23.390  1.00  0.00    -0.462 OA
BRANCH   3   4
ATOM      4  C   UNL A   1      33.305  25.505  22.848  1.00  0.00     0.331 C 
ATOM      5  O   UNL A   1      33.651  25.532  21.668  1.00  0.00    -0.249 OA
BRANCH   4   6
ATOM      6  C   UNL A   1      33.653  24.321  23.794  1.00  0.00     0.133 C 
ATOM      7  C   UNL A   1      33.919  25.008  25.164  1.00  0.00     0.047 C 
BRANCH   6   8
ATOM      8  C   UNL A   1      34.943  23.676  23.242  1.00  0.00     0.037 C 
ATOM      9  C   UNL A   1      35.992  23.299  24.280  1.00  0.00     0.007 C 
ENDBRANCH   6   8
BRANCH   6  10
ATOM     10  N   UNL A   1      32.639  23.271  24.124  1.00  0.00    -0.369 N 
ATOM     11  H   UNL A   1      31.880  23.632  24.637  1.00  0.00     0.161 HD
BRANCH  10  12
ATOM     12  C   UNL A   1      32.510  21.914  23.881  1.00  0.00     0.049 A 
ATOM     13  C   UNL A   1      32.209  21.454  22.592  1.00  0.00     0.026 A 
ATOM     14  C   UNL A   1      32.819  20.934  24.887  1.00  0.00     0.081 A 
ATOM     15  C   UNL A   1      32.154  20.094  22.290  1.00  0.00     0.004 A 
ATOM     16  C   UNL A   1      32.662  19.563  24.589  1.00  0.00     0.055 A 
ATOM     17  C   UNL A   1      32.372  19.156  23.287  1.00  0.00     0.021 A 
ATOM     18  Cl  UNL A   1      32.724  18.278  25.752  1.00  0.00    -0.083 Cl
BRANCH  14  19
ATOM     19  C   UNL A   1      33.425  21.298  26.221  1.00  0.00     0.252 C 
ATOM     20  N   UNL A   1      32.643  21.921  27.149  1.00  0.00    -0.365 N 
ATOM     21  O   UNL A   1      34.602  21.121  26.509  1.00  0.00    -0.269 OA
ATOM     22  H   UNL A   1      31.690  22.085  26.960  1.00  0.00     0.159 HD
ATOM     23  H   UNL A   1      33.031  22.208  28.006  1.00  0.00     0.159 HD
ENDBRANCH  14  19
ENDBRANCH  10  12
ENDBRANCH   6  10
ENDBRANCH   4   6
ENDBRANCH   3   4
ENDBRANCH   2   3
ENDBRANCH   1   2
BRANCH   1  24
ATOM     24  O   UNL A   1      30.985  29.217  23.954  1.00  0.00    -0.374 OA
BRANCH  24  25
ATOM     25  C   UNL A   1      31.120  30.073  25.090  1.00  0.00     0.202 C 
BRANCH  25  26
ATOM     26  C   UNL A   1      32.505  30.079  25.751  1.00  0.00     0.261 C 
BRANCH  26  27
ATOM     27  O   UNL A   1      32.447  30.563  27.107  1.00  0.00    -0.460 OA
BRANCH  27  28
ATOM     28  C   UNL A   1      33.204  31.659  27.369  1.00  0.00     0.338 C 
ATOM     29  O   UNL A   1      32.842  32.818  27.396  1.00  0.00    -0.246 OA
BRANCH  28  30
ATOM     30  C   UNL A   1      34.539  31.219  27.836  1.00  0.00     0.060 A 
ATOM     31  C   UNL A   1      34.734  29.864  28.119  1.00  0.00     0.016 A 
ATOM     32  C   UNL A   1      35.589  32.119  28.001  1.00  0.00     0.016 A 
ATOM     33  C   UNL A   1      35.963  29.419  28.613  1.00  0.00     0.010 A 
ATOM     34  C   UNL A   1      36.841  31.662  28.425  1.00  0.00     0.010 A 
ATOM     35  C   UNL A   1      37.024  30.319  28.802  1.00  0.00    -0.014 A 
BRANCH  35  36
ATOM     36  C   UNL A   1      38.240  29.903  29.562  1.00  0.00     0.031 A 
ATOM     37  C   UNL A   1      38.432  30.414  30.974  1.00  0.00     0.074 A 
ATOM     38  C   UNL A   1      39.156  29.063  29.037  1.00  0.00     0.049 A 
ATOM     39  N   UNL A   1      39.415  30.198  31.813  1.00  0.00    -0.248 NA
ATOM     40  C   UNL A   1      37.391  31.311  31.501  1.00  0.00     0.031 C 
ATOM     41  C   UNL A   1      39.120  28.501  27.688  1.00  0.00     0.029 A 
ATOM     42  N   UNL A   1      40.300  28.534  29.586  1.00  0.00    -0.354 N 
ATOM     43  C   UNL A   1      39.120  30.953  32.943  1.00  0.00     0.074 A 
ATOM     44  C   UNL A   1      37.909  31.687  32.657  1.00  0.00     0.031 C 
ATOM     45  C   UNL A   1      40.180  27.691  27.521  1.00  0.00     0.029 A 
ATOM     46  C   UNL A   1      40.988  27.697  28.741  1.00  0.00     0.049 A 
ATOM     47  H   UNL A   1      40.601  28.737  30.502  1.00  0.00     0.167 HD
ATOM     48  C   UNL A   1      39.769  31.009  34.131  1.00  0.00     0.037 A 
ATOM     49  C   UNL A   1      42.137  27.014  28.923  1.00  0.00     0.037 A 
ATOM     50  C   UNL A   1      40.944  30.242  34.447  1.00  0.00     0.049 A 
ATOM     51  C   UNL A   1      42.849  27.093  30.250  1.00  0.00     0.074 A 
ATOM     52  C   UNL A   1      41.635  30.181  35.644  1.00  0.00     0.029 A 
ATOM     53  N   UNL A   1      41.600  29.402  33.561  1.00  0.00    -0.354 N 
ATOM     54  N   UNL A   1      42.520  27.764  31.329  1.00  0.00    -0.248 NA
ATOM     55  C   UNL A   1      44.085  26.307  30.390  1.00  0.00     0.031 C 
ATOM     56  C   UNL A   1      42.741  29.345  35.467  1.00  0.00     0.029 A 
ATOM     57  C   UNL A   1      42.702  28.837  34.179  1.00  0.00     0.049 A 
ATOM     58  H   UNL A   1      41.322  29.233  32.632  1.00  0.00     0.167 HD
ATOM     59  C   UNL A   1      43.488  27.456  32.279  1.00  0.00     0.074 A 
ATOM     60  C   UNL A   1      44.405  26.527  31.657  1.00  0.00     0.031 C 
ATOM     61  C   UNL A   1      43.604  27.903  33.555  1.00  0.00     0.037 A 
BRANCH  48  62
ATOM     62  C   UNL A   1      39.216  31.929  35.182  1.00  0.00     0.057 A 
ATOM     63  C   UNL A   1      39.520  33.297  35.210  1.00  0.00     0.134 A 
ATOM     64  C   UNL A   1      38.344  31.444  36.167  1.00  0.00     0.134 A 
ATOM     65  F   UNL A   1      40.358  33.827  34.305  1.00  0.00    -0.206 F 
ATOM     66  C   UNL A   1      39.006  34.141  36.197  1.00  0.00     0.040 A 
ATOM     67  C   UNL A   1      37.796  32.285  37.137  1.00  0.00     0.040 A 
ATOM     68  F   UNL A   1      38.003  30.147  36.196  1.00  0.00    -0.206 F 
ATOM     69  C   UNL A   1      38.135  33.636  37.160  1.00  0.00     0.006 A 
ENDBRANCH  48  62
BRANCH  49  70
ATOM     70  C   UNL A   1      42.691  26.174  27.826  1.00  0.00     0.057 A 
ATOM     71  C   UNL A   1      42.336  24.825  27.692  1.00  0.00     0.134 A 
ATOM     72  C   UNL A   1      43.610  26.689  26.906  1.00  0.00     0.134 A 
ATOM     73  F   UNL A   1      41.479  24.263  28.557  1.00  0.00    -0.206 F 
ATOM     74  C   UNL A   1      42.890  24.016  26.698  1.00  0.00     0.040 A 
ATOM     75  C   UNL A   1      44.152  25.899  25.889  1.00  0.00     0.040 A 
ATOM     76  F   UNL A   1      43.992  27.974  26.976  1.00  0.00    -0.206 F 
ATOM     77  C   UNL A   1      43.798  24.556  25.788  1.00  0.00     0.006 A 
ENDBRANCH  49  70
BRANCH  61  78
ATOM     78  C   UNL A   1      44.735  27.363  34.383  1.00  0.00     0.057 A 
ATOM     79  C   UNL A   1      45.970  28.017  34.473  1.00  0.00     0.134 A 
ATOM     80  C   UNL A   1      44.565  26.198  35.144  1.00  0.00     0.134 A 
ATOM     81  F   UNL A   1      46.203  29.133  33.766  1.00  0.00    -0.206 F 
ATOM     82  C   UNL A   1      47.004  27.517  35.268  1.00  0.00     0.040 A 
ATOM     83  C   UNL A   1      45.581  25.706  35.966  1.00  0.00     0.040 A 
ATOM     84  F   UNL A   1      43.403  25.529  35.117  1.00  0.00    -0.206 F 
ATOM     85  C   UNL A   1      46.808  26.362  36.023  1.00  0.00     0.006 A 
ENDBRANCH  61  78
ENDBRANCH  35  36
ENDBRANCH  28  30
ENDBRANCH  27  28
ENDBRANCH  26  27
ENDBRANCH  25  26
ENDBRANCH  24  25
ENDBRANCH   1  24
TORSDOF 18
ENDMDL
