MODEL 1
REMARK VINA RESULT:     -10.1      0.000      0.000
REMARK SMILES C#CCN(CC(=O)OCCOCCOC(=O)c1ccc(-c2c3nc(c(-c4c(F)cccc4F)c4ccc([nH]4)c(-c4c(F)cccc4F)c4nc(c(-c5c(F)cccc5F)c5ccc2[nH]5)C=C4)C=C3)cc1)C(=O)[C@H](c1ccc(Cl)cc1)C(C)C
REMARK SMILES IDX 10 1 9 2 8 3 6 4 7 5 5 6 4 7 3 8 2 9 1 10 71 11 72 12 73 13
REMARK SMILES IDX 81 14 82 15 83 16 74 17 75 18 80 19 76 20 79 21 77 22 78 23
REMARK SMILES IDX 11 24 12 25 13 26 14 27 15 28 16 29 17 30 18 31 70 32 19 33
REMARK SMILES IDX 69 34 20 35 21 36 22 37 63 38 23 39 68 40 62 41 64 42 24 43
REMARK SMILES IDX 67 44 61 45 60 46 25 48 51 49 34 50 50 51 35 52 38 53 49 54
REMARK SMILES IDX 65 55 36 56 37 57 48 59 66 60 39 61 26 62 27 63 32 64 28 65
REMARK SMILES IDX 29 66 31 67 33 68 30 69 52 70 53 71 58 72 54 73 55 74 57 75
REMARK SMILES IDX 59 76 56 77 40 78 41 79 46 80 42 81 43 82 45 83 47 84 44 85
REMARK H PARENT 64 47 38 58
REMARK Flexibility Score: inf
ROOT
ATOM      1  C   UNL A   1      30.745  28.477  23.318  1.00  0.00     0.202 C 
ENDROOT
BRANCH   1   2
ATOM      2  C   UNL A   1      31.589  27.291  23.793  1.00  0.00     0.261 C 
BRANCH   2   3
ATOM      3  O   UNL A   1      31.820  26.331  22.737  1.00  0.00    -0.462 OA
BRANCH   3   4
ATOM      4  C   UNL A   1      33.137  26.147  22.455  1.00  0.00     0.325 C 
ATOM      5  O   UNL A   1      33.635  26.359  21.353  1.00  0.00    -0.250 OA
BRANCH   4   6
ATOM      6  C   UNL A   1      33.952  25.537  23.594  1.00  0.00     0.243 C 
BRANCH   6   7
ATOM      7  N   UNL A   1      34.221  24.099  23.713  1.00  0.00    -0.320 N 
BRANCH   7   8
ATOM      8  C   UNL A   1      35.655  23.718  23.502  1.00  0.00     0.210 C 
BRANCH   8   9
ATOM      9  C   UNL A   1      36.358  23.690  24.850  1.00  0.00    -0.085 C 
ATOM     10  C   UNL A   1      36.960  23.664  26.006  1.00  0.00     0.006 C 
ENDBRANCH   8   9
ENDBRANCH   7   8
BRANCH   7  11
ATOM     11  C   UNL A   1      33.333  23.065  24.051  1.00  0.00     0.231 C 
ATOM     12  O   UNL A   1      32.291  23.000  23.373  1.00  0.00    -0.274 OA
BRANCH  11  13
ATOM     13  C   UNL A   1      33.393  22.076  25.291  1.00  0.00     0.111 C 
BRANCH  13  14
ATOM     14  C   UNL A   1      32.490  22.435  26.545  1.00  0.00    -0.000 C 
ATOM     15  C   UNL A   1      33.236  22.156  27.873  1.00  0.00     0.008 C 
ATOM     16  C   UNL A   1      32.055  23.911  26.639  1.00  0.00     0.008 C 
ENDBRANCH  13  14
BRANCH  13  17
ATOM     17  C   UNL A   1      33.487  20.573  25.053  1.00  0.00    -0.035 A 
ATOM     18  C   UNL A   1      32.377  19.736  24.964  1.00  0.00     0.006 A 
ATOM     19  C   UNL A   1      34.762  19.982  24.916  1.00  0.00     0.006 A 
ATOM     20  C   UNL A   1      32.533  18.419  24.502  1.00  0.00     0.021 A 
ATOM     21  C   UNL A   1      34.926  18.678  24.467  1.00  0.00     0.021 A 
ATOM     22  C   UNL A   1      33.801  17.913  24.212  1.00  0.00     0.041 A 
ATOM     23  Cl  UNL A   1      33.979  16.348  23.526  1.00  0.00    -0.084 Cl
ENDBRANCH  13  17
ENDBRANCH  11  13
ENDBRANCH   7  11
ENDBRANCH   6   7
ENDBRANCH   4   6
ENDBRANCH   3   4
ENDBRANCH   2   3
ENDBRANCH   1   2
BRANCH   1  24
ATOM     24  O   UNL A   1      30.705  29.643  24.142  1.00  0.00    -0.374 OA
BRANCH  24  25
ATOM     25  C   UNL A   1      31.458  29.614  25.343  1.00  0.00     0.202 C 
BRANCH  25  26
ATOM     26  C   UNL A   1      31.712  30.907  26.126  1.00  0.00     0.261 C 
BRANCH  26  27
ATOM     27  O   UNL A   1      32.663  30.763  27.148  1.00  0.00    -0.460 OA
BRANCH  27  28
ATOM     28  C   UNL A   1      33.297  31.921  27.428  1.00  0.00     0.338 C 
ATOM     29  O   UNL A   1      32.875  33.053  27.406  1.00  0.00    -0.246 OA
BRANCH  28  30
ATOM     30  C   UNL A   1      34.581  31.491  27.965  1.00  0.00     0.060 A 
ATOM     31  C   UNL A   1      34.751  30.127  28.207  1.00  0.00     0.016 A 
ATOM     32  C   UNL A   1      35.614  32.423  28.124  1.00  0.00     0.016 A 
ATOM     33  C   UNL A   1      35.965  29.692  28.692  1.00  0.00     0.010 A 
ATOM     34  C   UNL A   1      36.831  31.986  28.603  1.00  0.00     0.010 A 
ATOM     35  C   UNL A   1      36.974  30.632  28.939  1.00  0.00    -0.014 A 
BRANCH  35  36
ATOM     36  C   UNL A   1      38.094  30.231  29.789  1.00  0.00     0.031 A 
ATOM     37  C   UNL A   1      39.113  29.316  29.187  1.00  0.00     0.074 A 
ATOM     38  C   UNL A   1      38.191  30.737  31.026  1.00  0.00     0.049 A 
ATOM     39  N   UNL A   1      40.206  28.838  29.713  1.00  0.00    -0.248 NA
ATOM     40  C   UNL A   1      38.866  28.871  27.801  1.00  0.00     0.031 C 
ATOM     41  C   UNL A   1      37.230  31.655  31.639  1.00  0.00     0.029 A 
ATOM     42  N   UNL A   1      39.150  30.557  31.977  1.00  0.00    -0.354 N 
ATOM     43  C   UNL A   1      40.771  28.040  28.727  1.00  0.00     0.074 A 
ATOM     44  C   UNL A   1      39.883  28.053  27.591  1.00  0.00     0.031 C 
ATOM     45  C   UNL A   1      37.661  31.969  32.872  1.00  0.00     0.029 A 
ATOM     46  C   UNL A   1      38.902  31.247  33.133  1.00  0.00     0.049 A 
ATOM     47  H   UNL A   1      39.942  29.986  31.845  1.00  0.00     0.167 HD
ATOM     48  C   UNL A   1      41.947  27.376  28.773  1.00  0.00     0.037 A 
ATOM     49  C   UNL A   1      39.612  31.270  34.272  1.00  0.00     0.037 A 
ATOM     50  C   UNL A   1      42.797  27.388  29.930  1.00  0.00     0.049 A 
ATOM     51  C   UNL A   1      40.887  30.474  34.317  1.00  0.00     0.074 A 
ATOM     52  C   UNL A   1      44.011  26.760  30.120  1.00  0.00     0.029 A 
ATOM     53  N   UNL A   1      42.504  28.069  31.106  1.00  0.00    -0.354 N 
ATOM     54  N   UNL A   1      41.436  29.736  33.378  1.00  0.00    -0.248 NA
ATOM     55  C   UNL A   1      41.646  30.519  35.569  1.00  0.00     0.031 C 
ATOM     56  C   UNL A   1      44.426  27.017  31.431  1.00  0.00     0.029 A 
ATOM     57  C   UNL A   1      43.504  27.858  32.037  1.00  0.00     0.049 A 
ATOM     58  H   UNL A   1      41.702  28.622  31.254  1.00  0.00     0.167 HD
ATOM     59  C   UNL A   1      42.618  29.249  33.916  1.00  0.00     0.074 A 
ATOM     60  C   UNL A   1      42.712  29.795  35.257  1.00  0.00     0.031 C 
ATOM     61  C   UNL A   1      43.546  28.426  33.363  1.00  0.00     0.037 A 
BRANCH  48  62
ATOM     62  C   UNL A   1      42.337  26.574  27.566  1.00  0.00     0.057 A 
ATOM     63  C   UNL A   1      43.036  27.139  26.489  1.00  0.00     0.134 A 
ATOM     64  C   UNL A   1      42.001  25.219  27.473  1.00  0.00     0.134 A 
ATOM     65  F   UNL A   1      43.366  28.439  26.498  1.00  0.00    -0.206 F 
ATOM     66  C   UNL A   1      43.364  26.391  25.356  1.00  0.00     0.040 A 
ATOM     67  C   UNL A   1      42.349  24.452  26.359  1.00  0.00     0.040 A 
ATOM     68  F   UNL A   1      41.322  24.616  28.461  1.00  0.00    -0.206 F 
ATOM     69  C   UNL A   1      43.027  25.040  25.293  1.00  0.00     0.006 A 
ENDBRANCH  48  62
BRANCH  49  70
ATOM     70  C   UNL A   1      39.139  32.071  35.427  1.00  0.00     0.057 A 
ATOM     71  C   UNL A   1      38.325  31.510  36.417  1.00  0.00     0.134 A 
ATOM     72  C   UNL A   1      39.506  33.414  35.582  1.00  0.00     0.134 A 
ATOM     73  F   UNL A   1      37.934  30.231  36.325  1.00  0.00    -0.206 F 
ATOM     74  C   UNL A   1      37.875  32.261  37.505  1.00  0.00     0.040 A 
ATOM     75  C   UNL A   1      39.087  34.168  36.678  1.00  0.00     0.040 A 
ATOM     76  F   UNL A   1      40.300  34.008  34.676  1.00  0.00    -0.206 F 
ATOM     77  C   UNL A   1      38.260  33.593  37.640  1.00  0.00     0.006 A 
ENDBRANCH  49  70
BRANCH  61  78
ATOM     78  C   UNL A   1      44.745  28.108  34.204  1.00  0.00     0.057 A 
ATOM     79  C   UNL A   1      44.770  27.007  35.069  1.00  0.00     0.134 A 
ATOM     80  C   UNL A   1      45.898  28.897  34.122  1.00  0.00     0.134 A 
ATOM     81  F   UNL A   1      43.691  26.219  35.201  1.00  0.00    -0.206 F 
ATOM     82  C   UNL A   1      45.889  26.725  35.851  1.00  0.00     0.040 A 
ATOM     83  C   UNL A   1      47.036  28.604  34.870  1.00  0.00     0.040 A 
ATOM     84  F   UNL A   1      45.942  29.957  33.299  1.00  0.00    -0.206 F 
ATOM     85  C   UNL A   1      47.029  27.521  35.748  1.00  0.00     0.006 A 
ENDBRANCH  61  78
ENDBRANCH  35  36
ENDBRANCH  28  30
ENDBRANCH  27  28
ENDBRANCH  26  27
ENDBRANCH  25  26
ENDBRANCH  24  25
ENDBRANCH   1  24
TORSDOF 21
ENDMDL
MODEL 2
REMARK VINA RESULT:     -10.1      4.274      7.507
REMARK SMILES C#CCN(CC(=O)OCCOCCOC(=O)c1ccc(-c2c3nc(c(-c4c(F)cccc4F)c4ccc([nH]4)c(-c4c(F)cccc4F)c4nc(c(-c5c(F)cccc5F)c5ccc2[nH]5)C=C4)C=C3)cc1)C(=O)[C@H](c1ccc(Cl)cc1)C(C)C
REMARK SMILES IDX 10 1 9 2 8 3 6 4 7 5 5 6 4 7 3 8 2 9 1 10 71 11 72 12 73 13
REMARK SMILES IDX 81 14 82 15 83 16 74 17 75 18 80 19 76 20 79 21 77 22 78 23
REMARK SMILES IDX 11 24 12 25 13 26 14 27 15 28 16 29 17 30 18 31 70 32 19 33
REMARK SMILES IDX 69 34 20 35 21 36 22 37 63 38 23 39 68 40 62 41 64 42 24 43
REMARK SMILES IDX 67 44 61 45 60 46 25 48 51 49 34 50 50 51 35 52 38 53 49 54
REMARK SMILES IDX 65 55 36 56 37 57 48 59 66 60 39 61 26 62 27 63 32 64 28 65
REMARK SMILES IDX 29 66 31 67 33 68 30 69 52 70 53 71 58 72 54 73 55 74 57 75
REMARK SMILES IDX 59 76 56 77 40 78 41 79 46 80 42 81 43 82 45 83 47 84 44 85
REMARK H PARENT 64 47 38 58
REMARK Flexibility Score: inf
ROOT
ATOM      1  C   UNL A   1      37.014  22.087  25.773  1.00  0.00     0.202 C 
ENDROOT
BRANCH   1   2
ATOM      2  C   UNL A   1      35.828  22.984  25.409  1.00  0.00     0.261 C 
BRANCH   2   3
ATOM      3  O   UNL A   1      34.856  22.294  24.590  1.00  0.00    -0.462 OA
BRANCH   3   4
ATOM      4  C   UNL A   1      34.639  22.895  23.390  1.00  0.00     0.325 C 
ATOM      5  O   UNL A   1      35.537  23.271  22.642  1.00  0.00    -0.250 OA
BRANCH   4   6
ATOM      6  C   UNL A   1      33.170  23.180  23.079  1.00  0.00     0.243 C 
BRANCH   6   7
ATOM      7  N   UNL A   1      32.541  24.490  23.291  1.00  0.00    -0.320 N 
BRANCH   7   8
ATOM      8  C   UNL A   1      33.193  25.616  22.548  1.00  0.00     0.210 C 
BRANCH   8   9
ATOM      9  C   UNL A   1      32.773  25.549  21.089  1.00  0.00    -0.085 C 
ATOM     10  C   UNL A   1      32.412  25.490  19.837  1.00  0.00     0.006 C 
ENDBRANCH   8   9
ENDBRANCH   7   8
BRANCH   7  11
ATOM     11  C   UNL A   1      31.394  24.802  24.038  1.00  0.00     0.231 C 
ATOM     12  O   UNL A   1      30.355  24.997  23.382  1.00  0.00    -0.274 OA
BRANCH  11  13
ATOM     13  C   UNL A   1      31.280  25.111  25.591  1.00  0.00     0.111 C 
BRANCH  13  14
ATOM     14  C   UNL A   1      31.255  23.866  26.575  1.00  0.00    -0.000 C 
ATOM     15  C   UNL A   1      30.622  22.627  25.896  1.00  0.00     0.008 C 
ATOM     16  C   UNL A   1      32.638  23.387  27.062  1.00  0.00     0.008 C 
ENDBRANCH  13  14
BRANCH  13  17
ATOM     17  C   UNL A   1      32.027  26.303  26.180  1.00  0.00    -0.035 A 
ATOM     18  C   UNL A   1      33.374  26.563  25.940  1.00  0.00     0.006 A 
ATOM     19  C   UNL A   1      31.328  27.199  27.017  1.00  0.00     0.006 A 
ATOM     20  C   UNL A   1      33.921  27.801  26.313  1.00  0.00     0.021 A 
ATOM     21  C   UNL A   1      31.865  28.423  27.398  1.00  0.00     0.021 A 
ATOM     22  C   UNL A   1      33.151  28.741  26.997  1.00  0.00     0.041 A 
ATOM     23  Cl  UNL A   1      33.781  30.303  27.339  1.00  0.00    -0.084 Cl
ENDBRANCH  13  17
ENDBRANCH  11  13
ENDBRANCH   7  11
ENDBRANCH   6   7
ENDBRANCH   4   6
ENDBRANCH   3   4
ENDBRANCH   2   3
ENDBRANCH   1   2
BRANCH   1  24
ATOM     24  O   UNL A   1      37.636  21.343  24.724  1.00  0.00    -0.374 OA
BRANCH  24  25
ATOM     25  C   UNL A   1      37.785  19.946  24.919  1.00  0.00     0.202 C 
BRANCH  25  26
ATOM     26  C   UNL A   1      39.123  19.373  25.401  1.00  0.00     0.261 C 
BRANCH  26  27
ATOM     27  O   UNL A   1      39.655  20.053  26.508  1.00  0.00    -0.460 OA
BRANCH  27  28
ATOM     28  C   UNL A   1      40.984  20.253  26.396  1.00  0.00     0.338 C 
ATOM     29  O   UNL A   1      41.826  19.559  25.876  1.00  0.00    -0.246 OA
BRANCH  28  30
ATOM     30  C   UNL A   1      41.170  21.616  26.878  1.00  0.00     0.060 A 
ATOM     31  C   UNL A   1      40.561  22.640  26.153  1.00  0.00     0.016 A 
ATOM     32  C   UNL A   1      41.854  21.840  28.079  1.00  0.00     0.016 A 
ATOM     33  C   UNL A   1      40.701  23.936  26.602  1.00  0.00     0.010 A 
ATOM     34  C   UNL A   1      41.987  23.136  28.532  1.00  0.00     0.010 A 
ATOM     35  C   UNL A   1      41.460  24.177  27.755  1.00  0.00    -0.014 A 
BRANCH  35  36
ATOM     36  C   UNL A   1      41.914  25.543  28.006  1.00  0.00     0.031 A 
ATOM     37  C   UNL A   1      43.266  25.920  27.484  1.00  0.00     0.074 A 
ATOM     38  C   UNL A   1      41.095  26.402  28.626  1.00  0.00     0.049 A 
ATOM     39  N   UNL A   1      43.885  27.065  27.546  1.00  0.00    -0.248 NA
ATOM     40  C   UNL A   1      44.030  24.857  26.800  1.00  0.00     0.031 C 
ATOM     41  C   UNL A   1      39.757  26.080  29.126  1.00  0.00     0.029 A 
ATOM     42  N   UNL A   1      41.266  27.720  28.928  1.00  0.00    -0.354 N 
ATOM     43  C   UNL A   1      45.105  26.859  26.915  1.00  0.00     0.074 A 
ATOM     44  C   UNL A   1      45.166  25.473  26.521  1.00  0.00     0.031 C 
ATOM     45  C   UNL A   1      39.222  27.186  29.667  1.00  0.00     0.029 A 
ATOM     46  C   UNL A   1      40.193  28.271  29.576  1.00  0.00     0.049 A 
ATOM     47  H   UNL A   1      42.082  28.224  28.703  1.00  0.00     0.167 HD
ATOM     48  C   UNL A   1      46.074  27.768  26.672  1.00  0.00     0.037 A 
ATOM     49  C   UNL A   1      40.039  29.520  30.044  1.00  0.00     0.037 A 
ATOM     50  C   UNL A   1      45.971  29.139  27.090  1.00  0.00     0.049 A 
ATOM     51  C   UNL A   1      41.159  30.495  29.813  1.00  0.00     0.074 A 
ATOM     52  C   UNL A   1      46.875  30.167  26.916  1.00  0.00     0.029 A 
ATOM     53  N   UNL A   1      44.884  29.664  27.778  1.00  0.00    -0.354 N 
ATOM     54  N   UNL A   1      42.305  30.310  29.196  1.00  0.00    -0.248 NA
ATOM     55  C   UNL A   1      40.966  31.853  30.330  1.00  0.00     0.031 C 
ATOM     56  C   UNL A   1      46.358  31.302  27.548  1.00  0.00     0.029 A 
ATOM     57  C   UNL A   1      45.104  31.000  28.060  1.00  0.00     0.049 A 
ATOM     58  H   UNL A   1      44.076  29.160  28.029  1.00  0.00     0.167 HD
ATOM     59  C   UNL A   1      42.959  31.533  29.227  1.00  0.00     0.074 A 
ATOM     60  C   UNL A   1      42.068  32.455  29.907  1.00  0.00     0.031 C 
ATOM     61  C   UNL A   1      44.181  31.874  28.743  1.00  0.00     0.037 A 
BRANCH  48  62
ATOM     62  C   UNL A   1      47.310  27.291  25.969  1.00  0.00     0.057 A 
ATOM     63  C   UNL A   1      48.404  26.753  26.663  1.00  0.00     0.134 A 
ATOM     64  C   UNL A   1      47.414  27.377  24.576  1.00  0.00     0.134 A 
ATOM     65  F   UNL A   1      48.385  26.666  28.002  1.00  0.00    -0.206 F 
ATOM     66  C   UNL A   1      49.563  26.343  26.000  1.00  0.00     0.040 A 
ATOM     67  C   UNL A   1      48.555  26.942  23.897  1.00  0.00     0.040 A 
ATOM     68  F   UNL A   1      46.411  27.891  23.848  1.00  0.00    -0.206 F 
ATOM     69  C   UNL A   1      49.637  26.430  24.611  1.00  0.00     0.006 A 
ENDBRANCH  48  62
BRANCH  49  70
ATOM     70  C   UNL A   1      38.793  29.900  30.752  1.00  0.00     0.057 A 
ATOM     71  C   UNL A   1      38.626  29.650  32.118  1.00  0.00     0.134 A 
ATOM     72  C   UNL A   1      37.742  30.542  30.083  1.00  0.00     0.134 A 
ATOM     73  F   UNL A   1      39.592  29.033  32.814  1.00  0.00    -0.206 F 
ATOM     74  C   UNL A   1      37.453  30.003  32.788  1.00  0.00     0.040 A 
ATOM     75  C   UNL A   1      36.577  30.926  30.745  1.00  0.00     0.040 A 
ATOM     76  F   UNL A   1      37.845  30.827  28.775  1.00  0.00    -0.206 F 
ATOM     77  C   UNL A   1      36.426  30.648  32.102  1.00  0.00     0.006 A 
ENDBRANCH  49  70
BRANCH  61  78
ATOM     78  C   UNL A   1      44.593  33.305  28.910  1.00  0.00     0.057 A 
ATOM     79  C   UNL A   1      44.281  34.281  27.956  1.00  0.00     0.134 A 
ATOM     80  C   UNL A   1      45.284  33.714  30.057  1.00  0.00     0.134 A 
ATOM     81  F   UNL A   1      43.630  33.949  26.830  1.00  0.00    -0.206 F 
ATOM     82  C   UNL A   1      44.675  35.608  28.120  1.00  0.00     0.040 A 
ATOM     83  C   UNL A   1      45.650  35.044  30.250  1.00  0.00     0.040 A 
ATOM     84  F   UNL A   1      45.598  32.829  31.016  1.00  0.00    -0.206 F 
ATOM     85  C   UNL A   1      45.356  35.994  29.274  1.00  0.00     0.006 A 
ENDBRANCH  61  78
ENDBRANCH  35  36
ENDBRANCH  28  30
ENDBRANCH  27  28
ENDBRANCH  26  27
ENDBRANCH  25  26
ENDBRANCH  24  25
ENDBRANCH   1  24
TORSDOF 21
ENDMDL
MODEL 3
REMARK VINA RESULT:     -10.0      1.104      6.336
REMARK SMILES C#CCN(CC(=O)OCCOCCOC(=O)c1ccc(-c2c3nc(c(-c4c(F)cccc4F)c4ccc([nH]4)c(-c4c(F)cccc4F)c4nc(c(-c5c(F)cccc5F)c5ccc2[nH]5)C=C4)C=C3)cc1)C(=O)[C@H](c1ccc(Cl)cc1)C(C)C
REMARK SMILES IDX 10 1 9 2 8 3 6 4 7 5 5 6 4 7 3 8 2 9 1 10 71 11 72 12 73 13
REMARK SMILES IDX 81 14 82 15 83 16 74 17 75 18 80 19 76 20 79 21 77 22 78 23
REMARK SMILES IDX 11 24 12 25 13 26 14 27 15 28 16 29 17 30 18 31 70 32 19 33
REMARK SMILES IDX 69 34 20 35 21 36 22 37 63 38 23 39 68 40 62 41 64 42 24 43
REMARK SMILES IDX 67 44 61 45 60 46 25 48 51 49 34 50 50 51 35 52 38 53 49 54
REMARK SMILES IDX 65 55 36 56 37 57 48 59 66 60 39 61 26 62 27 63 32 64 28 65
REMARK SMILES IDX 29 66 31 67 33 68 30 69 52 70 53 71 58 72 54 73 55 74 57 75
REMARK SMILES IDX 59 76 56 77 40 78 41 79 46 80 42 81 43 82 45 83 47 84 44 85
REMARK H PARENT 64 47 38 58
REMARK Flexibility Score: inf
ROOT
ATOM      1  C   UNL A   1      33.121  28.713  23.799  1.00  0.00     0.202 C 
ENDROOT
BRANCH   1   2
ATOM      2  C   UNL A   1      33.072  27.185  23.873  1.00  0.00     0.261 C 
BRANCH   2   3
ATOM      3  O   UNL A   1      31.937  26.715  24.637  1.00  0.00    -0.462 OA
BRANCH   3   4
ATOM      4  C   UNL A   1      32.281  26.155  25.827  1.00  0.00     0.325 C 
ATOM      5  O   UNL A   1      31.734  26.425  26.892  1.00  0.00    -0.250 OA
BRANCH   4   6
ATOM      6  C   UNL A   1      33.497  25.232  25.766  1.00  0.00     0.243 C 
BRANCH   6   7
ATOM      7  N   UNL A   1      33.416  23.778  25.949  1.00  0.00    -0.320 N 
BRANCH   7   8
ATOM      8  C   UNL A   1      34.547  23.190  26.738  1.00  0.00     0.210 C 
BRANCH   8   9
ATOM      9  C   UNL A   1      35.827  23.317  25.929  1.00  0.00    -0.085 C 
ATOM     10  C   UNL A   1      36.925  23.428  25.234  1.00  0.00     0.006 C 
ENDBRANCH   8   9
ENDBRANCH   7   8
BRANCH   7  11
ATOM     11  C   UNL A   1      32.403  22.898  25.539  1.00  0.00     0.231 C 
ATOM     12  O   UNL A   1      31.390  22.859  26.262  1.00  0.00    -0.274 OA
BRANCH  11  13
ATOM     13  C   UNL A   1      32.443  21.817  24.377  1.00  0.00     0.111 C 
BRANCH  13  14
ATOM     14  C   UNL A   1      32.828  22.332  22.926  1.00  0.00    -0.000 C 
ATOM     15  C   UNL A   1      32.147  21.477  21.828  1.00  0.00     0.008 C 
ATOM     16  C   UNL A   1      32.409  23.783  22.613  1.00  0.00     0.008 C 
ENDBRANCH  13  14
BRANCH  13  17
ATOM     17  C   UNL A   1      32.989  20.422  24.662  1.00  0.00    -0.035 A 
ATOM     18  C   UNL A   1      32.182  19.324  24.954  1.00  0.00     0.006 A 
ATOM     19  C   UNL A   1      34.385  20.217  24.635  1.00  0.00     0.006 A 
ATOM     20  C   UNL A   1      32.737  18.034  24.961  1.00  0.00     0.021 A 
ATOM     21  C   UNL A   1      34.944  18.945  24.650  1.00  0.00     0.021 A 
ATOM     22  C   UNL A   1      34.106  17.849  24.762  1.00  0.00     0.041 A 
ATOM     23  Cl  UNL A   1      34.763  16.265  24.643  1.00  0.00    -0.084 Cl
ENDBRANCH  13  17
ENDBRANCH  11  13
ENDBRANCH   7  11
ENDBRANCH   6   7
ENDBRANCH   4   6
ENDBRANCH   3   4
ENDBRANCH   2   3
ENDBRANCH   1   2
BRANCH   1  24
ATOM     24  O   UNL A   1      33.063  29.444  25.025  1.00  0.00    -0.374 OA
BRANCH  24  25
ATOM     25  C   UNL A   1      31.827  30.052  25.360  1.00  0.00     0.202 C 
BRANCH  25  26
ATOM     26  C   UNL A   1      31.766  31.130  26.448  1.00  0.00     0.261 C 
BRANCH  26  27
ATOM     27  O   UNL A   1      32.752  30.981  27.436  1.00  0.00    -0.460 OA
BRANCH  27  28
ATOM     28  C   UNL A   1      33.460  32.114  27.629  1.00  0.00     0.338 C 
ATOM     29  O   UNL A   1      33.087  33.263  27.631  1.00  0.00    -0.246 OA
BRANCH  28  30
ATOM     30  C   UNL A   1      34.773  31.634  28.040  1.00  0.00     0.060 A 
ATOM     31  C   UNL A   1      34.952  30.253  28.129  1.00  0.00     0.016 A 
ATOM     32  C   UNL A   1      35.817  32.547  28.232  1.00  0.00     0.016 A 
ATOM     33  C   UNL A   1      36.192  29.773  28.492  1.00  0.00     0.010 A 
ATOM     34  C   UNL A   1      37.060  32.066  28.589  1.00  0.00     0.010 A 
ATOM     35  C   UNL A   1      37.217  30.685  28.773  1.00  0.00    -0.014 A 
BRANCH  35  36
ATOM     36  C   UNL A   1      38.385  30.202  29.508  1.00  0.00     0.031 A 
ATOM     37  C   UNL A   1      38.534  30.653  30.927  1.00  0.00     0.074 A 
ATOM     38  C   UNL A   1      39.224  29.344  28.912  1.00  0.00     0.049 A 
ATOM     39  N   UNL A   1      39.455  30.350  31.798  1.00  0.00    -0.248 NA
ATOM     40  C   UNL A   1      37.504  31.581  31.437  1.00  0.00     0.031 C 
ATOM     41  C   UNL A   1      39.097  28.859  27.537  1.00  0.00     0.029 A 
ATOM     42  N   UNL A   1      40.338  28.725  29.394  1.00  0.00    -0.354 N 
ATOM     43  C   UNL A   1      39.118  31.046  32.950  1.00  0.00     0.074 A 
ATOM     44  C   UNL A   1      37.940  31.829  32.660  1.00  0.00     0.031 C 
ATOM     45  C   UNL A   1      40.099  27.999  27.290  1.00  0.00     0.029 A 
ATOM     46  C   UNL A   1      40.943  27.908  28.476  1.00  0.00     0.049 A 
ATOM     47  H   UNL A   1      40.674  28.853  30.311  1.00  0.00     0.167 HD
ATOM     48  C   UNL A   1      39.736  31.009  34.151  1.00  0.00     0.037 A 
ATOM     49  C   UNL A   1      42.065  27.181  28.603  1.00  0.00     0.037 A 
ATOM     50  C   UNL A   1      40.910  30.218  34.391  1.00  0.00     0.049 A 
ATOM     51  C   UNL A   1      42.767  27.205  29.932  1.00  0.00     0.074 A 
ATOM     52  C   UNL A   1      41.643  30.088  35.553  1.00  0.00     0.029 A 
ATOM     53  N   UNL A   1      41.526  29.425  33.430  1.00  0.00    -0.354 N 
ATOM     54  N   UNL A   1      42.438  27.846  31.031  1.00  0.00    -0.248 NA
ATOM     55  C   UNL A   1      43.987  26.401  30.046  1.00  0.00     0.031 C 
ATOM     56  C   UNL A   1      42.735  29.256  35.280  1.00  0.00     0.029 A 
ATOM     57  C   UNL A   1      42.647  28.817  33.966  1.00  0.00     0.049 A 
ATOM     58  H   UNL A   1      41.211  29.311  32.504  1.00  0.00     0.167 HD
ATOM     59  C   UNL A   1      43.394  27.503  31.976  1.00  0.00     0.074 A 
ATOM     60  C   UNL A   1      44.302  26.581  31.320  1.00  0.00     0.031 C 
ATOM     61  C   UNL A   1      43.520  27.907  33.266  1.00  0.00     0.037 A 
BRANCH  48  62
ATOM     62  C   UNL A   1      39.172  31.865  35.247  1.00  0.00     0.057 A 
ATOM     63  C   UNL A   1      38.297  31.354  36.217  1.00  0.00     0.134 A 
ATOM     64  C   UNL A   1      39.500  33.223  35.330  1.00  0.00     0.134 A 
ATOM     65  F   UNL A   1      37.917  30.068  36.182  1.00  0.00    -0.206 F 
ATOM     66  C   UNL A   1      37.752  32.168  37.213  1.00  0.00     0.040 A 
ATOM     67  C   UNL A   1      38.986  34.041  36.338  1.00  0.00     0.040 A 
ATOM     68  F   UNL A   1      40.322  33.782  34.429  1.00  0.00    -0.206 F 
ATOM     69  C   UNL A   1      38.103  33.515  37.279  1.00  0.00     0.006 A 
ENDBRANCH  48  62
BRANCH  49  70
ATOM     70  C   UNL A   1      42.566  26.383  27.458  1.00  0.00     0.057 A 
ATOM     71  C   UNL A   1      42.195  25.046  27.285  1.00  0.00     0.134 A 
ATOM     72  C   UNL A   1      43.415  26.944  26.495  1.00  0.00     0.134 A 
ATOM     73  F   UNL A   1      41.389  24.448  28.176  1.00  0.00    -0.206 F 
ATOM     74  C   UNL A   1      42.667  24.289  26.211  1.00  0.00     0.040 A 
ATOM     75  C   UNL A   1      43.871  26.209  25.401  1.00  0.00     0.040 A 
ATOM     76  F   UNL A   1      43.796  28.228  26.592  1.00  0.00    -0.206 F 
ATOM     77  C   UNL A   1      43.503  24.872  25.262  1.00  0.00     0.006 A 
ENDBRANCH  49  70
BRANCH  61  78
ATOM     78  C   UNL A   1      44.660  27.321  34.043  1.00  0.00     0.057 A 
ATOM     79  C   UNL A   1      44.541  26.105  34.727  1.00  0.00     0.134 A 
ATOM     80  C   UNL A   1      45.899  27.970  34.079  1.00  0.00     0.134 A 
ATOM     81  F   UNL A   1      43.375  25.440  34.738  1.00  0.00    -0.206 F 
ATOM     82  C   UNL A   1      45.608  25.573  35.451  1.00  0.00     0.040 A 
ATOM     83  C   UNL A   1      46.983  27.431  34.769  1.00  0.00     0.040 A 
ATOM     84  F   UNL A   1      46.081  29.132  33.431  1.00  0.00    -0.206 F 
ATOM     85  C   UNL A   1      46.835  26.234  35.467  1.00  0.00     0.006 A 
ENDBRANCH  61  78
ENDBRANCH  35  36
ENDBRANCH  28  30
ENDBRANCH  27  28
ENDBRANCH  26  27
ENDBRANCH  25  26
ENDBRANCH  24  25
ENDBRANCH   1  24
TORSDOF 21
ENDMDL
