MODEL 1
REMARK VINA RESULT:     -13.2      0.000      0.000
REMARK SMILES O=C(OCCOCCOC(=O)[C@@H]1[C@H](C(=O)Nc2ccccc2Cc2ccccc2)[C@H]2C=C[C@@H]1O2)c1ccc(-c2c3nc(c(-c4c(F)cccc4F)c4ccc([nH]4)c(-c4c(F)cccc4F)c4nc(c(-c5c(F)cccc5F)c5ccc2[nH]5)C=C4)C=C3)cc1
REMARK SMILES IDX 7 1 6 2 5 3 4 4 3 5 2 6 1 7 35 8 36 9 88 10 37 11 87 12
REMARK SMILES IDX 38 13 39 14 40 15 81 16 41 17 86 18 80 19 82 20 42 21 85 22
REMARK SMILES IDX 79 23 78 24 43 26 69 27 52 28 68 29 53 30 56 31 67 32 83 33
REMARK SMILES IDX 54 34 55 35 66 37 84 38 57 39 44 40 45 41 50 42 46 43 47 44
REMARK SMILES IDX 49 45 51 46 48 47 70 48 71 49 76 50 72 51 73 52 75 53 77 54
REMARK SMILES IDX 74 55 58 56 59 57 64 58 60 59 61 60 63 61 65 62 62 63 8 64
REMARK SMILES IDX 9 65 10 66 11 67 12 68 13 69 33 70 30 71 32 72 34 73 31 74
REMARK SMILES IDX 14 75 15 76 16 77 17 79 18 80 22 81 19 82 21 83 20 84 23 85
REMARK SMILES IDX 24 86 25 87 29 88 26 89 28 90 27 91
REMARK H PARENT 82 25 56 36 16 78
REMARK Flexibility Score: inf
ROOT
ATOM      1  C   UNL A   1      37.473  23.312  25.751  1.00  0.00     0.202 C 
ENDROOT
BRANCH   1   2
ATOM      2  O   UNL A   1      38.349  22.053  25.759  1.00  0.00    -0.374 OA
BRANCH   2   3
ATOM      3  C   UNL A   1      40.037  21.156  26.371  1.00  0.00     0.202 C 
BRANCH   3   4
ATOM      4  C   UNL A   1      41.730  21.525  26.129  1.00  0.00     0.261 C 
BRANCH   4   5
ATOM      5  O   UNL A   1      42.280  22.810  25.656  1.00  0.00    -0.460 OA
BRANCH   5   6
ATOM      6  C   UNL A   1      42.596  23.960  26.340  1.00  0.00     0.338 C 
ATOM      7  O   UNL A   1      43.751  24.205  26.672  1.00  0.00    -0.246 OA
BRANCH   6   8
ATOM      8  C   UNL A   1      41.518  24.856  26.835  1.00  0.00     0.060 A 
ATOM      9  C   UNL A   1      41.136  25.999  26.131  1.00  0.00     0.016 A 
ATOM     10  C   UNL A   1      40.792  24.558  27.970  1.00  0.00     0.016 A 
ATOM     11  C   UNL A   1      40.480  27.046  26.805  1.00  0.00     0.010 A 
ATOM     12  C   UNL A   1      40.011  25.568  28.562  1.00  0.00     0.010 A 
ATOM     13  C   UNL A   1      40.113  26.911  28.148  1.00  0.00    -0.014 A 
BRANCH  13  14
ATOM     14  C   UNL A   1      40.023  28.049  29.188  1.00  0.00     0.031 A 
ATOM     15  C   UNL A   1      41.092  28.123  30.291  1.00  0.00     0.074 A 
ATOM     16  C   UNL A   1      39.248  29.168  29.174  1.00  0.00     0.049 A 
ATOM     17  N   UNL A   1      41.003  28.544  31.530  1.00  0.00    -0.248 NA
ATOM     18  C   UNL A   1      42.445  27.653  29.940  1.00  0.00     0.031 C 
ATOM     19  C   UNL A   1      38.389  29.666  28.102  1.00  0.00     0.029 A 
ATOM     20  N   UNL A   1      39.088  30.138  30.162  1.00  0.00    -0.354 N 
ATOM     21  C   UNL A   1      42.208  28.195  32.138  1.00  0.00     0.074 A 
ATOM     22  C   UNL A   1      43.023  27.562  31.128  1.00  0.00     0.031 C 
ATOM     23  C   UNL A   1      37.779  30.798  28.492  1.00  0.00     0.029 A 
ATOM     24  C   UNL A   1      38.124  31.083  29.876  1.00  0.00     0.049 A 
ATOM     25  H   UNL A   1      39.618  30.149  30.992  1.00  0.00     0.167 HD
ATOM     26  C   UNL A   1      42.603  28.379  33.421  1.00  0.00     0.037 A 
ATOM     27  C   UNL A   1      37.520  32.027  30.631  1.00  0.00     0.037 A 
ATOM     28  C   UNL A   1      41.923  29.223  34.366  1.00  0.00     0.049 A 
ATOM     29  C   UNL A   1      37.869  32.177  32.089  1.00  0.00     0.074 A 
ATOM     30  C   UNL A   1      42.224  29.452  35.700  1.00  0.00     0.029 A 
ATOM     31  N   UNL A   1      40.859  30.050  34.052  1.00  0.00    -0.354 N 
ATOM     32  N   UNL A   1      38.812  31.590  32.780  1.00  0.00    -0.248 NA
ATOM     33  C   UNL A   1      37.036  33.099  32.883  1.00  0.00     0.031 C 
ATOM     34  C   UNL A   1      41.319  30.395  36.200  1.00  0.00     0.029 A 
ATOM     35  C   UNL A   1      40.486  30.783  35.165  1.00  0.00     0.049 A 
ATOM     36  H   UNL A   1      40.432  30.108  33.167  1.00  0.00     0.167 HD
ATOM     37  C   UNL A   1      38.693  32.075  34.078  1.00  0.00     0.074 A 
ATOM     38  C   UNL A   1      37.604  33.025  34.078  1.00  0.00     0.031 C 
ATOM     39  C   UNL A   1      39.417  31.745  35.174  1.00  0.00     0.037 A 
BRANCH  26  40
ATOM     40  C   UNL A   1      43.783  27.591  33.912  1.00  0.00     0.057 A 
ATOM     41  C   UNL A   1      45.088  28.090  33.959  1.00  0.00     0.134 A 
ATOM     42  C   UNL A   1      43.576  26.285  34.388  1.00  0.00     0.134 A 
ATOM     43  F   UNL A   1      45.362  29.323  33.507  1.00  0.00    -0.206 F 
ATOM     44  C   UNL A   1      46.149  27.312  34.434  1.00  0.00     0.040 A 
ATOM     45  C   UNL A   1      44.619  25.512  34.893  1.00  0.00     0.040 A 
ATOM     46  F   UNL A   1      42.346  25.748  34.382  1.00  0.00    -0.206 F 
ATOM     47  C   UNL A   1      45.914  26.023  34.910  1.00  0.00     0.006 A 
ENDBRANCH  26  40
BRANCH  27  48
ATOM     48  C   UNL A   1      36.408  32.845  30.062  1.00  0.00     0.057 A 
ATOM     49  C   UNL A   1      35.069  32.596  30.384  1.00  0.00     0.134 A 
ATOM     50  C   UNL A   1      36.661  33.861  29.129  1.00  0.00     0.134 A 
ATOM     51  F   UNL A   1      34.750  31.606  31.231  1.00  0.00    -0.206 F 
ATOM     52  C   UNL A   1      34.026  33.321  29.799  1.00  0.00     0.040 A 
ATOM     53  C   UNL A   1      35.633  34.617  28.564  1.00  0.00     0.040 A 
ATOM     54  F   UNL A   1      37.920  34.137  28.754  1.00  0.00    -0.206 F 
ATOM     55  C   UNL A   1      34.309  34.342  28.894  1.00  0.00     0.006 A 
ENDBRANCH  27  48
BRANCH  39  56
ATOM     56  C   UNL A   1      39.092  32.438  36.463  1.00  0.00     0.057 A 
ATOM     57  C   UNL A   1      39.675  33.663  36.809  1.00  0.00     0.134 A 
ATOM     58  C   UNL A   1      38.155  31.894  37.352  1.00  0.00     0.134 A 
ATOM     59  F   UNL A   1      40.588  34.231  36.007  1.00  0.00    -0.206 F 
ATOM     60  C   UNL A   1      39.355  34.314  38.002  1.00  0.00     0.040 A 
ATOM     61  C   UNL A   1      37.810  32.546  38.537  1.00  0.00     0.040 A 
ATOM     62  F   UNL A   1      37.553  30.728  37.078  1.00  0.00    -0.206 F 
ATOM     63  C   UNL A   1      38.414  33.757  38.868  1.00  0.00     0.006 A 
ENDBRANCH  39  56
ENDBRANCH  13  14
ENDBRANCH   6   8
ENDBRANCH   5   6
ENDBRANCH   4   5
ENDBRANCH   3   4
ENDBRANCH   2   3
ENDBRANCH   1   2
BRANCH   1  64
ATOM     64  C   UNL A   1      36.013  23.235  25.212  1.00  0.00     0.261 C 
BRANCH  64  65
ATOM     65  O   UNL A   1      34.958  23.482  26.173  1.00  0.00    -0.463 OA
BRANCH  65  66
ATOM     66  C   UNL A   1      34.197  22.434  26.571  1.00  0.00     0.312 C 
ATOM     67  O   UNL A   1      33.780  22.313  27.722  1.00  0.00    -0.252 OA
BRANCH  66  68
ATOM     68  C   UNL A   1      33.870  21.364  25.510  1.00  0.00     0.147 C 
ATOM     69  C   UNL A   1      32.700  21.625  24.545  1.00  0.00     0.129 C 
ATOM     70  C   UNL A   1      33.642  19.853  25.805  1.00  0.00     0.157 C 
ATOM     71  C   UNL A   1      32.147  20.227  24.264  1.00  0.00     0.155 C 
ATOM     72  C   UNL A   1      34.087  19.053  24.625  1.00  0.00     0.004 C 
ATOM     73  O   UNL A   1      32.209  19.664  25.578  1.00  0.00    -0.365 OA
ATOM     74  C   UNL A   1      33.191  19.310  23.659  1.00  0.00     0.004 C 
BRANCH  69  75
ATOM     75  C   UNL A   1      31.762  22.738  24.961  1.00  0.00     0.231 C 
ATOM     76  O   UNL A   1      30.949  22.435  25.856  1.00  0.00    -0.274 OA
ATOM     77  N   UNL A   1      31.630  24.017  24.554  1.00  0.00    -0.325 N 
ATOM     78  H   UNL A   1      30.821  24.401  24.959  1.00  0.00     0.169 HD
BRANCH  77  79
ATOM     79  C   UNL A   1      32.251  24.994  23.748  1.00  0.00     0.044 A 
ATOM     80  C   UNL A   1      31.977  24.766  22.379  1.00  0.00     0.026 A 
ATOM     81  C   UNL A   1      33.151  26.031  24.092  1.00  0.00    -0.020 A 
ATOM     82  C   UNL A   1      32.473  25.585  21.372  1.00  0.00     0.002 A 
ATOM     83  C   UNL A   1      33.661  26.835  23.044  1.00  0.00     0.006 A 
ATOM     84  C   UNL A   1      33.318  26.628  21.707  1.00  0.00     0.000 A 
BRANCH  81  85
ATOM     85  C   UNL A   1      33.461  26.493  25.485  1.00  0.00     0.073 C 
BRANCH  85  86
ATOM     86  C   UNL A   1      33.300  27.845  26.108  1.00  0.00    -0.044 A 
ATOM     87  C   UNL A   1      31.781  28.782  25.720  1.00  0.00     0.004 A 
ATOM     88  C   UNL A   1      34.591  28.666  27.052  1.00  0.00     0.004 A 
ATOM     89  C   UNL A   1      31.595  30.488  26.207  1.00  0.00     0.000 A 
ATOM     90  C   UNL A   1      34.379  30.419  27.527  1.00  0.00     0.000 A 
ATOM     91  C   UNL A   1      32.883  31.308  27.115  1.00  0.00     0.000 A 
ENDBRANCH  85  86
ENDBRANCH  81  85
ENDBRANCH  77  79
ENDBRANCH  69  75
ENDBRANCH  66  68
ENDBRANCH  65  66
ENDBRANCH  64  65
ENDBRANCH   1  64
TORSDOF 18
ENDMDL
MODEL 2
REMARK VINA RESULT:     -13.0      1.582      2.975
REMARK SMILES O=C(OCCOCCOC(=O)[C@@H]1[C@H](C(=O)Nc2ccccc2Cc2ccccc2)[C@H]2C=C[C@@H]1O2)c1ccc(-c2c3nc(c(-c4c(F)cccc4F)c4ccc([nH]4)c(-c4c(F)cccc4F)c4nc(c(-c5c(F)cccc5F)c5ccc2[nH]5)C=C4)C=C3)cc1
REMARK SMILES IDX 7 1 6 2 5 3 4 4 3 5 2 6 1 7 35 8 36 9 88 10 37 11 87 12
REMARK SMILES IDX 38 13 39 14 40 15 81 16 41 17 86 18 80 19 82 20 42 21 85 22
REMARK SMILES IDX 79 23 78 24 43 26 69 27 52 28 68 29 53 30 56 31 67 32 83 33
REMARK SMILES IDX 54 34 55 35 66 37 84 38 57 39 44 40 45 41 50 42 46 43 47 44
REMARK SMILES IDX 49 45 51 46 48 47 70 48 71 49 76 50 72 51 73 52 75 53 77 54
REMARK SMILES IDX 74 55 58 56 59 57 64 58 60 59 61 60 63 61 65 62 62 63 8 64
REMARK SMILES IDX 9 65 10 66 11 67 12 68 13 69 33 70 30 71 32 72 34 73 31 74
REMARK SMILES IDX 14 75 15 76 16 77 17 79 18 80 22 81 19 82 21 83 20 84 23 85
REMARK SMILES IDX 24 86 25 87 29 88 26 89 28 90 27 91
REMARK H PARENT 82 25 56 36 16 78
REMARK Flexibility Score: inf
ROOT
ATOM      1  C   UNL A   1      37.646  22.257  25.305  1.00  0.00     0.202 C 
ENDROOT
BRANCH   1   2
ATOM      2  O   UNL A   1      38.828  21.767  26.151  1.00  0.00    -0.374 OA
BRANCH   2   3
ATOM      3  C   UNL A   1      40.423  20.558  26.313  1.00  0.00     0.202 C 
BRANCH   3   4
ATOM      4  C   UNL A   1      42.128  20.873  26.551  1.00  0.00     0.261 C 
BRANCH   4   5
ATOM      5  O   UNL A   1      42.729  22.165  26.930  1.00  0.00    -0.460 OA
BRANCH   5   6
ATOM      6  C   UNL A   1      42.681  23.395  26.315  1.00  0.00     0.338 C 
ATOM      7  O   UNL A   1      43.571  23.761  25.555  1.00  0.00    -0.246 OA
BRANCH   6   8
ATOM      8  C   UNL A   1      41.625  24.375  26.685  1.00  0.00     0.060 A 
ATOM      9  C   UNL A   1      41.396  25.523  25.926  1.00  0.00     0.016 A 
ATOM     10  C   UNL A   1      40.774  24.156  27.748  1.00  0.00     0.016 A 
ATOM     11  C   UNL A   1      40.753  26.629  26.513  1.00  0.00     0.010 A 
ATOM     12  C   UNL A   1      40.013  25.232  28.242  1.00  0.00     0.010 A 
ATOM     13  C   UNL A   1      40.249  26.554  27.815  1.00  0.00    -0.014 A 
BRANCH  13  14
ATOM     14  C   UNL A   1      40.139  27.721  28.821  1.00  0.00     0.031 A 
ATOM     15  C   UNL A   1      41.195  27.835  29.933  1.00  0.00     0.074 A 
ATOM     16  C   UNL A   1      39.357  28.834  28.766  1.00  0.00     0.049 A 
ATOM     17  N   UNL A   1      41.089  28.291  31.158  1.00  0.00    -0.248 NA
ATOM     18  C   UNL A   1      42.555  27.365  29.610  1.00  0.00     0.031 C 
ATOM     19  C   UNL A   1      38.507  29.294  27.670  1.00  0.00     0.029 A 
ATOM     20  N   UNL A   1      39.179  29.831  29.723  1.00  0.00    -0.354 N 
ATOM     21  C   UNL A   1      42.290  27.968  31.790  1.00  0.00     0.074 A 
ATOM     22  C   UNL A   1      43.120  27.312  30.807  1.00  0.00     0.031 C 
ATOM     23  C   UNL A   1      37.885  30.433  28.020  1.00  0.00     0.029 A 
ATOM     24  C   UNL A   1      38.213  30.760  29.399  1.00  0.00     0.049 A 
ATOM     25  H   UNL A   1      39.700  29.870  30.558  1.00  0.00     0.167 HD
ATOM     26  C   UNL A   1      42.669  28.193  33.071  1.00  0.00     0.037 A 
ATOM     27  C   UNL A   1      37.593  31.721  30.119  1.00  0.00     0.037 A 
ATOM     28  C   UNL A   1      41.972  29.059  33.983  1.00  0.00     0.049 A 
ATOM     29  C   UNL A   1      37.924  31.916  31.576  1.00  0.00     0.074 A 
ATOM     30  C   UNL A   1      42.257  29.329  35.312  1.00  0.00     0.029 A 
ATOM     31  N   UNL A   1      40.907  29.869  33.633  1.00  0.00    -0.354 N 
ATOM     32  N   UNL A   1      38.864  31.356  32.293  1.00  0.00    -0.248 NA
ATOM     33  C   UNL A   1      37.076  32.855  32.333  1.00  0.00     0.031 C 
ATOM     34  C   UNL A   1      41.340  30.279  35.775  1.00  0.00     0.029 A 
ATOM     35  C   UNL A   1      40.516  30.631  34.720  1.00  0.00     0.049 A 
ATOM     36  H   UNL A   1      40.489  29.898  32.742  1.00  0.00     0.167 HD
ATOM     37  C   UNL A   1      38.726  31.878  33.576  1.00  0.00     0.074 A 
ATOM     38  C   UNL A   1      37.631  32.819  33.535  1.00  0.00     0.031 C 
ATOM     39  C   UNL A   1      39.441  31.585  34.689  1.00  0.00     0.037 A 
BRANCH  26  40
ATOM     40  C   UNL A   1      43.849  27.428  33.598  1.00  0.00     0.057 A 
ATOM     41  C   UNL A   1      43.754  26.179  34.219  1.00  0.00     0.134 A 
ATOM     42  C   UNL A   1      45.136  27.969  33.435  1.00  0.00     0.134 A 
ATOM     43  F   UNL A   1      42.556  25.610  34.421  1.00  0.00    -0.206 F 
ATOM     44  C   UNL A   1      44.889  25.509  34.684  1.00  0.00     0.040 A 
ATOM     45  C   UNL A   1      46.277  27.296  33.865  1.00  0.00     0.040 A 
ATOM     46  F   UNL A   1      45.301  29.160  32.837  1.00  0.00    -0.206 F 
ATOM     47  C   UNL A   1      46.155  26.063  34.500  1.00  0.00     0.006 A 
ENDBRANCH  26  40
BRANCH  27  48
ATOM     48  C   UNL A   1      36.482  32.515  29.514  1.00  0.00     0.057 A 
ATOM     49  C   UNL A   1      36.690  33.796  28.991  1.00  0.00     0.134 A 
ATOM     50  C   UNL A   1      35.168  32.026  29.502  1.00  0.00     0.134 A 
ATOM     51  F   UNL A   1      37.913  34.346  29.016  1.00  0.00    -0.206 F 
ATOM     52  C   UNL A   1      35.636  34.563  28.486  1.00  0.00     0.040 A 
ATOM     53  C   UNL A   1      34.111  32.765  28.968  1.00  0.00     0.040 A 
ATOM     54  F   UNL A   1      34.891  30.815  30.010  1.00  0.00    -0.206 F 
ATOM     55  C   UNL A   1      34.343  34.041  28.464  1.00  0.00     0.006 A 
ENDBRANCH  27  48
BRANCH  39  56
ATOM     56  C   UNL A   1      39.096  32.313  35.953  1.00  0.00     0.057 A 
ATOM     57  C   UNL A   1      39.575  33.603  36.216  1.00  0.00     0.134 A 
ATOM     58  C   UNL A   1      38.244  31.735  36.903  1.00  0.00     0.134 A 
ATOM     59  F   UNL A   1      40.405  34.207  35.352  1.00  0.00    -0.206 F 
ATOM     60  C   UNL A   1      39.236  34.284  37.387  1.00  0.00     0.040 A 
ATOM     61  C   UNL A   1      37.880  32.415  38.067  1.00  0.00     0.040 A 
ATOM     62  F   UNL A   1      37.743  30.506  36.710  1.00  0.00    -0.206 F 
ATOM     63  C   UNL A   1      38.380  33.691  38.314  1.00  0.00     0.006 A 
ENDBRANCH  39  56
ENDBRANCH  13  14
ENDBRANCH   6   8
ENDBRANCH   5   6
ENDBRANCH   4   5
ENDBRANCH   3   4
ENDBRANCH   2   3
ENDBRANCH   1   2
BRANCH   1  64
ATOM     64  C   UNL A   1      36.720  23.384  25.850  1.00  0.00     0.261 C 
BRANCH  64  65
ATOM     65  O   UNL A   1      35.968  24.133  24.864  1.00  0.00    -0.463 OA
BRANCH  65  66
ATOM     66  C   UNL A   1      35.032  23.475  24.138  1.00  0.00     0.312 C 
ATOM     67  O   UNL A   1      35.309  22.813  23.139  1.00  0.00    -0.252 OA
BRANCH  66  68
ATOM     68  C   UNL A   1      33.568  23.594  24.610  1.00  0.00     0.147 C 
ATOM     69  C   UNL A   1      32.709  24.737  24.045  1.00  0.00     0.129 C 
ATOM     70  C   UNL A   1      33.109  23.621  26.097  1.00  0.00     0.157 C 
ATOM     71  C   UNL A   1      31.757  25.073  25.195  1.00  0.00     0.155 C 
ATOM     72  C   UNL A   1      31.752  23.008  26.199  1.00  0.00     0.004 C 
ATOM     73  O   UNL A   1      32.663  25.000  26.300  1.00  0.00    -0.365 OA
ATOM     74  C   UNL A   1      30.918  23.881  25.610  1.00  0.00     0.004 C 
BRANCH  69  75
ATOM     75  C   UNL A   1      33.482  25.843  23.358  1.00  0.00     0.231 C 
ATOM     76  O   UNL A   1      33.858  25.581  22.198  1.00  0.00    -0.274 OA
ATOM     77  N   UNL A   1      33.847  27.079  23.754  1.00  0.00    -0.325 N 
ATOM     78  H   UNL A   1      34.458  27.463  23.085  1.00  0.00     0.169 HD
BRANCH  77  79
ATOM     79  C   UNL A   1      33.658  28.012  24.795  1.00  0.00     0.044 A 
ATOM     80  C   UNL A   1      34.534  27.746  25.875  1.00  0.00     0.026 A 
ATOM     81  C   UNL A   1      32.692  29.035  24.947  1.00  0.00    -0.020 A 
ATOM     82  C   UNL A   1      34.549  28.518  27.030  1.00  0.00     0.002 A 
ATOM     83  C   UNL A   1      32.714  29.789  26.145  1.00  0.00     0.006 A 
ATOM     84  C   UNL A   1      33.636  29.548  27.164  1.00  0.00     0.000 A 
BRANCH  81  85
ATOM     85  C   UNL A   1      31.771  29.534  23.873  1.00  0.00     0.073 C 
BRANCH  85  86
ATOM     86  C   UNL A   1      30.341  29.191  23.598  1.00  0.00    -0.044 A 
ATOM     87  C   UNL A   1      29.158  30.571  23.407  1.00  0.00     0.004 A 
ATOM     88  C   UNL A   1      29.694  27.513  23.634  1.00  0.00     0.004 A 
ATOM     89  C   UNL A   1      27.401  30.279  23.320  1.00  0.00     0.000 A 
ATOM     90  C   UNL A   1      27.887  27.245  23.554  1.00  0.00     0.000 A 
ATOM     91  C   UNL A   1      26.760  28.623  23.384  1.00  0.00     0.000 A 
ENDBRANCH  85  86
ENDBRANCH  81  85
ENDBRANCH  77  79
ENDBRANCH  69  75
ENDBRANCH  66  68
ENDBRANCH  65  66
ENDBRANCH  64  65
ENDBRANCH   1  64
TORSDOF 18
ENDMDL
MODEL 3
REMARK VINA RESULT:     -12.9      3.648      5.826
REMARK SMILES O=C(OCCOCCOC(=O)[C@@H]1[C@H](C(=O)Nc2ccccc2Cc2ccccc2)[C@H]2C=C[C@@H]1O2)c1ccc(-c2c3nc(c(-c4c(F)cccc4F)c4ccc([nH]4)c(-c4c(F)cccc4F)c4nc(c(-c5c(F)cccc5F)c5ccc2[nH]5)C=C4)C=C3)cc1
REMARK SMILES IDX 7 1 6 2 5 3 4 4 3 5 2 6 1 7 35 8 36 9 88 10 37 11 87 12
REMARK SMILES IDX 38 13 39 14 40 15 81 16 41 17 86 18 80 19 82 20 42 21 85 22
REMARK SMILES IDX 79 23 78 24 43 26 69 27 52 28 68 29 53 30 56 31 67 32 83 33
REMARK SMILES IDX 54 34 55 35 66 37 84 38 57 39 44 40 45 41 50 42 46 43 47 44
REMARK SMILES IDX 49 45 51 46 48 47 70 48 71 49 76 50 72 51 73 52 75 53 77 54
REMARK SMILES IDX 74 55 58 56 59 57 64 58 60 59 61 60 63 61 65 62 62 63 8 64
REMARK SMILES IDX 9 65 10 66 11 67 12 68 13 69 33 70 30 71 32 72 34 73 31 74
REMARK SMILES IDX 14 75 15 76 16 77 17 79 18 80 22 81 19 82 21 83 20 84 23 85
REMARK SMILES IDX 24 86 25 87 29 88 26 89 28 90 27 91
REMARK H PARENT 82 25 56 36 16 78
REMARK Flexibility Score: inf
ROOT
ATOM      1  C   UNL A   1      33.564  19.258  24.907  1.00  0.00     0.202 C 
ENDROOT
BRANCH   1   2
ATOM      2  O   UNL A   1      35.066  19.429  24.645  1.00  0.00    -0.374 OA
BRANCH   2   3
ATOM      3  C   UNL A   1      36.780  20.370  25.102  1.00  0.00     0.202 C 
BRANCH   3   4
ATOM      4  C   UNL A   1      38.461  19.920  24.925  1.00  0.00     0.261 C 
BRANCH   4   5
ATOM      5  O   UNL A   1      39.541  20.189  25.893  1.00  0.00    -0.460 OA
BRANCH   5   6
ATOM      6  C   UNL A   1      40.438  21.229  25.974  1.00  0.00     0.338 C 
ATOM      7  O   UNL A   1      41.549  21.150  25.460  1.00  0.00    -0.246 OA
BRANCH   6   8
ATOM      8  C   UNL A   1      40.139  22.410  26.826  1.00  0.00     0.060 A 
ATOM      9  C   UNL A   1      39.096  23.286  26.521  1.00  0.00     0.016 A 
ATOM     10  C   UNL A   1      40.827  22.652  27.996  1.00  0.00     0.016 A 
ATOM     11  C   UNL A   1      39.115  24.597  27.033  1.00  0.00     0.010 A 
ATOM     12  C   UNL A   1      40.726  23.922  28.594  1.00  0.00     0.010 A 
ATOM     13  C   UNL A   1      40.112  25.000  27.927  1.00  0.00    -0.014 A 
BRANCH  13  14
ATOM     14  C   UNL A   1      40.690  26.426  28.068  1.00  0.00     0.031 A 
ATOM     15  C   UNL A   1      42.033  26.744  27.390  1.00  0.00     0.074 A 
ATOM     16  C   UNL A   1      40.089  27.556  28.531  1.00  0.00     0.049 A 
ATOM     17  N   UNL A   1      42.989  27.568  27.750  1.00  0.00    -0.248 NA
ATOM     18  C   UNL A   1      42.332  26.030  26.135  1.00  0.00     0.031 C 
ATOM     19  C   UNL A   1      38.688  27.757  28.894  1.00  0.00     0.029 A 
ATOM     20  N   UNL A   1      40.642  28.815  28.759  1.00  0.00    -0.354 N 
ATOM     21  C   UNL A   1      44.058  27.308  26.893  1.00  0.00     0.074 A 
ATOM     22  C   UNL A   1      43.623  26.280  25.976  1.00  0.00     0.031 C 
ATOM     23  C   UNL A   1      38.502  29.017  29.323  1.00  0.00     0.029 A 
ATOM     24  C   UNL A   1      39.780  29.711  29.355  1.00  0.00     0.049 A 
ATOM     25  H   UNL A   1      41.568  29.045  28.513  1.00  0.00     0.167 HD
ATOM     26  C   UNL A   1      45.290  27.869  26.870  1.00  0.00     0.037 A 
ATOM     27  C   UNL A   1      39.975  30.919  29.930  1.00  0.00     0.037 A 
ATOM     28  C   UNL A   1      45.655  29.056  27.595  1.00  0.00     0.049 A 
ATOM     29  C   UNL A   1      41.357  31.512  30.010  1.00  0.00     0.074 A 
ATOM     30  C   UNL A   1      46.888  29.687  27.665  1.00  0.00     0.029 A 
ATOM     31  N   UNL A   1      44.766  29.845  28.302  1.00  0.00    -0.354 N 
ATOM     32  N   UNL A   1      42.473  31.089  29.474  1.00  0.00    -0.248 NA
ATOM     33  C   UNL A   1      41.511  32.738  30.814  1.00  0.00     0.031 C 
ATOM     34  C   UNL A   1      46.748  30.841  28.443  1.00  0.00     0.029 A 
ATOM     35  C   UNL A   1      45.421  30.950  28.818  1.00  0.00     0.049 A 
ATOM     36  H   UNL A   1      43.809  29.649  28.420  1.00  0.00     0.167 HD
ATOM     37  C   UNL A   1      43.452  31.995  29.866  1.00  0.00     0.074 A 
ATOM     38  C   UNL A   1      42.799  33.008  30.662  1.00  0.00     0.031 C 
ATOM     39  C   UNL A   1      44.780  31.975  29.596  1.00  0.00     0.037 A 
BRANCH  26  40
ATOM     40  C   UNL A   1      46.369  27.162  26.099  1.00  0.00     0.057 A 
ATOM     41  C   UNL A   1      46.813  27.562  24.835  1.00  0.00     0.134 A 
ATOM     42  C   UNL A   1      47.002  26.052  26.682  1.00  0.00     0.134 A 
ATOM     43  F   UNL A   1      46.242  28.605  24.212  1.00  0.00    -0.206 F 
ATOM     44  C   UNL A   1      47.827  26.870  24.167  1.00  0.00     0.040 A 
ATOM     45  C   UNL A   1      48.036  25.373  26.040  1.00  0.00     0.040 A 
ATOM     46  F   UNL A   1      46.633  25.621  27.898  1.00  0.00    -0.206 F 
ATOM     47  C   UNL A   1      48.446  25.778  24.773  1.00  0.00     0.006 A 
ENDBRANCH  26  40
BRANCH  27  48
ATOM     48  C   UNL A   1      38.843  31.619  30.608  1.00  0.00     0.057 A 
ATOM     49  C   UNL A   1      38.130  32.647  29.980  1.00  0.00     0.134 A 
ATOM     50  C   UNL A   1      38.490  31.312  31.929  1.00  0.00     0.134 A 
ATOM     51  F   UNL A   1      38.447  33.027  28.734  1.00  0.00    -0.206 F 
ATOM     52  C   UNL A   1      37.114  33.345  30.641  1.00  0.00     0.040 A 
ATOM     53  C   UNL A   1      37.454  31.976  32.590  1.00  0.00     0.040 A 
ATOM     54  F   UNL A   1      39.148  30.355  32.601  1.00  0.00    -0.206 F 
ATOM     55  C   UNL A   1      36.768  33.002  31.947  1.00  0.00     0.006 A 
ENDBRANCH  27  48
BRANCH  39  56
ATOM     56  C   UNL A   1      45.620  33.096  30.129  1.00  0.00     0.057 A 
ATOM     57  C   UNL A   1      46.195  33.045  31.405  1.00  0.00     0.134 A 
ATOM     58  C   UNL A   1      45.891  34.224  29.343  1.00  0.00     0.134 A 
ATOM     59  F   UNL A   1      45.965  31.999  32.212  1.00  0.00    -0.206 F 
ATOM     60  C   UNL A   1      46.992  34.084  31.889  1.00  0.00     0.040 A 
ATOM     61  C   UNL A   1      46.704  35.259  29.807  1.00  0.00     0.040 A 
ATOM     62  F   UNL A   1      45.379  34.332  28.108  1.00  0.00    -0.206 F 
ATOM     63  C   UNL A   1      47.253  35.193  31.086  1.00  0.00     0.006 A 
ENDBRANCH  39  56
ENDBRANCH  13  14
ENDBRANCH   6   8
ENDBRANCH   5   6
ENDBRANCH   4   5
ENDBRANCH   3   4
ENDBRANCH   2   3
ENDBRANCH   1   2
BRANCH   1  64
ATOM     64  C   UNL A   1      32.534  20.030  24.031  1.00  0.00     0.261 C 
BRANCH  64  65
ATOM     65  O   UNL A   1      31.693  20.989  24.719  1.00  0.00    -0.463 OA
BRANCH  65  66
ATOM     66  C   UNL A   1      31.853  22.303  24.431  1.00  0.00     0.312 C 
ATOM     67  O   UNL A   1      30.989  22.971  23.865  1.00  0.00    -0.252 OA
BRANCH  66  68
ATOM     68  C   UNL A   1      33.193  22.951  24.838  1.00  0.00     0.147 C 
ATOM     69  C   UNL A   1      33.250  23.748  26.152  1.00  0.00     0.129 C 
ATOM     70  C   UNL A   1      34.052  23.873  23.927  1.00  0.00     0.157 C 
ATOM     71  C   UNL A   1      34.284  24.838  25.867  1.00  0.00     0.155 C 
ATOM     72  C   UNL A   1      35.493  23.701  24.279  1.00  0.00     0.004 C 
ATOM     73  O   UNL A   1      33.910  25.197  24.533  1.00  0.00    -0.365 OA
ATOM     74  C   UNL A   1      35.634  24.260  25.492  1.00  0.00     0.004 C 
BRANCH  69  75
ATOM     75  C   UNL A   1      31.903  24.121  26.736  1.00  0.00     0.231 C 
ATOM     76  O   UNL A   1      31.526  23.408  27.687  1.00  0.00    -0.274 OA
ATOM     77  N   UNL A   1      31.016  25.089  26.432  1.00  0.00    -0.325 N 
ATOM     78  H   UNL A   1      30.189  24.940  26.942  1.00  0.00     0.169 HD
BRANCH  77  79
ATOM     79  C   UNL A   1      30.864  26.243  25.634  1.00  0.00     0.044 A 
ATOM     80  C   UNL A   1      29.846  26.056  24.669  1.00  0.00     0.026 A 
ATOM     81  C   UNL A   1      31.623  27.437  25.592  1.00  0.00    -0.020 A 
ATOM     82  C   UNL A   1      29.497  27.042  23.753  1.00  0.00     0.002 A 
ATOM     83  C   UNL A   1      31.261  28.414  24.633  1.00  0.00     0.006 A 
ATOM     84  C   UNL A   1      30.206  28.229  23.738  1.00  0.00     0.000 A 
BRANCH  81  85
ATOM     85  C   UNL A   1      32.649  27.857  26.603  1.00  0.00     0.073 C 
BRANCH  85  86
ATOM     86  C   UNL A   1      33.257  29.201  26.854  1.00  0.00    -0.044 A 
ATOM     87  C   UNL A   1      35.040  29.266  27.243  1.00  0.00     0.004 A 
ATOM     88  C   UNL A   1      32.300  30.718  26.981  1.00  0.00     0.004 A 
ATOM     89  C   UNL A   1      35.814  30.776  27.795  1.00  0.00     0.000 A 
ATOM     90  C   UNL A   1      33.116  32.248  27.560  1.00  0.00     0.000 A 
ATOM     91  C   UNL A   1      34.862  32.269  27.947  1.00  0.00     0.000 A 
ENDBRANCH  85  86
ENDBRANCH  81  85
ENDBRANCH  77  79
ENDBRANCH  69  75
ENDBRANCH  66  68
ENDBRANCH  65  66
ENDBRANCH  64  65
ENDBRANCH   1  64
TORSDOF 18
ENDMDL
