MODEL 1
REMARK VINA RESULT:     -10.2      0.000      0.000
REMARK SMILES C=CCCC[C@@]1(C(=O)OCCOCCOC(=O)c2ccc(-c3c4nc(c(-c5c(F)cccc5F)c5ccc([nH]5)c(-c5c(F)cccc5F)c5nc(c(-c6c(F)cccc6F)c6ccc3[nH]6)C=C5)C=C4)cc2)CCCN(C(=O)OC(C)(C)C)C1
REMARK SMILES IDX 11 1 10 2 9 3 7 4 8 5 6 6 72 7 83 8 73 9 75 10 74 11 5 12
REMARK SMILES IDX 4 13 3 14 2 15 1 16 76 17 77 18 78 19 79 20 80 21 81 22
REMARK SMILES IDX 82 23 12 24 13 25 14 26 15 27 16 28 17 29 18 30 19 31 71 32
REMARK SMILES IDX 20 33 70 34 21 35 22 36 23 37 64 38 24 39 69 40 63 41 65 42
REMARK SMILES IDX 25 43 68 44 62 45 61 46 26 48 52 49 35 50 51 51 36 52 39 53
REMARK SMILES IDX 50 54 66 55 37 56 38 57 49 59 67 60 40 61 27 62 28 63 33 64
REMARK SMILES IDX 29 65 30 66 32 67 34 68 31 69 53 70 54 71 59 72 55 73 56 74
REMARK SMILES IDX 58 75 60 76 57 77 41 78 42 79 47 80 43 81 44 82 46 83 48 84
REMARK SMILES IDX 45 85
REMARK H PARENT 65 47 39 58
REMARK Flexibility Score: inf
ROOT
ATOM      1  C   UNL A   1      32.395  29.421  27.251  1.00  0.00     0.202 C 
ENDROOT
BRANCH   1   2
ATOM      2  C   UNL A   1      32.411  28.017  26.635  1.00  0.00     0.261 C 
BRANCH   2   3
ATOM      3  O   UNL A   1      31.366  27.765  25.682  1.00  0.00    -0.463 OA
BRANCH   3   4
ATOM      4  C   UNL A   1      31.813  27.427  24.444  1.00  0.00     0.313 C 
ATOM      5  O   UNL A   1      32.982  27.554  24.089  1.00  0.00    -0.252 OA
BRANCH   4   6
ATOM      6  C   UNL A   1      30.737  26.801  23.538  1.00  0.00     0.086 C 
ATOM      7  C   UNL A   1      29.870  25.935  24.490  1.00  0.00     0.022 C 
ATOM      8  C   UNL A   1      31.326  25.882  22.462  1.00  0.00     0.141 C 
ATOM      9  C   UNL A   1      30.680  24.765  25.079  1.00  0.00     0.023 C 
ATOM     10  N   UNL A   1      32.068  24.774  23.032  1.00  0.00    -0.307 N 
ATOM     11  C   UNL A   1      31.353  23.930  23.986  1.00  0.00     0.123 C 
BRANCH   6  12
ATOM     12  C   UNL A   1      29.990  27.986  22.864  1.00  0.00     0.021 C 
BRANCH  12  13
ATOM     13  C   UNL A   1      28.486  28.194  23.114  1.00  0.00     0.005 C 
BRANCH  13  14
ATOM     14  C   UNL A   1      27.812  29.384  22.436  1.00  0.00     0.027 C 
BRANCH  14  15
ATOM     15  C   UNL A   1      28.349  30.710  22.888  1.00  0.00    -0.035 C 
ATOM     16  C   UNL A   1      27.656  31.578  23.636  1.00  0.00     0.004 C 
ENDBRANCH  14  15
ENDBRANCH  13  14
ENDBRANCH  12  13
ENDBRANCH   6  12
BRANCH  10  17
ATOM     17  C   UNL A   1      33.353  24.556  22.577  1.00  0.00     0.410 C 
ATOM     18  O   UNL A   1      34.007  25.414  21.989  1.00  0.00    -0.224 OA
BRANCH  17  19
ATOM     19  O   UNL A   1      33.817  23.317  22.865  1.00  0.00    -0.444 OA
BRANCH  19  20
ATOM     20  C   UNL A   1      34.889  23.171  23.832  1.00  0.00     0.106 C 
ATOM     21  C   UNL A   1      36.241  22.953  23.139  1.00  0.00     0.056 C 
ATOM     22  C   UNL A   1      34.921  24.357  24.807  1.00  0.00     0.056 C 
ATOM     23  C   UNL A   1      34.535  21.904  24.622  1.00  0.00     0.056 C 
ENDBRANCH  19  20
ENDBRANCH  17  19
ENDBRANCH  10  17
ENDBRANCH   4   6
ENDBRANCH   3   4
ENDBRANCH   2   3
ENDBRANCH   1   2
BRANCH   1  24
ATOM     24  O   UNL A   1      32.461  30.558  26.400  1.00  0.00    -0.374 OA
BRANCH  24  25
ATOM     25  C   UNL A   1      31.430  31.535  26.492  1.00  0.00     0.202 C 
BRANCH  25  26
ATOM     26  C   UNL A   1      31.801  32.957  26.931  1.00  0.00     0.261 C 
BRANCH  26  27
ATOM     27  O   UNL A   1      33.058  33.021  27.624  1.00  0.00    -0.460 OA
BRANCH  27  28
ATOM     28  C   UNL A   1      33.250  34.156  28.338  1.00  0.00     0.338 C 
ATOM     29  O   UNL A   1      32.527  35.138  28.379  1.00  0.00    -0.246 OA
BRANCH  28  30
ATOM     30  C   UNL A   1      34.402  33.996  29.242  1.00  0.00     0.060 A 
ATOM     31  C   UNL A   1      35.672  34.339  28.756  1.00  0.00     0.016 A 
ATOM     32  C   UNL A   1      34.251  33.410  30.497  1.00  0.00     0.016 A 
ATOM     33  C   UNL A   1      36.809  34.046  29.503  1.00  0.00     0.010 A 
ATOM     34  C   UNL A   1      35.393  33.103  31.240  1.00  0.00     0.010 A 
ATOM     35  C   UNL A   1      36.674  33.380  30.726  1.00  0.00    -0.014 A 
BRANCH  35  36
ATOM     36  C   UNL A   1      37.860  32.795  31.394  1.00  0.00     0.031 A 
ATOM     37  C   UNL A   1      38.509  31.593  30.769  1.00  0.00     0.074 A 
ATOM     38  C   UNL A   1      38.333  33.307  32.542  1.00  0.00     0.049 A 
ATOM     39  N   UNL A   1      39.432  30.802  31.250  1.00  0.00    -0.248 NA
ATOM     40  C   UNL A   1      38.043  31.228  29.421  1.00  0.00     0.031 C 
ATOM     41  C   UNL A   1      37.825  34.504  33.204  1.00  0.00     0.029 A 
ATOM     42  N   UNL A   1      39.333  32.858  33.368  1.00  0.00    -0.354 N 
ATOM     43  C   UNL A   1      39.636  29.831  30.278  1.00  0.00     0.074 A 
ATOM     44  C   UNL A   1      38.732  30.121  29.187  1.00  0.00     0.031 C 
ATOM     45  C   UNL A   1      38.499  34.683  34.354  1.00  0.00     0.029 A 
ATOM     46  C   UNL A   1      39.443  33.580  34.530  1.00  0.00     0.049 A 
ATOM     47  H   UNL A   1      39.913  32.094  33.148  1.00  0.00     0.167 HD
ATOM     48  C   UNL A   1      40.501  28.789  30.300  1.00  0.00     0.037 A 
ATOM     49  C   UNL A   1      40.187  33.347  35.628  1.00  0.00     0.037 A 
ATOM     50  C   UNL A   1      41.396  28.514  31.392  1.00  0.00     0.049 A 
ATOM     51  C   UNL A   1      41.080  32.134  35.667  1.00  0.00     0.074 A 
ATOM     52  C   UNL A   1      42.319  27.490  31.512  1.00  0.00     0.029 A 
ATOM     53  N   UNL A   1      41.474  29.264  32.556  1.00  0.00    -0.354 N 
ATOM     54  N   UNL A   1      41.270  31.215  34.749  1.00  0.00    -0.248 NA
ATOM     55  C   UNL A   1      41.861  31.920  36.895  1.00  0.00     0.031 C 
ATOM     56  C   UNL A   1      42.915  27.589  32.772  1.00  0.00     0.029 A 
ATOM     57  C   UNL A   1      42.413  28.714  33.409  1.00  0.00     0.049 A 
ATOM     58  H   UNL A   1      40.939  30.069  32.746  1.00  0.00     0.167 HD
ATOM     59  C   UNL A   1      42.222  30.346  35.269  1.00  0.00     0.074 A 
ATOM     60  C   UNL A   1      42.567  30.841  36.584  1.00  0.00     0.031 C 
ATOM     61  C   UNL A   1      42.767  29.241  34.702  1.00  0.00     0.037 A 
BRANCH  48  62
ATOM     62  C   UNL A   1      40.489  27.852  29.129  1.00  0.00     0.057 A 
ATOM     63  C   UNL A   1      41.316  28.039  28.014  1.00  0.00     0.134 A 
ATOM     64  C   UNL A   1      39.658  26.723  29.132  1.00  0.00     0.134 A 
ATOM     65  F   UNL A   1      42.126  29.107  27.940  1.00  0.00    -0.206 F 
ATOM     66  C   UNL A   1      41.299  27.153  26.934  1.00  0.00     0.040 A 
ATOM     67  C   UNL A   1      39.654  25.814  28.073  1.00  0.00     0.040 A 
ATOM     68  F   UNL A   1      38.843  26.479  30.170  1.00  0.00    -0.206 F 
ATOM     69  C   UNL A   1      40.471  26.033  26.966  1.00  0.00     0.006 A 
ENDBRANCH  48  62
BRANCH  49  70
ATOM     70  C   UNL A   1      40.101  34.264  36.792  1.00  0.00     0.057 A 
ATOM     71  C   UNL A   1      39.151  34.068  37.800  1.00  0.00     0.134 A 
ATOM     72  C   UNL A   1      40.954  35.369  36.918  1.00  0.00     0.134 A 
ATOM     73  F   UNL A   1      38.292  33.040  37.727  1.00  0.00    -0.206 F 
ATOM     74  C   UNL A   1      39.038  34.946  38.880  1.00  0.00     0.040 A 
ATOM     75  C   UNL A   1      40.871  36.238  38.008  1.00  0.00     0.040 A 
ATOM     76  F   UNL A   1      41.890  35.613  35.990  1.00  0.00    -0.206 F 
ATOM     77  C   UNL A   1      39.903  36.032  38.988  1.00  0.00     0.006 A 
ENDBRANCH  49  70
BRANCH  61  78
ATOM     78  C   UNL A   1      43.853  28.530  35.458  1.00  0.00     0.057 A 
ATOM     79  C   UNL A   1      45.205  28.855  35.307  1.00  0.00     0.134 A 
ATOM     80  C   UNL A   1      43.522  27.562  36.417  1.00  0.00     0.134 A 
ATOM     81  F   UNL A   1      45.590  29.764  34.399  1.00  0.00    -0.206 F 
ATOM     82  C   UNL A   1      46.192  28.235  36.077  1.00  0.00     0.040 A 
ATOM     83  C   UNL A   1      44.496  26.957  37.211  1.00  0.00     0.040 A 
ATOM     84  F   UNL A   1      42.242  27.212  36.618  1.00  0.00    -0.206 F 
ATOM     85  C   UNL A   1      45.836  27.293  37.040  1.00  0.00     0.006 A 
ENDBRANCH  61  78
ENDBRANCH  35  36
ENDBRANCH  28  30
ENDBRANCH  27  28
ENDBRANCH  26  27
ENDBRANCH  25  26
ENDBRANCH  24  25
ENDBRANCH   1  24
TORSDOF 21
ENDMDL
MODEL 2
REMARK VINA RESULT:     -10.1      1.963      7.682
REMARK SMILES C=CCCC[C@@]1(C(=O)OCCOCCOC(=O)c2ccc(-c3c4nc(c(-c5c(F)cccc5F)c5ccc([nH]5)c(-c5c(F)cccc5F)c5nc(c(-c6c(F)cccc6F)c6ccc3[nH]6)C=C5)C=C4)cc2)CCCN(C(=O)OC(C)(C)C)C1
REMARK SMILES IDX 11 1 10 2 9 3 7 4 8 5 6 6 72 7 83 8 73 9 75 10 74 11 5 12
REMARK SMILES IDX 4 13 3 14 2 15 1 16 76 17 77 18 78 19 79 20 80 21 81 22
REMARK SMILES IDX 82 23 12 24 13 25 14 26 15 27 16 28 17 29 18 30 19 31 71 32
REMARK SMILES IDX 20 33 70 34 21 35 22 36 23 37 64 38 24 39 69 40 63 41 65 42
REMARK SMILES IDX 25 43 68 44 62 45 61 46 26 48 52 49 35 50 51 51 36 52 39 53
REMARK SMILES IDX 50 54 66 55 37 56 38 57 49 59 67 60 40 61 27 62 28 63 33 64
REMARK SMILES IDX 29 65 30 66 32 67 34 68 31 69 53 70 54 71 59 72 55 73 56 74
REMARK SMILES IDX 58 75 60 76 57 77 41 78 42 79 47 80 43 81 44 82 46 83 48 84
REMARK SMILES IDX 45 85
REMARK H PARENT 65 47 39 58
REMARK Flexibility Score: inf
ROOT
ATOM      1  C   UNL A   1      35.085  23.341  23.751  1.00  0.00     0.202 C 
ENDROOT
BRANCH   1   2
ATOM      2  C   UNL A   1      34.233  24.472  23.166  1.00  0.00     0.261 C 
BRANCH   2   3
ATOM      3  O   UNL A   1      33.219  24.981  24.047  1.00  0.00    -0.463 OA
BRANCH   3   4
ATOM      4  C   UNL A   1      33.055  26.328  23.984  1.00  0.00     0.313 C 
ATOM      5  O   UNL A   1      33.284  26.993  22.977  1.00  0.00    -0.252 OA
BRANCH   4   6
ATOM      6  C   UNL A   1      32.483  26.951  25.272  1.00  0.00     0.086 C 
ATOM      7  C   UNL A   1      31.683  25.805  25.946  1.00  0.00     0.022 C 
ATOM      8  C   UNL A   1      31.518  28.109  24.996  1.00  0.00     0.141 C 
ATOM      9  C   UNL A   1      30.473  25.385  25.090  1.00  0.00     0.023 C 
ATOM     10  N   UNL A   1      30.374  27.693  24.206  1.00  0.00    -0.307 N 
ATOM     11  C   UNL A   1      29.586  26.581  24.731  1.00  0.00     0.123 C 
BRANCH   6  12
ATOM     12  C   UNL A   1      33.703  27.469  26.085  1.00  0.00     0.021 C 
BRANCH  12  13
ATOM     13  C   UNL A   1      33.526  28.612  27.099  1.00  0.00     0.005 C 
BRANCH  13  14
ATOM     14  C   UNL A   1      34.787  29.276  27.647  1.00  0.00     0.027 C 
BRANCH  14  15
ATOM     15  C   UNL A   1      34.732  30.775  27.621  1.00  0.00    -0.035 C 
ATOM     16  C   UNL A   1      33.593  31.478  27.605  1.00  0.00     0.004 C 
ENDBRANCH  14  15
ENDBRANCH  13  14
ENDBRANCH  12  13
ENDBRANCH   6  12
BRANCH  10  17
ATOM     17  C   UNL A   1      30.073  28.422  23.073  1.00  0.00     0.410 C 
ATOM     18  O   UNL A   1      30.259  27.994  21.936  1.00  0.00    -0.224 OA
BRANCH  17  19
ATOM     19  O   UNL A   1      29.538  29.635  23.347  1.00  0.00    -0.444 OA
BRANCH  19  20
ATOM     20  C   UNL A   1      28.219  29.956  22.834  1.00  0.00     0.106 C 
ATOM     21  C   UNL A   1      28.279  30.367  21.356  1.00  0.00     0.056 C 
ATOM     22  C   UNL A   1      27.233  28.804  23.077  1.00  0.00     0.056 C 
ATOM     23  C   UNL A   1      27.761  31.167  23.659  1.00  0.00     0.056 C 
ENDBRANCH  19  20
ENDBRANCH  17  19
ENDBRANCH  10  17
ENDBRANCH   4   6
ENDBRANCH   3   4
ENDBRANCH   2   3
ENDBRANCH   1   2
BRANCH   1  24
ATOM     24  O   UNL A   1      36.366  23.638  24.291  1.00  0.00    -0.374 OA
BRANCH  24  25
ATOM     25  C   UNL A   1      36.685  23.152  25.591  1.00  0.00     0.202 C 
BRANCH  25  26
ATOM     26  C   UNL A   1      38.134  23.260  26.081  1.00  0.00     0.261 C 
BRANCH  26  27
ATOM     27  O   UNL A   1      38.507  24.602  26.440  1.00  0.00    -0.460 OA
BRANCH  27  28
ATOM     28  C   UNL A   1      39.840  24.795  26.586  1.00  0.00     0.338 C 
ATOM     29  O   UNL A   1      40.727  24.462  25.817  1.00  0.00    -0.246 OA
BRANCH  28  30
ATOM     30  C   UNL A   1      40.100  25.651  27.756  1.00  0.00     0.060 A 
ATOM     31  C   UNL A   1      39.158  25.650  28.795  1.00  0.00     0.016 A 
ATOM     32  C   UNL A   1      41.186  26.524  27.777  1.00  0.00     0.016 A 
ATOM     33  C   UNL A   1      39.267  26.565  29.838  1.00  0.00     0.010 A 
ATOM     34  C   UNL A   1      41.287  27.451  28.816  1.00  0.00     0.010 A 
ATOM     35  C   UNL A   1      40.305  27.502  29.824  1.00  0.00    -0.014 A 
BRANCH  35  36
ATOM     36  C   UNL A   1      40.279  28.662  30.745  1.00  0.00     0.031 A 
ATOM     37  C   UNL A   1      41.186  28.642  31.942  1.00  0.00     0.074 A 
ATOM     38  C   UNL A   1      39.451  29.698  30.533  1.00  0.00     0.049 A 
ATOM     39  N   UNL A   1      41.216  29.441  32.976  1.00  0.00    -0.248 NA
ATOM     40  C   UNL A   1      42.189  27.565  31.982  1.00  0.00     0.031 C 
ATOM     41  C   UNL A   1      38.575  29.855  29.376  1.00  0.00     0.029 A 
ATOM     42  N   UNL A   1      39.194  30.801  31.308  1.00  0.00    -0.354 N 
ATOM     43  C   UNL A   1      42.218  28.947  33.802  1.00  0.00     0.074 A 
ATOM     44  C   UNL A   1      42.762  27.771  33.157  1.00  0.00     0.031 C 
ATOM     45  C   UNL A   1      37.853  30.979  29.528  1.00  0.00     0.029 A 
ATOM     46  C   UNL A   1      38.178  31.584  30.819  1.00  0.00     0.049 A 
ATOM     47  H   UNL A   1      39.689  31.009  32.133  1.00  0.00     0.167 HD
ATOM     48  C   UNL A   1      42.641  29.433  34.992  1.00  0.00     0.037 A 
ATOM     49  C   UNL A   1      37.552  32.639  31.376  1.00  0.00     0.037 A 
ATOM     50  C   UNL A   1      42.092  30.605  35.621  1.00  0.00     0.049 A 
ATOM     51  C   UNL A   1      37.981  33.112  32.740  1.00  0.00     0.074 A 
ATOM     52  C   UNL A   1      42.454  31.189  36.821  1.00  0.00     0.029 A 
ATOM     53  N   UNL A   1      41.058  31.368  35.097  1.00  0.00    -0.354 N 
ATOM     54  N   UNL A   1      38.926  32.643  33.521  1.00  0.00    -0.248 NA
ATOM     55  C   UNL A   1      37.255  34.259  33.306  1.00  0.00     0.031 C 
ATOM     56  C   UNL A   1      41.601  32.271  37.052  1.00  0.00     0.029 A 
ATOM     57  C   UNL A   1      40.754  32.404  35.962  1.00  0.00     0.049 A 
ATOM     58  H   UNL A   1      40.608  31.197  34.239  1.00  0.00     0.167 HD
ATOM     59  C   UNL A   1      38.938  33.463  34.642  1.00  0.00     0.074 A 
ATOM     60  C   UNL A   1      37.904  34.456  34.446  1.00  0.00     0.031 C 
ATOM     61  C   UNL A   1      39.741  33.403  35.734  1.00  0.00     0.037 A 
BRANCH  48  62
ATOM     62  C   UNL A   1      43.720  28.676  35.709  1.00  0.00     0.057 A 
ATOM     63  C   UNL A   1      43.435  27.642  36.610  1.00  0.00     0.134 A 
ATOM     64  C   UNL A   1      45.071  28.964  35.467  1.00  0.00     0.134 A 
ATOM     65  F   UNL A   1      42.163  27.323  36.898  1.00  0.00    -0.206 F 
ATOM     66  C   UNL A   1      44.450  26.941  37.263  1.00  0.00     0.040 A 
ATOM     67  C   UNL A   1      46.094  28.251  36.091  1.00  0.00     0.040 A 
ATOM     68  F   UNL A   1      45.416  29.940  34.612  1.00  0.00    -0.206 F 
ATOM     69  C   UNL A   1      45.785  27.241  36.998  1.00  0.00     0.006 A 
ENDBRANCH  48  62
BRANCH  49  70
ATOM     70  C   UNL A   1      36.436  33.303  30.657  1.00  0.00     0.057 A 
ATOM     71  C   UNL A   1      36.675  34.127  29.552  1.00  0.00     0.134 A 
ATOM     72  C   UNL A   1      35.105  33.147  31.066  1.00  0.00     0.134 A 
ATOM     73  F   UNL A   1      37.930  34.334  29.124  1.00  0.00    -0.206 F 
ATOM     74  C   UNL A   1      35.636  34.786  28.891  1.00  0.00     0.040 A 
ATOM     75  C   UNL A   1      34.054  33.776  30.397  1.00  0.00     0.040 A 
ATOM     76  F   UNL A   1      34.805  32.368  32.116  1.00  0.00    -0.206 F 
ATOM     77  C   UNL A   1      34.320  34.607  29.311  1.00  0.00     0.006 A 
ENDBRANCH  49  70
BRANCH  61  78
ATOM     78  C   UNL A   1      39.598  34.482  36.768  1.00  0.00     0.057 A 
ATOM     79  C   UNL A   1      38.838  34.308  37.930  1.00  0.00     0.134 A 
ATOM     80  C   UNL A   1      40.308  35.684  36.632  1.00  0.00     0.134 A 
ATOM     81  F   UNL A   1      38.127  33.186  38.116  1.00  0.00    -0.206 F 
ATOM     82  C   UNL A   1      38.783  35.295  38.917  1.00  0.00     0.040 A 
ATOM     83  C   UNL A   1      40.282  36.664  37.624  1.00  0.00     0.040 A 
ATOM     84  F   UNL A   1      41.064  35.909  35.547  1.00  0.00    -0.206 F 
ATOM     85  C   UNL A   1      39.515  36.471  38.770  1.00  0.00     0.006 A 
ENDBRANCH  61  78
ENDBRANCH  35  36
ENDBRANCH  28  30
ENDBRANCH  27  28
ENDBRANCH  26  27
ENDBRANCH  25  26
ENDBRANCH  24  25
ENDBRANCH   1  24
TORSDOF 21
ENDMDL
MODEL 3
REMARK VINA RESULT:     -10.1      1.511      6.309
REMARK SMILES C=CCCC[C@@]1(C(=O)OCCOCCOC(=O)c2ccc(-c3c4nc(c(-c5c(F)cccc5F)c5ccc([nH]5)c(-c5c(F)cccc5F)c5nc(c(-c6c(F)cccc6F)c6ccc3[nH]6)C=C5)C=C4)cc2)CCCN(C(=O)OC(C)(C)C)C1
REMARK SMILES IDX 11 1 10 2 9 3 7 4 8 5 6 6 72 7 83 8 73 9 75 10 74 11 5 12
REMARK SMILES IDX 4 13 3 14 2 15 1 16 76 17 77 18 78 19 79 20 80 21 81 22
REMARK SMILES IDX 82 23 12 24 13 25 14 26 15 27 16 28 17 29 18 30 19 31 71 32
REMARK SMILES IDX 20 33 70 34 21 35 22 36 23 37 64 38 24 39 69 40 63 41 65 42
REMARK SMILES IDX 25 43 68 44 62 45 61 46 26 48 52 49 35 50 51 51 36 52 39 53
REMARK SMILES IDX 50 54 66 55 37 56 38 57 49 59 67 60 40 61 27 62 28 63 33 64
REMARK SMILES IDX 29 65 30 66 32 67 34 68 31 69 53 70 54 71 59 72 55 73 56 74
REMARK SMILES IDX 58 75 60 76 57 77 41 78 42 79 47 80 43 81 44 82 46 83 48 84
REMARK SMILES IDX 45 85
REMARK H PARENT 65 47 39 58
REMARK Flexibility Score: inf
ROOT
ATOM      1  C   UNL A   1      31.780  29.600  26.431  1.00  0.00     0.202 C 
ENDROOT
BRANCH   1   2
ATOM      2  C   UNL A   1      32.768  28.536  25.938  1.00  0.00     0.261 C 
BRANCH   2   3
ATOM      3  O   UNL A   1      32.163  27.310  25.498  1.00  0.00    -0.463 OA
BRANCH   3   4
ATOM      4  C   UNL A   1      32.520  26.934  24.242  1.00  0.00     0.313 C 
ATOM      5  O   UNL A   1      33.676  26.974  23.827  1.00  0.00    -0.252 OA
BRANCH   4   6
ATOM      6  C   UNL A   1      31.358  26.381  23.398  1.00  0.00     0.086 C 
ATOM      7  C   UNL A   1      30.245  26.043  24.426  1.00  0.00     0.022 C 
ATOM      8  C   UNL A   1      31.723  25.094  22.650  1.00  0.00     0.141 C 
ATOM      9  C   UNL A   1      30.679  24.905  25.369  1.00  0.00     0.023 C 
ATOM     10  N   UNL A   1      32.110  24.026  23.554  1.00  0.00    -0.307 N 
ATOM     11  C   UNL A   1      31.149  23.671  24.595  1.00  0.00     0.123 C 
BRANCH   6  12
ATOM     12  C   UNL A   1      30.992  27.494  22.375  1.00  0.00     0.021 C 
BRANCH  12  13
ATOM     13  C   UNL A   1      31.012  28.972  22.802  1.00  0.00     0.005 C 
BRANCH  13  14
ATOM     14  C   UNL A   1      29.694  29.599  23.249  1.00  0.00     0.027 C 
BRANCH  14  15
ATOM     15  C   UNL A   1      28.491  28.991  22.591  1.00  0.00    -0.035 C 
ATOM     16  C   UNL A   1      27.264  29.000  23.126  1.00  0.00     0.004 C 
ENDBRANCH  14  15
ENDBRANCH  13  14
ENDBRANCH  12  13
ENDBRANCH   6  12
BRANCH  10  17
ATOM     17  C   UNL A   1      33.307  23.380  23.315  1.00  0.00     0.410 C 
ATOM     18  O   UNL A   1      34.045  23.670  22.376  1.00  0.00    -0.224 OA
BRANCH  17  19
ATOM     19  O   UNL A   1      33.585  22.420  24.228  1.00  0.00    -0.444 OA
BRANCH  19  20
ATOM     20  C   UNL A   1      34.696  22.614  25.140  1.00  0.00     0.106 C 
ATOM     21  C   UNL A   1      35.949  21.868  24.662  1.00  0.00     0.056 C 
ATOM     22  C   UNL A   1      34.965  24.108  25.377  1.00  0.00     0.056 C 
ATOM     23  C   UNL A   1      34.231  21.991  26.463  1.00  0.00     0.056 C 
ENDBRANCH  19  20
ENDBRANCH  17  19
ENDBRANCH  10  17
ENDBRANCH   4   6
ENDBRANCH   3   4
ENDBRANCH   2   3
ENDBRANCH   1   2
BRANCH   1  24
ATOM     24  O   UNL A   1      32.261  30.889  26.786  1.00  0.00    -0.374 OA
BRANCH  24  25
ATOM     25  C   UNL A   1      31.408  32.012  26.581  1.00  0.00     0.202 C 
BRANCH  25  26
ATOM     26  C   UNL A   1      31.961  33.415  26.857  1.00  0.00     0.261 C 
BRANCH  26  27
ATOM     27  O   UNL A   1      32.472  33.565  28.193  1.00  0.00    -0.460 OA
BRANCH  27  28
ATOM     28  C   UNL A   1      33.623  34.274  28.279  1.00  0.00     0.338 C 
ATOM     29  O   UNL A   1      33.747  35.488  28.301  1.00  0.00    -0.246 OA
BRANCH  28  30
ATOM     30  C   UNL A   1      34.756  33.368  28.530  1.00  0.00     0.060 A 
ATOM     31  C   UNL A   1      34.472  32.032  28.850  1.00  0.00     0.016 A 
ATOM     32  C   UNL A   1      36.064  33.849  28.565  1.00  0.00     0.016 A 
ATOM     33  C   UNL A   1      35.492  31.181  29.264  1.00  0.00     0.010 A 
ATOM     34  C   UNL A   1      37.084  32.998  28.994  1.00  0.00     0.010 A 
ATOM     35  C   UNL A   1      36.794  31.677  29.386  1.00  0.00    -0.014 A 
BRANCH  35  36
ATOM     36  C   UNL A   1      37.831  30.893  30.097  1.00  0.00     0.031 A 
ATOM     37  C   UNL A   1      38.084  31.197  31.546  1.00  0.00     0.074 A 
ATOM     38  C   UNL A   1      38.545  29.950  29.463  1.00  0.00     0.049 A 
ATOM     39  N   UNL A   1      39.047  30.783  32.327  1.00  0.00    -0.248 NA
ATOM     40  C   UNL A   1      37.124  32.104  32.199  1.00  0.00     0.031 C 
ATOM     41  C   UNL A   1      38.345  29.526  28.081  1.00  0.00     0.029 A 
ATOM     42  N   UNL A   1      39.608  29.199  29.899  1.00  0.00    -0.354 N 
ATOM     43  C   UNL A   1      38.827  31.400  33.552  1.00  0.00     0.074 A 
ATOM     44  C   UNL A   1      37.649  32.228  33.408  1.00  0.00     0.031 C 
ATOM     45  C   UNL A   1      39.275  28.607  27.769  1.00  0.00     0.029 A 
ATOM     46  C   UNL A   1      40.166  28.424  28.913  1.00  0.00     0.049 A 
ATOM     47  H   UNL A   1      39.937  29.215  30.826  1.00  0.00     0.167 HD
ATOM     48  C   UNL A   1      39.547  31.284  34.693  1.00  0.00     0.037 A 
ATOM     49  C   UNL A   1      41.296  27.690  28.923  1.00  0.00     0.037 A 
ATOM     50  C   UNL A   1      40.716  30.455  34.822  1.00  0.00     0.049 A 
ATOM     51  C   UNL A   1      42.131  27.643  30.177  1.00  0.00     0.074 A 
ATOM     52  C   UNL A   1      41.515  30.258  35.933  1.00  0.00     0.029 A 
ATOM     53  N   UNL A   1      41.255  29.689  33.798  1.00  0.00    -0.354 N 
ATOM     54  N   UNL A   1      41.923  28.227  31.333  1.00  0.00    -0.248 NA
ATOM     55  C   UNL A   1      43.360  26.837  30.128  1.00  0.00     0.031 C 
ATOM     56  C   UNL A   1      42.570  29.418  35.567  1.00  0.00     0.029 A 
ATOM     57  C   UNL A   1      42.389  29.036  34.247  1.00  0.00     0.049 A 
ATOM     58  H   UNL A   1      40.886  29.622  32.888  1.00  0.00     0.167 HD
ATOM     59  C   UNL A   1      42.966  27.824  32.159  1.00  0.00     0.074 A 
ATOM     60  C   UNL A   1      43.809  26.950  31.372  1.00  0.00     0.031 C 
ATOM     61  C   UNL A   1      43.198  28.143  33.456  1.00  0.00     0.037 A 
BRANCH  48  62
ATOM     62  C   UNL A   1      39.116  32.102  35.874  1.00  0.00     0.057 A 
ATOM     63  C   UNL A   1      39.542  33.423  36.062  1.00  0.00     0.134 A 
ATOM     64  C   UNL A   1      38.232  31.569  36.822  1.00  0.00     0.134 A 
ATOM     65  F   UNL A   1      40.399  33.992  35.199  1.00  0.00    -0.206 F 
ATOM     66  C   UNL A   1      39.126  34.175  37.163  1.00  0.00     0.040 A 
ATOM     67  C   UNL A   1      37.786  32.320  37.910  1.00  0.00     0.040 A 
ATOM     68  F   UNL A   1      37.781  30.311  36.701  1.00  0.00    -0.206 F 
ATOM     69  C   UNL A   1      38.239  33.625  38.086  1.00  0.00     0.006 A 
ENDBRANCH  48  62
BRANCH  49  70
ATOM     70  C   UNL A   1      41.720  26.962  27.701  1.00  0.00     0.057 A 
ATOM     71  C   UNL A   1      42.466  27.597  26.702  1.00  0.00     0.134 A 
ATOM     72  C   UNL A   1      41.376  25.620  27.491  1.00  0.00     0.134 A 
ATOM     73  F   UNL A   1      42.809  28.887  26.833  1.00  0.00    -0.206 F 
ATOM     74  C   UNL A   1      42.838  26.932  25.532  1.00  0.00     0.040 A 
ATOM     75  C   UNL A   1      41.766  24.935  26.339  1.00  0.00     0.040 A 
ATOM     76  F   UNL A   1      40.665  24.950  28.410  1.00  0.00    -0.206 F 
ATOM     77  C   UNL A   1      42.491  25.595  25.351  1.00  0.00     0.006 A 
ENDBRANCH  49  70
BRANCH  61  78
ATOM     78  C   UNL A   1      44.363  27.487  34.141  1.00  0.00     0.057 A 
ATOM     79  C   UNL A   1      45.615  28.102  34.240  1.00  0.00     0.134 A 
ATOM     80  C   UNL A   1      44.193  26.253  34.786  1.00  0.00     0.134 A 
ATOM     81  F   UNL A   1      45.846  29.277  33.637  1.00  0.00    -0.206 F 
ATOM     82  C   UNL A   1      46.662  27.509  34.950  1.00  0.00     0.040 A 
ATOM     83  C   UNL A   1      45.222  25.665  35.520  1.00  0.00     0.040 A 
ATOM     84  F   UNL A   1      43.013  25.616  34.738  1.00  0.00    -0.206 F 
ATOM     85  C   UNL A   1      46.463  26.293  35.602  1.00  0.00     0.006 A 
ENDBRANCH  61  78
ENDBRANCH  35  36
ENDBRANCH  28  30
ENDBRANCH  27  28
ENDBRANCH  26  27
ENDBRANCH  25  26
ENDBRANCH  24  25
ENDBRANCH   1  24
TORSDOF 21
ENDMDL
