MODEL 1
REMARK VINA RESULT:      -8.9      0.000      0.000
REMARK SMILES NS(=O)(=O)c1ccc(-n2nc(NC(=O)NCCCCCCCCCCC(=O)OCCOCCOC(=O)c3ccc(-c4c5nc(c(-c6c(F)cccc6F)c6ccc([nH]6)c(-c6c(F)cccc6F)c6nc(c(-c7c(F)cccc7F)c7ccc4[nH]7)C=C6)C=C5)cc3)cc2-c2ccccc2)cc1
REMARK SMILES IDX 24 1 23 2 22 3 21 4 20 5 19 6 18 7 17 8 16 9 15 10 12 11
REMARK SMILES IDX 13 12 14 14 11 16 9 17 10 18 92 19 91 20 8 21 5 22 6 23
REMARK SMILES IDX 100 24 7 25 99 26 2 27 3 28 4 29 1 30 93 33 94 34 98 35
REMARK SMILES IDX 95 36 97 37 96 38 25 39 26 40 27 41 28 42 29 43 30 44 31 45
REMARK SMILES IDX 32 46 33 47 34 48 35 49 36 50 37 51 38 52 90 53 39 54 89 55
REMARK SMILES IDX 40 56 41 57 42 58 83 59 43 60 88 61 82 62 84 63 44 64 87 65
REMARK SMILES IDX 81 66 80 67 45 69 71 70 54 71 70 72 55 73 58 74 69 75 85 76
REMARK SMILES IDX 56 77 57 78 68 80 86 81 59 82 46 83 47 84 52 85 48 86 49 87
REMARK SMILES IDX 51 88 53 89 50 90 72 91 73 92 78 93 74 94 75 95 77 96 79 97
REMARK SMILES IDX 76 98 60 99 61 100 66 101 62 102 63 103 65 104 67 105 64 106
REMARK H PARENT 12 13 15 15 1 31 1 32 84 68 58 79
REMARK Flexibility Score: inf
ROOT
ATOM      1  C   UNL A   1      32.183  23.331  23.359  1.00  0.00     0.012 C 
ENDROOT
BRANCH   1   2
ATOM      2  C   UNL A   1      30.926  24.200  23.438  1.00  0.00     0.001 C 
BRANCH   2   3
ATOM      3  C   UNL A   1      31.123  25.511  24.189  1.00  0.00     0.000 C 
BRANCH   3   4
ATOM      4  C   UNL A   1      32.354  25.484  25.089  1.00  0.00     0.000 C 
BRANCH   4   5
ATOM      5  C   UNL A   1      33.444  26.468  24.657  1.00  0.00     0.000 C 
BRANCH   5   6
ATOM      6  C   UNL A   1      33.964  27.389  25.766  1.00  0.00     0.000 C 
BRANCH   6   7
ATOM      7  C   UNL A   1      33.164  28.684  25.952  1.00  0.00     0.002 C 
BRANCH   7   8
ATOM      8  C   UNL A   1      33.076  29.200  27.386  1.00  0.00     0.021 C 
BRANCH   8   9
ATOM      9  C   UNL A   1      33.653  30.586  27.610  1.00  0.00     0.117 C 
BRANCH   9  10
ATOM     10  N   UNL A   1      32.842  31.679  27.125  1.00  0.00    -0.338 N 
ATOM     11  N   UNL A   1      33.329  33.367  28.734  1.00  0.00    -0.291 N 
ATOM     12  C   UNL A   1      32.670  32.914  27.643  1.00  0.00     0.320 C 
ATOM     13  H   UNL A   1      32.884  34.116  29.191  1.00  0.00     0.173 HD
ATOM     14  O   UNL A   1      31.781  33.621  27.157  1.00  0.00    -0.248 OA
ATOM     15  H   UNL A   1      32.342  31.496  26.297  1.00  0.00     0.165 HD
BRANCH  11  16
ATOM     16  C   UNL A   1      34.511  32.974  29.322  1.00  0.00     0.157 A 
ATOM     17  N   UNL A   1      36.336  31.944  29.610  1.00  0.00    -0.231 N 
ATOM     18  N   UNL A   1      35.616  32.597  28.675  1.00  0.00    -0.149 NA
ATOM     19  C   UNL A   1      35.969  32.349  30.887  1.00  0.00     0.076 A 
ATOM     20  C   UNL A   1      34.740  32.961  30.720  1.00  0.00     0.078 A 
BRANCH  17  21
ATOM     21  C   UNL A   1      37.263  30.931  29.234  1.00  0.00     0.065 A 
ATOM     22  C   UNL A   1      39.080  28.960  28.464  1.00  0.00     0.082 A 
ATOM     23  C   UNL A   1      39.555  30.169  28.975  1.00  0.00     0.024 A 
ATOM     24  C   UNL A   1      37.706  28.720  28.360  1.00  0.00     0.024 A 
ATOM     25  C   UNL A   1      38.645  31.160  29.350  1.00  0.00     0.030 A 
ATOM     26  C   UNL A   1      36.794  29.697  28.772  1.00  0.00     0.030 A 
BRANCH  22  27
ATOM     27  S   UNL A   1      40.221  27.731  27.902  1.00  0.00     0.238 S 
ATOM     28  O   UNL A   1      39.482  26.554  27.507  1.00  0.00    -0.207 OA
ATOM     29  O   UNL A   1      41.332  27.683  28.822  1.00  0.00    -0.207 OA
BRANCH  27  30
ATOM     30  N   UNL A   1      40.812  28.378  26.467  1.00  0.00    -0.225 NA
ATOM     31  H   UNL A   1      41.182  29.312  26.641  1.00  0.00     0.137 HD
ATOM     32  H   UNL A   1      40.057  28.434  25.783  1.00  0.00     0.137 HD
ENDBRANCH  27  30
ENDBRANCH  22  27
ENDBRANCH  17  21
BRANCH  19  33
ATOM     33  C   UNL A   1      36.810  32.144  32.059  1.00  0.00     0.000 A 
ATOM     34  C   UNL A   1      36.923  30.850  32.591  1.00  0.00     0.010 A 
ATOM     35  C   UNL A   1      37.442  33.209  32.704  1.00  0.00     0.010 A 
ATOM     36  C   UNL A   1      37.616  30.627  33.778  1.00  0.00     0.001 A 
ATOM     37  C   UNL A   1      38.141  32.982  33.893  1.00  0.00     0.001 A 
ATOM     38  C   UNL A   1      38.220  31.696  34.432  1.00  0.00     0.000 A 
ENDBRANCH  19  33
ENDBRANCH  11  16
ENDBRANCH   9  10
ENDBRANCH   8   9
ENDBRANCH   7   8
ENDBRANCH   6   7
ENDBRANCH   5   6
ENDBRANCH   4   5
ENDBRANCH   3   4
ENDBRANCH   2   3
ENDBRANCH   1   2
BRANCH   1  39
ATOM     39  C   UNL A   1      32.039  21.872  23.815  1.00  0.00     0.123 C 
BRANCH  39  40
ATOM     40  C   UNL A   1      31.708  21.598  25.271  1.00  0.00     0.305 C 
ATOM     41  O   UNL A   1      30.673  21.988  25.796  1.00  0.00    -0.252 OA
BRANCH  40  42
ATOM     42  O   UNL A   1      32.681  20.906  25.907  1.00  0.00    -0.463 OA
BRANCH  42  43
ATOM     43  C   UNL A   1      33.771  20.414  25.111  1.00  0.00     0.261 C 
BRANCH  43  44
ATOM     44  C   UNL A   1      35.030  21.238  25.381  1.00  0.00     0.202 C 
BRANCH  44  45
ATOM     45  O   UNL A   1      36.280  20.628  25.051  1.00  0.00    -0.374 OA
BRANCH  45  46
ATOM     46  C   UNL A   1      37.460  21.426  25.053  1.00  0.00     0.202 C 
BRANCH  46  47
ATOM     47  C   UNL A   1      38.773  20.719  25.365  1.00  0.00     0.261 C 
BRANCH  47  48
ATOM     48  O   UNL A   1      39.403  21.299  26.497  1.00  0.00    -0.460 OA
BRANCH  48  49
ATOM     49  C   UNL A   1      40.713  20.982  26.641  1.00  0.00     0.338 C 
ATOM     50  O   UNL A   1      41.184  19.943  27.044  1.00  0.00    -0.246 OA
BRANCH  49  51
ATOM     51  C   UNL A   1      41.497  22.192  26.353  1.00  0.00     0.060 A 
ATOM     52  C   UNL A   1      42.795  21.968  25.898  1.00  0.00     0.016 A 
ATOM     53  C   UNL A   1      41.095  23.419  26.898  1.00  0.00     0.016 A 
ATOM     54  C   UNL A   1      43.767  22.845  26.312  1.00  0.00     0.010 A 
ATOM     55  C   UNL A   1      42.061  24.292  27.311  1.00  0.00     0.010 A 
ATOM     56  C   UNL A   1      43.386  23.918  27.123  1.00  0.00    -0.014 A 
BRANCH  56  57
ATOM     57  C   UNL A   1      44.418  24.690  27.763  1.00  0.00     0.031 A 
ATOM     58  C   UNL A   1      44.387  24.531  29.228  1.00  0.00     0.074 A 
ATOM     59  C   UNL A   1      45.334  25.371  27.050  1.00  0.00     0.049 A 
ATOM     60  N   UNL A   1      44.010  25.400  30.103  1.00  0.00    -0.248 NA
ATOM     61  C   UNL A   1      44.561  23.170  29.760  1.00  0.00     0.031 C 
ATOM     62  C   UNL A   1      45.575  25.354  25.604  1.00  0.00     0.029 A 
ATOM     63  N   UNL A   1      46.324  26.175  27.516  1.00  0.00    -0.354 N 
ATOM     64  C   UNL A   1      44.119  24.749  31.327  1.00  0.00     0.074 A 
ATOM     65  C   UNL A   1      44.206  23.347  31.031  1.00  0.00     0.031 C 
ATOM     66  C   UNL A   1      46.776  25.926  25.345  1.00  0.00     0.029 A 
ATOM     67  C   UNL A   1      47.316  26.461  26.581  1.00  0.00     0.049 A 
ATOM     68  H   UNL A   1      46.340  26.526  28.435  1.00  0.00     0.167 HD
ATOM     69  C   UNL A   1      44.435  25.440  32.454  1.00  0.00     0.037 A 
ATOM     70  C   UNL A   1      48.520  27.009  26.881  1.00  0.00     0.037 A 
ATOM     71  C   UNL A   1      44.185  26.850  32.274  1.00  0.00     0.049 A 
ATOM     72  C   UNL A   1      48.382  27.659  28.215  1.00  0.00     0.074 A 
ATOM     73  C   UNL A   1      43.060  27.610  32.017  1.00  0.00     0.029 A 
ATOM     74  N   UNL A   1      45.258  27.649  31.959  1.00  0.00    -0.354 N 
ATOM     75  N   UNL A   1      47.630  28.705  28.429  1.00  0.00    -0.248 NA
ATOM     76  C   UNL A   1      48.658  26.841  29.389  1.00  0.00     0.031 C 
ATOM     77  C   UNL A   1      43.499  28.636  31.128  1.00  0.00     0.029 A 
ATOM     78  C   UNL A   1      44.875  28.491  30.946  1.00  0.00     0.049 A 
ATOM     79  H   UNL A   1      46.145  27.623  32.385  1.00  0.00     0.167 HD
ATOM     80  C   UNL A   1      46.999  28.452  29.641  1.00  0.00     0.074 A 
ATOM     81  C   UNL A   1      47.714  27.311  30.211  1.00  0.00     0.031 C 
ATOM     82  C   UNL A   1      45.777  28.989  29.931  1.00  0.00     0.037 A 
BRANCH  69  83
ATOM     83  C   UNL A   1      45.351  24.906  33.532  1.00  0.00     0.057 A 
ATOM     84  C   UNL A   1      44.798  24.604  34.788  1.00  0.00     0.134 A 
ATOM     85  C   UNL A   1      46.763  24.948  33.503  1.00  0.00     0.134 A 
ATOM     86  F   UNL A   1      43.469  24.517  34.953  1.00  0.00    -0.206 F 
ATOM     87  C   UNL A   1      45.580  24.465  35.940  1.00  0.00     0.040 A 
ATOM     88  C   UNL A   1      47.554  24.762  34.637  1.00  0.00     0.040 A 
ATOM     89  F   UNL A   1      47.466  25.260  32.410  1.00  0.00    -0.206 F 
ATOM     90  C   UNL A   1      46.962  24.558  35.870  1.00  0.00     0.006 A 
ENDBRANCH  69  83
BRANCH  70  91
ATOM     91  C   UNL A   1      49.841  26.673  26.297  1.00  0.00     0.057 A 
ATOM     92  C   UNL A   1      50.639  27.649  25.685  1.00  0.00     0.134 A 
ATOM     93  C   UNL A   1      50.472  25.444  26.569  1.00  0.00     0.134 A 
ATOM     94  F   UNL A   1      50.146  28.869  25.430  1.00  0.00    -0.206 F 
ATOM     95  C   UNL A   1      51.990  27.424  25.375  1.00  0.00     0.040 A 
ATOM     96  C   UNL A   1      51.815  25.205  26.261  1.00  0.00     0.040 A 
ATOM     97  F   UNL A   1      49.832  24.467  27.224  1.00  0.00    -0.206 F 
ATOM     98  C   UNL A   1      52.584  26.201  25.673  1.00  0.00     0.006 A 
ENDBRANCH  70  91
BRANCH  82  99
ATOM     99  C   UNL A   1      45.222  30.023  28.987  1.00  0.00     0.057 A 
ATOM    100  C   UNL A   1      45.556  31.387  29.032  1.00  0.00     0.134 A 
ATOM    101  C   UNL A   1      44.461  29.597  27.895  1.00  0.00     0.134 A 
ATOM    102  F   UNL A   1      46.363  31.869  29.984  1.00  0.00    -0.206 F 
ATOM    103  C   UNL A   1      45.120  32.288  28.055  1.00  0.00     0.040 A 
ATOM    104  C   UNL A   1      44.047  30.481  26.894  1.00  0.00     0.040 A 
ATOM    105  F   UNL A   1      44.153  28.299  27.752  1.00  0.00    -0.206 F 
ATOM    106  C   UNL A   1      44.369  31.833  26.976  1.00  0.00     0.006 A 
ENDBRANCH  82  99
ENDBRANCH  56  57
ENDBRANCH  49  51
ENDBRANCH  48  49
ENDBRANCH  47  48
ENDBRANCH  46  47
ENDBRANCH  45  46
ENDBRANCH  44  45
ENDBRANCH  43  44
ENDBRANCH  42  43
ENDBRANCH  40  42
ENDBRANCH  39  40
ENDBRANCH   1  39
TORSDOF 29
ENDMDL
MODEL 2
REMARK VINA RESULT:      -8.6      4.240     10.065
REMARK SMILES NS(=O)(=O)c1ccc(-n2nc(NC(=O)NCCCCCCCCCCC(=O)OCCOCCOC(=O)c3ccc(-c4c5nc(c(-c6c(F)cccc6F)c6ccc([nH]6)c(-c6c(F)cccc6F)c6nc(c(-c7c(F)cccc7F)c7ccc4[nH]7)C=C6)C=C5)cc3)cc2-c2ccccc2)cc1
REMARK SMILES IDX 24 1 23 2 22 3 21 4 20 5 19 6 18 7 17 8 16 9 15 10 12 11
REMARK SMILES IDX 13 12 14 14 11 16 9 17 10 18 92 19 91 20 8 21 5 22 6 23
REMARK SMILES IDX 100 24 7 25 99 26 2 27 3 28 4 29 1 30 93 33 94 34 98 35
REMARK SMILES IDX 95 36 97 37 96 38 25 39 26 40 27 41 28 42 29 43 30 44 31 45
REMARK SMILES IDX 32 46 33 47 34 48 35 49 36 50 37 51 38 52 90 53 39 54 89 55
REMARK SMILES IDX 40 56 41 57 42 58 83 59 43 60 88 61 82 62 84 63 44 64 87 65
REMARK SMILES IDX 81 66 80 67 45 69 71 70 54 71 70 72 55 73 58 74 69 75 85 76
REMARK SMILES IDX 56 77 57 78 68 80 86 81 59 82 46 83 47 84 52 85 48 86 49 87
REMARK SMILES IDX 51 88 53 89 50 90 72 91 73 92 78 93 74 94 75 95 77 96 79 97
REMARK SMILES IDX 76 98 60 99 61 100 66 101 62 102 63 103 65 104 67 105 64 106
REMARK H PARENT 12 13 15 15 1 31 1 32 84 68 58 79
REMARK Flexibility Score: inf
ROOT
ATOM      1  C   UNL A   1      42.440  28.112  26.039  1.00  0.00     0.012 C 
ENDROOT
BRANCH   1   2
ATOM      2  C   UNL A   1      43.643  28.458  26.920  1.00  0.00     0.001 C 
BRANCH   2   3
ATOM      3  C   UNL A   1      44.982  28.389  26.198  1.00  0.00     0.000 C 
BRANCH   3   4
ATOM      4  C   UNL A   1      44.995  27.329  25.101  1.00  0.00     0.000 C 
BRANCH   4   5
ATOM      5  C   UNL A   1      46.073  26.261  25.299  1.00  0.00     0.000 C 
BRANCH   5   6
ATOM      6  C   UNL A   1      45.567  24.921  25.845  1.00  0.00     0.000 C 
BRANCH   6   7
ATOM      7  C   UNL A   1      45.355  23.836  24.782  1.00  0.00     0.002 C 
BRANCH   7   8
ATOM      8  C   UNL A   1      43.920  23.334  24.637  1.00  0.00     0.021 C 
BRANCH   8   9
ATOM      9  C   UNL A   1      43.209  23.027  25.943  1.00  0.00     0.117 C 
BRANCH   9  10
ATOM     10  N   UNL A   1      41.766  23.072  25.886  1.00  0.00    -0.338 N 
ATOM     11  N   UNL A   1      41.223  23.421  28.180  1.00  0.00    -0.291 N 
ATOM     12  C   UNL A   1      40.873  23.216  26.889  1.00  0.00     0.320 C 
ATOM     13  H   UNL A   1      40.526  23.175  28.829  1.00  0.00     0.173 HD
ATOM     14  O   UNL A   1      39.679  23.039  26.623  1.00  0.00    -0.248 OA
ATOM     15  H   UNL A   1      41.378  22.984  24.985  1.00  0.00     0.165 HD
BRANCH  11  16
ATOM     16  C   UNL A   1      42.376  23.912  28.752  1.00  0.00     0.157 A 
ATOM     17  N   UNL A   1      43.901  24.225  30.183  1.00  0.00    -0.231 N 
ATOM     18  N   UNL A   1      43.161  23.255  29.608  1.00  0.00    -0.149 NA
ATOM     19  C   UNL A   1      43.966  25.346  29.366  1.00  0.00     0.076 A 
ATOM     20  C   UNL A   1      42.925  25.186  28.470  1.00  0.00     0.078 A 
BRANCH  17  21
ATOM     21  C   UNL A   1      44.428  24.052  31.495  1.00  0.00     0.065 A 
ATOM     22  C   UNL A   1      45.480  23.688  34.052  1.00  0.00     0.082 A 
ATOM     23  C   UNL A   1      46.083  24.601  33.185  1.00  0.00     0.024 A 
ATOM     24  C   UNL A   1      44.341  22.976  33.659  1.00  0.00     0.024 A 
ATOM     25  C   UNL A   1      45.562  24.775  31.902  1.00  0.00     0.030 A 
ATOM     26  C   UNL A   1      43.796  23.179  32.387  1.00  0.00     0.030 A 
BRANCH  22  27
ATOM     27  S   UNL A   1      46.181  23.392  35.648  1.00  0.00     0.238 S 
ATOM     28  O   UNL A   1      47.332  22.529  35.499  1.00  0.00    -0.207 OA
ATOM     29  O   UNL A   1      45.111  23.112  36.574  1.00  0.00    -0.207 OA
BRANCH  27  30
ATOM     30  N   UNL A   1      46.812  24.890  36.080  1.00  0.00    -0.225 NA
ATOM     31  H   UNL A   1      46.218  25.317  36.789  1.00  0.00     0.137 HD
ATOM     32  H   UNL A   1      46.847  25.493  35.257  1.00  0.00     0.137 HD
ENDBRANCH  27  30
ENDBRANCH  22  27
ENDBRANCH  17  21
BRANCH  19  33
ATOM     33  C   UNL A   1      44.988  26.375  29.508  1.00  0.00     0.000 A 
ATOM     34  C   UNL A   1      44.646  27.584  30.137  1.00  0.00     0.010 A 
ATOM     35  C   UNL A   1      46.267  26.219  28.972  1.00  0.00     0.010 A 
ATOM     36  C   UNL A   1      45.552  28.640  30.187  1.00  0.00     0.001 A 
ATOM     37  C   UNL A   1      47.176  27.279  29.028  1.00  0.00     0.001 A 
ATOM     38  C   UNL A   1      46.816  28.488  29.626  1.00  0.00     0.000 A 
ENDBRANCH  19  33
ENDBRANCH  11  16
ENDBRANCH   9  10
ENDBRANCH   8   9
ENDBRANCH   7   8
ENDBRANCH   6   7
ENDBRANCH   5   6
ENDBRANCH   4   5
ENDBRANCH   3   4
ENDBRANCH   2   3
ENDBRANCH   1   2
BRANCH   1  39
ATOM     39  C   UNL A   1      41.124  28.837  26.358  1.00  0.00     0.123 C 
BRANCH  39  40
ATOM     40  C   UNL A   1      40.176  28.207  27.363  1.00  0.00     0.305 C 
ATOM     41  O   UNL A   1      40.034  26.996  27.465  1.00  0.00    -0.252 OA
BRANCH  40  42
ATOM     42  O   UNL A   1      39.507  29.126  28.097  1.00  0.00    -0.463 OA
BRANCH  42  43
ATOM     43  C   UNL A   1      38.133  28.849  28.412  1.00  0.00     0.261 C 
BRANCH  43  44
ATOM     44  C   UNL A   1      37.295  30.118  28.258  1.00  0.00     0.202 C 
BRANCH  44  45
ATOM     45  O   UNL A   1      35.885  29.984  28.456  1.00  0.00    -0.374 OA
BRANCH  45  46
ATOM     46  C   UNL A   1      34.996  30.635  27.554  1.00  0.00     0.202 C 
BRANCH  46  47
ATOM     47  C   UNL A   1      34.017  31.639  28.151  1.00  0.00     0.261 C 
BRANCH  47  48
ATOM     48  O   UNL A   1      34.682  32.840  28.510  1.00  0.00    -0.460 OA
BRANCH  48  49
ATOM     49  C   UNL A   1      34.841  33.023  29.844  1.00  0.00     0.338 C 
ATOM     50  O   UNL A   1      34.052  32.769  30.726  1.00  0.00    -0.246 OA
BRANCH  49  51
ATOM     51  C   UNL A   1      36.111  33.736  30.047  1.00  0.00     0.060 A 
ATOM     52  C   UNL A   1      37.010  33.666  28.984  1.00  0.00     0.016 A 
ATOM     53  C   UNL A   1      36.512  34.074  31.346  1.00  0.00     0.016 A 
ATOM     54  C   UNL A   1      38.345  33.588  29.294  1.00  0.00     0.010 A 
ATOM     55  C   UNL A   1      37.840  33.996  31.656  1.00  0.00     0.010 A 
ATOM     56  C   UNL A   1      38.713  33.623  30.642  1.00  0.00    -0.014 A 
BRANCH  56  57
ATOM     57  C   UNL A   1      40.071  33.292  30.987  1.00  0.00     0.031 A 
ATOM     58  C   UNL A   1      40.137  32.099  31.850  1.00  0.00     0.074 A 
ATOM     59  C   UNL A   1      41.114  33.966  30.470  1.00  0.00     0.049 A 
ATOM     60  N   UNL A   1      40.427  32.055  33.106  1.00  0.00    -0.248 NA
ATOM     61  C   UNL A   1      39.578  30.849  31.312  1.00  0.00     0.031 C 
ATOM     62  C   UNL A   1      41.123  34.981  29.412  1.00  0.00     0.029 A 
ATOM     63  N   UNL A   1      42.434  33.799  30.743  1.00  0.00    -0.354 N 
ATOM     64  C   UNL A   1      40.300  30.716  33.458  1.00  0.00     0.074 A 
ATOM     65  C   UNL A   1      39.545  30.094  32.407  1.00  0.00     0.031 C 
ATOM     66  C   UNL A   1      42.394  35.165  28.980  1.00  0.00     0.029 A 
ATOM     67  C   UNL A   1      43.289  34.386  29.815  1.00  0.00     0.049 A 
ATOM     68  H   UNL A   1      42.758  33.303  31.530  1.00  0.00     0.167 HD
ATOM     69  C   UNL A   1      41.087  30.176  34.426  1.00  0.00     0.037 A 
ATOM     70  C   UNL A   1      44.619  34.132  29.727  1.00  0.00     0.037 A 
ATOM     71  C   UNL A   1      41.654  31.211  35.257  1.00  0.00     0.049 A 
ATOM     72  C   UNL A   1      45.037  33.543  31.031  1.00  0.00     0.074 A 
ATOM     73  C   UNL A   1      41.132  32.176  36.096  1.00  0.00     0.029 A 
ATOM     74  N   UNL A   1      42.942  31.607  34.985  1.00  0.00    -0.354 N 
ATOM     75  N   UNL A   1      45.038  34.211  32.153  1.00  0.00    -0.248 NA
ATOM     76  C   UNL A   1      44.947  32.095  31.169  1.00  0.00     0.031 C 
ATOM     77  C   UNL A   1      41.958  33.323  35.904  1.00  0.00     0.029 A 
ATOM     78  C   UNL A   1      42.978  32.978  35.016  1.00  0.00     0.049 A 
ATOM     79  H   UNL A   1      43.706  31.012  34.801  1.00  0.00     0.167 HD
ATOM     80  C   UNL A   1      44.531  33.328  33.097  1.00  0.00     0.074 A 
ATOM     81  C   UNL A   1      44.542  32.022  32.441  1.00  0.00     0.031 C 
ATOM     82  C   UNL A   1      43.871  33.777  34.206  1.00  0.00     0.037 A 
BRANCH  69  83
ATOM     83  C   UNL A   1      41.668  28.782  34.349  1.00  0.00     0.057 A 
ATOM     84  C   UNL A   1      41.639  27.983  35.505  1.00  0.00     0.134 A 
ATOM     85  C   UNL A   1      42.500  28.296  33.316  1.00  0.00     0.134 A 
ATOM     86  F   UNL A   1      40.878  28.320  36.558  1.00  0.00    -0.206 F 
ATOM     87  C   UNL A   1      42.453  26.856  35.661  1.00  0.00     0.040 A 
ATOM     88  C   UNL A   1      43.279  27.146  33.443  1.00  0.00     0.040 A 
ATOM     89  F   UNL A   1      42.688  28.941  32.160  1.00  0.00    -0.206 F 
ATOM     90  C   UNL A   1      43.289  26.442  34.633  1.00  0.00     0.006 A 
ENDBRANCH  69  83
BRANCH  70  91
ATOM     91  C   UNL A   1      45.437  33.995  28.497  1.00  0.00     0.057 A 
ATOM     92  C   UNL A   1      46.656  34.672  28.351  1.00  0.00     0.134 A 
ATOM     93  C   UNL A   1      45.178  32.984  27.553  1.00  0.00     0.134 A 
ATOM     94  F   UNL A   1      47.018  35.618  29.229  1.00  0.00    -0.206 F 
ATOM     95  C   UNL A   1      47.570  34.353  27.335  1.00  0.00     0.040 A 
ATOM     96  C   UNL A   1      46.079  32.659  26.534  1.00  0.00     0.040 A 
ATOM     97  F   UNL A   1      44.083  32.216  27.643  1.00  0.00    -0.206 F 
ATOM     98  C   UNL A   1      47.286  33.336  26.428  1.00  0.00     0.006 A 
ENDBRANCH  70  91
BRANCH  82  99
ATOM     99  C   UNL A   1      43.883  35.258  34.480  1.00  0.00     0.057 A 
ATOM    100  C   UNL A   1      42.909  36.152  34.004  1.00  0.00     0.134 A 
ATOM    101  C   UNL A   1      44.811  35.766  35.393  1.00  0.00     0.134 A 
ATOM    102  F   UNL A   1      41.920  35.735  33.205  1.00  0.00    -0.206 F 
ATOM    103  C   UNL A   1      42.886  37.496  34.392  1.00  0.00     0.040 A 
ATOM    104  C   UNL A   1      44.779  37.099  35.813  1.00  0.00     0.040 A 
ATOM    105  F   UNL A   1      45.735  34.958  35.935  1.00  0.00    -0.206 F 
ATOM    106  C   UNL A   1      43.820  37.970  35.307  1.00  0.00     0.006 A 
ENDBRANCH  82  99
ENDBRANCH  56  57
ENDBRANCH  49  51
ENDBRANCH  48  49
ENDBRANCH  47  48
ENDBRANCH  46  47
ENDBRANCH  45  46
ENDBRANCH  44  45
ENDBRANCH  43  44
ENDBRANCH  42  43
ENDBRANCH  40  42
ENDBRANCH  39  40
ENDBRANCH   1  39
TORSDOF 29
ENDMDL
MODEL 3
REMARK VINA RESULT:      -8.1      4.846     11.698
REMARK SMILES NS(=O)(=O)c1ccc(-n2nc(NC(=O)NCCCCCCCCCCC(=O)OCCOCCOC(=O)c3ccc(-c4c5nc(c(-c6c(F)cccc6F)c6ccc([nH]6)c(-c6c(F)cccc6F)c6nc(c(-c7c(F)cccc7F)c7ccc4[nH]7)C=C6)C=C5)cc3)cc2-c2ccccc2)cc1
REMARK SMILES IDX 24 1 23 2 22 3 21 4 20 5 19 6 18 7 17 8 16 9 15 10 12 11
REMARK SMILES IDX 13 12 14 14 11 16 9 17 10 18 92 19 91 20 8 21 5 22 6 23
REMARK SMILES IDX 100 24 7 25 99 26 2 27 3 28 4 29 1 30 93 33 94 34 98 35
REMARK SMILES IDX 95 36 97 37 96 38 25 39 26 40 27 41 28 42 29 43 30 44 31 45
REMARK SMILES IDX 32 46 33 47 34 48 35 49 36 50 37 51 38 52 90 53 39 54 89 55
REMARK SMILES IDX 40 56 41 57 42 58 83 59 43 60 88 61 82 62 84 63 44 64 87 65
REMARK SMILES IDX 81 66 80 67 45 69 71 70 54 71 70 72 55 73 58 74 69 75 85 76
REMARK SMILES IDX 56 77 57 78 68 80 86 81 59 82 46 83 47 84 52 85 48 86 49 87
REMARK SMILES IDX 51 88 53 89 50 90 72 91 73 92 78 93 74 94 75 95 77 96 79 97
REMARK SMILES IDX 76 98 60 99 61 100 66 101 62 102 63 103 65 104 67 105 64 106
REMARK H PARENT 12 13 15 15 1 31 1 32 84 68 58 79
REMARK Flexibility Score: inf
ROOT
ATOM      1  C   UNL A   1      50.015  27.414  32.477  1.00  0.00     0.012 C 
ENDROOT
BRANCH   1   2
ATOM      2  C   UNL A   1      48.500  27.203  32.426  1.00  0.00     0.001 C 
BRANCH   2   3
ATOM      3  C   UNL A   1      47.902  27.325  31.030  1.00  0.00     0.000 C 
BRANCH   3   4
ATOM      4  C   UNL A   1      47.037  26.124  30.664  1.00  0.00     0.000 C 
BRANCH   4   5
ATOM      5  C   UNL A   1      45.853  25.916  31.611  1.00  0.00     0.000 C 
BRANCH   5   6
ATOM      6  C   UNL A   1      44.553  25.464  30.937  1.00  0.00     0.000 C 
BRANCH   6   7
ATOM      7  C   UNL A   1      44.115  24.036  31.284  1.00  0.00     0.002 C 
BRANCH   7   8
ATOM      8  C   UNL A   1      44.270  23.013  30.161  1.00  0.00     0.021 C 
BRANCH   8   9
ATOM      9  C   UNL A   1      44.917  23.540  28.892  1.00  0.00     0.117 C 
BRANCH   9  10
ATOM     10  N   UNL A   1      44.694  22.745  27.708  1.00  0.00    -0.338 N 
ATOM     11  N   UNL A   1      42.672  23.697  26.883  1.00  0.00    -0.291 N 
ATOM     12  C   UNL A   1      43.674  22.790  26.823  1.00  0.00     0.320 C 
ATOM     13  H   UNL A   1      41.853  23.421  26.413  1.00  0.00     0.173 HD
ATOM     14  O   UNL A   1      43.601  21.885  25.986  1.00  0.00    -0.248 OA
ATOM     15  H   UNL A   1      45.387  22.071  27.518  1.00  0.00     0.165 HD
BRANCH  11  16
ATOM     16  C   UNL A   1      42.588  24.936  27.479  1.00  0.00     0.157 A 
ATOM     17  N   UNL A   1      41.744  26.622  28.437  1.00  0.00    -0.231 N 
ATOM     18  N   UNL A   1      41.747  25.273  28.459  1.00  0.00    -0.149 NA
ATOM     19  C   UNL A   1      42.906  27.108  27.855  1.00  0.00     0.076 A 
ATOM     20  C   UNL A   1      43.430  26.030  27.164  1.00  0.00     0.078 A 
BRANCH  17  21
ATOM     21  C   UNL A   1      40.611  27.350  28.898  1.00  0.00     0.065 A 
ATOM     22  C   UNL A   1      38.407  28.808  29.792  1.00  0.00     0.082 A 
ATOM     23  C   UNL A   1      38.466  28.402  28.457  1.00  0.00     0.024 A 
ATOM     24  C   UNL A   1      39.428  28.468  30.686  1.00  0.00     0.024 A 
ATOM     25  C   UNL A   1      39.575  27.681  28.008  1.00  0.00     0.030 A 
ATOM     26  C   UNL A   1      40.520  27.714  30.246  1.00  0.00     0.030 A 
BRANCH  22  27
ATOM     27  S   UNL A   1      37.053  29.797  30.353  1.00  0.00     0.238 S 
ATOM     28  O   UNL A   1      36.572  29.261  31.607  1.00  0.00    -0.207 OA
ATOM     29  O   UNL A   1      36.184  30.062  29.233  1.00  0.00    -0.207 OA
BRANCH  27  30
ATOM     30  N   UNL A   1      37.780  31.259  30.755  1.00  0.00    -0.225 NA
ATOM     31  H   UNL A   1      37.067  31.984  30.829  1.00  0.00     0.137 HD
ATOM     32  H   UNL A   1      38.451  31.515  30.030  1.00  0.00     0.137 HD
ENDBRANCH  27  30
ENDBRANCH  22  27
ENDBRANCH  17  21
BRANCH  19  33
ATOM     33  C   UNL A   1      43.379  28.474  28.043  1.00  0.00     0.000 A 
ATOM     34  C   UNL A   1      43.084  29.432  27.061  1.00  0.00     0.010 A 
ATOM     35  C   UNL A   1      44.176  28.831  29.132  1.00  0.00     0.010 A 
ATOM     36  C   UNL A   1      43.616  30.717  27.137  1.00  0.00     0.001 A 
ATOM     37  C   UNL A   1      44.705  30.122  29.210  1.00  0.00     0.001 A 
ATOM     38  C   UNL A   1      44.432  31.059  28.211  1.00  0.00     0.000 A 
ENDBRANCH  19  33
ENDBRANCH  11  16
ENDBRANCH   9  10
ENDBRANCH   8   9
ENDBRANCH   7   8
ENDBRANCH   6   7
ENDBRANCH   5   6
ENDBRANCH   4   5
ENDBRANCH   3   4
ENDBRANCH   2   3
ENDBRANCH   1   2
BRANCH   1  39
ATOM     39  C   UNL A   1      50.844  26.711  31.393  1.00  0.00     0.123 C 
BRANCH  39  40
ATOM     40  C   UNL A   1      50.896  25.193  31.391  1.00  0.00     0.305 C 
ATOM     41  O   UNL A   1      50.507  24.522  30.445  1.00  0.00    -0.252 OA
BRANCH  40  42
ATOM     42  O   UNL A   1      51.393  24.687  32.543  1.00  0.00    -0.463 OA
BRANCH  42  43
ATOM     43  C   UNL A   1      51.693  23.282  32.573  1.00  0.00     0.261 C 
BRANCH  43  44
ATOM     44  C   UNL A   1      50.700  22.554  33.478  1.00  0.00     0.202 C 
BRANCH  44  45
ATOM     45  O   UNL A   1      50.926  21.158  33.689  1.00  0.00    -0.374 OA
BRANCH  45  46
ATOM     46  C   UNL A   1      49.807  20.282  33.779  1.00  0.00     0.202 C 
BRANCH  46  47
ATOM     47  C   UNL A   1      49.222  20.046  35.165  1.00  0.00     0.261 C 
BRANCH  47  48
ATOM     48  O   UNL A   1      48.214  21.001  35.458  1.00  0.00    -0.460 OA
BRANCH  48  49
ATOM     49  C   UNL A   1      46.970  20.658  35.041  1.00  0.00     0.338 C 
ATOM     50  O   UNL A   1      46.539  19.547  34.833  1.00  0.00    -0.246 OA
BRANCH  49  51
ATOM     51  C   UNL A   1      46.246  21.900  34.735  1.00  0.00     0.060 A 
ATOM     52  C   UNL A   1      47.001  22.895  34.116  1.00  0.00     0.016 A 
ATOM     53  C   UNL A   1      45.043  22.177  35.399  1.00  0.00     0.016 A 
ATOM     54  C   UNL A   1      46.735  24.195  34.464  1.00  0.00     0.010 A 
ATOM     55  C   UNL A   1      44.777  23.471  35.746  1.00  0.00     0.010 A 
ATOM     56  C   UNL A   1      45.706  24.436  35.379  1.00  0.00    -0.014 A 
BRANCH  56  57
ATOM     57  C   UNL A   1      45.585  25.758  35.937  1.00  0.00     0.031 A 
ATOM     58  C   UNL A   1      44.652  26.593  35.160  1.00  0.00     0.074 A 
ATOM     59  C   UNL A   1      46.195  26.096  37.087  1.00  0.00     0.049 A 
ATOM     60  N   UNL A   1      44.943  27.583  34.386  1.00  0.00    -0.248 NA
ATOM     61  C   UNL A   1      43.265  26.116  35.038  1.00  0.00     0.031 C 
ATOM     62  C   UNL A   1      46.915  25.240  38.035  1.00  0.00     0.029 A 
ATOM     63  N   UNL A   1      46.211  27.309  37.698  1.00  0.00    -0.354 N 
ATOM     64  C   UNL A   1      43.726  27.994  33.854  1.00  0.00     0.074 A 
ATOM     65  C   UNL A   1      42.803  26.918  34.083  1.00  0.00     0.031 C 
ATOM     66  C   UNL A   1      47.092  25.912  39.199  1.00  0.00     0.029 A 
ATOM     67  C   UNL A   1      46.621  27.274  39.028  1.00  0.00     0.049 A 
ATOM     68  H   UNL A   1      45.953  28.142  37.240  1.00  0.00     0.167 HD
ATOM     69  C   UNL A   1      43.508  29.300  33.547  1.00  0.00     0.037 A 
ATOM     70  C   UNL A   1      46.464  28.295  39.908  1.00  0.00     0.037 A 
ATOM     71  C   UNL A   1      44.760  30.009  33.422  1.00  0.00     0.049 A 
ATOM     72  C   UNL A   1      46.252  29.532  39.105  1.00  0.00     0.074 A 
ATOM     73  C   UNL A   1      45.855  29.903  32.587  1.00  0.00     0.029 A 
ATOM     74  N   UNL A   1      45.183  30.743  34.505  1.00  0.00    -0.354 N 
ATOM     75  N   UNL A   1      47.174  30.064  38.348  1.00  0.00    -0.248 NA
ATOM     76  C   UNL A   1      44.880  29.867  38.742  1.00  0.00     0.031 C 
ATOM     77  C   UNL A   1      46.984  30.167  33.418  1.00  0.00     0.029 A 
ATOM     78  C   UNL A   1      46.517  30.488  34.694  1.00  0.00     0.049 A 
ATOM     79  H   UNL A   1      44.627  31.348  35.048  1.00  0.00     0.167 HD
ATOM     80  C   UNL A   1      46.512  30.440  37.186  1.00  0.00     0.074 A 
ATOM     81  C   UNL A   1      45.090  30.341  37.510  1.00  0.00     0.031 C 
ATOM     82  C   UNL A   1      47.164  30.506  35.987  1.00  0.00     0.037 A 
BRANCH  69  83
ATOM     83  C   UNL A   1      42.192  30.006  33.783  1.00  0.00     0.057 A 
ATOM     84  C   UNL A   1      41.618  30.719  32.717  1.00  0.00     0.134 A 
ATOM     85  C   UNL A   1      41.616  30.267  35.046  1.00  0.00     0.134 A 
ATOM     86  F   UNL A   1      42.059  30.555  31.460  1.00  0.00    -0.206 F 
ATOM     87  C   UNL A   1      40.629  31.691  32.908  1.00  0.00     0.040 A 
ATOM     88  C   UNL A   1      40.596  31.199  35.240  1.00  0.00     0.040 A 
ATOM     89  F   UNL A   1      42.057  29.716  36.182  1.00  0.00    -0.206 F 
ATOM     90  C   UNL A   1      40.125  31.944  34.176  1.00  0.00     0.006 A 
ENDBRANCH  69  83
BRANCH  70  91
ATOM     91  C   UNL A   1      46.097  28.209  41.342  1.00  0.00     0.057 A 
ATOM     92  C   UNL A   1      46.751  28.982  42.312  1.00  0.00     0.134 A 
ATOM     93  C   UNL A   1      44.913  27.572  41.759  1.00  0.00     0.134 A 
ATOM     94  F   UNL A   1      47.860  29.668  42.000  1.00  0.00    -0.206 F 
ATOM     95  C   UNL A   1      46.251  29.126  43.615  1.00  0.00     0.040 A 
ATOM     96  C   UNL A   1      44.405  27.704  43.056  1.00  0.00     0.040 A 
ATOM     97  F   UNL A   1      44.161  26.875  40.897  1.00  0.00    -0.206 F 
ATOM     98  C   UNL A   1      45.067  28.493  43.987  1.00  0.00     0.006 A 
ENDBRANCH  70  91
BRANCH  82  99
ATOM     99  C   UNL A   1      48.662  30.354  35.992  1.00  0.00     0.057 A 
ATOM    100  C   UNL A   1      49.326  29.124  35.859  1.00  0.00     0.134 A 
ATOM    101  C   UNL A   1      49.455  31.504  35.960  1.00  0.00     0.134 A 
ATOM    102  F   UNL A   1      48.645  27.975  35.779  1.00  0.00    -0.206 F 
ATOM    103  C   UNL A   1      50.718  29.044  35.736  1.00  0.00     0.040 A 
ATOM    104  C   UNL A   1      50.843  31.440  35.805  1.00  0.00     0.040 A 
ATOM    105  F   UNL A   1      48.886  32.718  36.023  1.00  0.00    -0.206 F 
ATOM    106  C   UNL A   1      51.480  30.207  35.700  1.00  0.00     0.006 A 
ENDBRANCH  82  99
ENDBRANCH  56  57
ENDBRANCH  49  51
ENDBRANCH  48  49
ENDBRANCH  47  48
ENDBRANCH  46  47
ENDBRANCH  45  46
ENDBRANCH  44  45
ENDBRANCH  43  44
ENDBRANCH  42  43
ENDBRANCH  40  42
ENDBRANCH  39  40
ENDBRANCH   1  39
TORSDOF 29
ENDMDL
