MODEL 1
REMARK VINA RESULT:     -11.0      0.000      0.000
REMARK SMILES O=C(C[C@H](C(=O)OCCOCCOC(=O)c1ccc(-c2c3nc(c(-c4c(F)cccc4F)c4ccc([nH]4)c(-c4c(F)cccc4F)c4nc(c(-c5c(F)cccc5F)c5ccc2[nH]5)C=C4)C=C3)cc1)c1ccccc1)Nc1ccc(Cl)cc1Cl
REMARK SMILES IDX 9 1 8 2 7 3 5 4 6 5 4 6 3 7 2 8 1 9 76 10 77 12 78 13 83 14
REMARK SMILES IDX 79 15 82 16 84 17 80 18 81 19 70 20 71 21 75 22 72 23 74 24
REMARK SMILES IDX 73 25 10 26 11 27 12 28 13 29 14 30 15 31 16 32 17 33 69 34
REMARK SMILES IDX 18 35 68 36 19 37 20 38 21 39 62 40 22 41 67 42 61 43 63 44
REMARK SMILES IDX 23 45 66 46 60 47 59 48 24 50 50 51 33 52 49 53 34 54 37 55
REMARK SMILES IDX 48 56 64 57 35 58 36 59 47 61 65 62 38 63 25 64 26 65 31 66
REMARK SMILES IDX 27 67 28 68 30 69 32 70 29 71 51 72 52 73 57 74 53 75 54 76
REMARK SMILES IDX 56 77 58 78 55 79 39 80 40 81 45 82 41 83 42 84 44 85 46 86
REMARK SMILES IDX 43 87
REMARK H PARENT 76 11 63 49 37 60
REMARK Flexibility Score: inf
ROOT
ATOM      1  C   UNL A   1      34.336  29.915  26.954  1.00  0.00     0.202 C 
ENDROOT
BRANCH   1   2
ATOM      2  C   UNL A   1      33.809  28.564  27.448  1.00  0.00     0.261 C 
BRANCH   2   3
ATOM      3  O   UNL A   1      33.086  27.882  26.402  1.00  0.00    -0.463 OA
BRANCH   3   4
ATOM      4  C   UNL A   1      31.819  27.486  26.708  1.00  0.00     0.314 C 
ATOM      5  O   UNL A   1      31.271  27.701  27.783  1.00  0.00    -0.252 OA
BRANCH   4   6
ATOM      6  C   UNL A   1      31.146  26.734  25.565  1.00  0.00     0.138 C 
BRANCH   6   7
ATOM      7  C   UNL A   1      30.412  25.443  25.956  1.00  0.00     0.120 C 
BRANCH   7   8
ATOM      8  C   UNL A   1      31.285  24.235  26.206  1.00  0.00     0.225 C 
ATOM      9  O   UNL A   1      31.493  23.810  27.337  1.00  0.00    -0.275 OA
ATOM     10  N   UNL A   1      31.821  23.695  25.048  1.00  0.00    -0.325 N 
ATOM     11  H   UNL A   1      31.677  24.165  24.195  1.00  0.00     0.169 HD
BRANCH  10  12
ATOM     12  C   UNL A   1      32.564  22.499  25.050  1.00  0.00     0.060 A 
ATOM     13  C   UNL A   1      31.849  21.319  24.834  1.00  0.00     0.029 A 
ATOM     14  C   UNL A   1      33.957  22.443  25.230  1.00  0.00     0.066 A 
ATOM     15  C   UNL A   1      32.530  20.115  24.681  1.00  0.00     0.023 A 
ATOM     16  C   UNL A   1      34.628  21.226  25.120  1.00  0.00     0.043 A 
ATOM     17  Cl  UNL A   1      34.885  23.808  25.750  1.00  0.00    -0.082 Cl
ATOM     18  C   UNL A   1      33.916  20.073  24.821  1.00  0.00     0.042 A 
ATOM     19  Cl  UNL A   1      34.764  18.596  24.625  1.00  0.00    -0.084 Cl
ENDBRANCH  10  12
ENDBRANCH   7   8
ENDBRANCH   6   7
BRANCH   6  20
ATOM     20  C   UNL A   1      30.426  27.642  24.586  1.00  0.00    -0.033 A 
ATOM     21  C   UNL A   1      30.867  28.946  24.307  1.00  0.00     0.004 A 
ATOM     22  C   UNL A   1      29.322  27.143  23.878  1.00  0.00     0.004 A 
ATOM     23  C   UNL A   1      30.250  29.707  23.314  1.00  0.00     0.000 A 
ATOM     24  C   UNL A   1      28.700  27.910  22.893  1.00  0.00     0.000 A 
ATOM     25  C   UNL A   1      29.173  29.187  22.603  1.00  0.00     0.000 A 
ENDBRANCH   6  20
ENDBRANCH   4   6
ENDBRANCH   3   4
ENDBRANCH   2   3
ENDBRANCH   1   2
BRANCH   1  26
ATOM     26  O   UNL A   1      33.700  31.058  27.527  1.00  0.00    -0.374 OA
BRANCH  26  27
ATOM     27  C   UNL A   1      32.436  31.434  26.988  1.00  0.00     0.202 C 
BRANCH  27  28
ATOM     28  C   UNL A   1      32.004  32.879  27.247  1.00  0.00     0.261 C 
BRANCH  28  29
ATOM     29  O   UNL A   1      33.125  33.780  27.236  1.00  0.00    -0.460 OA
BRANCH  29  30
ATOM     30  C   UNL A   1      33.266  34.487  28.384  1.00  0.00     0.338 C 
ATOM     31  O   UNL A   1      32.537  35.383  28.785  1.00  0.00    -0.246 OA
BRANCH  30  32
ATOM     32  C   UNL A   1      34.367  33.952  29.207  1.00  0.00     0.060 A 
ATOM     33  C   UNL A   1      35.673  34.174  28.751  1.00  0.00     0.016 A 
ATOM     34  C   UNL A   1      34.144  33.178  30.347  1.00  0.00     0.016 A 
ATOM     35  C   UNL A   1      36.754  33.562  29.384  1.00  0.00     0.010 A 
ATOM     36  C   UNL A   1      35.235  32.584  30.994  1.00  0.00     0.010 A 
ATOM     37  C   UNL A   1      36.545  32.732  30.490  1.00  0.00    -0.014 A 
BRANCH  37  38
ATOM     38  C   UNL A   1      37.661  31.925  31.056  1.00  0.00     0.031 A 
ATOM     39  C   UNL A   1      38.291  32.339  32.360  1.00  0.00     0.074 A 
ATOM     40  C   UNL A   1      38.137  30.836  30.422  1.00  0.00     0.049 A 
ATOM     41  N   UNL A   1      39.264  31.769  33.023  1.00  0.00    -0.248 NA
ATOM     42  C   UNL A   1      37.732  33.529  33.021  1.00  0.00     0.031 C 
ATOM     43  C   UNL A   1      37.584  30.243  29.209  1.00  0.00     0.029 A 
ATOM     44  N   UNL A   1      39.251  30.074  30.681  1.00  0.00    -0.354 N 
ATOM     45  C   UNL A   1      39.389  32.486  34.204  1.00  0.00     0.074 A 
ATOM     46  C   UNL A   1      38.474  33.603  34.116  1.00  0.00     0.031 C 
ATOM     47  C   UNL A   1      38.442  29.323  28.737  1.00  0.00     0.029 A 
ATOM     48  C   UNL A   1      39.574  29.224  29.650  1.00  0.00     0.049 A 
ATOM     49  H   UNL A   1      39.764  30.131  31.519  1.00  0.00     0.167 HD
ATOM     50  C   UNL A   1      40.148  32.201  35.289  1.00  0.00     0.037 A 
ATOM     51  C   UNL A   1      40.661  28.455  29.461  1.00  0.00     0.037 A 
ATOM     52  C   UNL A   1      41.078  31.104  35.359  1.00  0.00     0.049 A 
ATOM     53  C   UNL A   1      41.626  28.274  30.594  1.00  0.00     0.074 A 
ATOM     54  C   UNL A   1      41.833  30.674  36.436  1.00  0.00     0.029 A 
ATOM     55  N   UNL A   1      41.410  30.284  34.290  1.00  0.00    -0.354 N 
ATOM     56  N   UNL A   1      41.640  28.856  31.767  1.00  0.00    -0.248 NA
ATOM     57  C   UNL A   1      42.662  27.250  30.413  1.00  0.00     0.031 C 
ATOM     58  C   UNL A   1      42.673  29.640  36.000  1.00  0.00     0.029 A 
ATOM     59  C   UNL A   1      42.393  29.382  34.668  1.00  0.00     0.049 A 
ATOM     60  H   UNL A   1      41.005  30.334  33.394  1.00  0.00     0.167 HD
ATOM     61  C   UNL A   1      42.623  28.204  32.500  1.00  0.00     0.074 A 
ATOM     62  C   UNL A   1      43.199  27.204  31.624  1.00  0.00     0.031 C 
ATOM     63  C   UNL A   1      42.977  28.390  33.796  1.00  0.00     0.037 A 
BRANCH  50  64
ATOM     64  C   UNL A   1      39.982  33.088  36.490  1.00  0.00     0.057 A 
ATOM     65  C   UNL A   1      40.808  34.204  36.704  1.00  0.00     0.134 A 
ATOM     66  C   UNL A   1      38.987  32.836  37.441  1.00  0.00     0.134 A 
ATOM     67  F   UNL A   1      41.787  34.502  35.836  1.00  0.00    -0.206 F 
ATOM     68  C   UNL A   1      40.674  35.008  37.836  1.00  0.00     0.040 A 
ATOM     69  C   UNL A   1      38.825  33.651  38.564  1.00  0.00     0.040 A 
ATOM     70  F   UNL A   1      38.156  31.792  37.298  1.00  0.00    -0.206 F 
ATOM     71  C   UNL A   1      39.677  34.734  38.770  1.00  0.00     0.006 A 
ENDBRANCH  50  64
BRANCH  51  72
ATOM     72  C   UNL A   1      40.839  27.717  28.188  1.00  0.00     0.057 A 
ATOM     73  C   UNL A   1      41.572  28.266  27.132  1.00  0.00     0.134 A 
ATOM     74  C   UNL A   1      40.267  26.454  27.992  1.00  0.00     0.134 A 
ATOM     75  F   UNL A   1      42.117  29.484  27.254  1.00  0.00    -0.206 F 
ATOM     76  C   UNL A   1      41.723  27.590  25.920  1.00  0.00     0.040 A 
ATOM     77  C   UNL A   1      40.427  25.758  26.793  1.00  0.00     0.040 A 
ATOM     78  F   UNL A   1      39.526  25.888  28.956  1.00  0.00    -0.206 F 
ATOM     79  C   UNL A   1      41.154  26.329  25.750  1.00  0.00     0.006 A 
ENDBRANCH  51  72
BRANCH  63  80
ATOM     80  C   UNL A   1      43.994  27.442  34.364  1.00  0.00     0.057 A 
ATOM     81  C   UNL A   1      43.641  26.197  34.900  1.00  0.00     0.134 A 
ATOM     82  C   UNL A   1      45.350  27.796  34.396  1.00  0.00     0.134 A 
ATOM     83  F   UNL A   1      42.359  25.801  34.918  1.00  0.00    -0.206 F 
ATOM     84  C   UNL A   1      44.592  25.361  35.492  1.00  0.00     0.040 A 
ATOM     85  C   UNL A   1      46.315  26.953  34.950  1.00  0.00     0.040 A 
ATOM     86  F   UNL A   1      45.762  28.969  33.893  1.00  0.00    -0.206 F 
ATOM     87  C   UNL A   1      45.934  25.737  35.514  1.00  0.00     0.006 A 
ENDBRANCH  63  80
ENDBRANCH  37  38
ENDBRANCH  30  32
ENDBRANCH  29  30
ENDBRANCH  28  29
ENDBRANCH  27  28
ENDBRANCH  26  27
ENDBRANCH   1  26
TORSDOF 18
ENDMDL
MODEL 2
REMARK VINA RESULT:     -10.8      4.541      9.541
REMARK SMILES O=C(C[C@H](C(=O)OCCOCCOC(=O)c1ccc(-c2c3nc(c(-c4c(F)cccc4F)c4ccc([nH]4)c(-c4c(F)cccc4F)c4nc(c(-c5c(F)cccc5F)c5ccc2[nH]5)C=C4)C=C3)cc1)c1ccccc1)Nc1ccc(Cl)cc1Cl
REMARK SMILES IDX 9 1 8 2 7 3 5 4 6 5 4 6 3 7 2 8 1 9 76 10 77 12 78 13 83 14
REMARK SMILES IDX 79 15 82 16 84 17 80 18 81 19 70 20 71 21 75 22 72 23 74 24
REMARK SMILES IDX 73 25 10 26 11 27 12 28 13 29 14 30 15 31 16 32 17 33 69 34
REMARK SMILES IDX 18 35 68 36 19 37 20 38 21 39 62 40 22 41 67 42 61 43 63 44
REMARK SMILES IDX 23 45 66 46 60 47 59 48 24 50 50 51 33 52 49 53 34 54 37 55
REMARK SMILES IDX 48 56 64 57 35 58 36 59 47 61 65 62 38 63 25 64 26 65 31 66
REMARK SMILES IDX 27 67 28 68 30 69 32 70 29 71 51 72 52 73 57 74 53 75 54 76
REMARK SMILES IDX 56 77 58 78 55 79 39 80 40 81 45 82 41 83 42 84 44 85 46 86
REMARK SMILES IDX 43 87
REMARK H PARENT 76 11 63 49 37 60
REMARK Flexibility Score: inf
ROOT
ATOM      1  C   UNL A   1      37.350  23.277  25.134  1.00  0.00     0.202 C 
ENDROOT
BRANCH   1   2
ATOM      2  C   UNL A   1      35.951  23.524  25.708  1.00  0.00     0.261 C 
BRANCH   2   3
ATOM      3  O   UNL A   1      35.142  24.276  24.780  1.00  0.00    -0.463 OA
BRANCH   3   4
ATOM      4  C   UNL A   1      34.453  23.548  23.859  1.00  0.00     0.314 C 
ATOM      5  O   UNL A   1      34.754  23.475  22.673  1.00  0.00    -0.252 OA
BRANCH   4   6
ATOM      6  C   UNL A   1      33.250  22.827  24.458  1.00  0.00     0.138 C 
BRANCH   6   7
ATOM      7  C   UNL A   1      31.903  23.554  24.328  1.00  0.00     0.120 C 
BRANCH   7   8
ATOM      8  C   UNL A   1      31.749  24.814  25.148  1.00  0.00     0.225 C 
ATOM      9  O   UNL A   1      31.077  24.840  26.174  1.00  0.00    -0.275 OA
ATOM     10  N   UNL A   1      32.415  25.904  24.611  1.00  0.00    -0.325 N 
ATOM     11  H   UNL A   1      32.846  25.810  23.732  1.00  0.00     0.169 HD
BRANCH  10  12
ATOM     12  C   UNL A   1      32.496  27.139  25.281  1.00  0.00     0.060 A 
ATOM     13  C   UNL A   1      33.451  27.239  26.296  1.00  0.00     0.029 A 
ATOM     14  C   UNL A   1      31.699  28.254  24.968  1.00  0.00     0.066 A 
ATOM     15  C   UNL A   1      33.688  28.467  26.906  1.00  0.00     0.023 A 
ATOM     16  C   UNL A   1      31.912  29.471  25.615  1.00  0.00     0.043 A 
ATOM     17  Cl  UNL A   1      30.332  28.154  23.912  1.00  0.00    -0.082 Cl
ATOM     18  C   UNL A   1      32.921  29.578  26.562  1.00  0.00     0.042 A 
ATOM     19  Cl  UNL A   1      33.212  31.097  27.302  1.00  0.00    -0.084 Cl
ENDBRANCH  10  12
ENDBRANCH   7   8
ENDBRANCH   6   7
BRANCH   6  20
ATOM     20  C   UNL A   1      33.237  21.337  24.175  1.00  0.00    -0.033 A 
ATOM     21  C   UNL A   1      34.048  20.432  24.877  1.00  0.00     0.004 A 
ATOM     22  C   UNL A   1      32.331  20.831  23.229  1.00  0.00     0.004 A 
ATOM     23  C   UNL A   1      33.922  19.058  24.672  1.00  0.00     0.000 A 
ATOM     24  C   UNL A   1      32.214  19.457  23.019  1.00  0.00     0.000 A 
ATOM     25  C   UNL A   1      33.000  18.571  23.749  1.00  0.00     0.000 A 
ENDBRANCH   6  20
ENDBRANCH   4   6
ENDBRANCH   3   4
ENDBRANCH   2   3
ENDBRANCH   1   2
BRANCH   1  26
ATOM     26  O   UNL A   1      37.740  21.906  25.061  1.00  0.00    -0.374 OA
BRANCH  26  27
ATOM     27  C   UNL A   1      38.864  21.509  25.842  1.00  0.00     0.202 C 
BRANCH  27  28
ATOM     28  C   UNL A   1      39.424  20.117  25.547  1.00  0.00     0.261 C 
BRANCH  28  29
ATOM     29  O   UNL A   1      40.432  19.737  26.501  1.00  0.00    -0.460 OA
BRANCH  29  30
ATOM     30  C   UNL A   1      41.699  19.892  26.044  1.00  0.00     0.338 C 
ATOM     31  O   UNL A   1      42.295  19.151  25.275  1.00  0.00    -0.246 OA
BRANCH  30  32
ATOM     32  C   UNL A   1      42.270  21.178  26.486  1.00  0.00     0.060 A 
ATOM     33  C   UNL A   1      42.214  21.466  27.855  1.00  0.00     0.016 A 
ATOM     34  C   UNL A   1      42.772  22.123  25.590  1.00  0.00     0.016 A 
ATOM     35  C   UNL A   1      42.583  22.726  28.327  1.00  0.00     0.010 A 
ATOM     36  C   UNL A   1      43.164  23.379  26.070  1.00  0.00     0.010 A 
ATOM     37  C   UNL A   1      43.028  23.708  27.436  1.00  0.00    -0.014 A 
BRANCH  37  38
ATOM     38  C   UNL A   1      43.243  25.108  27.895  1.00  0.00     0.031 A 
ATOM     39  C   UNL A   1      44.604  25.529  28.385  1.00  0.00     0.074 A 
ATOM     40  C   UNL A   1      42.244  26.011  27.900  1.00  0.00     0.049 A 
ATOM     41  N   UNL A   1      44.998  26.699  28.817  1.00  0.00    -0.248 NA
ATOM     42  C   UNL A   1      45.667  24.512  28.353  1.00  0.00     0.031 C 
ATOM     43  C   UNL A   1      40.900  25.801  27.372  1.00  0.00     0.029 A 
ATOM     44  N   UNL A   1      42.192  27.274  28.437  1.00  0.00    -0.354 N 
ATOM     45  C   UNL A   1      46.362  26.579  29.043  1.00  0.00     0.074 A 
ATOM     46  C   UNL A   1      46.705  25.192  28.815  1.00  0.00     0.031 C 
ATOM     47  C   UNL A   1      40.112  26.820  27.754  1.00  0.00     0.029 A 
ATOM     48  C   UNL A   1      40.915  27.780  28.501  1.00  0.00     0.049 A 
ATOM     49  H   UNL A   1      42.986  27.766  28.743  1.00  0.00     0.167 HD
ATOM     50  C   UNL A   1      47.257  27.549  29.350  1.00  0.00     0.037 A 
ATOM     51  C   UNL A   1      40.445  28.891  29.097  1.00  0.00     0.037 A 
ATOM     52  C   UNL A   1      46.904  28.922  29.604  1.00  0.00     0.049 A 
ATOM     53  C   UNL A   1      41.421  29.901  29.620  1.00  0.00     0.074 A 
ATOM     54  C   UNL A   1      47.736  30.003  29.838  1.00  0.00     0.029 A 
ATOM     55  N   UNL A   1      45.603  29.396  29.697  1.00  0.00    -0.354 N 
ATOM     56  N   UNL A   1      42.727  29.827  29.689  1.00  0.00    -0.248 NA
ATOM     57  C   UNL A   1      40.863  31.189  30.048  1.00  0.00     0.031 C 
ATOM     58  C   UNL A   1      46.939  31.114  30.142  1.00  0.00     0.029 A 
ATOM     59  C   UNL A   1      45.609  30.742  30.032  1.00  0.00     0.049 A 
ATOM     60  H   UNL A   1      44.794  28.856  29.546  1.00  0.00     0.167 HD
ATOM     61  C   UNL A   1      43.156  31.090  30.076  1.00  0.00     0.074 A 
ATOM     62  C   UNL A   1      41.965  31.895  30.255  1.00  0.00     0.031 C 
ATOM     63  C   UNL A   1      44.425  31.546  30.221  1.00  0.00     0.037 A 
BRANCH  50  64
ATOM     64  C   UNL A   1      48.704  27.150  29.405  1.00  0.00     0.057 A 
ATOM     65  C   UNL A   1      49.305  26.719  30.599  1.00  0.00     0.134 A 
ATOM     66  C   UNL A   1      49.507  27.188  28.260  1.00  0.00     0.134 A 
ATOM     67  F   UNL A   1      48.597  26.664  31.737  1.00  0.00    -0.206 F 
ATOM     68  C   UNL A   1      50.658  26.380  30.657  1.00  0.00     0.040 A 
ATOM     69  C   UNL A   1      50.855  26.823  28.300  1.00  0.00     0.040 A 
ATOM     70  F   UNL A   1      48.998  27.582  27.083  1.00  0.00    -0.206 F 
ATOM     71  C   UNL A   1      51.436  26.429  29.503  1.00  0.00     0.006 A 
ENDBRANCH  50  64
BRANCH  51  72
ATOM     72  C   UNL A   1      38.987  29.154  29.137  1.00  0.00     0.057 A 
ATOM     73  C   UNL A   1      38.302  29.600  28.003  1.00  0.00     0.134 A 
ATOM     74  C   UNL A   1      38.248  28.980  30.313  1.00  0.00     0.134 A 
ATOM     75  F   UNL A   1      38.965  29.811  26.857  1.00  0.00    -0.206 F 
ATOM     76  C   UNL A   1      36.935  29.875  28.037  1.00  0.00     0.040 A 
ATOM     77  C   UNL A   1      36.876  29.232  30.357  1.00  0.00     0.040 A 
ATOM     78  F   UNL A   1      38.853  28.584  31.442  1.00  0.00    -0.206 F 
ATOM     79  C   UNL A   1      36.216  29.685  29.216  1.00  0.00     0.006 A 
ENDBRANCH  51  72
BRANCH  63  80
ATOM     80  C   UNL A   1      44.589  33.008  30.527  1.00  0.00     0.057 A 
ATOM     81  C   UNL A   1      44.683  33.979  29.522  1.00  0.00     0.134 A 
ATOM     82  C   UNL A   1      44.681  33.446  31.855  1.00  0.00     0.134 A 
ATOM     83  F   UNL A   1      44.620  33.628  28.228  1.00  0.00    -0.206 F 
ATOM     84  C   UNL A   1      44.910  35.323  29.824  1.00  0.00     0.040 A 
ATOM     85  C   UNL A   1      44.870  34.792  32.172  1.00  0.00     0.040 A 
ATOM     86  F   UNL A   1      44.591  32.574  32.871  1.00  0.00    -0.206 F 
ATOM     87  C   UNL A   1      45.001  35.733  31.153  1.00  0.00     0.006 A 
ENDBRANCH  63  80
ENDBRANCH  37  38
ENDBRANCH  30  32
ENDBRANCH  29  30
ENDBRANCH  28  29
ENDBRANCH  27  28
ENDBRANCH  26  27
ENDBRANCH   1  26
TORSDOF 18
ENDMDL
MODEL 3
REMARK VINA RESULT:     -10.8      2.497      4.263
REMARK SMILES O=C(C[C@H](C(=O)OCCOCCOC(=O)c1ccc(-c2c3nc(c(-c4c(F)cccc4F)c4ccc([nH]4)c(-c4c(F)cccc4F)c4nc(c(-c5c(F)cccc5F)c5ccc2[nH]5)C=C4)C=C3)cc1)c1ccccc1)Nc1ccc(Cl)cc1Cl
REMARK SMILES IDX 9 1 8 2 7 3 5 4 6 5 4 6 3 7 2 8 1 9 76 10 77 12 78 13 83 14
REMARK SMILES IDX 79 15 82 16 84 17 80 18 81 19 70 20 71 21 75 22 72 23 74 24
REMARK SMILES IDX 73 25 10 26 11 27 12 28 13 29 14 30 15 31 16 32 17 33 69 34
REMARK SMILES IDX 18 35 68 36 19 37 20 38 21 39 62 40 22 41 67 42 61 43 63 44
REMARK SMILES IDX 23 45 66 46 60 47 59 48 24 50 50 51 33 52 49 53 34 54 37 55
REMARK SMILES IDX 48 56 64 57 35 58 36 59 47 61 65 62 38 63 25 64 26 65 31 66
REMARK SMILES IDX 27 67 28 68 30 69 32 70 29 71 51 72 52 73 57 74 53 75 54 76
REMARK SMILES IDX 56 77 58 78 55 79 39 80 40 81 45 82 41 83 42 84 44 85 46 86
REMARK SMILES IDX 43 87
REMARK H PARENT 76 11 63 49 37 60
REMARK Flexibility Score: inf
ROOT
ATOM      1  C   UNL A   1      31.718  28.929  24.478  1.00  0.00     0.202 C 
ENDROOT
BRANCH   1   2
ATOM      2  C   UNL A   1      32.045  27.933  23.361  1.00  0.00     0.261 C 
BRANCH   2   3
ATOM      3  O   UNL A   1      33.234  27.180  23.679  1.00  0.00    -0.463 OA
BRANCH   3   4
ATOM      4  C   UNL A   1      33.511  26.124  22.865  1.00  0.00     0.314 C 
ATOM      5  O   UNL A   1      33.811  26.226  21.681  1.00  0.00    -0.252 OA
BRANCH   4   6
ATOM      6  C   UNL A   1      33.402  24.783  23.583  1.00  0.00     0.138 C 
BRANCH   6   7
ATOM      7  C   UNL A   1      32.480  23.745  22.925  1.00  0.00     0.120 C 
BRANCH   7   8
ATOM      8  C   UNL A   1      32.162  22.522  23.755  1.00  0.00     0.225 C 
ATOM      9  O   UNL A   1      31.236  22.510  24.560  1.00  0.00    -0.275 OA
ATOM     10  N   UNL A   1      33.021  21.461  23.522  1.00  0.00    -0.325 N 
ATOM     11  H   UNL A   1      33.795  21.598  22.930  1.00  0.00     0.169 HD
BRANCH  10  12
ATOM     12  C   UNL A   1      32.825  20.194  24.104  1.00  0.00     0.060 A 
ATOM     13  C   UNL A   1      32.313  19.197  23.271  1.00  0.00     0.029 A 
ATOM     14  C   UNL A   1      33.135  19.890  25.441  1.00  0.00     0.066 A 
ATOM     15  C   UNL A   1      32.226  17.887  23.733  1.00  0.00     0.023 A 
ATOM     16  C   UNL A   1      33.002  18.584  25.910  1.00  0.00     0.043 A 
ATOM     17  Cl  UNL A   1      33.531  21.107  26.605  1.00  0.00    -0.082 Cl
ATOM     18  C   UNL A   1      32.573  17.584  25.048  1.00  0.00     0.042 A 
ATOM     19  Cl  UNL A   1      32.476  15.972  25.624  1.00  0.00    -0.084 Cl
ENDBRANCH  10  12
ENDBRANCH   7   8
ENDBRANCH   6   7
BRANCH   6  20
ATOM     20  C   UNL A   1      34.731  24.265  24.099  1.00  0.00    -0.033 A 
ATOM     21  C   UNL A   1      35.116  24.392  25.443  1.00  0.00     0.004 A 
ATOM     22  C   UNL A   1      35.579  23.571  23.222  1.00  0.00     0.004 A 
ATOM     23  C   UNL A   1      36.291  23.799  25.904  1.00  0.00     0.000 A 
ATOM     24  C   UNL A   1      36.759  22.987  23.683  1.00  0.00     0.000 A 
ATOM     25  C   UNL A   1      37.108  23.091  25.027  1.00  0.00     0.000 A 
ENDBRANCH   6  20
ENDBRANCH   4   6
ENDBRANCH   3   4
ENDBRANCH   2   3
ENDBRANCH   1   2
BRANCH   1  26
ATOM     26  O   UNL A   1      31.470  28.344  25.756  1.00  0.00    -0.374 OA
BRANCH  26  27
ATOM     27  C   UNL A   1      32.428  28.596  26.780  1.00  0.00     0.202 C 
BRANCH  27  28
ATOM     28  C   UNL A   1      32.563  30.054  27.225  1.00  0.00     0.261 C 
BRANCH  28  29
ATOM     29  O   UNL A   1      33.805  30.631  26.784  1.00  0.00    -0.460 OA
BRANCH  29  30
ATOM     30  C   UNL A   1      34.513  31.220  27.778  1.00  0.00     0.338 C 
ATOM     31  O   UNL A   1      34.194  32.216  28.412  1.00  0.00    -0.246 OA
BRANCH  30  32
ATOM     32  C   UNL A   1      35.707  30.426  28.124  1.00  0.00     0.060 A 
ATOM     33  C   UNL A   1      35.694  29.754  29.353  1.00  0.00     0.016 A 
ATOM     34  C   UNL A   1      36.849  30.399  27.322  1.00  0.00     0.016 A 
ATOM     35  C   UNL A   1      36.843  29.120  29.823  1.00  0.00     0.010 A 
ATOM     36  C   UNL A   1      37.995  29.740  27.787  1.00  0.00     0.010 A 
ATOM     37  C   UNL A   1      38.017  29.136  29.062  1.00  0.00    -0.014 A 
BRANCH  37  38
ATOM     38  C   UNL A   1      39.297  28.632  29.630  1.00  0.00     0.031 A 
ATOM     39  C   UNL A   1      39.975  29.401  30.734  1.00  0.00     0.074 A 
ATOM     40  C   UNL A   1      39.879  27.508  29.170  1.00  0.00     0.049 A 
ATOM     41  N   UNL A   1      41.087  29.126  31.367  1.00  0.00    -0.248 NA
ATOM     42  C   UNL A   1      39.298  30.617  31.211  1.00  0.00     0.031 C 
ATOM     43  C   UNL A   1      39.315  26.596  28.181  1.00  0.00     0.029 A 
ATOM     44  N   UNL A   1      41.121  26.980  29.431  1.00  0.00    -0.354 N 
ATOM     45  C   UNL A   1      41.207  30.092  32.356  1.00  0.00     0.074 A 
ATOM     46  C   UNL A   1      40.120  31.028  32.165  1.00  0.00     0.031 C 
ATOM     47  C   UNL A   1      40.260  25.722  27.796  1.00  0.00     0.029 A 
ATOM     48  C   UNL A   1      41.476  25.979  28.558  1.00  0.00     0.049 A 
ATOM     49  H   UNL A   1      41.696  27.286  30.168  1.00  0.00     0.167 HD
ATOM     50  C   UNL A   1      42.104  30.156  33.370  1.00  0.00     0.037 A 
ATOM     51  C   UNL A   1      42.649  25.344  28.389  1.00  0.00     0.037 A 
ATOM     52  C   UNL A   1      43.201  29.238  33.538  1.00  0.00     0.049 A 
ATOM     53  C   UNL A   1      43.735  25.547  29.401  1.00  0.00     0.074 A 
ATOM     54  C   UNL A   1      44.115  29.159  34.573  1.00  0.00     0.029 A 
ATOM     55  N   UNL A   1      43.555  28.259  32.620  1.00  0.00    -0.354 N 
ATOM     56  N   UNL A   1      43.768  26.365  30.423  1.00  0.00    -0.248 NA
ATOM     57  C   UNL A   1      44.900  24.660  29.298  1.00  0.00     0.031 C 
ATOM     58  C   UNL A   1      45.064  28.180  34.248  1.00  0.00     0.029 A 
ATOM     59  C   UNL A   1      44.702  27.604  33.041  1.00  0.00     0.049 A 
ATOM     60  H   UNL A   1      43.063  28.059  31.791  1.00  0.00     0.167 HD
ATOM     61  C   UNL A   1      44.909  26.029  31.140  1.00  0.00     0.074 A 
ATOM     62  C   UNL A   1      45.551  24.951  30.414  1.00  0.00     0.031 C 
ATOM     63  C   UNL A   1      45.351  26.537  32.317  1.00  0.00     0.037 A 
BRANCH  50  64
ATOM     64  C   UNL A   1      41.913  31.250  34.381  1.00  0.00     0.057 A 
ATOM     65  C   UNL A   1      42.470  32.527  34.201  1.00  0.00     0.134 A 
ATOM     66  C   UNL A   1      41.163  31.036  35.543  1.00  0.00     0.134 A 
ATOM     67  F   UNL A   1      43.206  32.801  33.113  1.00  0.00    -0.206 F 
ATOM     68  C   UNL A   1      42.320  33.533  35.156  1.00  0.00     0.040 A 
ATOM     69  C   UNL A   1      40.982  32.044  36.492  1.00  0.00     0.040 A 
ATOM     70  F   UNL A   1      40.595  29.844  35.778  1.00  0.00    -0.206 F 
ATOM     71  C   UNL A   1      41.571  33.294  36.306  1.00  0.00     0.006 A 
ENDBRANCH  50  64
BRANCH  51  72
ATOM     72  C   UNL A   1      42.820  24.380  27.276  1.00  0.00     0.057 A 
ATOM     73  C   UNL A   1      43.329  24.787  26.040  1.00  0.00     0.134 A 
ATOM     74  C   UNL A   1      42.463  23.034  27.418  1.00  0.00     0.134 A 
ATOM     75  F   UNL A   1      43.660  26.070  25.839  1.00  0.00    -0.206 F 
ATOM     76  C   UNL A   1      43.469  23.892  24.978  1.00  0.00     0.040 A 
ATOM     77  C   UNL A   1      42.616  22.123  26.371  1.00  0.00     0.040 A 
ATOM     78  F   UNL A   1      41.940  22.588  28.569  1.00  0.00    -0.206 F 
ATOM     79  C   UNL A   1      43.117  22.554  25.144  1.00  0.00     0.006 A 
ENDBRANCH  51  72
BRANCH  63  80
ATOM     80  C   UNL A   1      46.558  25.883  32.928  1.00  0.00     0.057 A 
ATOM     81  C   UNL A   1      47.864  26.301  32.641  1.00  0.00     0.134 A 
ATOM     82  C   UNL A   1      46.407  24.796  33.800  1.00  0.00     0.134 A 
ATOM     83  F   UNL A   1      48.082  27.324  31.802  1.00  0.00    -0.206 F 
ATOM     84  C   UNL A   1      48.975  25.632  33.160  1.00  0.00     0.040 A 
ATOM     85  C   UNL A   1      47.508  24.143  34.354  1.00  0.00     0.040 A 
ATOM     86  F   UNL A   1      45.186  24.346  34.126  1.00  0.00    -0.206 F 
ATOM     87  C   UNL A   1      48.798  24.551  34.022  1.00  0.00     0.006 A 
ENDBRANCH  63  80
ENDBRANCH  37  38
ENDBRANCH  30  32
ENDBRANCH  29  30
ENDBRANCH  28  29
ENDBRANCH  27  28
ENDBRANCH  26  27
ENDBRANCH   1  26
TORSDOF 18
ENDMDL
