MODEL 1
REMARK VINA RESULT:     -11.4      0.000      0.000
REMARK SMILES Cc1nsc(N(C)C(=O)Nc2cccc(Cl)c2)c1C(=O)OCCOCCOC(=O)c1ccc(-c2c3nc(c(-c4c(F)cccc4F)c4ccc([nH]4)c(-c4c(F)cccc4F)c4nc(c(-c5c(F)cccc5F)c5ccc2[nH]5)C=C4)C=C3)cc1
REMARK SMILES IDX 23 1 22 2 21 3 19 4 20 5 18 6 1 7 2 8 3 9 4 10 5 11 6 12
REMARK SMILES IDX 7 13 8 14 9 15 10 16 11 18 12 19 17 20 13 21 15 22 14 23
REMARK SMILES IDX 16 24 24 25 25 26 26 27 27 28 28 29 29 30 30 31 31 32 83 33
REMARK SMILES IDX 32 34 82 35 33 36 34 37 35 38 76 39 36 40 81 41 75 42 77 43
REMARK SMILES IDX 37 44 80 45 74 46 73 47 38 49 64 50 47 51 63 52 48 53 51 54
REMARK SMILES IDX 62 55 78 56 49 57 50 58 61 60 79 61 52 62 39 63 40 64 45 65
REMARK SMILES IDX 41 66 42 67 44 68 46 69 43 70 65 71 66 72 71 73 67 74 68 75
REMARK SMILES IDX 70 76 72 77 69 78 53 79 54 80 59 81 55 82 56 83 58 84 60 85
REMARK SMILES IDX 57 86
REMARK H PARENT 10 17 77 48 51 59
REMARK Flexibility Score: inf
ROOT
ATOM      1  C   UNL A   1      34.228  31.201  27.834  1.00  0.00     0.202 C 
ENDROOT
BRANCH   1   2
ATOM      2  C   UNL A   1      32.913  31.105  27.058  1.00  0.00     0.261 C 
BRANCH   2   3
ATOM      3  O   UNL A   1      32.929  29.954  26.206  1.00  0.00    -0.460 OA
BRANCH   3   4
ATOM      4  C   UNL A   1      31.728  29.721  25.585  1.00  0.00     0.343 C 
ATOM      5  O   UNL A   1      30.933  30.569  25.271  1.00  0.00    -0.246 OA
BRANCH   4   6
ATOM      6  C   UNL A   1      31.469  28.293  25.485  1.00  0.00     0.118 A 
ATOM      7  C   UNL A   1      31.615  27.896  28.082  1.00  0.00     0.069 C 
ATOM      8  C   UNL A   1      31.353  27.473  26.675  1.00  0.00     0.068 A 
ATOM      9  N   UNL A   1      31.011  26.204  26.482  1.00  0.00    -0.195 NA
ATOM     10  S   UNL A   1      30.827  25.951  24.874  1.00  0.00    -0.017 S 
ATOM     11  C   UNL A   1      31.404  27.495  24.336  1.00  0.00     0.134 A 
BRANCH  11  12
ATOM     12  N   UNL A   1      31.706  27.617  22.936  1.00  0.00    -0.286 N 
ATOM     13  C   UNL A   1      31.824  26.406  22.102  1.00  0.00     0.156 C 
BRANCH  12  14
ATOM     14  C   UNL A   1      32.034  28.883  22.420  1.00  0.00     0.326 C 
ATOM     15  O   UNL A   1      33.178  29.317  22.309  1.00  0.00    -0.248 OA
ATOM     16  N   UNL A   1      31.066  29.614  21.773  1.00  0.00    -0.307 N 
ATOM     17  H   UNL A   1      31.301  29.879  20.855  1.00  0.00     0.171 HD
BRANCH  16  18
ATOM     18  C   UNL A   1      29.803  30.047  22.197  1.00  0.00     0.044 A 
ATOM     19  C   UNL A   1      29.473  31.401  22.265  1.00  0.00     0.026 A 
ATOM     20  C   UNL A   1      28.855  29.078  22.541  1.00  0.00     0.046 A 
ATOM     21  C   UNL A   1      28.218  31.791  22.732  1.00  0.00     0.004 A 
ATOM     22  C   UNL A   1      27.612  29.475  23.033  1.00  0.00     0.043 A 
ATOM     23  C   UNL A   1      27.292  30.827  23.133  1.00  0.00     0.020 A 
ATOM     24  Cl  UNL A   1      26.478  28.288  23.549  1.00  0.00    -0.084 Cl
ENDBRANCH  16  18
ENDBRANCH  12  14
ENDBRANCH  11  12
ENDBRANCH   4   6
ENDBRANCH   3   4
ENDBRANCH   2   3
ENDBRANCH   1   2
BRANCH   1  25
ATOM     25  O   UNL A   1      34.407  32.291  28.749  1.00  0.00    -0.374 OA
BRANCH  25  26
ATOM     26  C   UNL A   1      34.554  33.621  28.260  1.00  0.00     0.202 C 
BRANCH  26  27
ATOM     27  C   UNL A   1      34.218  34.792  29.164  1.00  0.00     0.261 C 
BRANCH  27  28
ATOM     28  O   UNL A   1      33.430  34.359  30.252  1.00  0.00    -0.460 OA
BRANCH  28  29
ATOM     29  C   UNL A   1      33.493  35.186  31.317  1.00  0.00     0.338 C 
ATOM     30  O   UNL A   1      33.067  36.326  31.398  1.00  0.00    -0.246 OA
BRANCH  29  31
ATOM     31  C   UNL A   1      34.302  34.533  32.354  1.00  0.00     0.060 A 
ATOM     32  C   UNL A   1      35.362  35.319  32.802  1.00  0.00     0.016 A 
ATOM     33  C   UNL A   1      34.321  33.131  32.400  1.00  0.00     0.016 A 
ATOM     34  C   UNL A   1      36.584  34.709  32.904  1.00  0.00     0.010 A 
ATOM     35  C   UNL A   1      35.546  32.526  32.477  1.00  0.00     0.010 A 
ATOM     36  C   UNL A   1      36.662  33.348  32.601  1.00  0.00    -0.014 A 
BRANCH  36  37
ATOM     37  C   UNL A   1      37.978  32.817  32.361  1.00  0.00     0.031 A 
ATOM     38  C   UNL A   1      38.850  32.849  33.544  1.00  0.00     0.074 A 
ATOM     39  C   UNL A   1      38.311  32.268  31.181  1.00  0.00     0.049 A 
ATOM     40  N   UNL A   1      39.916  33.551  33.734  1.00  0.00    -0.248 NA
ATOM     41  C   UNL A   1      38.372  32.125  34.730  1.00  0.00     0.031 C 
ATOM     42  C   UNL A   1      37.437  31.875  30.072  1.00  0.00     0.029 A 
ATOM     43  N   UNL A   1      39.528  31.827  30.784  1.00  0.00    -0.354 N 
ATOM     44  C   UNL A   1      40.344  33.221  35.014  1.00  0.00     0.074 A 
ATOM     45  C   UNL A   1      39.266  32.505  35.640  1.00  0.00     0.031 C 
ATOM     46  C   UNL A   1      38.119  31.038  29.256  1.00  0.00     0.029 A 
ATOM     47  C   UNL A   1      39.492  30.938  29.727  1.00  0.00     0.049 A 
ATOM     48  H   UNL A   1      40.367  32.114  31.212  1.00  0.00     0.167 HD
ATOM     49  C   UNL A   1      41.643  33.355  35.390  1.00  0.00     0.037 A 
ATOM     50  C   UNL A   1      40.498  30.095  29.392  1.00  0.00     0.037 A 
ATOM     51  C   UNL A   1      42.369  34.217  34.495  1.00  0.00     0.049 A 
ATOM     52  C   UNL A   1      41.741  30.597  30.048  1.00  0.00     0.074 A 
ATOM     53  C   UNL A   1      42.243  35.537  34.110  1.00  0.00     0.029 A 
ATOM     54  N   UNL A   1      43.199  33.634  33.568  1.00  0.00    -0.354 N 
ATOM     55  N   UNL A   1      42.347  31.707  29.724  1.00  0.00    -0.248 NA
ATOM     56  C   UNL A   1      42.051  30.091  31.381  1.00  0.00     0.031 C 
ATOM     57  C   UNL A   1      42.605  35.559  32.733  1.00  0.00     0.029 A 
ATOM     58  C   UNL A   1      42.955  34.257  32.371  1.00  0.00     0.049 A 
ATOM     59  H   UNL A   1      43.845  32.909  33.732  1.00  0.00     0.167 HD
ATOM     60  C   UNL A   1      42.798  32.242  30.925  1.00  0.00     0.074 A 
ATOM     61  C   UNL A   1      42.653  31.165  31.901  1.00  0.00     0.031 C 
ATOM     62  C   UNL A   1      42.976  33.586  31.092  1.00  0.00     0.037 A 
BRANCH  49  63
ATOM     63  C   UNL A   1      42.323  32.436  36.366  1.00  0.00     0.057 A 
ATOM     64  C   UNL A   1      42.919  32.982  37.515  1.00  0.00     0.134 A 
ATOM     65  C   UNL A   1      42.651  31.091  36.099  1.00  0.00     0.134 A 
ATOM     66  F   UNL A   1      42.701  34.259  37.863  1.00  0.00    -0.206 F 
ATOM     67  C   UNL A   1      43.822  32.260  38.302  1.00  0.00     0.040 A 
ATOM     68  C   UNL A   1      43.503  30.343  36.913  1.00  0.00     0.040 A 
ATOM     69  F   UNL A   1      42.256  30.456  34.988  1.00  0.00    -0.206 F 
ATOM     70  C   UNL A   1      44.118  30.936  38.001  1.00  0.00     0.006 A 
ENDBRANCH  49  63
BRANCH  50  71
ATOM     71  C   UNL A   1      40.354  28.712  28.880  1.00  0.00     0.057 A 
ATOM     72  C   UNL A   1      39.724  27.719  29.639  1.00  0.00     0.134 A 
ATOM     73  C   UNL A   1      40.628  28.379  27.538  1.00  0.00     0.134 A 
ATOM     74  F   UNL A   1      39.370  27.958  30.910  1.00  0.00    -0.206 F 
ATOM     75  C   UNL A   1      39.388  26.469  29.098  1.00  0.00     0.040 A 
ATOM     76  C   UNL A   1      40.313  27.132  26.991  1.00  0.00     0.040 A 
ATOM     77  F   UNL A   1      41.134  29.281  26.685  1.00  0.00    -0.206 F 
ATOM     78  C   UNL A   1      39.683  26.173  27.769  1.00  0.00     0.006 A 
ENDBRANCH  50  71
BRANCH  62  79
ATOM     79  C   UNL A   1      42.890  34.474  29.884  1.00  0.00     0.057 A 
ATOM     80  C   UNL A   1      43.972  34.701  29.021  1.00  0.00     0.134 A 
ATOM     81  C   UNL A   1      41.635  34.925  29.461  1.00  0.00     0.134 A 
ATOM     82  F   UNL A   1      45.188  34.211  29.293  1.00  0.00    -0.206 F 
ATOM     83  C   UNL A   1      43.816  35.374  27.806  1.00  0.00     0.040 A 
ATOM     84  C   UNL A   1      41.460  35.570  28.234  1.00  0.00     0.040 A 
ATOM     85  F   UNL A   1      40.543  34.685  30.205  1.00  0.00    -0.206 F 
ATOM     86  C   UNL A   1      42.554  35.801  27.405  1.00  0.00     0.006 A 
ENDBRANCH  62  79
ENDBRANCH  36  37
ENDBRANCH  29  31
ENDBRANCH  28  29
ENDBRANCH  27  28
ENDBRANCH  26  27
ENDBRANCH  25  26
ENDBRANCH   1  25
TORSDOF 17
ENDMDL
MODEL 2
REMARK VINA RESULT:     -11.2      2.075      3.481
REMARK SMILES Cc1nsc(N(C)C(=O)Nc2cccc(Cl)c2)c1C(=O)OCCOCCOC(=O)c1ccc(-c2c3nc(c(-c4c(F)cccc4F)c4ccc([nH]4)c(-c4c(F)cccc4F)c4nc(c(-c5c(F)cccc5F)c5ccc2[nH]5)C=C4)C=C3)cc1
REMARK SMILES IDX 23 1 22 2 21 3 19 4 20 5 18 6 1 7 2 8 3 9 4 10 5 11 6 12
REMARK SMILES IDX 7 13 8 14 9 15 10 16 11 18 12 19 17 20 13 21 15 22 14 23
REMARK SMILES IDX 16 24 24 25 25 26 26 27 27 28 28 29 29 30 30 31 31 32 83 33
REMARK SMILES IDX 32 34 82 35 33 36 34 37 35 38 76 39 36 40 81 41 75 42 77 43
REMARK SMILES IDX 37 44 80 45 74 46 73 47 38 49 64 50 47 51 63 52 48 53 51 54
REMARK SMILES IDX 62 55 78 56 49 57 50 58 61 60 79 61 52 62 39 63 40 64 45 65
REMARK SMILES IDX 41 66 42 67 44 68 46 69 43 70 65 71 66 72 71 73 67 74 68 75
REMARK SMILES IDX 70 76 72 77 69 78 53 79 54 80 59 81 55 82 56 83 58 84 60 85
REMARK SMILES IDX 57 86
REMARK H PARENT 10 17 77 48 51 59
REMARK Flexibility Score: inf
ROOT
ATOM      1  C   UNL A   1      34.004  31.779  27.977  1.00  0.00     0.202 C 
ENDROOT
BRANCH   1   2
ATOM      2  C   UNL A   1      34.607  30.416  27.632  1.00  0.00     0.261 C 
BRANCH   2   3
ATOM      3  O   UNL A   1      33.941  29.857  26.494  1.00  0.00    -0.460 OA
BRANCH   3   4
ATOM      4  C   UNL A   1      32.932  28.989  26.826  1.00  0.00     0.343 C 
ATOM      5  O   UNL A   1      32.791  28.468  27.902  1.00  0.00    -0.246 OA
BRANCH   4   6
ATOM      6  C   UNL A   1      32.130  28.661  25.657  1.00  0.00     0.118 A 
ATOM      7  C   UNL A   1      31.030  31.047  25.512  1.00  0.00     0.069 C 
ATOM      8  C   UNL A   1      31.299  29.663  25.020  1.00  0.00     0.068 A 
ATOM      9  N   UNL A   1      30.689  29.294  23.900  1.00  0.00    -0.195 NA
ATOM     10  S   UNL A   1      31.082  27.736  23.579  1.00  0.00    -0.017 S 
ATOM     11  C   UNL A   1      31.934  27.412  25.054  1.00  0.00     0.134 A 
BRANCH  11  12
ATOM     12  N   UNL A   1      32.214  26.033  25.347  1.00  0.00    -0.286 N 
ATOM     13  C   UNL A   1      33.513  25.449  24.960  1.00  0.00     0.156 C 
BRANCH  12  14
ATOM     14  C   UNL A   1      31.184  25.224  25.860  1.00  0.00     0.326 C 
ATOM     15  O   UNL A   1      30.526  25.487  26.864  1.00  0.00    -0.248 OA
ATOM     16  N   UNL A   1      30.698  24.193  25.093  1.00  0.00    -0.307 N 
ATOM     17  H   UNL A   1      29.728  24.229  24.930  1.00  0.00     0.171 HD
BRANCH  16  18
ATOM     18  C   UNL A   1      31.344  23.099  24.504  1.00  0.00     0.044 A 
ATOM     19  C   UNL A   1      31.537  23.012  23.125  1.00  0.00     0.026 A 
ATOM     20  C   UNL A   1      31.818  22.084  25.342  1.00  0.00     0.046 A 
ATOM     21  C   UNL A   1      32.149  21.886  22.576  1.00  0.00     0.004 A 
ATOM     22  C   UNL A   1      32.404  20.949  24.784  1.00  0.00     0.043 A 
ATOM     23  C   UNL A   1      32.568  20.845  23.405  1.00  0.00     0.020 A 
ATOM     24  Cl  UNL A   1      32.900  19.654  25.804  1.00  0.00    -0.084 Cl
ENDBRANCH  16  18
ENDBRANCH  12  14
ENDBRANCH  11  12
ENDBRANCH   4   6
ENDBRANCH   3   4
ENDBRANCH   2   3
ENDBRANCH   1   2
BRANCH   1  25
ATOM     25  O   UNL A   1      34.731  32.962  27.615  1.00  0.00    -0.374 OA
BRANCH  25  26
ATOM     26  C   UNL A   1      34.905  34.013  28.561  1.00  0.00     0.202 C 
BRANCH  26  27
ATOM     27  C   UNL A   1      33.706  34.835  28.994  1.00  0.00     0.261 C 
BRANCH  27  28
ATOM     28  O   UNL A   1      33.237  34.394  30.250  1.00  0.00    -0.460 OA
BRANCH  28  29
ATOM     29  C   UNL A   1      33.480  35.271  31.247  1.00  0.00     0.338 C 
ATOM     30  O   UNL A   1      33.195  36.455  31.279  1.00  0.00    -0.246 OA
BRANCH  29  31
ATOM     31  C   UNL A   1      34.291  34.590  32.265  1.00  0.00     0.060 A 
ATOM     32  C   UNL A   1      35.403  35.327  32.669  1.00  0.00     0.016 A 
ATOM     33  C   UNL A   1      34.243  33.189  32.328  1.00  0.00     0.016 A 
ATOM     34  C   UNL A   1      36.595  34.659  32.738  1.00  0.00     0.010 A 
ATOM     35  C   UNL A   1      35.439  32.525  32.372  1.00  0.00     0.010 A 
ATOM     36  C   UNL A   1      36.598  33.293  32.450  1.00  0.00    -0.014 A 
BRANCH  36  37
ATOM     37  C   UNL A   1      37.877  32.695  32.173  1.00  0.00     0.031 A 
ATOM     38  C   UNL A   1      38.784  32.685  33.331  1.00  0.00     0.074 A 
ATOM     39  C   UNL A   1      38.147  32.128  30.986  1.00  0.00     0.049 A 
ATOM     40  N   UNL A   1      39.889  33.332  33.487  1.00  0.00    -0.248 NA
ATOM     41  C   UNL A   1      38.304  31.988  34.533  1.00  0.00     0.031 C 
ATOM     42  C   UNL A   1      37.223  31.778  29.904  1.00  0.00     0.029 A 
ATOM     43  N   UNL A   1      39.329  31.625  30.556  1.00  0.00    -0.354 N 
ATOM     44  C   UNL A   1      40.337  32.983  34.755  1.00  0.00     0.074 A 
ATOM     45  C   UNL A   1      39.242  32.324  35.414  1.00  0.00     0.031 C 
ATOM     46  C   UNL A   1      37.838  30.906  29.072  1.00  0.00     0.029 A 
ATOM     47  C   UNL A   1      39.216  30.737  29.502  1.00  0.00     0.049 A 
ATOM     48  H   UNL A   1      40.193  31.869  30.958  1.00  0.00     0.167 HD
ATOM     49  C   UNL A   1      41.651  33.052  35.093  1.00  0.00     0.037 A 
ATOM     50  C   UNL A   1      40.169  29.843  29.142  1.00  0.00     0.037 A 
ATOM     51  C   UNL A   1      42.393  33.874  34.175  1.00  0.00     0.049 A 
ATOM     52  C   UNL A   1      41.454  30.282  29.760  1.00  0.00     0.074 A 
ATOM     53  C   UNL A   1      42.323  35.199  33.789  1.00  0.00     0.029 A 
ATOM     54  N   UNL A   1      43.165  33.248  33.226  1.00  0.00    -0.354 N 
ATOM     55  N   UNL A   1      42.106  31.360  29.414  1.00  0.00    -0.248 NA
ATOM     56  C   UNL A   1      41.776  29.764  31.085  1.00  0.00     0.031 C 
ATOM     57  C   UNL A   1      42.646  35.199  32.402  1.00  0.00     0.029 A 
ATOM     58  C   UNL A   1      42.919  33.881  32.035  1.00  0.00     0.049 A 
ATOM     59  H   UNL A   1      43.778  32.492  33.373  1.00  0.00     0.167 HD
ATOM     60  C   UNL A   1      42.618  31.873  30.600  1.00  0.00     0.074 A 
ATOM     61  C   UNL A   1      42.447  30.807  31.583  1.00  0.00     0.031 C 
ATOM     62  C   UNL A   1      42.869  33.207  30.758  1.00  0.00     0.037 A 
BRANCH  49  63
ATOM     63  C   UNL A   1      42.312  32.101  36.052  1.00  0.00     0.057 A 
ATOM     64  C   UNL A   1      43.033  32.621  37.140  1.00  0.00     0.134 A 
ATOM     65  C   UNL A   1      42.498  30.725  35.809  1.00  0.00     0.134 A 
ATOM     66  F   UNL A   1      42.956  33.922  37.458  1.00  0.00    -0.206 F 
ATOM     67  C   UNL A   1      43.919  31.842  37.889  1.00  0.00     0.040 A 
ATOM     68  C   UNL A   1      43.334  29.924  36.590  1.00  0.00     0.040 A 
ATOM     69  F   UNL A   1      41.971  30.099  34.750  1.00  0.00    -0.206 F 
ATOM     70  C   UNL A   1      44.074  30.488  37.613  1.00  0.00     0.006 A 
ENDBRANCH  49  63
BRANCH  50  71
ATOM     71  C   UNL A   1      39.940  28.468  28.639  1.00  0.00     0.057 A 
ATOM     72  C   UNL A   1      40.429  28.060  27.392  1.00  0.00     0.134 A 
ATOM     73  C   UNL A   1      39.432  27.446  29.465  1.00  0.00     0.134 A 
ATOM     74  F   UNL A   1      40.985  28.949  26.557  1.00  0.00    -0.206 F 
ATOM     75  C   UNL A   1      40.411  26.717  26.989  1.00  0.00     0.040 A 
ATOM     76  C   UNL A   1      39.394  26.105  29.069  1.00  0.00     0.040 A 
ATOM     77  F   UNL A   1      39.032  27.696  30.719  1.00  0.00    -0.206 F 
ATOM     78  C   UNL A   1      39.893  25.734  27.829  1.00  0.00     0.006 A 
ENDBRANCH  50  71
BRANCH  62  79
ATOM     79  C   UNL A   1      42.793  34.096  29.549  1.00  0.00     0.057 A 
ATOM     80  C   UNL A   1      41.623  34.766  29.163  1.00  0.00     0.134 A 
ATOM     81  C   UNL A   1      43.976  34.457  28.896  1.00  0.00     0.134 A 
ATOM     82  F   UNL A   1      40.466  34.563  29.806  1.00  0.00    -0.206 F 
ATOM     83  C   UNL A   1      41.626  35.731  28.153  1.00  0.00     0.040 A 
ATOM     84  C   UNL A   1      44.000  35.442  27.907  1.00  0.00     0.040 A 
ATOM     85  F   UNL A   1      45.145  33.904  29.259  1.00  0.00    -0.206 F 
ATOM     86  C   UNL A   1      42.821  36.079  27.529  1.00  0.00     0.006 A 
ENDBRANCH  62  79
ENDBRANCH  36  37
ENDBRANCH  29  31
ENDBRANCH  28  29
ENDBRANCH  27  28
ENDBRANCH  26  27
ENDBRANCH  25  26
ENDBRANCH   1  25
TORSDOF 17
ENDMDL
MODEL 3
REMARK VINA RESULT:     -11.1      1.750      2.844
REMARK SMILES Cc1nsc(N(C)C(=O)Nc2cccc(Cl)c2)c1C(=O)OCCOCCOC(=O)c1ccc(-c2c3nc(c(-c4c(F)cccc4F)c4ccc([nH]4)c(-c4c(F)cccc4F)c4nc(c(-c5c(F)cccc5F)c5ccc2[nH]5)C=C4)C=C3)cc1
REMARK SMILES IDX 23 1 22 2 21 3 19 4 20 5 18 6 1 7 2 8 3 9 4 10 5 11 6 12
REMARK SMILES IDX 7 13 8 14 9 15 10 16 11 18 12 19 17 20 13 21 15 22 14 23
REMARK SMILES IDX 16 24 24 25 25 26 26 27 27 28 28 29 29 30 30 31 31 32 83 33
REMARK SMILES IDX 32 34 82 35 33 36 34 37 35 38 76 39 36 40 81 41 75 42 77 43
REMARK SMILES IDX 37 44 80 45 74 46 73 47 38 49 64 50 47 51 63 52 48 53 51 54
REMARK SMILES IDX 62 55 78 56 49 57 50 58 61 60 79 61 52 62 39 63 40 64 45 65
REMARK SMILES IDX 41 66 42 67 44 68 46 69 43 70 65 71 66 72 71 73 67 74 68 75
REMARK SMILES IDX 70 76 72 77 69 78 53 79 54 80 59 81 55 82 56 83 58 84 60 85
REMARK SMILES IDX 57 86
REMARK H PARENT 10 17 77 48 51 59
REMARK Flexibility Score: inf
ROOT
ATOM      1  C   UNL A   1      34.232  31.266  27.669  1.00  0.00     0.202 C 
ENDROOT
BRANCH   1   2
ATOM      2  C   UNL A   1      32.948  31.021  26.876  1.00  0.00     0.261 C 
BRANCH   2   3
ATOM      3  O   UNL A   1      33.097  29.865  26.044  1.00  0.00    -0.460 OA
BRANCH   3   4
ATOM      4  C   UNL A   1      31.954  29.536  25.360  1.00  0.00     0.343 C 
ATOM      5  O   UNL A   1      31.165  30.324  24.908  1.00  0.00    -0.246 OA
BRANCH   4   6
ATOM      6  C   UNL A   1      31.740  28.097  25.378  1.00  0.00     0.118 A 
ATOM      7  C   UNL A   1      31.271  28.013  27.966  1.00  0.00     0.069 C 
ATOM      8  C   UNL A   1      31.353  27.418  26.599  1.00  0.00     0.068 A 
ATOM      9  N   UNL A   1      31.078  26.123  26.488  1.00  0.00    -0.195 NA
ATOM     10  S   UNL A   1      31.282  25.677  24.926  1.00  0.00    -0.017 S 
ATOM     11  C   UNL A   1      31.957  27.168  24.352  1.00  0.00     0.134 A 
BRANCH  11  12
ATOM     12  N   UNL A   1      32.580  27.138  23.058  1.00  0.00    -0.286 N 
ATOM     13  C   UNL A   1      33.572  28.169  22.696  1.00  0.00     0.156 C 
BRANCH  12  14
ATOM     14  C   UNL A   1      32.119  26.215  22.103  1.00  0.00     0.326 C 
ATOM     15  O   UNL A   1      31.173  26.410  21.343  1.00  0.00    -0.248 OA
ATOM     16  N   UNL A   1      32.889  25.114  21.809  1.00  0.00    -0.307 N 
ATOM     17  H   UNL A   1      33.121  25.023  20.857  1.00  0.00     0.171 HD
BRANCH  16  18
ATOM     18  C   UNL A   1      33.398  24.101  22.631  1.00  0.00     0.044 A 
ATOM     19  C   UNL A   1      34.599  24.249  23.324  1.00  0.00     0.026 A 
ATOM     20  C   UNL A   1      32.656  22.922  22.758  1.00  0.00     0.046 A 
ATOM     21  C   UNL A   1      35.091  23.199  24.100  1.00  0.00     0.004 A 
ATOM     22  C   UNL A   1      33.168  21.866  23.513  1.00  0.00     0.043 A 
ATOM     23  C   UNL A   1      34.383  22.000  24.180  1.00  0.00     0.020 A 
ATOM     24  Cl  UNL A   1      32.307  20.378  23.594  1.00  0.00    -0.084 Cl
ENDBRANCH  16  18
ENDBRANCH  12  14
ENDBRANCH  11  12
ENDBRANCH   4   6
ENDBRANCH   3   4
ENDBRANCH   2   3
ENDBRANCH   1   2
BRANCH   1  25
ATOM     25  O   UNL A   1      34.242  32.307  28.656  1.00  0.00    -0.374 OA
BRANCH  25  26
ATOM     26  C   UNL A   1      34.458  33.661  28.267  1.00  0.00     0.202 C 
BRANCH  26  27
ATOM     27  C   UNL A   1      34.178  34.776  29.256  1.00  0.00     0.261 C 
BRANCH  27  28
ATOM     28  O   UNL A   1      33.408  34.291  30.336  1.00  0.00    -0.460 OA
BRANCH  28  29
ATOM     29  C   UNL A   1      33.399  35.124  31.398  1.00  0.00     0.338 C 
ATOM     30  O   UNL A   1      32.887  36.228  31.470  1.00  0.00    -0.246 OA
BRANCH  29  31
ATOM     31  C   UNL A   1      34.244  34.537  32.445  1.00  0.00     0.060 A 
ATOM     32  C   UNL A   1      35.310  35.355  32.817  1.00  0.00     0.016 A 
ATOM     33  C   UNL A   1      34.277  33.140  32.569  1.00  0.00     0.016 A 
ATOM     34  C   UNL A   1      36.539  34.761  32.916  1.00  0.00     0.010 A 
ATOM     35  C   UNL A   1      35.510  32.549  32.643  1.00  0.00     0.010 A 
ATOM     36  C   UNL A   1      36.622  33.386  32.688  1.00  0.00    -0.014 A 
BRANCH  36  37
ATOM     37  C   UNL A   1      37.935  32.853  32.439  1.00  0.00     0.031 A 
ATOM     38  C   UNL A   1      38.820  32.896  33.612  1.00  0.00     0.074 A 
ATOM     39  C   UNL A   1      38.255  32.293  31.260  1.00  0.00     0.049 A 
ATOM     40  N   UNL A   1      39.887  33.600  33.783  1.00  0.00    -0.248 NA
ATOM     41  C   UNL A   1      38.355  32.183  34.810  1.00  0.00     0.031 C 
ATOM     42  C   UNL A   1      37.369  31.889  30.164  1.00  0.00     0.029 A 
ATOM     43  N   UNL A   1      39.468  31.847  30.855  1.00  0.00    -0.354 N 
ATOM     44  C   UNL A   1      40.329  33.282  35.061  1.00  0.00     0.074 A 
ATOM     45  C   UNL A   1      39.258  32.572  35.706  1.00  0.00     0.031 C 
ATOM     46  C   UNL A   1      38.043  31.044  29.350  1.00  0.00     0.029 A 
ATOM     47  C   UNL A   1      39.420  30.948  29.806  1.00  0.00     0.049 A 
ATOM     48  H   UNL A   1      40.312  32.138  31.271  1.00  0.00     0.167 HD
ATOM     49  C   UNL A   1      41.632  33.420  35.422  1.00  0.00     0.037 A 
ATOM     50  C   UNL A   1      40.423  30.102  29.469  1.00  0.00     0.037 A 
ATOM     51  C   UNL A   1      42.348  34.272  34.512  1.00  0.00     0.049 A 
ATOM     52  C   UNL A   1      41.672  30.610  30.106  1.00  0.00     0.074 A 
ATOM     53  C   UNL A   1      42.218  35.590  34.115  1.00  0.00     0.029 A 
ATOM     54  N   UNL A   1      43.168  33.681  33.581  1.00  0.00    -0.354 N 
ATOM     55  N   UNL A   1      42.275  31.717  29.765  1.00  0.00    -0.248 NA
ATOM     56  C   UNL A   1      41.997  30.117  31.441  1.00  0.00     0.031 C 
ATOM     57  C   UNL A   1      42.565  35.598  32.734  1.00  0.00     0.029 A 
ATOM     58  C   UNL A   1      42.911  34.292  32.381  1.00  0.00     0.049 A 
ATOM     59  H   UNL A   1      43.816  32.958  33.744  1.00  0.00     0.167 HD
ATOM     60  C   UNL A   1      42.739  32.263  30.956  1.00  0.00     0.074 A 
ATOM     61  C   UNL A   1      42.605  31.196  31.943  1.00  0.00     0.031 C 
ATOM     62  C   UNL A   1      42.919  33.609  31.108  1.00  0.00     0.037 A 
BRANCH  49  63
ATOM     63  C   UNL A   1      42.323  32.510  36.400  1.00  0.00     0.057 A 
ATOM     64  C   UNL A   1      42.977  33.072  37.509  1.00  0.00     0.134 A 
ATOM     65  C   UNL A   1      42.603  31.148  36.161  1.00  0.00     0.134 A 
ATOM     66  F   UNL A   1      42.809  34.364  37.825  1.00  0.00    -0.206 F 
ATOM     67  C   UNL A   1      43.889  32.347  38.283  1.00  0.00     0.040 A 
ATOM     68  C   UNL A   1      43.464  30.400  36.966  1.00  0.00     0.040 A 
ATOM     69  F   UNL A   1      42.148  30.494  35.086  1.00  0.00    -0.206 F 
ATOM     70  C   UNL A   1      44.136  31.007  38.011  1.00  0.00     0.006 A 
ENDBRANCH  49  63
BRANCH  50  71
ATOM     71  C   UNL A   1      40.273  28.714  28.972  1.00  0.00     0.057 A 
ATOM     72  C   UNL A   1      39.714  27.712  29.774  1.00  0.00     0.134 A 
ATOM     73  C   UNL A   1      40.465  28.381  27.616  1.00  0.00     0.134 A 
ATOM     74  F   UNL A   1      39.441  27.949  31.064  1.00  0.00    -0.206 F 
ATOM     75  C   UNL A   1      39.369  26.453  29.260  1.00  0.00     0.040 A 
ATOM     76  C   UNL A   1      40.140  27.125  27.094  1.00  0.00     0.040 A 
ATOM     77  F   UNL A   1      40.895  29.289  26.729  1.00  0.00    -0.206 F 
ATOM     78  C   UNL A   1      39.582  26.157  27.916  1.00  0.00     0.006 A 
ENDBRANCH  50  71
BRANCH  62  79
ATOM     79  C   UNL A   1      42.819  34.485  29.892  1.00  0.00     0.057 A 
ATOM     80  C   UNL A   1      43.894  34.710  29.020  1.00  0.00     0.134 A 
ATOM     81  C   UNL A   1      41.559  34.925  29.473  1.00  0.00     0.134 A 
ATOM     82  F   UNL A   1      45.115  34.230  29.289  1.00  0.00    -0.206 F 
ATOM     83  C   UNL A   1      43.727  35.371  27.800  1.00  0.00     0.040 A 
ATOM     84  C   UNL A   1      41.372  35.558  28.242  1.00  0.00     0.040 A 
ATOM     85  F   UNL A   1      40.474  34.685  30.227  1.00  0.00    -0.206 F 
ATOM     86  C   UNL A   1      42.459  35.787  27.403  1.00  0.00     0.006 A 
ENDBRANCH  62  79
ENDBRANCH  36  37
ENDBRANCH  29  31
ENDBRANCH  28  29
ENDBRANCH  27  28
ENDBRANCH  26  27
ENDBRANCH  25  26
ENDBRANCH   1  25
TORSDOF 17
ENDMDL
