MODEL 1
REMARK VINA RESULT:     -11.1      0.000      0.000
REMARK SMILES O=C(OCCOCCOC(=O)c1cc(/C=C/c2cc(O)cc(O)c2)ccc1O)c1ccc(-c2c3nc(c(-c4c(F)cccc4F)c4ccc([nH]4)c(-c4c(F)cccc4F)c4nc(c(-c5c(F)cccc5F)c5ccc2[nH]5)C=C4)C=C3)cc1
REMARK SMILES IDX 7 1 6 2 5 3 4 4 3 5 2 6 1 7 29 8 30 9 82 10 31 11 81 12
REMARK SMILES IDX 32 13 33 14 34 15 75 16 35 17 80 18 74 19 76 20 36 21 79 22
REMARK SMILES IDX 73 23 72 24 37 26 63 27 46 28 62 29 47 30 50 31 61 32 77 33
REMARK SMILES IDX 48 34 49 35 60 37 78 38 51 39 38 40 39 41 44 42 40 43 41 44
REMARK SMILES IDX 43 45 45 46 42 47 64 48 65 49 70 50 66 51 67 52 69 53 71 54
REMARK SMILES IDX 68 55 52 56 53 57 58 58 54 59 55 60 57 61 59 62 56 63 8 64
REMARK SMILES IDX 9 65 10 66 11 67 12 68 13 69 27 70 14 71 26 72 25 73 28 74
REMARK SMILES IDX 15 76 16 77 17 78 18 79 24 80 19 81 22 82 21 83 20 84 23 86
REMARK H PARENT 76 25 50 36 28 75 20 85 23 87
REMARK Flexibility Score: inf
ROOT
ATOM      1  C   UNL A   1      40.413  21.004  27.161  1.00  0.00     0.202 C 
ENDROOT
BRANCH   1   2
ATOM      2  O   UNL A   1      41.824  21.253  27.172  1.00  0.00    -0.374 OA
BRANCH   2   3
ATOM      3  C   UNL A   1      42.575  20.621  26.139  1.00  0.00     0.202 C 
BRANCH   3   4
ATOM      4  C   UNL A   1      43.617  21.530  25.482  1.00  0.00     0.261 C 
BRANCH   4   5
ATOM      5  O   UNL A   1      43.003  22.744  25.015  1.00  0.00    -0.460 OA
BRANCH   5   6
ATOM      6  C   UNL A   1      43.420  24.019  25.201  1.00  0.00     0.338 C 
ATOM      7  O   UNL A   1      44.290  24.468  24.458  1.00  0.00    -0.246 OA
BRANCH   6   8
ATOM      8  C   UNL A   1      42.888  24.915  26.272  1.00  0.00     0.060 A 
ATOM      9  C   UNL A   1      42.025  24.510  27.289  1.00  0.00     0.016 A 
ATOM     10  C   UNL A   1      43.384  26.229  26.319  1.00  0.00     0.016 A 
ATOM     11  C   UNL A   1      41.633  25.367  28.302  1.00  0.00     0.010 A 
ATOM     12  C   UNL A   1      43.029  27.094  27.360  1.00  0.00     0.010 A 
ATOM     13  C   UNL A   1      42.153  26.655  28.356  1.00  0.00    -0.014 A 
BRANCH  13  14
ATOM     14  C   UNL A   1      41.703  27.516  29.460  1.00  0.00     0.031 A 
ATOM     15  C   UNL A   1      42.513  27.552  30.716  1.00  0.00     0.074 A 
ATOM     16  C   UNL A   1      40.668  28.351  29.255  1.00  0.00     0.049 A 
ATOM     17  N   UNL A   1      42.294  28.213  31.818  1.00  0.00    -0.248 NA
ATOM     18  C   UNL A   1      43.748  26.748  30.724  1.00  0.00     0.031 C 
ATOM     19  C   UNL A   1      39.913  28.464  28.002  1.00  0.00     0.029 A 
ATOM     20  N   UNL A   1      40.092  29.283  30.073  1.00  0.00    -0.354 N 
ATOM     21  C   UNL A   1      43.343  27.883  32.663  1.00  0.00     0.074 A 
ATOM     22  C   UNL A   1      44.206  26.971  31.947  1.00  0.00     0.031 C 
ATOM     23  C   UNL A   1      38.985  29.425  28.134  1.00  0.00     0.029 A 
ATOM     24  C   UNL A   1      39.032  29.939  29.496  1.00  0.00     0.049 A 
ATOM     25  H   UNL A   1      40.408  29.467  30.988  1.00  0.00     0.167 HD
ATOM     26  C   UNL A   1      43.548  28.304  33.931  1.00  0.00     0.037 A 
ATOM     27  C   UNL A   1      38.172  30.823  30.035  1.00  0.00     0.037 A 
ATOM     28  C   UNL A   1      42.668  29.217  34.609  1.00  0.00     0.049 A 
ATOM     29  C   UNL A   1      38.371  31.196  31.479  1.00  0.00     0.074 A 
ATOM     30  C   UNL A   1      42.733  29.679  35.908  1.00  0.00     0.029 A 
ATOM     31  N   UNL A   1      41.554  29.806  34.023  1.00  0.00    -0.354 N 
ATOM     32  N   UNL A   1      39.331  30.836  32.300  1.00  0.00    -0.248 NA
ATOM     33  C   UNL A   1      37.361  32.073  32.082  1.00  0.00     0.031 C 
ATOM     34  C   UNL A   1      41.631  30.512  36.125  1.00  0.00     0.029 A 
ATOM     35  C   UNL A   1      40.907  30.609  34.945  1.00  0.00     0.049 A 
ATOM     36  H   UNL A   1      41.268  29.672  33.092  1.00  0.00     0.167 HD
ATOM     37  C   UNL A   1      39.049  31.451  33.510  1.00  0.00     0.074 A 
ATOM     38  C   UNL A   1      37.842  32.229  33.307  1.00  0.00     0.031 C 
ATOM     39  C   UNL A   1      39.712  31.374  34.690  1.00  0.00     0.037 A 
BRANCH  26  40
ATOM     40  C   UNL A   1      44.710  27.717  34.672  1.00  0.00     0.057 A 
ATOM     41  C   UNL A   1      45.961  28.345  34.725  1.00  0.00     0.134 A 
ATOM     42  C   UNL A   1      44.571  26.492  35.338  1.00  0.00     0.134 A 
ATOM     43  F   UNL A   1      46.168  29.503  34.082  1.00  0.00    -0.206 F 
ATOM     44  C   UNL A   1      47.036  27.767  35.403  1.00  0.00     0.040 A 
ATOM     45  C   UNL A   1      45.633  25.916  36.036  1.00  0.00     0.040 A 
ATOM     46  F   UNL A   1      43.402  25.835  35.317  1.00  0.00    -0.206 F 
ATOM     47  C   UNL A   1      46.872  26.552  36.066  1.00  0.00     0.006 A 
ENDBRANCH  26  40
BRANCH  27  48
ATOM     48  C   UNL A   1      37.019  31.344  29.253  1.00  0.00     0.057 A 
ATOM     49  C   UNL A   1      35.910  30.543  28.958  1.00  0.00     0.134 A 
ATOM     50  C   UNL A   1      37.021  32.648  28.738  1.00  0.00     0.134 A 
ATOM     51  F   UNL A   1      35.851  29.280  29.400  1.00  0.00    -0.206 F 
ATOM     52  C   UNL A   1      34.861  31.009  28.158  1.00  0.00     0.040 A 
ATOM     53  C   UNL A   1      35.966  33.137  27.965  1.00  0.00     0.040 A 
ATOM     54  F   UNL A   1      38.052  33.472  28.978  1.00  0.00    -0.206 F 
ATOM     55  C   UNL A   1      34.887  32.311  27.662  1.00  0.00     0.006 A 
ENDBRANCH  27  48
BRANCH  39  56
ATOM     56  C   UNL A   1      39.155  32.172  35.827  1.00  0.00     0.057 A 
ATOM     57  C   UNL A   1      38.265  31.613  36.751  1.00  0.00     0.134 A 
ATOM     58  C   UNL A   1      39.552  33.501  36.023  1.00  0.00     0.134 A 
ATOM     59  F   UNL A   1      37.838  30.350  36.606  1.00  0.00    -0.206 F 
ATOM     60  C   UNL A   1      37.773  32.356  37.824  1.00  0.00     0.040 A 
ATOM     61  C   UNL A   1      39.089  34.244  37.107  1.00  0.00     0.040 A 
ATOM     62  F   UNL A   1      40.411  34.088  35.175  1.00  0.00    -0.206 F 
ATOM     63  C   UNL A   1      38.193  33.672  38.008  1.00  0.00     0.006 A 
ENDBRANCH  39  56
ENDBRANCH  13  14
ENDBRANCH   6   8
ENDBRANCH   5   6
ENDBRANCH   4   5
ENDBRANCH   3   4
ENDBRANCH   2   3
ENDBRANCH   1   2
BRANCH   1  64
ATOM     64  C   UNL A   1      39.792  21.752  25.981  1.00  0.00     0.261 C 
BRANCH  64  65
ATOM     65  O   UNL A   1      38.369  21.686  26.132  1.00  0.00    -0.460 OA
BRANCH  65  66
ATOM     66  C   UNL A   1      37.714  20.874  25.258  1.00  0.00     0.342 C 
ATOM     67  O   UNL A   1      38.158  19.907  24.675  1.00  0.00    -0.246 OA
BRANCH  66  68
ATOM     68  C   UNL A   1      36.269  21.201  25.335  1.00  0.00     0.102 A 
ATOM     69  C   UNL A   1      35.919  22.532  25.642  1.00  0.00     0.027 A 
ATOM     70  C   UNL A   1      35.275  20.269  25.028  1.00  0.00     0.130 A 
ATOM     71  C   UNL A   1      34.582  22.944  25.591  1.00  0.00    -0.025 A 
ATOM     72  C   UNL A   1      33.941  20.661  25.003  1.00  0.00     0.048 A 
ATOM     73  C   UNL A   1      33.603  21.988  25.278  1.00  0.00     0.012 A 
BRANCH  70  74
ATOM     74  O   UNL A   1      35.592  18.966  24.771  1.00  0.00    -0.507 OA
ATOM     75  H   UNL A   1      35.766  18.690  23.892  1.00  0.00     0.293 HD
ENDBRANCH  70  74
BRANCH  71  76
ATOM     76  C   UNL A   1      34.121  24.307  25.906  1.00  0.00     0.009 C 
ATOM     77  C   UNL A   1      33.334  25.099  25.157  1.00  0.00     0.009 C 
BRANCH  77  78
ATOM     78  C   UNL A   1      32.938  26.447  25.612  1.00  0.00    -0.018 A 
ATOM     79  C   UNL A   1      33.298  27.595  24.886  1.00  0.00     0.054 A 
ATOM     80  C   UNL A   1      32.167  26.597  26.774  1.00  0.00     0.054 A 
ATOM     81  C   UNL A   1      32.927  28.859  25.339  1.00  0.00     0.119 A 
ATOM     82  C   UNL A   1      31.802  27.875  27.208  1.00  0.00     0.119 A 
ATOM     83  C   UNL A   1      32.182  29.008  26.501  1.00  0.00     0.092 A 
BRANCH  81  84
ATOM     84  O   UNL A   1      33.282  29.988  24.660  1.00  0.00    -0.508 OA
ATOM     85  H   UNL A   1      33.513  30.764  25.132  1.00  0.00     0.293 HD
ENDBRANCH  81  84
BRANCH  82  86
ATOM     86  O   UNL A   1      31.065  28.061  28.342  1.00  0.00    -0.508 OA
ATOM     87  H   UNL A   1      30.522  28.820  28.428  1.00  0.00     0.293 HD
ENDBRANCH  82  86
ENDBRANCH  77  78
ENDBRANCH  71  76
ENDBRANCH  66  68
ENDBRANCH  65  66
ENDBRANCH  64  65
ENDBRANCH   1  64
TORSDOF 19
ENDMDL
MODEL 2
REMARK VINA RESULT:     -11.0      3.296      8.708
REMARK SMILES O=C(OCCOCCOC(=O)c1cc(/C=C/c2cc(O)cc(O)c2)ccc1O)c1ccc(-c2c3nc(c(-c4c(F)cccc4F)c4ccc([nH]4)c(-c4c(F)cccc4F)c4nc(c(-c5c(F)cccc5F)c5ccc2[nH]5)C=C4)C=C3)cc1
REMARK SMILES IDX 7 1 6 2 5 3 4 4 3 5 2 6 1 7 29 8 30 9 82 10 31 11 81 12
REMARK SMILES IDX 32 13 33 14 34 15 75 16 35 17 80 18 74 19 76 20 36 21 79 22
REMARK SMILES IDX 73 23 72 24 37 26 63 27 46 28 62 29 47 30 50 31 61 32 77 33
REMARK SMILES IDX 48 34 49 35 60 37 78 38 51 39 38 40 39 41 44 42 40 43 41 44
REMARK SMILES IDX 43 45 45 46 42 47 64 48 65 49 70 50 66 51 67 52 69 53 71 54
REMARK SMILES IDX 68 55 52 56 53 57 58 58 54 59 55 60 57 61 59 62 56 63 8 64
REMARK SMILES IDX 9 65 10 66 11 67 12 68 13 69 27 70 14 71 26 72 25 73 28 74
REMARK SMILES IDX 15 76 16 77 17 78 18 79 24 80 19 81 22 82 21 83 20 84 23 86
REMARK H PARENT 76 25 50 36 28 75 20 85 23 87
REMARK Flexibility Score: inf
ROOT
ATOM      1  C   UNL A   1      30.431  28.959  23.804  1.00  0.00     0.202 C 
ENDROOT
BRANCH   1   2
ATOM      2  O   UNL A   1      31.182  28.953  25.024  1.00  0.00    -0.374 OA
BRANCH   2   3
ATOM      3  C   UNL A   1      31.487  30.233  25.573  1.00  0.00     0.202 C 
BRANCH   3   4
ATOM      4  C   UNL A   1      32.101  30.179  26.974  1.00  0.00     0.261 C 
BRANCH   4   5
ATOM      5  O   UNL A   1      33.537  30.153  26.894  1.00  0.00    -0.460 OA
BRANCH   5   6
ATOM      6  C   UNL A   1      34.431  30.823  27.659  1.00  0.00     0.338 C 
ATOM      7  O   UNL A   1      34.164  31.971  28.009  1.00  0.00    -0.246 OA
BRANCH   6   8
ATOM      8  C   UNL A   1      35.739  30.248  28.099  1.00  0.00     0.060 A 
ATOM      9  C   UNL A   1      36.933  30.363  27.389  1.00  0.00     0.016 A 
ATOM     10  C   UNL A   1      35.786  29.649  29.369  1.00  0.00     0.016 A 
ATOM     11  C   UNL A   1      38.131  29.882  27.888  1.00  0.00     0.010 A 
ATOM     12  C   UNL A   1      36.997  29.195  29.904  1.00  0.00     0.010 A 
ATOM     13  C   UNL A   1      38.173  29.318  29.158  1.00  0.00    -0.014 A 
BRANCH  13  14
ATOM     14  C   UNL A   1      39.476  28.831  29.635  1.00  0.00     0.031 A 
ATOM     15  C   UNL A   1      40.074  29.460  30.851  1.00  0.00     0.074 A 
ATOM     16  C   UNL A   1      40.017  27.744  29.055  1.00  0.00     0.049 A 
ATOM     17  N   UNL A   1      41.214  29.211  31.431  1.00  0.00    -0.248 NA
ATOM     18  C   UNL A   1      39.268  30.499  31.517  1.00  0.00     0.031 C 
ATOM     19  C   UNL A   1      39.417  26.995  27.944  1.00  0.00     0.029 A 
ATOM     20  N   UNL A   1      41.166  27.057  29.334  1.00  0.00    -0.354 N 
ATOM     21  C   UNL A   1      41.281  30.080  32.509  1.00  0.00     0.074 A 
ATOM     22  C   UNL A   1      40.063  30.859  32.513  1.00  0.00     0.031 C 
ATOM     23  C   UNL A   1      40.199  25.945  27.650  1.00  0.00     0.029 A 
ATOM     24  C   UNL A   1      41.383  25.989  28.497  1.00  0.00     0.049 A 
ATOM     25  H   UNL A   1      41.778  27.304  30.065  1.00  0.00     0.167 HD
ATOM     26  C   UNL A   1      42.285  30.214  33.404  1.00  0.00     0.037 A 
ATOM     27  C   UNL A   1      42.448  25.171  28.406  1.00  0.00     0.037 A 
ATOM     28  C   UNL A   1      43.481  29.417  33.369  1.00  0.00     0.049 A 
ATOM     29  C   UNL A   1      43.592  25.411  29.354  1.00  0.00     0.074 A 
ATOM     30  C   UNL A   1      44.595  29.489  34.182  1.00  0.00     0.029 A 
ATOM     31  N   UNL A   1      43.709  28.391  32.459  1.00  0.00    -0.354 N 
ATOM     32  N   UNL A   1      43.682  26.276  30.338  1.00  0.00    -0.248 NA
ATOM     33  C   UNL A   1      44.791  24.585  29.168  1.00  0.00     0.031 C 
ATOM     34  C   UNL A   1      45.518  28.540  33.734  1.00  0.00     0.029 A 
ATOM     35  C   UNL A   1      44.958  27.840  32.674  1.00  0.00     0.049 A 
ATOM     36  H   UNL A   1      43.075  28.101  31.764  1.00  0.00     0.167 HD
ATOM     37  C   UNL A   1      44.937  26.091  30.896  1.00  0.00     0.074 A 
ATOM     38  C   UNL A   1      45.564  25.012  30.157  1.00  0.00     0.031 C 
ATOM     39  C   UNL A   1      45.533  26.757  31.916  1.00  0.00     0.037 A 
BRANCH  26  40
ATOM     40  C   UNL A   1      42.160  31.306  34.422  1.00  0.00     0.057 A 
ATOM     41  C   UNL A   1      42.651  32.599  34.200  1.00  0.00     0.134 A 
ATOM     42  C   UNL A   1      41.542  31.050  35.653  1.00  0.00     0.134 A 
ATOM     43  F   UNL A   1      43.280  32.900  33.055  1.00  0.00    -0.206 F 
ATOM     44  C   UNL A   1      42.542  33.594  35.173  1.00  0.00     0.040 A 
ATOM     45  C   UNL A   1      41.410  32.043  36.624  1.00  0.00     0.040 A 
ATOM     46  F   UNL A   1      41.061  29.830  35.932  1.00  0.00    -0.206 F 
ATOM     47  C   UNL A   1      41.915  33.319  36.388  1.00  0.00     0.006 A 
ENDBRANCH  26  40
BRANCH  27  48
ATOM     48  C   UNL A   1      42.524  24.127  27.351  1.00  0.00     0.057 A 
ATOM     49  C   UNL A   1      42.119  22.809  27.590  1.00  0.00     0.134 A 
ATOM     50  C   UNL A   1      43.051  24.412  26.083  1.00  0.00     0.134 A 
ATOM     51  F   UNL A   1      41.626  22.460  28.787  1.00  0.00    -0.206 F 
ATOM     52  C   UNL A   1      42.261  21.810  26.622  1.00  0.00     0.040 A 
ATOM     53  C   UNL A   1      43.169  23.432  25.096  1.00  0.00     0.040 A 
ATOM     54  F   UNL A   1      43.461  25.653  25.782  1.00  0.00    -0.206 F 
ATOM     55  C   UNL A   1      42.785  22.123  25.369  1.00  0.00     0.006 A 
ENDBRANCH  27  48
BRANCH  39  56
ATOM     56  C   UNL A   1      46.910  26.310  32.296  1.00  0.00     0.057 A 
ATOM     57  C   UNL A   1      48.050  26.825  31.667  1.00  0.00     0.134 A 
ATOM     58  C   UNL A   1      47.097  25.390  33.335  1.00  0.00     0.134 A 
ATOM     59  F   UNL A   1      47.932  27.699  30.656  1.00  0.00    -0.206 F 
ATOM     60  C   UNL A   1      49.330  26.425  32.047  1.00  0.00     0.040 A 
ATOM     61  C   UNL A   1      48.372  25.004  33.742  1.00  0.00     0.040 A 
ATOM     62  F   UNL A   1      46.042  24.869  33.982  1.00  0.00    -0.206 F 
ATOM     63  C   UNL A   1      49.493  25.519  33.093  1.00  0.00     0.006 A 
ENDBRANCH  39  56
ENDBRANCH  13  14
ENDBRANCH   6   8
ENDBRANCH   5   6
ENDBRANCH   4   5
ENDBRANCH   3   4
ENDBRANCH   2   3
ENDBRANCH   1   2
BRANCH   1  64
ATOM     64  C   UNL A   1      31.035  27.927  22.852  1.00  0.00     0.261 C 
BRANCH  64  65
ATOM     65  O   UNL A   1      32.450  28.149  22.819  1.00  0.00    -0.460 OA
BRANCH  65  66
ATOM     66  C   UNL A   1      33.207  27.107  22.381  1.00  0.00     0.342 C 
ATOM     67  O   UNL A   1      33.784  27.009  21.317  1.00  0.00    -0.246 OA
BRANCH  66  68
ATOM     68  C   UNL A   1      33.444  26.205  23.535  1.00  0.00     0.102 A 
ATOM     69  C   UNL A   1      33.309  24.819  23.316  1.00  0.00     0.027 A 
ATOM     70  C   UNL A   1      33.875  26.679  24.777  1.00  0.00     0.130 A 
ATOM     71  C   UNL A   1      33.657  23.906  24.318  1.00  0.00    -0.025 A 
ATOM     72  C   UNL A   1      34.195  25.781  25.789  1.00  0.00     0.048 A 
ATOM     73  C   UNL A   1      34.089  24.408  25.555  1.00  0.00     0.012 A 
BRANCH  70  74
ATOM     74  O   UNL A   1      33.969  28.020  25.021  1.00  0.00    -0.507 OA
ATOM     75  H   UNL A   1      33.752  28.359  25.868  1.00  0.00     0.293 HD
ENDBRANCH  70  74
BRANCH  71  76
ATOM     76  C   UNL A   1      33.539  22.443  24.185  1.00  0.00     0.009 C 
ATOM     77  C   UNL A   1      32.572  21.651  24.679  1.00  0.00     0.009 C 
BRANCH  77  78
ATOM     78  C   UNL A   1      32.576  20.191  24.449  1.00  0.00    -0.018 A 
ATOM     79  C   UNL A   1      32.277  19.654  23.186  1.00  0.00     0.054 A 
ATOM     80  C   UNL A   1      32.908  19.318  25.495  1.00  0.00     0.054 A 
ATOM     81  C   UNL A   1      32.273  18.274  22.993  1.00  0.00     0.119 A 
ATOM     82  C   UNL A   1      32.903  17.937  25.278  1.00  0.00     0.119 A 
ATOM     83  C   UNL A   1      32.581  17.409  24.034  1.00  0.00     0.092 A 
BRANCH  81  84
ATOM     84  O   UNL A   1      31.967  17.728  21.781  1.00  0.00    -0.508 OA
ATOM     85  H   UNL A   1      32.397  16.944  21.499  1.00  0.00     0.293 HD
ENDBRANCH  81  84
BRANCH  82  86
ATOM     86  O   UNL A   1      33.206  17.056  26.274  1.00  0.00    -0.508 OA
ATOM     87  H   UNL A   1      34.066  16.686  26.327  1.00  0.00     0.293 HD
ENDBRANCH  82  86
ENDBRANCH  77  78
ENDBRANCH  71  76
ENDBRANCH  66  68
ENDBRANCH  65  66
ENDBRANCH  64  65
ENDBRANCH   1  64
TORSDOF 19
ENDMDL
MODEL 3
REMARK VINA RESULT:     -10.8      4.701     10.635
REMARK SMILES O=C(OCCOCCOC(=O)c1cc(/C=C/c2cc(O)cc(O)c2)ccc1O)c1ccc(-c2c3nc(c(-c4c(F)cccc4F)c4ccc([nH]4)c(-c4c(F)cccc4F)c4nc(c(-c5c(F)cccc5F)c5ccc2[nH]5)C=C4)C=C3)cc1
REMARK SMILES IDX 7 1 6 2 5 3 4 4 3 5 2 6 1 7 29 8 30 9 82 10 31 11 81 12
REMARK SMILES IDX 32 13 33 14 34 15 75 16 35 17 80 18 74 19 76 20 36 21 79 22
REMARK SMILES IDX 73 23 72 24 37 26 63 27 46 28 62 29 47 30 50 31 61 32 77 33
REMARK SMILES IDX 48 34 49 35 60 37 78 38 51 39 38 40 39 41 44 42 40 43 41 44
REMARK SMILES IDX 43 45 45 46 42 47 64 48 65 49 70 50 66 51 67 52 69 53 71 54
REMARK SMILES IDX 68 55 52 56 53 57 58 58 54 59 55 60 57 61 59 62 56 63 8 64
REMARK SMILES IDX 9 65 10 66 11 67 12 68 13 69 27 70 14 71 26 72 25 73 28 74
REMARK SMILES IDX 15 76 16 77 17 78 18 79 24 80 19 81 22 82 21 83 20 84 23 86
REMARK H PARENT 76 25 50 36 28 75 20 85 23 87
REMARK Flexibility Score: inf
ROOT
ATOM      1  C   UNL A   1      32.803  36.417  30.215  1.00  0.00     0.202 C 
ENDROOT
BRANCH   1   2
ATOM      2  O   UNL A   1      32.718  35.007  29.976  1.00  0.00    -0.374 OA
BRANCH   2   3
ATOM      3  C   UNL A   1      33.291  34.549  28.754  1.00  0.00     0.202 C 
BRANCH   3   4
ATOM      4  C   UNL A   1      34.557  33.707  28.938  1.00  0.00     0.261 C 
BRANCH   4   5
ATOM      5  O   UNL A   1      34.222  32.313  29.052  1.00  0.00    -0.460 OA
BRANCH   5   6
ATOM      6  C   UNL A   1      34.765  31.264  28.391  1.00  0.00     0.338 C 
ATOM      7  O   UNL A   1      34.134  30.761  27.463  1.00  0.00    -0.246 OA
BRANCH   6   8
ATOM      8  C   UNL A   1      36.093  30.669  28.733  1.00  0.00     0.060 A 
ATOM      9  C   UNL A   1      37.320  31.163  28.291  1.00  0.00     0.016 A 
ATOM     10  C   UNL A   1      36.107  29.607  29.653  1.00  0.00     0.016 A 
ATOM     11  C   UNL A   1      38.522  30.620  28.710  1.00  0.00     0.010 A 
ATOM     12  C   UNL A   1      37.316  29.074  30.116  1.00  0.00     0.010 A 
ATOM     13  C   UNL A   1      38.526  29.589  29.643  1.00  0.00    -0.014 A 
BRANCH  13  14
ATOM     14  C   UNL A   1      39.834  29.058  30.053  1.00  0.00     0.031 A 
ATOM     15  C   UNL A   1      40.475  29.606  31.287  1.00  0.00     0.074 A 
ATOM     16  C   UNL A   1      40.343  28.000  29.395  1.00  0.00     0.049 A 
ATOM     17  N   UNL A   1      41.628  29.308  31.818  1.00  0.00    -0.248 NA
ATOM     18  C   UNL A   1      39.704  30.614  32.035  1.00  0.00     0.031 C 
ATOM     19  C   UNL A   1      39.702  27.327  28.259  1.00  0.00     0.029 A 
ATOM     20  N   UNL A   1      41.489  27.283  29.600  1.00  0.00    -0.354 N 
ATOM     21  C   UNL A   1      41.737  30.111  32.943  1.00  0.00     0.074 A 
ATOM     22  C   UNL A   1      40.531  30.904  33.028  1.00  0.00     0.031 C 
ATOM     23  C   UNL A   1      40.460  26.286  27.882  1.00  0.00     0.029 A 
ATOM     24  C   UNL A   1      41.667  26.264  28.696  1.00  0.00     0.049 A 
ATOM     25  H   UNL A   1      42.125  27.478  30.326  1.00  0.00     0.167 HD
ATOM     26  C   UNL A   1      42.768  30.179  33.815  1.00  0.00     0.037 A 
ATOM     27  C   UNL A   1      42.718  25.440  28.526  1.00  0.00     0.037 A 
ATOM     28  C   UNL A   1      43.950  29.369  33.699  1.00  0.00     0.049 A 
ATOM     29  C   UNL A   1      43.891  25.608  29.453  1.00  0.00     0.074 A 
ATOM     30  C   UNL A   1      45.087  29.379  34.483  1.00  0.00     0.029 A 
ATOM     31  N   UNL A   1      44.138  28.397  32.724  1.00  0.00    -0.354 N 
ATOM     32  N   UNL A   1      44.020  26.412  30.484  1.00  0.00    -0.248 NA
ATOM     33  C   UNL A   1      45.072  24.779  29.185  1.00  0.00     0.031 C 
ATOM     34  C   UNL A   1      45.984  28.446  33.953  1.00  0.00     0.029 A 
ATOM     35  C   UNL A   1      45.385  27.818  32.870  1.00  0.00     0.049 A 
ATOM     36  H   UNL A   1      43.481  28.157  32.032  1.00  0.00     0.167 HD
ATOM     37  C   UNL A   1      45.289  26.178  30.994  1.00  0.00     0.074 A 
ATOM     38  C   UNL A   1      45.878  25.136  30.174  1.00  0.00     0.031 C 
ATOM     39  C   UNL A   1      45.922  26.775  32.034  1.00  0.00     0.037 A 
BRANCH  26  40
ATOM     40  C   UNL A   1      42.687  31.210  34.898  1.00  0.00     0.057 A 
ATOM     41  C   UNL A   1      43.082  32.539  34.701  1.00  0.00     0.134 A 
ATOM     42  C   UNL A   1      42.211  30.857  36.168  1.00  0.00     0.134 A 
ATOM     43  F   UNL A   1      43.576  32.933  33.519  1.00  0.00    -0.206 F 
ATOM     44  C   UNL A   1      43.019  33.477  35.733  1.00  0.00     0.040 A 
ATOM     45  C   UNL A   1      42.124  31.792  37.201  1.00  0.00     0.040 A 
ATOM     46  F   UNL A   1      41.826  29.599  36.425  1.00  0.00    -0.206 F 
ATOM     47  C   UNL A   1      42.533  33.106  36.986  1.00  0.00     0.006 A 
ENDBRANCH  26  40
BRANCH  27  48
ATOM     48  C   UNL A   1      42.749  24.459  27.409  1.00  0.00     0.057 A 
ATOM     49  C   UNL A   1      42.306  23.142  27.575  1.00  0.00     0.134 A 
ATOM     50  C   UNL A   1      43.269  24.804  26.153  1.00  0.00     0.134 A 
ATOM     51  F   UNL A   1      41.816  22.737  28.755  1.00  0.00    -0.206 F 
ATOM     52  C   UNL A   1      42.406  22.199  26.547  1.00  0.00     0.040 A 
ATOM     53  C   UNL A   1      43.346  23.882  25.108  1.00  0.00     0.040 A 
ATOM     54  F   UNL A   1      43.714  26.048  25.922  1.00  0.00    -0.206 F 
ATOM     55  C   UNL A   1      42.925  22.570  25.308  1.00  0.00     0.006 A 
ENDBRANCH  27  48
BRANCH  39  56
ATOM     56  C   UNL A   1      47.303  26.288  32.347  1.00  0.00     0.057 A 
ATOM     57  C   UNL A   1      47.525  25.243  33.252  1.00  0.00     0.134 A 
ATOM     58  C   UNL A   1      48.414  26.840  31.700  1.00  0.00     0.134 A 
ATOM     59  F   UNL A   1      46.500  24.685  33.913  1.00  0.00    -0.206 F 
ATOM     60  C   UNL A   1      48.813  24.776  33.517  1.00  0.00     0.040 A 
ATOM     61  C   UNL A   1      49.702  26.363  31.935  1.00  0.00     0.040 A 
ATOM     62  F   UNL A   1      48.262  27.838  30.815  1.00  0.00    -0.206 F 
ATOM     63  C   UNL A   1      49.903  25.331  32.850  1.00  0.00     0.006 A 
ENDBRANCH  39  56
ENDBRANCH  13  14
ENDBRANCH   6   8
ENDBRANCH   5   6
ENDBRANCH   4   5
ENDBRANCH   3   4
ENDBRANCH   2   3
ENDBRANCH   1   2
BRANCH   1  64
ATOM     64  C   UNL A   1      32.547  36.680  31.699  1.00  0.00     0.261 C 
BRANCH  64  65
ATOM     65  O   UNL A   1      32.985  35.521  32.421  1.00  0.00    -0.460 OA
BRANCH  65  66
ATOM     66  C   UNL A   1      34.186  35.631  33.052  1.00  0.00     0.342 C 
ATOM     67  O   UNL A   1      34.467  36.358  33.982  1.00  0.00    -0.246 OA
BRANCH  66  68
ATOM     68  C   UNL A   1      35.040  34.509  32.593  1.00  0.00     0.102 A 
ATOM     69  C   UNL A   1      36.347  34.819  32.165  1.00  0.00     0.027 A 
ATOM     70  C   UNL A   1      34.623  33.177  32.660  1.00  0.00     0.130 A 
ATOM     71  C   UNL A   1      37.254  33.798  31.855  1.00  0.00    -0.025 A 
ATOM     72  C   UNL A   1      35.506  32.156  32.327  1.00  0.00     0.048 A 
ATOM     73  C   UNL A   1      36.810  32.469  31.933  1.00  0.00     0.012 A 
BRANCH  70  74
ATOM     74  O   UNL A   1      33.347  32.860  33.030  1.00  0.00    -0.507 OA
ATOM     75  H   UNL A   1      32.884  32.179  32.581  1.00  0.00     0.293 HD
ENDBRANCH  70  74
BRANCH  71  76
ATOM     76  C   UNL A   1      38.633  34.026  31.390  1.00  0.00     0.009 C 
ATOM     77  C   UNL A   1      39.131  33.799  30.162  1.00  0.00     0.009 C 
BRANCH  77  78
ATOM     78  C   UNL A   1      40.541  34.093  29.834  1.00  0.00    -0.018 A 
ATOM     79  C   UNL A   1      40.893  35.241  29.104  1.00  0.00     0.054 A 
ATOM     80  C   UNL A   1      41.558  33.233  30.274  1.00  0.00     0.054 A 
ATOM     81  C   UNL A   1      42.227  35.493  28.792  1.00  0.00     0.119 A 
ATOM     82  C   UNL A   1      42.891  33.509  29.954  1.00  0.00     0.119 A 
ATOM     83  C   UNL A   1      43.231  34.631  29.210  1.00  0.00     0.092 A 
BRANCH  81  84
ATOM     84  O   UNL A   1      42.591  36.592  28.069  1.00  0.00    -0.508 OA
ATOM     85  H   UNL A   1      42.055  36.882  27.357  1.00  0.00     0.293 HD
ENDBRANCH  81  84
BRANCH  82  86
ATOM     86  O   UNL A   1      43.905  32.688  30.352  1.00  0.00    -0.508 OA
ATOM     87  H   UNL A   1      43.962  32.415  31.247  1.00  0.00     0.293 HD
ENDBRANCH  82  86
ENDBRANCH  77  78
ENDBRANCH  71  76
ENDBRANCH  66  68
ENDBRANCH  65  66
ENDBRANCH  64  65
ENDBRANCH   1  64
TORSDOF 19
ENDMDL
