MODEL 1
REMARK VINA RESULT:     -10.0      0.000      0.000
REMARK SMILES CCC(CC)(C(=O)OCCOCCOC(=O)c1ccc(-c2c3nc(c(-c4c(F)cccc4F)c4ccc([nH]4)c(-c4c(F)cccc4F)c4nc(c(-c5c(F)cccc5F)c5ccc2[nH]5)C=C4)C=C3)cc1)n1nnnc1CC[C@@H]1CCCO1
REMARK SMILES IDX 10 1 9 2 8 3 6 4 7 5 3 6 2 7 1 8 4 9 5 10 71 11 72 12 75 13
REMARK SMILES IDX 73 14 74 15 76 16 77 17 78 18 79 19 82 20 80 21 81 22 11 23
REMARK SMILES IDX 12 24 13 25 14 26 15 27 16 28 17 29 18 30 70 31 19 32 69 33
REMARK SMILES IDX 20 34 21 35 22 36 63 37 23 38 68 39 62 40 64 41 24 42 67 43
REMARK SMILES IDX 61 44 60 45 25 47 51 48 34 49 50 50 35 51 38 52 49 53 65 54
REMARK SMILES IDX 36 55 37 56 48 58 66 59 39 60 26 61 27 62 32 63 28 64 29 65
REMARK SMILES IDX 31 66 33 67 30 68 52 69 53 70 58 71 54 72 55 73 57 74 59 75
REMARK SMILES IDX 56 76 40 77 41 78 46 79 42 80 43 81 45 82 47 83 44 84
REMARK H PARENT 64 46 38 57
REMARK Flexibility Score: inf
ROOT
ATOM      1  C   UNL A   1      37.122  22.086  24.350  1.00  0.00     0.202 C 
ENDROOT
BRANCH   1   2
ATOM      2  C   UNL A   1      35.596  22.203  24.272  1.00  0.00     0.261 C 
BRANCH   2   3
ATOM      3  O   UNL A   1      35.118  23.540  24.523  1.00  0.00    -0.461 OA
BRANCH   3   4
ATOM      4  C   UNL A   1      34.420  23.696  25.687  1.00  0.00     0.334 C 
ATOM      5  O   UNL A   1      34.792  23.227  26.756  1.00  0.00    -0.249 OA
BRANCH   4   6
ATOM      6  C   UNL A   1      33.095  24.472  25.501  1.00  0.00     0.163 C 
BRANCH   6   7
ATOM      7  C   UNL A   1      33.119  25.895  26.125  1.00  0.00     0.039 C 
ATOM      8  C   UNL A   1      33.661  26.984  25.203  1.00  0.00     0.007 C 
ENDBRANCH   6   7
BRANCH   6   9
ATOM      9  C   UNL A   1      32.903  24.592  23.942  1.00  0.00     0.039 C 
ATOM     10  C   UNL A   1      31.492  24.918  23.456  1.00  0.00     0.007 C 
ENDBRANCH   6   9
BRANCH   6  11
ATOM     11  N   UNL A   1      32.043  23.601  26.076  1.00  0.00    -0.212 N 
ATOM     12  N   UNL A   1      31.364  24.058  27.157  1.00  0.00    -0.044 NA
ATOM     13  C   UNL A   1      31.410  22.442  25.646  1.00  0.00     0.152 A 
ATOM     14  N   UNL A   1      30.274  23.324  27.251  1.00  0.00    -0.024 NA
ATOM     15  N   UNL A   1      30.277  22.340  26.314  1.00  0.00    -0.114 NA
BRANCH  13  16
ATOM     16  C   UNL A   1      31.817  21.431  24.636  1.00  0.00     0.082 C 
BRANCH  16  17
ATOM     17  C   UNL A   1      32.661  20.283  25.204  1.00  0.00     0.040 C 
BRANCH  17  18
ATOM     18  C   UNL A   1      33.263  19.334  24.161  1.00  0.00     0.118 C 
ATOM     19  C   UNL A   1      32.509  18.031  23.942  1.00  0.00     0.034 C 
ATOM     20  O   UNL A   1      34.570  18.926  24.628  1.00  0.00    -0.378 OA
ATOM     21  C   UNL A   1      33.600  17.130  23.422  1.00  0.00     0.031 C 
ATOM     22  C   UNL A   1      34.784  17.555  24.258  1.00  0.00     0.160 C 
ENDBRANCH  17  18
ENDBRANCH  16  17
ENDBRANCH  13  16
ENDBRANCH   6  11
ENDBRANCH   4   6
ENDBRANCH   3   4
ENDBRANCH   2   3
ENDBRANCH   1   2
BRANCH   1  23
ATOM     23  O   UNL A   1      37.777  22.827  25.374  1.00  0.00    -0.374 OA
BRANCH  23  24
ATOM     24  C   UNL A   1      38.787  22.163  26.129  1.00  0.00     0.202 C 
BRANCH  24  25
ATOM     25  C   UNL A   1      39.158  20.741  25.695  1.00  0.00     0.261 C 
BRANCH  25  26
ATOM     26  O   UNL A   1      39.928  20.061  26.703  1.00  0.00    -0.460 OA
BRANCH  26  27
ATOM     27  C   UNL A   1      41.208  19.801  26.346  1.00  0.00     0.338 C 
ATOM     28  O   UNL A   1      41.627  18.815  25.755  1.00  0.00    -0.246 OA
BRANCH  27  29
ATOM     29  C   UNL A   1      42.063  20.973  26.602  1.00  0.00     0.060 A 
ATOM     30  C   UNL A   1      42.219  21.371  27.935  1.00  0.00     0.016 A 
ATOM     31  C   UNL A   1      42.613  21.728  25.564  1.00  0.00     0.016 A 
ATOM     32  C   UNL A   1      42.869  22.565  28.235  1.00  0.00     0.010 A 
ATOM     33  C   UNL A   1      43.259  22.932  25.866  1.00  0.00     0.010 A 
ATOM     34  C   UNL A   1      43.349  23.375  27.199  1.00  0.00    -0.014 A 
BRANCH  34  35
ATOM     35  C   UNL A   1      43.780  24.759  27.511  1.00  0.00     0.031 A 
ATOM     36  C   UNL A   1      42.740  25.776  27.892  1.00  0.00     0.074 A 
ATOM     37  C   UNL A   1      45.083  25.090  27.510  1.00  0.00     0.049 A 
ATOM     38  N   UNL A   1      42.887  27.039  28.203  1.00  0.00    -0.248 NA
ATOM     39  C   UNL A   1      41.345  25.306  27.928  1.00  0.00     0.031 C 
ATOM     40  C   UNL A   1      46.185  24.182  27.202  1.00  0.00     0.029 A 
ATOM     41  N   UNL A   1      45.696  26.288  27.781  1.00  0.00    -0.354 N 
ATOM     42  C   UNL A   1      41.609  27.513  28.470  1.00  0.00     0.074 A 
ATOM     43  C   UNL A   1      40.694  26.413  28.252  1.00  0.00     0.031 C 
ATOM     44  C   UNL A   1      47.344  24.858  27.292  1.00  0.00     0.029 A 
ATOM     45  C   UNL A   1      47.061  26.250  27.639  1.00  0.00     0.049 A 
ATOM     46  H   UNL A   1      45.204  27.096  28.051  1.00  0.00     0.167 HD
ATOM     47  C   UNL A   1      41.231  28.749  28.872  1.00  0.00     0.037 A 
ATOM     48  C   UNL A   1      47.974  27.232  27.760  1.00  0.00     0.037 A 
ATOM     49  C   UNL A   1      42.141  29.842  29.090  1.00  0.00     0.049 A 
ATOM     50  C   UNL A   1      47.523  28.617  28.143  1.00  0.00     0.074 A 
ATOM     51  C   UNL A   1      41.858  31.130  29.508  1.00  0.00     0.029 A 
ATOM     52  N   UNL A   1      43.513  29.774  28.902  1.00  0.00    -0.354 N 
ATOM     53  N   UNL A   1      46.315  29.049  28.410  1.00  0.00    -0.248 NA
ATOM     54  C   UNL A   1      48.565  29.648  28.245  1.00  0.00     0.031 C 
ATOM     55  C   UNL A   1      43.055  31.854  29.531  1.00  0.00     0.029 A 
ATOM     56  C   UNL A   1      44.089  31.004  29.172  1.00  0.00     0.049 A 
ATOM     57  H   UNL A   1      44.005  28.970  28.618  1.00  0.00     0.167 HD
ATOM     58  C   UNL A   1      46.453  30.392  28.735  1.00  0.00     0.074 A 
ATOM     59  C   UNL A   1      47.865  30.702  28.643  1.00  0.00     0.031 C 
ATOM     60  C   UNL A   1      45.497  31.291  29.079  1.00  0.00     0.037 A 
BRANCH  47  61
ATOM     61  C   UNL A   1      39.765  28.989  29.080  1.00  0.00     0.057 A 
ATOM     62  C   UNL A   1      38.913  29.330  28.021  1.00  0.00     0.134 A 
ATOM     63  C   UNL A   1      39.194  28.853  30.352  1.00  0.00     0.134 A 
ATOM     64  F   UNL A   1      39.401  29.491  26.782  1.00  0.00    -0.206 F 
ATOM     65  C   UNL A   1      37.549  29.549  28.224  1.00  0.00     0.040 A 
ATOM     66  C   UNL A   1      37.827  29.045  30.563  1.00  0.00     0.040 A 
ATOM     67  F   UNL A   1      39.952  28.525  31.409  1.00  0.00    -0.206 F 
ATOM     68  C   UNL A   1      37.002  29.400  29.497  1.00  0.00     0.006 A 
ENDBRANCH  47  61
BRANCH  48  69
ATOM     69  C   UNL A   1      49.407  26.946  27.504  1.00  0.00     0.057 A 
ATOM     70  C   UNL A   1      49.944  27.012  26.214  1.00  0.00     0.134 A 
ATOM     71  C   UNL A   1      50.271  26.585  28.545  1.00  0.00     0.134 A 
ATOM     72  F   UNL A   1      49.159  27.330  25.173  1.00  0.00    -0.206 F 
ATOM     73  C   UNL A   1      51.286  26.718  25.965  1.00  0.00     0.040 A 
ATOM     74  C   UNL A   1      51.620  26.311  28.314  1.00  0.00     0.040 A 
ATOM     75  F   UNL A   1      49.818  26.504  29.805  1.00  0.00    -0.206 F 
ATOM     76  C   UNL A   1      52.129  26.371  27.018  1.00  0.00     0.006 A 
ENDBRANCH  48  69
BRANCH  60  77
ATOM     77  C   UNL A   1      45.950  32.682  29.410  1.00  0.00     0.057 A 
ATOM     78  C   UNL A   1      45.999  33.692  28.442  1.00  0.00     0.134 A 
ATOM     79  C   UNL A   1      46.299  33.025  30.723  1.00  0.00     0.134 A 
ATOM     80  F   UNL A   1      45.689  33.426  27.164  1.00  0.00    -0.206 F 
ATOM     81  C   UNL A   1      46.401  34.991  28.763  1.00  0.00     0.040 A 
ATOM     82  C   UNL A   1      46.679  34.324  31.061  1.00  0.00     0.040 A 
ATOM     83  F   UNL A   1      46.264  32.106  31.699  1.00  0.00    -0.206 F 
ATOM     84  C   UNL A   1      46.735  35.310  30.078  1.00  0.00     0.006 A 
ENDBRANCH  60  77
ENDBRANCH  34  35
ENDBRANCH  27  29
ENDBRANCH  26  27
ENDBRANCH  25  26
ENDBRANCH  24  25
ENDBRANCH  23  24
ENDBRANCH   1  23
TORSDOF 20
ENDMDL
MODEL 2
REMARK VINA RESULT:     -10.0      4.849      7.396
REMARK SMILES CCC(CC)(C(=O)OCCOCCOC(=O)c1ccc(-c2c3nc(c(-c4c(F)cccc4F)c4ccc([nH]4)c(-c4c(F)cccc4F)c4nc(c(-c5c(F)cccc5F)c5ccc2[nH]5)C=C4)C=C3)cc1)n1nnnc1CC[C@@H]1CCCO1
REMARK SMILES IDX 10 1 9 2 8 3 6 4 7 5 3 6 2 7 1 8 4 9 5 10 71 11 72 12 75 13
REMARK SMILES IDX 73 14 74 15 76 16 77 17 78 18 79 19 82 20 80 21 81 22 11 23
REMARK SMILES IDX 12 24 13 25 14 26 15 27 16 28 17 29 18 30 70 31 19 32 69 33
REMARK SMILES IDX 20 34 21 35 22 36 63 37 23 38 68 39 62 40 64 41 24 42 67 43
REMARK SMILES IDX 61 44 60 45 25 47 51 48 34 49 50 50 35 51 38 52 49 53 65 54
REMARK SMILES IDX 36 55 37 56 48 58 66 59 39 60 26 61 27 62 32 63 28 64 29 65
REMARK SMILES IDX 31 66 33 67 30 68 52 69 53 70 58 71 54 72 55 73 57 74 59 75
REMARK SMILES IDX 56 76 40 77 41 78 46 79 42 80 43 81 45 82 47 83 44 84
REMARK H PARENT 64 46 38 57
REMARK Flexibility Score: inf
ROOT
ATOM      1  C   UNL A   1      37.929  22.199  25.481  1.00  0.00     0.202 C 
ENDROOT
BRANCH   1   2
ATOM      2  C   UNL A   1      36.917  23.329  25.267  1.00  0.00     0.261 C 
BRANCH   2   3
ATOM      3  O   UNL A   1      35.668  22.871  24.711  1.00  0.00    -0.461 OA
BRANCH   3   4
ATOM      4  C   UNL A   1      34.638  22.776  25.604  1.00  0.00     0.334 C 
ATOM      5  O   UNL A   1      34.790  22.894  26.814  1.00  0.00    -0.249 OA
BRANCH   4   6
ATOM      6  C   UNL A   1      33.282  22.451  24.934  1.00  0.00     0.163 C 
BRANCH   6   7
ATOM      7  C   UNL A   1      33.283  22.673  23.396  1.00  0.00     0.039 C 
ATOM      8  C   UNL A   1      32.227  21.873  22.637  1.00  0.00     0.007 C 
ENDBRANCH   6   7
BRANCH   6   9
ATOM      9  C   UNL A   1      33.028  20.926  25.238  1.00  0.00     0.039 C 
ATOM     10  C   UNL A   1      34.206  19.983  24.999  1.00  0.00     0.007 C 
ENDBRANCH   6   9
BRANCH   6  11
ATOM     11  N   UNL A   1      32.281  23.283  25.643  1.00  0.00    -0.212 N 
ATOM     12  N   UNL A   1      31.412  22.655  26.473  1.00  0.00    -0.044 NA
ATOM     13  C   UNL A   1      32.120  24.649  25.826  1.00  0.00     0.152 A 
ATOM     14  N   UNL A   1      30.897  23.588  27.249  1.00  0.00    -0.024 NA
ATOM     15  N   UNL A   1      31.340  24.817  26.877  1.00  0.00    -0.114 NA
BRANCH  13  16
ATOM     16  C   UNL A   1      32.665  25.802  25.064  1.00  0.00     0.082 C 
BRANCH  16  17
ATOM     17  C   UNL A   1      33.854  26.496  25.742  1.00  0.00     0.040 C 
BRANCH  17  18
ATOM     18  C   UNL A   1      33.634  27.969  26.104  1.00  0.00     0.118 C 
ATOM     19  C   UNL A   1      32.628  28.231  27.215  1.00  0.00     0.034 C 
ATOM     20  O   UNL A   1      33.082  28.639  24.947  1.00  0.00    -0.378 OA
ATOM     21  C   UNL A   1      32.183  29.637  26.899  1.00  0.00     0.031 C 
ATOM     22  C   UNL A   1      32.131  29.619  25.390  1.00  0.00     0.160 C 
ENDBRANCH  17  18
ENDBRANCH  16  17
ENDBRANCH  13  16
ENDBRANCH   6  11
ENDBRANCH   4   6
ENDBRANCH   3   4
ENDBRANCH   2   3
ENDBRANCH   1   2
BRANCH   1  23
ATOM     23  O   UNL A   1      38.968  22.429  26.426  1.00  0.00    -0.374 OA
BRANCH  23  24
ATOM     24  C   UNL A   1      40.100  21.565  26.390  1.00  0.00     0.202 C 
BRANCH  24  25
ATOM     25  C   UNL A   1      41.475  22.226  26.244  1.00  0.00     0.261 C 
BRANCH  25  26
ATOM     26  O   UNL A   1      41.632  23.334  27.149  1.00  0.00    -0.460 OA
BRANCH  26  27
ATOM     27  C   UNL A   1      41.859  24.523  26.541  1.00  0.00     0.338 C 
ATOM     28  O   UNL A   1      42.262  24.706  25.401  1.00  0.00    -0.246 OA
BRANCH  27  29
ATOM     29  C   UNL A   1      41.377  25.632  27.381  1.00  0.00     0.060 A 
ATOM     30  C   UNL A   1      42.147  26.802  27.399  1.00  0.00     0.016 A 
ATOM     31  C   UNL A   1      40.261  25.501  28.211  1.00  0.00     0.016 A 
ATOM     32  C   UNL A   1      41.847  27.820  28.298  1.00  0.00     0.010 A 
ATOM     33  C   UNL A   1      39.965  26.524  29.120  1.00  0.00     0.010 A 
ATOM     34  C   UNL A   1      40.783  27.666  29.196  1.00  0.00    -0.014 A 
BRANCH  34  35
ATOM     35  C   UNL A   1      40.650  28.621  30.322  1.00  0.00     0.031 A 
ATOM     36  C   UNL A   1      39.600  29.695  30.243  1.00  0.00     0.074 A 
ATOM     37  C   UNL A   1      41.414  28.500  31.421  1.00  0.00     0.049 A 
ATOM     38  N   UNL A   1      39.306  30.634  31.106  1.00  0.00    -0.248 NA
ATOM     39  C   UNL A   1      38.767  29.711  29.029  1.00  0.00     0.031 C 
ATOM     40  C   UNL A   1      42.434  27.475  31.633  1.00  0.00     0.029 A 
ATOM     41  N   UNL A   1      41.445  29.251  32.569  1.00  0.00    -0.354 N 
ATOM     42  C   UNL A   1      38.259  31.351  30.540  1.00  0.00     0.074 A 
ATOM     43  C   UNL A   1      37.990  30.761  29.247  1.00  0.00     0.031 C 
ATOM     44  C   UNL A   1      43.000  27.666  32.837  1.00  0.00     0.029 A 
ATOM     45  C   UNL A   1      42.399  28.840  33.468  1.00  0.00     0.049 A 
ATOM     46  H   UNL A   1      40.842  30.010  32.733  1.00  0.00     0.167 HD
ATOM     47  C   UNL A   1      37.575  32.400  31.056  1.00  0.00     0.037 A 
ATOM     48  C   UNL A   1      42.756  29.364  34.656  1.00  0.00     0.037 A 
ATOM     49  C   UNL A   1      37.842  32.985  32.343  1.00  0.00     0.049 A 
ATOM     50  C   UNL A   1      42.025  30.573  35.180  1.00  0.00     0.074 A 
ATOM     51  C   UNL A   1      37.198  34.043  32.960  1.00  0.00     0.029 A 
ATOM     52  N   UNL A   1      38.839  32.563  33.209  1.00  0.00    -0.354 N 
ATOM     53  N   UNL A   1      41.026  31.231  34.645  1.00  0.00    -0.248 NA
ATOM     54  C   UNL A   1      42.470  31.106  36.475  1.00  0.00     0.031 C 
ATOM     55  C   UNL A   1      37.834  34.289  34.182  1.00  0.00     0.029 A 
ATOM     56  C   UNL A   1      38.845  33.355  34.345  1.00  0.00     0.049 A 
ATOM     57  H   UNL A   1      39.453  31.812  33.040  1.00  0.00     0.167 HD
ATOM     58  C   UNL A   1      40.707  32.239  35.545  1.00  0.00     0.074 A 
ATOM     59  C   UNL A   1      41.611  32.098  36.668  1.00  0.00     0.031 C 
ATOM     60  C   UNL A   1      39.750  33.196  35.454  1.00  0.00     0.037 A 
BRANCH  47  61
ATOM     61  C   UNL A   1      36.485  32.993  30.214  1.00  0.00     0.057 A 
ATOM     62  C   UNL A   1      35.131  32.746  30.474  1.00  0.00     0.134 A 
ATOM     63  C   UNL A   1      36.794  33.842  29.143  1.00  0.00     0.134 A 
ATOM     64  F   UNL A   1      34.770  31.930  31.476  1.00  0.00    -0.206 F 
ATOM     65  C   UNL A   1      34.123  33.305  29.686  1.00  0.00     0.040 A 
ATOM     66  C   UNL A   1      35.793  34.426  28.362  1.00  0.00     0.040 A 
ATOM     67  F   UNL A   1      38.070  34.122  28.840  1.00  0.00    -0.206 F 
ATOM     68  C   UNL A   1      34.454  34.153  28.630  1.00  0.00     0.006 A 
ENDBRANCH  47  61
BRANCH  48  69
ATOM     69  C   UNL A   1      43.868  28.758  35.428  1.00  0.00     0.057 A 
ATOM     70  C   UNL A   1      43.627  27.839  36.454  1.00  0.00     0.134 A 
ATOM     71  C   UNL A   1      45.201  29.097  35.165  1.00  0.00     0.134 A 
ATOM     72  F   UNL A   1      42.369  27.493  36.767  1.00  0.00    -0.206 F 
ATOM     73  C   UNL A   1      44.669  27.287  37.201  1.00  0.00     0.040 A 
ATOM     74  C   UNL A   1      46.254  28.536  35.888  1.00  0.00     0.040 A 
ATOM     75  F   UNL A   1      45.499  29.973  34.193  1.00  0.00    -0.206 F 
ATOM     76  C   UNL A   1      45.988  27.632  36.914  1.00  0.00     0.006 A 
ENDBRANCH  48  69
BRANCH  60  77
ATOM     77  C   UNL A   1      39.615  34.144  36.608  1.00  0.00     0.057 A 
ATOM     78  C   UNL A   1      40.214  35.409  36.600  1.00  0.00     0.134 A 
ATOM     79  C   UNL A   1      38.837  33.803  37.724  1.00  0.00     0.134 A 
ATOM     80  F   UNL A   1      40.981  35.791  35.566  1.00  0.00    -0.206 F 
ATOM     81  C   UNL A   1      40.065  36.294  37.669  1.00  0.00     0.040 A 
ATOM     82  C   UNL A   1      38.661  34.688  38.787  1.00  0.00     0.040 A 
ATOM     83  F   UNL A   1      38.228  32.610  37.789  1.00  0.00    -0.206 F 
ATOM     84  C   UNL A   1      39.280  35.936  38.764  1.00  0.00     0.006 A 
ENDBRANCH  60  77
ENDBRANCH  34  35
ENDBRANCH  27  29
ENDBRANCH  26  27
ENDBRANCH  25  26
ENDBRANCH  24  25
ENDBRANCH  23  24
ENDBRANCH   1  23
TORSDOF 20
ENDMDL
MODEL 3
REMARK VINA RESULT:     -10.0      0.711      6.245
REMARK SMILES CCC(CC)(C(=O)OCCOCCOC(=O)c1ccc(-c2c3nc(c(-c4c(F)cccc4F)c4ccc([nH]4)c(-c4c(F)cccc4F)c4nc(c(-c5c(F)cccc5F)c5ccc2[nH]5)C=C4)C=C3)cc1)n1nnnc1CC[C@@H]1CCCO1
REMARK SMILES IDX 10 1 9 2 8 3 6 4 7 5 3 6 2 7 1 8 4 9 5 10 71 11 72 12 75 13
REMARK SMILES IDX 73 14 74 15 76 16 77 17 78 18 79 19 82 20 80 21 81 22 11 23
REMARK SMILES IDX 12 24 13 25 14 26 15 27 16 28 17 29 18 30 70 31 19 32 69 33
REMARK SMILES IDX 20 34 21 35 22 36 63 37 23 38 68 39 62 40 64 41 24 42 67 43
REMARK SMILES IDX 61 44 60 45 25 47 51 48 34 49 50 50 35 51 38 52 49 53 65 54
REMARK SMILES IDX 36 55 37 56 48 58 66 59 39 60 26 61 27 62 32 63 28 64 29 65
REMARK SMILES IDX 31 66 33 67 30 68 52 69 53 70 58 71 54 72 55 73 57 74 59 75
REMARK SMILES IDX 56 76 40 77 41 78 46 79 42 80 43 81 45 82 47 83 44 84
REMARK H PARENT 64 46 38 57
REMARK Flexibility Score: inf
ROOT
ATOM      1  C   UNL A   1      37.000  21.976  24.353  1.00  0.00     0.202 C 
ENDROOT
BRANCH   1   2
ATOM      2  C   UNL A   1      36.607  23.295  25.027  1.00  0.00     0.261 C 
BRANCH   2   3
ATOM      3  O   UNL A   1      35.246  23.685  24.756  1.00  0.00    -0.461 OA
BRANCH   3   4
ATOM      4  C   UNL A   1      34.418  23.690  25.842  1.00  0.00     0.334 C 
ATOM      5  O   UNL A   1      34.718  23.174  26.912  1.00  0.00    -0.249 OA
BRANCH   4   6
ATOM      6  C   UNL A   1      33.054  24.361  25.563  1.00  0.00     0.163 C 
BRANCH   6   7
ATOM      7  C   UNL A   1      32.946  25.804  26.131  1.00  0.00     0.039 C 
ATOM      8  C   UNL A   1      34.000  26.775  25.603  1.00  0.00     0.007 C 
ENDBRANCH   6   7
BRANCH   6   9
ATOM      9  C   UNL A   1      32.933  24.412  23.993  1.00  0.00     0.039 C 
ATOM     10  C   UNL A   1      31.599  24.898  23.431  1.00  0.00     0.007 C 
ENDBRANCH   6   9
BRANCH   6  11
ATOM     11  N   UNL A   1      32.037  23.438  26.120  1.00  0.00    -0.212 N 
ATOM     12  N   UNL A   1      31.300  23.870  27.173  1.00  0.00    -0.044 NA
ATOM     13  C   UNL A   1      31.487  22.238  25.691  1.00  0.00     0.152 A 
ATOM     14  N   UNL A   1      30.253  23.075  27.247  1.00  0.00    -0.024 NA
ATOM     15  N   UNL A   1      30.342  22.079  26.327  1.00  0.00    -0.114 NA
BRANCH  13  16
ATOM     16  C   UNL A   1      31.982  21.238  24.711  1.00  0.00     0.082 C 
BRANCH  16  17
ATOM     17  C   UNL A   1      33.214  20.455  25.182  1.00  0.00     0.040 C 
BRANCH  17  18
ATOM     18  C   UNL A   1      33.197  18.955  24.867  1.00  0.00     0.118 C 
ATOM     19  C   UNL A   1      34.513  18.370  24.377  1.00  0.00     0.034 C 
ATOM     20  O   UNL A   1      32.272  18.735  23.777  1.00  0.00    -0.378 OA
ATOM     21  C   UNL A   1      34.042  17.170  23.595  1.00  0.00     0.031 C 
ATOM     22  C   UNL A   1      32.792  17.697  22.932  1.00  0.00     0.160 C 
ENDBRANCH  17  18
ENDBRANCH  16  17
ENDBRANCH  13  16
ENDBRANCH   6  11
ENDBRANCH   4   6
ENDBRANCH   3   4
ENDBRANCH   2   3
ENDBRANCH   1   2
BRANCH   1  23
ATOM     23  O   UNL A   1      36.973  20.803  25.159  1.00  0.00    -0.374 OA
BRANCH  23  24
ATOM     24  C   UNL A   1      38.063  19.894  25.043  1.00  0.00     0.202 C 
BRANCH  24  25
ATOM     25  C   UNL A   1      39.333  20.226  25.833  1.00  0.00     0.261 C 
BRANCH  25  26
ATOM     26  O   UNL A   1      40.514  19.727  25.178  1.00  0.00    -0.460 OA
BRANCH  26  27
ATOM     27  C   UNL A   1      41.529  19.415  26.019  1.00  0.00     0.338 C 
ATOM     28  O   UNL A   1      41.940  18.297  26.299  1.00  0.00    -0.246 OA
BRANCH  27  29
ATOM     29  C   UNL A   1      42.238  20.632  26.447  1.00  0.00     0.060 A 
ATOM     30  C   UNL A   1      42.083  21.026  27.782  1.00  0.00     0.016 A 
ATOM     31  C   UNL A   1      42.949  21.430  25.547  1.00  0.00     0.016 A 
ATOM     32  C   UNL A   1      42.581  22.253  28.209  1.00  0.00     0.010 A 
ATOM     33  C   UNL A   1      43.443  22.667  25.977  1.00  0.00     0.010 A 
ATOM     34  C   UNL A   1      43.221  23.101  27.297  1.00  0.00    -0.014 A 
BRANCH  34  35
ATOM     35  C   UNL A   1      43.492  24.505  27.689  1.00  0.00     0.031 A 
ATOM     36  C   UNL A   1      44.916  24.987  27.724  1.00  0.00     0.074 A 
ATOM     37  C   UNL A   1      42.483  25.352  27.956  1.00  0.00     0.049 A 
ATOM     38  N   UNL A   1      45.386  26.168  28.037  1.00  0.00    -0.248 NA
ATOM     39  C   UNL A   1      45.950  24.007  27.354  1.00  0.00     0.031 C 
ATOM     40  C   UNL A   1      41.062  25.013  27.913  1.00  0.00     0.029 A 
ATOM     41  N   UNL A   1      42.506  26.675  28.317  1.00  0.00    -0.354 N 
ATOM     42  C   UNL A   1      46.765  26.072  27.903  1.00  0.00     0.074 A 
ATOM     43  C   UNL A   1      47.061  24.710  27.513  1.00  0.00     0.031 C 
ATOM     44  C   UNL A   1      40.346  26.102  28.244  1.00  0.00     0.029 A 
ATOM     45  C   UNL A   1      41.259  27.203  28.547  1.00  0.00     0.049 A 
ATOM     46  H   UNL A   1      43.336  27.197  28.403  1.00  0.00     0.167 HD
ATOM     47  C   UNL A   1      47.701  27.035  28.078  1.00  0.00     0.037 A 
ATOM     48  C   UNL A   1      40.900  28.430  28.968  1.00  0.00     0.037 A 
ATOM     49  C   UNL A   1      47.407  28.389  28.464  1.00  0.00     0.049 A 
ATOM     50  C   UNL A   1      41.963  29.466  29.221  1.00  0.00     0.074 A 
ATOM     51  C   UNL A   1      48.285  29.442  28.656  1.00  0.00     0.029 A 
ATOM     52  N   UNL A   1      46.135  28.876  28.720  1.00  0.00    -0.354 N 
ATOM     53  N   UNL A   1      43.262  29.369  29.074  1.00  0.00    -0.248 NA
ATOM     54  C   UNL A   1      41.509  30.781  29.692  1.00  0.00     0.031 C 
ATOM     55  C   UNL A   1      47.546  30.555  29.072  1.00  0.00     0.029 A 
ATOM     56  C   UNL A   1      46.204  30.207  29.093  1.00  0.00     0.049 A 
ATOM     57  H   UNL A   1      45.304  28.352  28.649  1.00  0.00     0.167 HD
ATOM     58  C   UNL A   1      43.778  30.614  29.411  1.00  0.00     0.074 A 
ATOM     59  C   UNL A   1      42.650  31.454  29.758  1.00  0.00     0.031 C 
ATOM     60  C   UNL A   1      45.069  31.028  29.431  1.00  0.00     0.037 A 
BRANCH  47  61
ATOM     61  C   UNL A   1      49.136  26.646  27.873  1.00  0.00     0.057 A 
ATOM     62  C   UNL A   1      49.946  26.218  28.933  1.00  0.00     0.134 A 
ATOM     63  C   UNL A   1      49.708  26.679  26.594  1.00  0.00     0.134 A 
ATOM     64  F   UNL A   1      49.462  26.180  30.184  1.00  0.00    -0.206 F 
ATOM     65  C   UNL A   1      51.279  25.856  28.732  1.00  0.00     0.040 A 
ATOM     66  C   UNL A   1      51.033  26.296  26.377  1.00  0.00     0.040 A 
ATOM     67  F   UNL A   1      48.987  27.077  25.535  1.00  0.00    -0.206 F 
ATOM     68  C   UNL A   1      51.824  25.889  27.449  1.00  0.00     0.006 A 
ENDBRANCH  47  61
BRANCH  48  69
ATOM     69  C   UNL A   1      39.467  28.746  29.191  1.00  0.00     0.057 A 
ATOM     70  C   UNL A   1      38.667  29.261  28.167  1.00  0.00     0.134 A 
ATOM     71  C   UNL A   1      38.869  28.552  30.443  1.00  0.00     0.134 A 
ATOM     72  F   UNL A   1      39.189  29.490  26.952  1.00  0.00    -0.206 F 
ATOM     73  C   UNL A   1      37.325  29.585  28.380  1.00  0.00     0.040 A 
ATOM     74  C   UNL A   1      37.524  28.850  30.664  1.00  0.00     0.040 A 
ATOM     75  F   UNL A   1      39.584  28.061  31.466  1.00  0.00    -0.206 F 
ATOM     76  C   UNL A   1      36.749  29.374  29.631  1.00  0.00     0.006 A 
ENDBRANCH  48  69
BRANCH  60  77
ATOM     77  C   UNL A   1      45.328  32.455  29.813  1.00  0.00     0.057 A 
ATOM     78  C   UNL A   1      45.619  32.826  31.130  1.00  0.00     0.134 A 
ATOM     79  C   UNL A   1      45.328  33.464  28.840  1.00  0.00     0.134 A 
ATOM     80  F   UNL A   1      45.622  31.909  32.110  1.00  0.00    -0.206 F 
ATOM     81  C   UNL A   1      45.880  34.154  31.474  1.00  0.00     0.040 A 
ATOM     82  C   UNL A   1      45.611  34.791  29.166  1.00  0.00     0.040 A 
ATOM     83  F   UNL A   1      45.067  33.174  27.557  1.00  0.00    -0.206 F 
ATOM     84  C   UNL A   1      45.883  35.140  30.488  1.00  0.00     0.006 A 
ENDBRANCH  60  77
ENDBRANCH  34  35
ENDBRANCH  27  29
ENDBRANCH  26  27
ENDBRANCH  25  26
ENDBRANCH  24  25
ENDBRANCH  23  24
ENDBRANCH   1  23
TORSDOF 20
ENDMDL
