MODEL 1
REMARK VINA RESULT:     -12.2      0.000      0.000
REMARK SMILES NS(=O)(=O)c1ccc(-n2nc(C(F)(F)F)cc2-c2ccc(C(=O)OCCOCCOC(=O)c3ccc(-c4c5nc(c(-c6c(F)cccc6F)c6ccc([nH]6)c(-c6c(F)cccc6F)c6nc(c(-c7c(F)cccc7F)c7ccc4[nH]7)C=C6)C=C5)cc3)cc2)cc1
REMARK SMILES IDX 26 1 25 2 24 3 22 4 23 5 21 6 18 7 19 8 88 9 20 10 87 11
REMARK SMILES IDX 17 12 9 13 10 14 11 15 16 16 8 17 5 18 6 19 90 20 7 21 89 22
REMARK SMILES IDX 2 23 3 24 4 25 1 26 12 29 13 30 14 31 15 32 27 33 28 34
REMARK SMILES IDX 29 35 30 36 31 37 32 38 33 39 34 40 86 41 35 42 85 43 36 44
REMARK SMILES IDX 37 45 38 46 79 47 39 48 84 49 78 50 80 51 40 52 83 53 77 54
REMARK SMILES IDX 76 55 41 57 67 58 50 59 66 60 51 61 54 62 65 63 81 64 52 65
REMARK SMILES IDX 53 66 64 68 82 69 55 70 42 71 43 72 48 73 44 74 45 75 47 76
REMARK SMILES IDX 49 77 46 78 68 79 69 80 74 81 70 82 71 83 73 84 75 85 72 86
REMARK SMILES IDX 56 87 57 88 62 89 58 90 59 91 61 92 63 93 60 94
REMARK H PARENT 1 27 1 28 80 56 54 67
REMARK Flexibility Score: inf
ROOT
ATOM      1  C   UNL A   1      41.292  20.790  26.684  1.00  0.00     0.202 C 
ENDROOT
BRANCH   1   2
ATOM      2  C   UNL A   1      40.832  22.232  26.455  1.00  0.00     0.261 C 
BRANCH   2   3
ATOM      3  O   UNL A   1      39.574  22.516  27.087  1.00  0.00    -0.460 OA
BRANCH   3   4
ATOM      4  C   UNL A   1      38.734  23.270  26.339  1.00  0.00     0.338 C 
ATOM      5  O   UNL A   1      38.869  24.447  26.046  1.00  0.00    -0.246 OA
BRANCH   4   6
ATOM      6  C   UNL A   1      37.662  22.432  25.760  1.00  0.00     0.060 A 
ATOM      7  C   UNL A   1      35.553  20.764  24.984  1.00  0.00     0.000 A 
ATOM      8  C   UNL A   1      35.292  21.955  25.675  1.00  0.00     0.011 A 
ATOM      9  C   UNL A   1      36.872  20.460  24.616  1.00  0.00     0.011 A 
ATOM     10  C   UNL A   1      36.340  22.784  26.062  1.00  0.00     0.016 A 
ATOM     11  C   UNL A   1      37.927  21.296  24.994  1.00  0.00     0.016 A 
BRANCH   7  12
ATOM     12  C   UNL A   1      34.493  19.770  24.806  1.00  0.00     0.075 A 
ATOM     13  N   UNL A   1      33.124  19.983  24.903  1.00  0.00    -0.233 N 
ATOM     14  N   UNL A   1      32.436  18.819  25.040  1.00  0.00    -0.163 NA
ATOM     15  C   UNL A   1      33.352  17.847  24.866  1.00  0.00     0.167 A 
ATOM     16  C   UNL A   1      34.647  18.399  24.747  1.00  0.00     0.064 A 
BRANCH  13  17
ATOM     17  C   UNL A   1      32.435  21.222  24.899  1.00  0.00     0.065 A 
ATOM     18  C   UNL A   1      31.260  23.740  24.931  1.00  0.00     0.082 A 
ATOM     19  C   UNL A   1      31.655  23.179  23.712  1.00  0.00     0.024 A 
ATOM     20  C   UNL A   1      31.418  23.037  26.130  1.00  0.00     0.024 A 
ATOM     21  C   UNL A   1      32.260  21.924  23.697  1.00  0.00     0.030 A 
ATOM     22  C   UNL A   1      31.978  21.757  26.110  1.00  0.00     0.030 A 
BRANCH  18  23
ATOM     23  S   UNL A   1      30.579  25.372  24.959  1.00  0.00     0.238 S 
ATOM     24  O   UNL A   1      29.793  25.577  23.758  1.00  0.00    -0.207 OA
ATOM     25  O   UNL A   1      31.604  26.288  25.382  1.00  0.00    -0.207 OA
BRANCH  23  26
ATOM     26  N   UNL A   1      29.463  25.284  26.208  1.00  0.00    -0.225 NA
ATOM     27  H   UNL A   1      29.040  26.201  26.351  1.00  0.00     0.137 HD
ATOM     28  H   UNL A   1      29.932  24.988  27.064  1.00  0.00     0.137 HD
ENDBRANCH  23  26
ENDBRANCH  18  23
ENDBRANCH  13  17
BRANCH  15  29
ATOM     29  C   UNL A   1      33.021  16.379  24.841  1.00  0.00     0.435 C 
ATOM     30  F   UNL A   1      31.814  16.091  25.393  1.00  0.00    -0.164 F 
ATOM     31  F   UNL A   1      33.015  15.883  23.575  1.00  0.00    -0.164 F 
ATOM     32  F   UNL A   1      33.944  15.649  25.529  1.00  0.00    -0.164 F 
ENDBRANCH  15  29
ENDBRANCH   7  12
ENDBRANCH   4   6
ENDBRANCH   3   4
ENDBRANCH   2   3
ENDBRANCH   1   2
BRANCH   1  33
ATOM     33  O   UNL A   1      41.858  20.084  25.582  1.00  0.00    -0.374 OA
BRANCH  33  34
ATOM     34  C   UNL A   1      42.870  19.113  25.815  1.00  0.00     0.202 C 
BRANCH  34  35
ATOM     35  C   UNL A   1      44.205  19.266  25.100  1.00  0.00     0.261 C 
BRANCH  35  36
ATOM     36  O   UNL A   1      44.297  20.436  24.300  1.00  0.00    -0.460 OA
BRANCH  36  37
ATOM     37  C   UNL A   1      45.241  21.301  24.742  1.00  0.00     0.338 C 
ATOM     38  O   UNL A   1      46.449  21.143  24.732  1.00  0.00    -0.246 OA
BRANCH  37  39
ATOM     39  C   UNL A   1      44.583  22.402  25.449  1.00  0.00     0.060 A 
ATOM     40  C   UNL A   1      44.064  23.435  24.666  1.00  0.00     0.016 A 
ATOM     41  C   UNL A   1      44.735  22.528  26.838  1.00  0.00     0.016 A 
ATOM     42  C   UNL A   1      43.845  24.660  25.257  1.00  0.00     0.010 A 
ATOM     43  C   UNL A   1      44.540  23.757  27.421  1.00  0.00     0.010 A 
ATOM     44  C   UNL A   1      44.153  24.825  26.615  1.00  0.00    -0.014 A 
BRANCH  44  45
ATOM     45  C   UNL A   1      43.809  26.086  27.245  1.00  0.00     0.031 A 
ATOM     46  C   UNL A   1      44.812  27.119  26.893  1.00  0.00     0.074 A 
ATOM     47  C   UNL A   1      42.677  26.290  27.950  1.00  0.00     0.049 A 
ATOM     48  N   UNL A   1      45.722  27.604  27.669  1.00  0.00    -0.248 NA
ATOM     49  C   UNL A   1      45.002  27.467  25.472  1.00  0.00     0.031 C 
ATOM     50  C   UNL A   1      41.551  25.364  28.104  1.00  0.00     0.029 A 
ATOM     51  N   UNL A   1      42.244  27.407  28.610  1.00  0.00    -0.354 N 
ATOM     52  C   UNL A   1      46.397  28.543  26.895  1.00  0.00     0.074 A 
ATOM     53  C   UNL A   1      46.098  28.224  25.530  1.00  0.00     0.031 C 
ATOM     54  C   UNL A   1      40.486  26.026  28.612  1.00  0.00     0.029 A 
ATOM     55  C   UNL A   1      40.887  27.382  28.945  1.00  0.00     0.049 A 
ATOM     56  H   UNL A   1      42.837  28.161  28.830  1.00  0.00     0.167 HD
ATOM     57  C   UNL A   1      46.795  29.709  27.471  1.00  0.00     0.037 A 
ATOM     58  C   UNL A   1      40.156  28.421  29.433  1.00  0.00     0.037 A 
ATOM     59  C   UNL A   1      46.790  29.567  28.908  1.00  0.00     0.049 A 
ATOM     60  C   UNL A   1      41.109  29.401  29.995  1.00  0.00     0.074 A 
ATOM     61  C   UNL A   1      47.536  28.901  29.855  1.00  0.00     0.029 A 
ATOM     62  N   UNL A   1      45.574  29.852  29.470  1.00  0.00    -0.354 N 
ATOM     63  N   UNL A   1      41.777  29.194  31.093  1.00  0.00    -0.248 NA
ATOM     64  C   UNL A   1      41.607  30.478  29.148  1.00  0.00     0.031 C 
ATOM     65  C   UNL A   1      46.665  28.679  30.963  1.00  0.00     0.029 A 
ATOM     66  C   UNL A   1      45.433  29.274  30.697  1.00  0.00     0.049 A 
ATOM     67  H   UNL A   1      44.884  30.407  29.039  1.00  0.00     0.167 HD
ATOM     68  C   UNL A   1      43.006  29.770  30.848  1.00  0.00     0.074 A 
ATOM     69  C   UNL A   1      42.786  30.693  29.740  1.00  0.00     0.031 C 
ATOM     70  C   UNL A   1      44.139  29.186  31.329  1.00  0.00     0.037 A 
BRANCH  57  71
ATOM     71  C   UNL A   1      46.602  31.081  26.837  1.00  0.00     0.057 A 
ATOM     72  C   UNL A   1      47.697  31.970  26.834  1.00  0.00     0.134 A 
ATOM     73  C   UNL A   1      45.360  31.682  26.544  1.00  0.00     0.134 A 
ATOM     74  F   UNL A   1      48.939  31.534  27.095  1.00  0.00    -0.206 F 
ATOM     75  C   UNL A   1      47.549  33.351  26.651  1.00  0.00     0.040 A 
ATOM     76  C   UNL A   1      45.209  33.055  26.321  1.00  0.00     0.040 A 
ATOM     77  F   UNL A   1      44.204  31.012  26.541  1.00  0.00    -0.206 F 
ATOM     78  C   UNL A   1      46.299  33.900  26.407  1.00  0.00     0.006 A 
ENDBRANCH  57  71
BRANCH  58  79
ATOM     79  C   UNL A   1      38.718  28.761  29.314  1.00  0.00     0.057 A 
ATOM     80  C   UNL A   1      37.880  28.782  30.444  1.00  0.00     0.134 A 
ATOM     81  C   UNL A   1      38.212  29.384  28.164  1.00  0.00     0.134 A 
ATOM     82  F   UNL A   1      38.280  28.236  31.601  1.00  0.00    -0.206 F 
ATOM     83  C   UNL A   1      36.638  29.431  30.445  1.00  0.00     0.040 A 
ATOM     84  C   UNL A   1      36.971  30.034  28.150  1.00  0.00     0.040 A 
ATOM     85  F   UNL A   1      38.949  29.468  27.047  1.00  0.00    -0.206 F 
ATOM     86  C   UNL A   1      36.189  30.078  29.299  1.00  0.00     0.006 A 
ENDBRANCH  58  79
BRANCH  70  87
ATOM     87  C   UNL A   1      43.997  28.291  32.519  1.00  0.00     0.057 A 
ATOM     88  C   UNL A   1      43.811  26.903  32.467  1.00  0.00     0.134 A 
ATOM     89  C   UNL A   1      44.131  28.874  33.784  1.00  0.00     0.134 A 
ATOM     90  F   UNL A   1      43.746  26.253  31.298  1.00  0.00    -0.206 F 
ATOM     91  C   UNL A   1      43.722  26.137  33.634  1.00  0.00     0.040 A 
ATOM     92  C   UNL A   1      44.083  28.117  34.952  1.00  0.00     0.040 A 
ATOM     93  F   UNL A   1      44.348  30.194  33.900  1.00  0.00    -0.206 F 
ATOM     94  C   UNL A   1      43.865  26.745  34.880  1.00  0.00     0.006 A 
ENDBRANCH  70  87
ENDBRANCH  44  45
ENDBRANCH  37  39
ENDBRANCH  36  37
ENDBRANCH  35  36
ENDBRANCH  34  35
ENDBRANCH  33  34
ENDBRANCH   1  33
TORSDOF 19
ENDMDL
MODEL 2
REMARK VINA RESULT:     -12.1      2.854      3.746
REMARK SMILES NS(=O)(=O)c1ccc(-n2nc(C(F)(F)F)cc2-c2ccc(C(=O)OCCOCCOC(=O)c3ccc(-c4c5nc(c(-c6c(F)cccc6F)c6ccc([nH]6)c(-c6c(F)cccc6F)c6nc(c(-c7c(F)cccc7F)c7ccc4[nH]7)C=C6)C=C5)cc3)cc2)cc1
REMARK SMILES IDX 26 1 25 2 24 3 22 4 23 5 21 6 18 7 19 8 88 9 20 10 87 11
REMARK SMILES IDX 17 12 9 13 10 14 11 15 16 16 8 17 5 18 6 19 90 20 7 21 89 22
REMARK SMILES IDX 2 23 3 24 4 25 1 26 12 29 13 30 14 31 15 32 27 33 28 34
REMARK SMILES IDX 29 35 30 36 31 37 32 38 33 39 34 40 86 41 35 42 85 43 36 44
REMARK SMILES IDX 37 45 38 46 79 47 39 48 84 49 78 50 80 51 40 52 83 53 77 54
REMARK SMILES IDX 76 55 41 57 67 58 50 59 66 60 51 61 54 62 65 63 81 64 52 65
REMARK SMILES IDX 53 66 64 68 82 69 55 70 42 71 43 72 48 73 44 74 45 75 47 76
REMARK SMILES IDX 49 77 46 78 68 79 69 80 74 81 70 82 71 83 73 84 75 85 72 86
REMARK SMILES IDX 56 87 57 88 62 89 58 90 59 91 61 92 63 93 60 94
REMARK H PARENT 1 27 1 28 80 56 54 67
REMARK Flexibility Score: inf
ROOT
ATOM      1  C   UNL A   1      40.914  20.601  27.396  1.00  0.00     0.202 C 
ENDROOT
BRANCH   1   2
ATOM      2  C   UNL A   1      40.370  22.031  27.388  1.00  0.00     0.261 C 
BRANCH   2   3
ATOM      3  O   UNL A   1      39.875  22.425  26.098  1.00  0.00    -0.460 OA
BRANCH   3   4
ATOM      4  C   UNL A   1      38.830  21.686  25.654  1.00  0.00     0.338 C 
ATOM      5  O   UNL A   1      38.750  20.469  25.627  1.00  0.00    -0.246 OA
BRANCH   4   6
ATOM      6  C   UNL A   1      37.680  22.558  25.332  1.00  0.00     0.060 A 
ATOM      7  C   UNL A   1      35.316  23.996  24.912  1.00  0.00     0.000 A 
ATOM      8  C   UNL A   1      35.895  23.949  26.187  1.00  0.00     0.011 A 
ATOM      9  C   UNL A   1      35.977  23.385  23.836  1.00  0.00     0.011 A 
ATOM     10  C   UNL A   1      37.070  23.233  26.397  1.00  0.00     0.016 A 
ATOM     11  C   UNL A   1      37.163  22.674  24.041  1.00  0.00     0.016 A 
BRANCH   7  12
ATOM     12  C   UNL A   1      33.960  24.520  24.740  1.00  0.00     0.075 A 
ATOM     13  N   UNL A   1      32.846  23.823  24.289  1.00  0.00    -0.233 N 
ATOM     14  N   UNL A   1      31.844  24.657  23.904  1.00  0.00    -0.163 NA
ATOM     15  C   UNL A   1      32.256  25.888  24.263  1.00  0.00     0.167 A 
ATOM     16  C   UNL A   1      33.578  25.847  24.759  1.00  0.00     0.064 A 
BRANCH  13  17
ATOM     17  C   UNL A   1      32.687  22.419  24.179  1.00  0.00     0.065 A 
ATOM     18  C   UNL A   1      32.569  19.655  23.913  1.00  0.00     0.082 A 
ATOM     19  C   UNL A   1      32.773  20.217  25.177  1.00  0.00     0.024 A 
ATOM     20  C   UNL A   1      32.389  20.466  22.786  1.00  0.00     0.024 A 
ATOM     21  C   UNL A   1      32.849  21.603  25.308  1.00  0.00     0.030 A 
ATOM     22  C   UNL A   1      32.416  21.855  22.925  1.00  0.00     0.030 A 
BRANCH  18  23
ATOM     23  S   UNL A   1      32.566  17.896  23.732  1.00  0.00     0.238 S 
ATOM     24  O   UNL A   1      31.663  17.322  24.711  1.00  0.00    -0.207 OA
ATOM     25  O   UNL A   1      33.924  17.450  23.572  1.00  0.00    -0.207 OA
BRANCH  23  26
ATOM     26  N   UNL A   1      31.808  17.679  22.251  1.00  0.00    -0.225 NA
ATOM     27  H   UNL A   1      31.721  16.681  22.057  1.00  0.00     0.137 HD
ATOM     28  H   UNL A   1      32.360  18.122  21.517  1.00  0.00     0.137 HD
ENDBRANCH  23  26
ENDBRANCH  18  23
ENDBRANCH  13  17
BRANCH  15  29
ATOM     29  C   UNL A   1      31.416  27.128  24.113  1.00  0.00     0.435 C 
ATOM     30  F   UNL A   1      30.210  27.039  24.729  1.00  0.00    -0.164 F 
ATOM     31  F   UNL A   1      32.043  28.228  24.610  1.00  0.00    -0.164 F 
ATOM     32  F   UNL A   1      31.161  27.400  22.802  1.00  0.00    -0.164 F 
ENDBRANCH  15  29
ENDBRANCH   7  12
ENDBRANCH   4   6
ENDBRANCH   3   4
ENDBRANCH   2   3
ENDBRANCH   1   2
BRANCH   1  33
ATOM     33  O   UNL A   1      42.262  20.395  26.979  1.00  0.00    -0.374 OA
BRANCH  33  34
ATOM     34  C   UNL A   1      42.616  19.186  26.320  1.00  0.00     0.202 C 
BRANCH  34  35
ATOM     35  C   UNL A   1      43.682  19.233  25.235  1.00  0.00     0.261 C 
BRANCH  35  36
ATOM     36  O   UNL A   1      43.795  20.497  24.595  1.00  0.00    -0.460 OA
BRANCH  36  37
ATOM     37  C   UNL A   1      45.044  21.012  24.670  1.00  0.00     0.338 C 
ATOM     38  O   UNL A   1      46.099  20.409  24.578  1.00  0.00    -0.246 OA
BRANCH  37  39
ATOM     39  C   UNL A   1      44.957  22.410  25.100  1.00  0.00     0.060 A 
ATOM     40  C   UNL A   1      45.657  22.760  26.257  1.00  0.00     0.016 A 
ATOM     41  C   UNL A   1      43.994  23.256  24.532  1.00  0.00     0.016 A 
ATOM     42  C   UNL A   1      45.273  23.895  26.938  1.00  0.00     0.010 A 
ATOM     43  C   UNL A   1      43.595  24.373  25.225  1.00  0.00     0.010 A 
ATOM     44  C   UNL A   1      44.197  24.650  26.450  1.00  0.00    -0.014 A 
BRANCH  44  45
ATOM     45  C   UNL A   1      43.882  25.900  27.116  1.00  0.00     0.031 A 
ATOM     46  C   UNL A   1      44.904  26.921  26.787  1.00  0.00     0.074 A 
ATOM     47  C   UNL A   1      42.757  26.107  27.831  1.00  0.00     0.049 A 
ATOM     48  N   UNL A   1      45.827  27.367  27.572  1.00  0.00    -0.248 NA
ATOM     49  C   UNL A   1      45.095  27.305  25.375  1.00  0.00     0.031 C 
ATOM     50  C   UNL A   1      41.613  25.199  27.965  1.00  0.00     0.029 A 
ATOM     51  N   UNL A   1      42.350  27.214  28.524  1.00  0.00    -0.354 N 
ATOM     52  C   UNL A   1      46.517  28.313  26.820  1.00  0.00     0.074 A 
ATOM     53  C   UNL A   1      46.207  28.038  25.448  1.00  0.00     0.031 C 
ATOM     54  C   UNL A   1      40.564  25.869  28.496  1.00  0.00     0.029 A 
ATOM     55  C   UNL A   1      40.994  27.207  28.864  1.00  0.00     0.049 A 
ATOM     56  H   UNL A   1      42.959  27.950  28.761  1.00  0.00     0.167 HD
ATOM     57  C   UNL A   1      46.941  29.454  27.426  1.00  0.00     0.037 A 
ATOM     58  C   UNL A   1      40.286  28.246  29.384  1.00  0.00     0.037 A 
ATOM     59  C   UNL A   1      46.940  29.273  28.859  1.00  0.00     0.049 A 
ATOM     60  C   UNL A   1      41.261  29.191  29.968  1.00  0.00     0.074 A 
ATOM     61  C   UNL A   1      47.676  28.566  29.784  1.00  0.00     0.029 A 
ATOM     62  N   UNL A   1      45.732  29.567  29.434  1.00  0.00    -0.354 N 
ATOM     63  N   UNL A   1      41.929  28.941  31.057  1.00  0.00    -0.248 NA
ATOM     64  C   UNL A   1      41.778  30.281  29.149  1.00  0.00     0.031 C 
ATOM     65  C   UNL A   1      46.805  28.332  30.889  1.00  0.00     0.029 A 
ATOM     66  C   UNL A   1      45.585  28.958  30.646  1.00  0.00     0.049 A 
ATOM     67  H   UNL A   1      45.051  30.147  29.022  1.00  0.00     0.167 HD
ATOM     68  C   UNL A   1      43.168  29.499  30.821  1.00  0.00     0.074 A 
ATOM     69  C   UNL A   1      42.963  30.456  29.740  1.00  0.00     0.031 C 
ATOM     70  C   UNL A   1      44.292  28.879  31.282  1.00  0.00     0.037 A 
BRANCH  57  71
ATOM     71  C   UNL A   1      46.773  30.847  26.831  1.00  0.00     0.057 A 
ATOM     72  C   UNL A   1      47.884  31.715  26.853  1.00  0.00     0.134 A 
ATOM     73  C   UNL A   1      45.542  31.478  26.555  1.00  0.00     0.134 A 
ATOM     74  F   UNL A   1      49.118  31.250  27.101  1.00  0.00    -0.206 F 
ATOM     75  C   UNL A   1      47.762  33.104  26.709  1.00  0.00     0.040 A 
ATOM     76  C   UNL A   1      45.416  32.859  26.370  1.00  0.00     0.040 A 
ATOM     77  F   UNL A   1      44.375  30.830  26.533  1.00  0.00    -0.206 F 
ATOM     78  C   UNL A   1      46.522  33.682  26.480  1.00  0.00     0.006 A 
ENDBRANCH  57  71
BRANCH  58  79
ATOM     79  C   UNL A   1      38.855  28.618  29.281  1.00  0.00     0.057 A 
ATOM     80  C   UNL A   1      38.022  28.624  30.415  1.00  0.00     0.134 A 
ATOM     81  C   UNL A   1      38.357  29.284  28.152  1.00  0.00     0.134 A 
ATOM     82  F   UNL A   1      38.416  28.038  31.555  1.00  0.00    -0.206 F 
ATOM     83  C   UNL A   1      36.794  29.298  30.440  1.00  0.00     0.040 A 
ATOM     84  C   UNL A   1      37.129  29.959  28.162  1.00  0.00     0.040 A 
ATOM     85  F   UNL A   1      39.091  29.385  27.034  1.00  0.00    -0.206 F 
ATOM     86  C   UNL A   1      36.353  29.986  29.315  1.00  0.00     0.006 A 
ENDBRANCH  58  79
BRANCH  70  87
ATOM     87  C   UNL A   1      44.137  27.954  32.447  1.00  0.00     0.057 A 
ATOM     88  C   UNL A   1      43.993  28.355  33.782  1.00  0.00     0.134 A 
ATOM     89  C   UNL A   1      44.061  26.584  32.177  1.00  0.00     0.134 A 
ATOM     90  F   UNL A   1      43.980  29.651  34.122  1.00  0.00    -0.206 F 
ATOM     91  C   UNL A   1      43.818  27.420  34.807  1.00  0.00     0.040 A 
ATOM     92  C   UNL A   1      43.849  25.646  33.183  1.00  0.00     0.040 A 
ATOM     93  F   UNL A   1      44.155  26.138  30.913  1.00  0.00    -0.206 F 
ATOM     94  C   UNL A   1      43.739  26.062  34.506  1.00  0.00     0.006 A 
ENDBRANCH  70  87
ENDBRANCH  44  45
ENDBRANCH  37  39
ENDBRANCH  36  37
ENDBRANCH  35  36
ENDBRANCH  34  35
ENDBRANCH  33  34
ENDBRANCH   1  33
TORSDOF 19
ENDMDL
MODEL 3
REMARK VINA RESULT:     -12.0      4.017      6.006
REMARK SMILES NS(=O)(=O)c1ccc(-n2nc(C(F)(F)F)cc2-c2ccc(C(=O)OCCOCCOC(=O)c3ccc(-c4c5nc(c(-c6c(F)cccc6F)c6ccc([nH]6)c(-c6c(F)cccc6F)c6nc(c(-c7c(F)cccc7F)c7ccc4[nH]7)C=C6)C=C5)cc3)cc2)cc1
REMARK SMILES IDX 26 1 25 2 24 3 22 4 23 5 21 6 18 7 19 8 88 9 20 10 87 11
REMARK SMILES IDX 17 12 9 13 10 14 11 15 16 16 8 17 5 18 6 19 90 20 7 21 89 22
REMARK SMILES IDX 2 23 3 24 4 25 1 26 12 29 13 30 14 31 15 32 27 33 28 34
REMARK SMILES IDX 29 35 30 36 31 37 32 38 33 39 34 40 86 41 35 42 85 43 36 44
REMARK SMILES IDX 37 45 38 46 79 47 39 48 84 49 78 50 80 51 40 52 83 53 77 54
REMARK SMILES IDX 76 55 41 57 67 58 50 59 66 60 51 61 54 62 65 63 81 64 52 65
REMARK SMILES IDX 53 66 64 68 82 69 55 70 42 71 43 72 48 73 44 74 45 75 47 76
REMARK SMILES IDX 49 77 46 78 68 79 69 80 74 81 70 82 71 83 73 84 75 85 72 86
REMARK SMILES IDX 56 87 57 88 62 89 58 90 59 91 61 92 63 93 60 94
REMARK H PARENT 1 27 1 28 80 56 54 67
REMARK Flexibility Score: inf
ROOT
ATOM      1  C   UNL A   1      34.715  20.495  24.885  1.00  0.00     0.202 C 
ENDROOT
BRANCH   1   2
ATOM      2  C   UNL A   1      34.104  21.581  25.773  1.00  0.00     0.261 C 
BRANCH   2   3
ATOM      3  O   UNL A   1      32.710  21.797  25.499  1.00  0.00    -0.460 OA
BRANCH   3   4
ATOM      4  C   UNL A   1      32.469  22.561  24.408  1.00  0.00     0.338 C 
ATOM      5  O   UNL A   1      32.124  22.176  23.303  1.00  0.00    -0.246 OA
BRANCH   4   6
ATOM      6  C   UNL A   1      32.523  23.997  24.759  1.00  0.00     0.060 A 
ATOM      7  C   UNL A   1      32.946  26.657  25.519  1.00  0.00     0.000 A 
ATOM      8  C   UNL A   1      33.624  26.124  24.415  1.00  0.00     0.011 A 
ATOM      9  C   UNL A   1      31.995  25.870  26.185  1.00  0.00     0.011 A 
ATOM     10  C   UNL A   1      33.415  24.800  24.038  1.00  0.00     0.016 A 
ATOM     11  C   UNL A   1      31.774  24.544  25.802  1.00  0.00     0.016 A 
BRANCH   7  12
ATOM     12  C   UNL A   1      33.350  27.949  26.075  1.00  0.00     0.075 A 
ATOM     13  N   UNL A   1      32.850  29.199  25.732  1.00  0.00    -0.233 N 
ATOM     14  N   UNL A   1      33.662  30.206  26.152  1.00  0.00    -0.163 NA
ATOM     15  C   UNL A   1      34.600  29.606  26.909  1.00  0.00     0.167 A 
ATOM     16  C   UNL A   1      34.457  28.201  26.862  1.00  0.00     0.064 A 
BRANCH  13  17
ATOM     17  C   UNL A   1      31.666  29.493  25.010  1.00  0.00     0.065 A 
ATOM     18  C   UNL A   1      29.457  30.174  23.466  1.00  0.00     0.082 A 
ATOM     19  C   UNL A   1      30.107  28.957  23.240  1.00  0.00     0.024 A 
ATOM     20  C   UNL A   1      29.883  31.038  24.482  1.00  0.00     0.024 A 
ATOM     21  C   UNL A   1      31.225  28.622  24.002  1.00  0.00     0.030 A 
ATOM     22  C   UNL A   1      30.973  30.680  25.280  1.00  0.00     0.030 A 
BRANCH  18  23
ATOM     23  S   UNL A   1      28.097  30.641  22.437  1.00  0.00     0.238 S 
ATOM     24  O   UNL A   1      28.421  30.330  21.058  1.00  0.00    -0.207 OA
ATOM     25  O   UNL A   1      27.632  31.936  22.853  1.00  0.00    -0.207 OA
BRANCH  23  26
ATOM     26  N   UNL A   1      26.911  29.538  22.871  1.00  0.00    -0.225 NA
ATOM     27  H   UNL A   1      26.413  29.227  22.037  1.00  0.00     0.137 HD
ATOM     28  H   UNL A   1      26.254  29.979  23.515  1.00  0.00     0.137 HD
ENDBRANCH  23  26
ENDBRANCH  18  23
ENDBRANCH  13  17
BRANCH  15  29
ATOM     29  C   UNL A   1      35.668  30.351  27.664  1.00  0.00     0.435 C 
ATOM     30  F   UNL A   1      35.600  30.173  29.009  1.00  0.00    -0.164 F 
ATOM     31  F   UNL A   1      36.917  29.983  27.270  1.00  0.00    -0.164 F 
ATOM     32  F   UNL A   1      35.584  31.694  27.448  1.00  0.00    -0.164 F 
ENDBRANCH  15  29
ENDBRANCH   7  12
ENDBRANCH   4   6
ENDBRANCH   3   4
ENDBRANCH   2   3
ENDBRANCH   1   2
BRANCH   1  33
ATOM     33  O   UNL A   1      36.093  20.178  25.067  1.00  0.00    -0.374 OA
BRANCH  33  34
ATOM     34  C   UNL A   1      37.082  21.166  24.804  1.00  0.00     0.202 C 
BRANCH  34  35
ATOM     35  C   UNL A   1      38.360  21.156  25.629  1.00  0.00     0.261 C 
BRANCH  35  36
ATOM     36  O   UNL A   1      38.888  22.451  25.885  1.00  0.00    -0.460 OA
BRANCH  36  37
ATOM     37  C   UNL A   1      39.881  22.438  26.806  1.00  0.00     0.338 C 
ATOM     38  O   UNL A   1      40.260  21.489  27.470  1.00  0.00    -0.246 OA
BRANCH  37  39
ATOM     39  C   UNL A   1      40.315  23.814  27.056  1.00  0.00     0.060 A 
ATOM     40  C   UNL A   1      41.391  23.989  27.929  1.00  0.00     0.016 A 
ATOM     41  C   UNL A   1      39.502  24.886  26.658  1.00  0.00     0.016 A 
ATOM     42  C   UNL A   1      41.555  25.217  28.532  1.00  0.00     0.010 A 
ATOM     43  C   UNL A   1      39.651  26.102  27.279  1.00  0.00     0.010 A 
ATOM     44  C   UNL A   1      40.637  26.240  28.252  1.00  0.00    -0.014 A 
BRANCH  44  45
ATOM     45  C   UNL A   1      40.891  27.555  28.808  1.00  0.00     0.031 A 
ATOM     46  C   UNL A   1      42.129  28.123  28.224  1.00  0.00     0.074 A 
ATOM     47  C   UNL A   1      40.048  28.192  29.646  1.00  0.00     0.049 A 
ATOM     48  N   UNL A   1      43.269  28.253  28.814  1.00  0.00    -0.248 NA
ATOM     49  C   UNL A   1      42.194  28.331  26.764  1.00  0.00     0.031 C 
ATOM     50  C   UNL A   1      38.702  27.764  30.043  1.00  0.00     0.029 A 
ATOM     51  N   UNL A   1      40.171  29.410  30.257  1.00  0.00    -0.354 N 
ATOM     52  C   UNL A   1      44.103  28.844  27.869  1.00  0.00     0.074 A 
ATOM     53  C   UNL A   1      43.485  28.620  26.595  1.00  0.00     0.031 C 
ATOM     54  C   UNL A   1      38.056  28.795  30.636  1.00  0.00     0.029 A 
ATOM     55  C   UNL A   1      38.976  29.909  30.784  1.00  0.00     0.049 A 
ATOM     56  H   UNL A   1      41.028  29.892  30.321  1.00  0.00     0.167 HD
ATOM     57  C   UNL A   1      44.991  29.791  28.274  1.00  0.00     0.037 A 
ATOM     58  C   UNL A   1      38.770  31.161  31.275  1.00  0.00     0.037 A 
ATOM     59  C   UNL A   1      45.174  29.705  29.704  1.00  0.00     0.049 A 
ATOM     60  C   UNL A   1      40.095  31.726  31.604  1.00  0.00     0.074 A 
ATOM     61  C   UNL A   1      45.770  28.836  30.591  1.00  0.00     0.029 A 
ATOM     62  N   UNL A   1      44.260  30.444  30.406  1.00  0.00    -0.354 N 
ATOM     63  N   UNL A   1      40.814  31.317  32.609  1.00  0.00    -0.248 NA
ATOM     64  C   UNL A   1      40.806  32.509  30.600  1.00  0.00     0.031 C 
ATOM     65  C   UNL A   1      45.076  28.993  31.827  1.00  0.00     0.029 A 
ATOM     66  C   UNL A   1      44.124  29.999  31.688  1.00  0.00     0.049 A 
ATOM     67  H   UNL A   1      43.760  31.205  30.030  1.00  0.00     0.167 HD
ATOM     68  C   UNL A   1      42.109  31.379  32.139  1.00  0.00     0.074 A 
ATOM     69  C   UNL A   1      42.062  32.282  30.995  1.00  0.00     0.031 C 
ATOM     70  C   UNL A   1      43.013  30.425  32.504  1.00  0.00     0.037 A 
BRANCH  57  71
ATOM     71  C   UNL A   1      45.212  31.114  27.552  1.00  0.00     0.057 A 
ATOM     72  C   UNL A   1      46.520  31.428  27.129  1.00  0.00     0.134 A 
ATOM     73  C   UNL A   1      44.318  32.205  27.547  1.00  0.00     0.134 A 
ATOM     74  F   UNL A   1      47.474  30.486  27.083  1.00  0.00    -0.206 F 
ATOM     75  C   UNL A   1      46.923  32.734  26.823  1.00  0.00     0.040 A 
ATOM     76  C   UNL A   1      44.702  33.507  27.204  1.00  0.00     0.040 A 
ATOM     77  F   UNL A   1      43.049  32.115  27.954  1.00  0.00    -0.206 F 
ATOM     78  C   UNL A   1      46.016  33.782  26.873  1.00  0.00     0.006 A 
ENDBRANCH  57  71
BRANCH  58  79
ATOM     79  C   UNL A   1      37.560  32.014  31.333  1.00  0.00     0.057 A 
ATOM     80  C   UNL A   1      37.138  32.756  30.215  1.00  0.00     0.134 A 
ATOM     81  C   UNL A   1      36.617  31.867  32.362  1.00  0.00     0.134 A 
ATOM     82  F   UNL A   1      37.954  32.933  29.166  1.00  0.00    -0.206 F 
ATOM     83  C   UNL A   1      35.841  33.275  30.104  1.00  0.00     0.040 A 
ATOM     84  C   UNL A   1      35.318  32.383  32.265  1.00  0.00     0.040 A 
ATOM     85  F   UNL A   1      36.896  31.134  33.450  1.00  0.00    -0.206 F 
ATOM     86  C   UNL A   1      34.919  33.071  31.125  1.00  0.00     0.006 A 
ENDBRANCH  58  79
BRANCH  70  87
ATOM     87  C   UNL A   1      42.752  29.686  33.778  1.00  0.00     0.057 A 
ATOM     88  C   UNL A   1      42.016  28.499  33.887  1.00  0.00     0.134 A 
ATOM     89  C   UNL A   1      43.348  30.181  34.943  1.00  0.00     0.134 A 
ATOM     90  F   UNL A   1      41.472  27.916  32.810  1.00  0.00    -0.206 F 
ATOM     91  C   UNL A   1      41.852  27.856  35.118  1.00  0.00     0.040 A 
ATOM     92  C   UNL A   1      43.224  29.529  36.167  1.00  0.00     0.040 A 
ATOM     93  F   UNL A   1      44.097  31.295  34.899  1.00  0.00    -0.206 F 
ATOM     94  C   UNL A   1      42.463  28.368  36.260  1.00  0.00     0.006 A 
ENDBRANCH  70  87
ENDBRANCH  44  45
ENDBRANCH  37  39
ENDBRANCH  36  37
ENDBRANCH  35  36
ENDBRANCH  34  35
ENDBRANCH  33  34
ENDBRANCH   1  33
TORSDOF 19
ENDMDL
