MODEL 1
REMARK VINA RESULT:     -10.8      0.000      0.000
REMARK SMILES Cc1nsc(NC(=O)[C@]2([NH3+])CCC[C@@H](C)C2)c1C(=O)OCCOCCOC(=O)c1ccc(-c2c3nc(c(-c4c(F)cccc4F)c4ccc([nH]4)c(-c4c(F)cccc4F)c4nc(c(-c5c(F)cccc5F)c5ccc2[nH]5)C=C4)C=C3)cc1
REMARK SMILES IDX 22 1 21 2 20 3 18 4 19 5 17 6 1 7 2 8 3 9 4 10 5 11 6 12
REMARK SMILES IDX 7 13 8 15 9 16 11 17 16 18 12 19 14 20 13 21 15 22 10 23
REMARK SMILES IDX 23 27 24 28 25 29 26 30 27 31 28 32 29 33 30 34 82 35 31 36
REMARK SMILES IDX 81 37 32 38 33 39 34 40 75 41 35 42 80 43 74 44 76 45 36 46
REMARK SMILES IDX 79 47 73 48 72 49 37 51 63 52 46 53 62 54 47 55 50 56 61 57
REMARK SMILES IDX 77 58 48 59 49 60 60 62 78 63 51 64 38 65 39 66 44 67 40 68
REMARK SMILES IDX 41 69 43 70 45 71 42 72 64 73 65 74 70 75 66 76 67 77 69 78
REMARK SMILES IDX 71 79 68 80 52 81 53 82 58 83 54 84 55 85 57 86 59 87 56 88
REMARK H PARENT 6 14 10 24 10 25 10 26 76 50 50 61
REMARK Flexibility Score: inf
ROOT
ATOM      1  C   UNL A   1      33.366  30.987  27.489  1.00  0.00     0.202 C 
ENDROOT
BRANCH   1   2
ATOM      2  C   UNL A   1      33.810  29.599  27.017  1.00  0.00     0.261 C 
BRANCH   2   3
ATOM      3  O   UNL A   1      32.690  28.714  26.850  1.00  0.00    -0.460 OA
BRANCH   3   4
ATOM      4  C   UNL A   1      32.910  27.637  26.043  1.00  0.00     0.343 C 
ATOM      5  O   UNL A   1      33.867  26.884  26.126  1.00  0.00    -0.246 OA
BRANCH   4   6
ATOM      6  C   UNL A   1      31.736  27.323  25.245  1.00  0.00     0.117 A 
ATOM      7  C   UNL A   1      31.703  29.364  23.591  1.00  0.00     0.069 C 
ATOM      8  C   UNL A   1      31.164  28.107  24.180  1.00  0.00     0.068 A 
ATOM      9  N   UNL A   1      30.009  27.658  23.692  1.00  0.00    -0.195 NA
ATOM     10  S   UNL A   1      29.565  26.318  24.528  1.00  0.00    -0.017 S 
ATOM     11  C   UNL A   1      30.944  26.208  25.508  1.00  0.00     0.131 A 
BRANCH  11  12
ATOM     12  N   UNL A   1      31.130  25.269  26.516  1.00  0.00    -0.310 N 
ATOM     13  C   UNL A   1      31.537  23.963  26.572  1.00  0.00     0.286 C 
ATOM     14  H   UNL A   1      30.918  25.631  27.406  1.00  0.00     0.171 HD
ATOM     15  O   UNL A   1      31.283  23.365  27.625  1.00  0.00    -0.267 OA
BRANCH  13  16
ATOM     16  C   UNL A   1      32.307  23.245  25.425  1.00  0.00     0.174 C 
ATOM     17  C   UNL A   1      31.417  23.101  24.158  1.00  0.00     0.079 C 
ATOM     18  C   UNL A   1      32.643  21.806  25.882  1.00  0.00     0.082 C 
ATOM     19  C   UNL A   1      32.100  22.279  23.055  1.00  0.00     0.007 C 
ATOM     20  C   UNL A   1      33.337  20.923  24.842  1.00  0.00    -0.008 C 
ATOM     21  C   UNL A   1      32.528  20.895  23.542  1.00  0.00     0.004 C 
ATOM     22  C   UNL A   1      34.800  21.311  24.627  1.00  0.00     0.008 C 
BRANCH  16  23
ATOM     23  N   UNL A   1      33.428  24.107  25.002  1.00  0.00    -0.345 N 
ATOM     24  H   UNL A   1      33.712  24.701  25.780  1.00  0.00     0.345 HD
ATOM     25  H   UNL A   1      33.132  24.691  24.219  1.00  0.00     0.345 HD
ATOM     26  H   UNL A   1      34.214  23.525  24.713  1.00  0.00     0.345 HD
ENDBRANCH  16  23
ENDBRANCH  13  16
ENDBRANCH  11  12
ENDBRANCH   4   6
ENDBRANCH   3   4
ENDBRANCH   2   3
ENDBRANCH   1   2
BRANCH   1  27
ATOM     27  O   UNL A   1      34.269  31.762  28.281  1.00  0.00    -0.374 OA
BRANCH  27  28
ATOM     28  C   UNL A   1      34.390  33.166  28.089  1.00  0.00     0.202 C 
BRANCH  28  29
ATOM     29  C   UNL A   1      33.329  34.093  28.666  1.00  0.00     0.261 C 
BRANCH  29  30
ATOM     30  O   UNL A   1      33.900  34.991  29.600  1.00  0.00    -0.460 OA
BRANCH  30  31
ATOM     31  C   UNL A   1      33.352  34.902  30.833  1.00  0.00     0.338 C 
ATOM     32  O   UNL A   1      32.275  35.329  31.199  1.00  0.00    -0.246 OA
BRANCH  31  33
ATOM     33  C   UNL A   1      34.327  34.267  31.725  1.00  0.00     0.060 A 
ATOM     34  C   UNL A   1      35.358  35.095  32.168  1.00  0.00     0.016 A 
ATOM     35  C   UNL A   1      34.403  32.868  31.776  1.00  0.00     0.016 A 
ATOM     36  C   UNL A   1      36.596  34.528  32.331  1.00  0.00     0.010 A 
ATOM     37  C   UNL A   1      35.635  32.303  31.954  1.00  0.00     0.010 A 
ATOM     38  C   UNL A   1      36.723  33.160  32.081  1.00  0.00    -0.014 A 
BRANCH  38  39
ATOM     39  C   UNL A   1      38.049  32.616  31.931  1.00  0.00     0.031 A 
ATOM     40  C   UNL A   1      38.835  32.717  33.172  1.00  0.00     0.074 A 
ATOM     41  C   UNL A   1      38.424  32.002  30.794  1.00  0.00     0.049 A 
ATOM     42  N   UNL A   1      39.843  33.489  33.405  1.00  0.00    -0.248 NA
ATOM     43  C   UNL A   1      38.296  32.042  34.364  1.00  0.00     0.031 C 
ATOM     44  C   UNL A   1      37.612  31.648  29.624  1.00  0.00     0.029 A 
ATOM     45  N   UNL A   1      39.636  31.464  30.496  1.00  0.00    -0.354 N 
ATOM     46  C   UNL A   1      40.202  33.220  34.718  1.00  0.00     0.074 A 
ATOM     47  C   UNL A   1      39.096  32.522  35.315  1.00  0.00     0.031 C 
ATOM     48  C   UNL A   1      38.288  30.752  28.864  1.00  0.00     0.029 A 
ATOM     49  C   UNL A   1      39.618  30.583  29.419  1.00  0.00     0.049 A 
ATOM     50  H   UNL A   1      40.455  31.679  30.998  1.00  0.00     0.167 HD
ATOM     51  C   UNL A   1      41.494  33.321  35.124  1.00  0.00     0.037 A 
ATOM     52  C   UNL A   1      40.618  29.716  29.118  1.00  0.00     0.037 A 
ATOM     53  C   UNL A   1      42.278  34.099  34.201  1.00  0.00     0.049 A 
ATOM     54  C   UNL A   1      41.845  30.218  29.799  1.00  0.00     0.074 A 
ATOM     55  C   UNL A   1      42.230  35.407  33.755  1.00  0.00     0.029 A 
ATOM     56  N   UNL A   1      43.043  33.418  33.285  1.00  0.00    -0.354 N 
ATOM     57  N   UNL A   1      42.436  31.337  29.475  1.00  0.00    -0.248 NA
ATOM     58  C   UNL A   1      42.092  29.755  31.159  1.00  0.00     0.031 C 
ATOM     59  C   UNL A   1      42.549  35.334  32.368  1.00  0.00     0.029 A 
ATOM     60  C   UNL A   1      42.845  34.006  32.061  1.00  0.00     0.049 A 
ATOM     61  H   UNL A   1      43.628  32.649  33.473  1.00  0.00     0.167 HD
ATOM     62  C   UNL A   1      42.774  31.929  30.686  1.00  0.00     0.074 A 
ATOM     63  C   UNL A   1      42.578  30.883  31.689  1.00  0.00     0.031 C 
ATOM     64  C   UNL A   1      42.888  33.284  30.810  1.00  0.00     0.037 A 
BRANCH  51  65
ATOM     65  C   UNL A   1      42.111  32.384  36.123  1.00  0.00     0.057 A 
ATOM     66  C   UNL A   1      42.806  32.916  37.220  1.00  0.00     0.134 A 
ATOM     67  C   UNL A   1      42.294  31.000  35.905  1.00  0.00     0.134 A 
ATOM     68  F   UNL A   1      42.726  34.222  37.513  1.00  0.00    -0.206 F 
ATOM     69  C   UNL A   1      43.667  32.140  38.003  1.00  0.00     0.040 A 
ATOM     70  C   UNL A   1      43.106  30.206  36.713  1.00  0.00     0.040 A 
ATOM     71  F   UNL A   1      41.788  30.363  34.842  1.00  0.00    -0.206 F 
ATOM     72  C   UNL A   1      43.823  30.782  37.748  1.00  0.00     0.006 A 
ENDBRANCH  51  65
BRANCH  52  73
ATOM     73  C   UNL A   1      40.472  28.313  28.663  1.00  0.00     0.057 A 
ATOM     74  C   UNL A   1      39.806  27.353  29.436  1.00  0.00     0.134 A 
ATOM     75  C   UNL A   1      40.754  27.947  27.334  1.00  0.00     0.134 A 
ATOM     76  F   UNL A   1      39.445  27.628  30.697  1.00  0.00    -0.206 F 
ATOM     77  C   UNL A   1      39.441  26.101  28.916  1.00  0.00     0.040 A 
ATOM     78  C   UNL A   1      40.400  26.702  26.804  1.00  0.00     0.040 A 
ATOM     79  F   UNL A   1      41.305  28.820  26.478  1.00  0.00    -0.206 F 
ATOM     80  C   UNL A   1      39.732  25.776  27.594  1.00  0.00     0.006 A 
ENDBRANCH  52  73
BRANCH  64  81
ATOM     81  C   UNL A   1      42.824  34.111  29.552  1.00  0.00     0.057 A 
ATOM     82  C   UNL A   1      41.667  34.768  29.103  1.00  0.00     0.134 A 
ATOM     83  C   UNL A   1      44.011  34.390  28.869  1.00  0.00     0.134 A 
ATOM     84  F   UNL A   1      40.505  34.644  29.758  1.00  0.00    -0.206 F 
ATOM     85  C   UNL A   1      41.684  35.630  28.002  1.00  0.00     0.040 A 
ATOM     86  C   UNL A   1      44.048  35.272  27.786  1.00  0.00     0.040 A 
ATOM     87  F   UNL A   1      45.168  33.850  29.279  1.00  0.00    -0.206 F 
ATOM     88  C   UNL A   1      42.881  35.888  27.343  1.00  0.00     0.006 A 
ENDBRANCH  64  81
ENDBRANCH  38  39
ENDBRANCH  31  33
ENDBRANCH  30  31
ENDBRANCH  29  30
ENDBRANCH  28  29
ENDBRANCH  27  28
ENDBRANCH   1  27
TORSDOF 17
ENDMDL
MODEL 2
REMARK VINA RESULT:     -10.8      4.318      9.103
REMARK SMILES Cc1nsc(NC(=O)[C@]2([NH3+])CCC[C@@H](C)C2)c1C(=O)OCCOCCOC(=O)c1ccc(-c2c3nc(c(-c4c(F)cccc4F)c4ccc([nH]4)c(-c4c(F)cccc4F)c4nc(c(-c5c(F)cccc5F)c5ccc2[nH]5)C=C4)C=C3)cc1
REMARK SMILES IDX 22 1 21 2 20 3 18 4 19 5 17 6 1 7 2 8 3 9 4 10 5 11 6 12
REMARK SMILES IDX 7 13 8 15 9 16 11 17 16 18 12 19 14 20 13 21 15 22 10 23
REMARK SMILES IDX 23 27 24 28 25 29 26 30 27 31 28 32 29 33 30 34 82 35 31 36
REMARK SMILES IDX 81 37 32 38 33 39 34 40 75 41 35 42 80 43 74 44 76 45 36 46
REMARK SMILES IDX 79 47 73 48 72 49 37 51 63 52 46 53 62 54 47 55 50 56 61 57
REMARK SMILES IDX 77 58 48 59 49 60 60 62 78 63 51 64 38 65 39 66 44 67 40 68
REMARK SMILES IDX 41 69 43 70 45 71 42 72 64 73 65 74 70 75 66 76 67 77 69 78
REMARK SMILES IDX 71 79 68 80 52 81 53 82 58 83 54 84 55 85 57 86 59 87 56 88
REMARK H PARENT 6 14 10 24 10 25 10 26 76 50 50 61
REMARK Flexibility Score: inf
ROOT
ATOM      1  C   UNL A   1      38.026  21.601  25.545  1.00  0.00     0.202 C 
ENDROOT
BRANCH   1   2
ATOM      2  C   UNL A   1      37.239  21.872  24.259  1.00  0.00     0.261 C 
BRANCH   2   3
ATOM      3  O   UNL A   1      35.821  21.836  24.489  1.00  0.00    -0.460 OA
BRANCH   3   4
ATOM      4  C   UNL A   1      35.257  23.021  24.862  1.00  0.00     0.343 C 
ATOM      5  O   UNL A   1      35.864  24.072  24.995  1.00  0.00    -0.246 OA
BRANCH   4   6
ATOM      6  C   UNL A   1      33.806  22.956  24.818  1.00  0.00     0.117 A 
ATOM      7  C   UNL A   1      33.341  21.097  26.615  1.00  0.00     0.069 C 
ATOM      8  C   UNL A   1      32.945  22.072  25.562  1.00  0.00     0.068 A 
ATOM      9  N   UNL A   1      31.653  22.127  25.245  1.00  0.00    -0.195 NA
ATOM     10  S   UNL A   1      31.452  23.202  24.022  1.00  0.00    -0.017 S 
ATOM     11  C   UNL A   1      33.062  23.727  23.929  1.00  0.00     0.131 A 
BRANCH  11  12
ATOM     12  N   UNL A   1      33.551  24.629  22.992  1.00  0.00    -0.310 N 
ATOM     13  C   UNL A   1      33.445  25.978  22.786  1.00  0.00     0.286 C 
ATOM     14  H   UNL A   1      34.109  24.191  22.310  1.00  0.00     0.171 HD
ATOM     15  O   UNL A   1      33.774  26.379  21.662  1.00  0.00    -0.267 OA
BRANCH  13  16
ATOM     16  C   UNL A   1      32.981  26.987  23.877  1.00  0.00     0.174 C 
ATOM     17  C   UNL A   1      33.383  28.441  23.502  1.00  0.00     0.079 C 
ATOM     18  C   UNL A   1      33.721  26.662  25.197  1.00  0.00     0.082 C 
ATOM     19  C   UNL A   1      33.059  29.444  24.620  1.00  0.00     0.007 C 
ATOM     20  C   UNL A   1      33.443  27.610  26.366  1.00  0.00    -0.008 C 
ATOM     21  C   UNL A   1      33.705  29.061  25.950  1.00  0.00     0.004 C 
ATOM     22  C   UNL A   1      32.054  27.403  26.970  1.00  0.00     0.008 C 
BRANCH  16  23
ATOM     23  N   UNL A   1      31.505  27.000  23.908  1.00  0.00    -0.345 N 
ATOM     24  H   UNL A   1      31.182  27.840  24.387  1.00  0.00     0.345 HD
ATOM     25  H   UNL A   1      31.169  26.175  24.404  1.00  0.00     0.345 HD
ATOM     26  H   UNL A   1      31.146  26.992  22.953  1.00  0.00     0.345 HD
ENDBRANCH  16  23
ENDBRANCH  13  16
ENDBRANCH  11  12
ENDBRANCH   4   6
ENDBRANCH   3   4
ENDBRANCH   2   3
ENDBRANCH   1   2
BRANCH   1  27
ATOM     27  O   UNL A   1      38.949  22.590  26.004  1.00  0.00    -0.374 OA
BRANCH  27  28
ATOM     28  C   UNL A   1      39.907  22.287  27.010  1.00  0.00     0.202 C 
BRANCH  28  29
ATOM     29  C   UNL A   1      40.876  21.132  26.796  1.00  0.00     0.261 C 
BRANCH  29  30
ATOM     30  O   UNL A   1      41.588  21.292  25.583  1.00  0.00    -0.460 OA
BRANCH  30  31
ATOM     31  C   UNL A   1      42.921  21.104  25.715  1.00  0.00     0.338 C 
ATOM     32  O   UNL A   1      43.510  20.056  25.880  1.00  0.00    -0.246 OA
BRANCH  31  33
ATOM     33  C   UNL A   1      43.572  22.418  25.720  1.00  0.00     0.060 A 
ATOM     34  C   UNL A   1      44.463  22.639  26.770  1.00  0.00     0.016 A 
ATOM     35  C   UNL A   1      43.021  23.462  24.961  1.00  0.00     0.016 A 
ATOM     36  C   UNL A   1      44.529  23.908  27.286  1.00  0.00     0.010 A 
ATOM     37  C   UNL A   1      43.100  24.729  25.469  1.00  0.00     0.010 A 
ATOM     38  C   UNL A   1      43.731  24.891  26.697  1.00  0.00    -0.014 A 
BRANCH  38  39
ATOM     39  C   UNL A   1      43.540  26.128  27.411  1.00  0.00     0.031 A 
ATOM     40  C   UNL A   1      44.606  27.104  27.129  1.00  0.00     0.074 A 
ATOM     41  C   UNL A   1      42.434  26.342  28.149  1.00  0.00     0.049 A 
ATOM     42  N   UNL A   1      45.540  27.502  27.925  1.00  0.00    -0.248 NA
ATOM     43  C   UNL A   1      44.784  27.515  25.726  1.00  0.00     0.031 C 
ATOM     44  C   UNL A   1      41.227  25.515  28.265  1.00  0.00     0.029 A 
ATOM     45  N   UNL A   1      42.124  27.437  28.890  1.00  0.00    -0.354 N 
ATOM     46  C   UNL A   1      46.292  28.395  27.175  1.00  0.00     0.074 A 
ATOM     47  C   UNL A   1      45.935  28.183  25.798  1.00  0.00     0.031 C 
ATOM     48  C   UNL A   1      40.236  26.247  28.827  1.00  0.00     0.029 A 
ATOM     49  C   UNL A   1      40.778  27.530  29.231  1.00  0.00     0.049 A 
ATOM     50  H   UNL A   1      42.793  28.106  29.163  1.00  0.00     0.167 HD
ATOM     51  C   UNL A   1      46.922  29.445  27.762  1.00  0.00     0.037 A 
ATOM     52  C   UNL A   1      40.182  28.653  29.707  1.00  0.00     0.037 A 
ATOM     53  C   UNL A   1      47.050  29.254  29.184  1.00  0.00     0.049 A 
ATOM     54  C   UNL A   1      41.266  29.528  30.236  1.00  0.00     0.074 A 
ATOM     55  C   UNL A   1      47.685  28.321  29.981  1.00  0.00     0.029 A 
ATOM     56  N   UNL A   1      46.129  29.875  29.993  1.00  0.00    -0.354 N 
ATOM     57  N   UNL A   1      41.990  29.220  31.279  1.00  0.00    -0.248 NA
ATOM     58  C   UNL A   1      41.884  30.464  29.304  1.00  0.00     0.031 C 
ATOM     59  C   UNL A   1      46.792  28.097  31.069  1.00  0.00     0.029 A 
ATOM     60  C   UNL A   1      45.701  28.954  30.916  1.00  0.00     0.049 A 
ATOM     61  H   UNL A   1      45.832  30.811  29.924  1.00  0.00     0.167 HD
ATOM     62  C   UNL A   1      43.288  29.575  30.933  1.00  0.00     0.074 A 
ATOM     63  C   UNL A   1      43.152  30.382  29.721  1.00  0.00     0.031 C 
ATOM     64  C   UNL A   1      44.369  28.941  31.476  1.00  0.00     0.037 A 
BRANCH  51  65
ATOM     65  C   UNL A   1      47.045  30.792  27.110  1.00  0.00     0.057 A 
ATOM     66  C   UNL A   1      48.299  31.419  27.069  1.00  0.00     0.134 A 
ATOM     67  C   UNL A   1      45.946  31.616  26.778  1.00  0.00     0.134 A 
ATOM     68  F   UNL A   1      49.413  30.743  27.385  1.00  0.00    -0.206 F 
ATOM     69  C   UNL A   1      48.441  32.780  26.779  1.00  0.00     0.040 A 
ATOM     70  C   UNL A   1      46.083  32.959  26.433  1.00  0.00     0.040 A 
ATOM     71  F   UNL A   1      44.677  31.200  26.872  1.00  0.00    -0.206 F 
ATOM     72  C   UNL A   1      47.331  33.556  26.465  1.00  0.00     0.006 A 
ENDBRANCH  51  65
BRANCH  52  73
ATOM     73  C   UNL A   1      38.841  29.171  29.344  1.00  0.00     0.057 A 
ATOM     74  C   UNL A   1      38.498  29.463  28.017  1.00  0.00     0.134 A 
ATOM     75  C   UNL A   1      37.776  29.139  30.263  1.00  0.00     0.134 A 
ATOM     76  F   UNL A   1      39.435  29.462  27.058  1.00  0.00    -0.206 F 
ATOM     77  C   UNL A   1      37.172  29.709  27.627  1.00  0.00     0.040 A 
ATOM     78  C   UNL A   1      36.451  29.385  29.889  1.00  0.00     0.040 A 
ATOM     79  F   UNL A   1      37.975  28.781  31.539  1.00  0.00    -0.206 F 
ATOM     80  C   UNL A   1      36.143  29.663  28.564  1.00  0.00     0.006 A 
ENDBRANCH  52  73
BRANCH  64  81
ATOM     81  C   UNL A   1      44.122  27.973  32.603  1.00  0.00     0.057 A 
ATOM     82  C   UNL A   1      43.952  26.590  32.426  1.00  0.00     0.134 A 
ATOM     83  C   UNL A   1      44.229  28.430  33.919  1.00  0.00     0.134 A 
ATOM     84  F   UNL A   1      43.942  26.047  31.203  1.00  0.00    -0.206 F 
ATOM     85  C   UNL A   1      43.853  25.711  33.510  1.00  0.00     0.040 A 
ATOM     86  C   UNL A   1      44.163  27.560  35.010  1.00  0.00     0.040 A 
ATOM     87  F   UNL A   1      44.455  29.729  34.165  1.00  0.00    -0.206 F 
ATOM     88  C   UNL A   1      43.965  26.197  34.808  1.00  0.00     0.006 A 
ENDBRANCH  64  81
ENDBRANCH  38  39
ENDBRANCH  31  33
ENDBRANCH  30  31
ENDBRANCH  29  30
ENDBRANCH  28  29
ENDBRANCH  27  28
ENDBRANCH   1  27
TORSDOF 17
ENDMDL
MODEL 3
REMARK VINA RESULT:     -10.7      3.100      7.198
REMARK SMILES Cc1nsc(NC(=O)[C@]2([NH3+])CCC[C@@H](C)C2)c1C(=O)OCCOCCOC(=O)c1ccc(-c2c3nc(c(-c4c(F)cccc4F)c4ccc([nH]4)c(-c4c(F)cccc4F)c4nc(c(-c5c(F)cccc5F)c5ccc2[nH]5)C=C4)C=C3)cc1
REMARK SMILES IDX 22 1 21 2 20 3 18 4 19 5 17 6 1 7 2 8 3 9 4 10 5 11 6 12
REMARK SMILES IDX 7 13 8 15 9 16 11 17 16 18 12 19 14 20 13 21 15 22 10 23
REMARK SMILES IDX 23 27 24 28 25 29 26 30 27 31 28 32 29 33 30 34 82 35 31 36
REMARK SMILES IDX 81 37 32 38 33 39 34 40 75 41 35 42 80 43 74 44 76 45 36 46
REMARK SMILES IDX 79 47 73 48 72 49 37 51 63 52 46 53 62 54 47 55 50 56 61 57
REMARK SMILES IDX 77 58 48 59 49 60 60 62 78 63 51 64 38 65 39 66 44 67 40 68
REMARK SMILES IDX 41 69 43 70 45 71 42 72 64 73 65 74 70 75 66 76 67 77 69 78
REMARK SMILES IDX 71 79 68 80 52 81 53 82 58 83 54 84 55 85 57 86 59 87 56 88
REMARK H PARENT 6 14 10 24 10 25 10 26 76 50 50 61
REMARK Flexibility Score: inf
ROOT
ATOM      1  C   UNL A   1      38.249  23.379  25.909  1.00  0.00     0.202 C 
ENDROOT
BRANCH   1   2
ATOM      2  C   UNL A   1      36.760  23.102  26.140  1.00  0.00     0.261 C 
BRANCH   2   3
ATOM      3  O   UNL A   1      36.038  23.024  24.901  1.00  0.00    -0.460 OA
BRANCH   3   4
ATOM      4  C   UNL A   1      34.852  23.696  24.870  1.00  0.00     0.343 C 
ATOM      5  O   UNL A   1      34.725  24.899  25.038  1.00  0.00    -0.246 OA
BRANCH   4   6
ATOM      6  C   UNL A   1      33.784  22.863  24.344  1.00  0.00     0.117 A 
ATOM      7  C   UNL A   1      33.654  21.001  26.192  1.00  0.00     0.069 C 
ATOM      8  C   UNL A   1      33.272  21.637  24.901  1.00  0.00     0.068 A 
ATOM      9  N   UNL A   1      32.373  20.998  24.156  1.00  0.00    -0.195 NA
ATOM     10  S   UNL A   1      32.158  21.827  22.756  1.00  0.00    -0.017 S 
ATOM     11  C   UNL A   1      33.171  23.136  23.124  1.00  0.00     0.131 A 
BRANCH  11  12
ATOM     12  N   UNL A   1      33.462  24.183  22.257  1.00  0.00    -0.310 N 
ATOM     13  C   UNL A   1      32.912  25.406  21.982  1.00  0.00     0.286 C 
ATOM     14  H   UNL A   1      34.258  24.001  21.707  1.00  0.00     0.171 HD
ATOM     15  O   UNL A   1      33.275  25.933  20.922  1.00  0.00    -0.267 OA
BRANCH  13  16
ATOM     16  C   UNL A   1      31.918  26.142  22.928  1.00  0.00     0.174 C 
ATOM     17  C   UNL A   1      30.810  25.178  23.436  1.00  0.00     0.079 C 
ATOM     18  C   UNL A   1      31.193  27.245  22.121  1.00  0.00     0.082 C 
ATOM     19  C   UNL A   1      29.739  25.904  24.264  1.00  0.00     0.007 C 
ATOM     20  C   UNL A   1      30.116  28.024  22.878  1.00  0.00    -0.008 C 
ATOM     21  C   UNL A   1      29.099  27.062  23.500  1.00  0.00     0.004 C 
ATOM     22  C   UNL A   1      30.706  29.006  23.891  1.00  0.00     0.008 C 
BRANCH  16  23
ATOM     23  N   UNL A   1      32.647  26.554  24.144  1.00  0.00    -0.345 N 
ATOM     24  H   UNL A   1      33.644  26.377  24.019  1.00  0.00     0.345 HD
ATOM     25  H   UNL A   1      32.304  26.020  24.943  1.00  0.00     0.345 HD
ATOM     26  H   UNL A   1      32.496  27.549  24.310  1.00  0.00     0.345 HD
ENDBRANCH  16  23
ENDBRANCH  13  16
ENDBRANCH  11  12
ENDBRANCH   4   6
ENDBRANCH   3   4
ENDBRANCH   2   3
ENDBRANCH   1   2
BRANCH   1  27
ATOM     27  O   UNL A   1      39.171  22.291  26.000  1.00  0.00    -0.374 OA
BRANCH  27  28
ATOM     28  C   UNL A   1      40.338  22.385  26.809  1.00  0.00     0.202 C 
BRANCH  28  29
ATOM     29  C   UNL A   1      41.485  23.280  26.362  1.00  0.00     0.261 C 
BRANCH  29  30
ATOM     30  O   UNL A   1      41.413  24.544  26.996  1.00  0.00    -0.460 OA
BRANCH  30  31
ATOM     31  C   UNL A   1      41.319  25.576  26.127  1.00  0.00     0.338 C 
ATOM     32  O   UNL A   1      41.900  25.710  25.069  1.00  0.00    -0.246 OA
BRANCH  31  33
ATOM     33  C   UNL A   1      40.445  26.594  26.716  1.00  0.00     0.060 A 
ATOM     34  C   UNL A   1      40.776  27.914  26.412  1.00  0.00     0.016 A 
ATOM     35  C   UNL A   1      39.617  26.250  27.795  1.00  0.00     0.016 A 
ATOM     36  C   UNL A   1      40.572  28.857  27.387  1.00  0.00     0.010 A 
ATOM     37  C   UNL A   1      39.402  27.195  28.759  1.00  0.00     0.010 A 
ATOM     38  C   UNL A   1      40.012  28.433  28.594  1.00  0.00    -0.014 A 
BRANCH  38  39
ATOM     39  C   UNL A   1      40.088  29.320  29.727  1.00  0.00     0.031 A 
ATOM     40  C   UNL A   1      38.888  30.166  29.853  1.00  0.00     0.074 A 
ATOM     41  C   UNL A   1      41.115  29.255  30.593  1.00  0.00     0.049 A 
ATOM     42  N   UNL A   1      38.795  31.435  29.643  1.00  0.00    -0.248 NA
ATOM     43  C   UNL A   1      37.596  29.477  30.013  1.00  0.00     0.031 C 
ATOM     44  C   UNL A   1      42.204  28.272  30.664  1.00  0.00     0.029 A 
ATOM     45  N   UNL A   1      41.337  30.032  31.686  1.00  0.00    -0.354 N 
ATOM     46  C   UNL A   1      37.460  31.737  29.872  1.00  0.00     0.074 A 
ATOM     47  C   UNL A   1      36.745  30.490  29.858  1.00  0.00     0.031 C 
ATOM     48  C   UNL A   1      42.816  28.369  31.868  1.00  0.00     0.029 A 
ATOM     49  C   UNL A   1      42.258  29.501  32.584  1.00  0.00     0.049 A 
ATOM     50  H   UNL A   1      40.885  30.895  31.830  1.00  0.00     0.167 HD
ATOM     51  C   UNL A   1      37.090  32.951  30.357  1.00  0.00     0.037 A 
ATOM     52  C   UNL A   1      42.426  29.935  33.859  1.00  0.00     0.037 A 
ATOM     53  C   UNL A   1      38.136  33.926  30.189  1.00  0.00     0.049 A 
ATOM     54  C   UNL A   1      41.849  31.308  33.928  1.00  0.00     0.074 A 
ATOM     55  C   UNL A   1      38.786  34.468  29.096  1.00  0.00     0.029 A 
ATOM     56  N   UNL A   1      38.939  34.189  31.272  1.00  0.00    -0.354 N 
ATOM     57  N   UNL A   1      42.356  32.330  33.292  1.00  0.00    -0.248 NA
ATOM     58  C   UNL A   1      40.435  31.423  34.264  1.00  0.00     0.031 C 
ATOM     59  C   UNL A   1      40.147  34.591  29.502  1.00  0.00     0.029 A 
ATOM     60  C   UNL A   1      40.239  34.188  30.835  1.00  0.00     0.049 A 
ATOM     61  H   UNL A   1      38.636  34.350  32.195  1.00  0.00     0.167 HD
ATOM     62  C   UNL A   1      41.260  33.014  32.781  1.00  0.00     0.074 A 
ATOM     63  C   UNL A   1      40.100  32.432  33.454  1.00  0.00     0.031 C 
ATOM     64  C   UNL A   1      41.358  33.772  31.649  1.00  0.00     0.037 A 
BRANCH  51  65
ATOM     65  C   UNL A   1      35.960  33.132  31.330  1.00  0.00     0.057 A 
ATOM     66  C   UNL A   1      34.940  34.047  31.030  1.00  0.00     0.134 A 
ATOM     67  C   UNL A   1      35.979  32.662  32.662  1.00  0.00     0.134 A 
ATOM     68  F   UNL A   1      34.836  34.578  29.803  1.00  0.00    -0.206 F 
ATOM     69  C   UNL A   1      34.044  34.506  32.000  1.00  0.00     0.040 A 
ATOM     70  C   UNL A   1      35.055  33.071  33.623  1.00  0.00     0.040 A 
ATOM     71  F   UNL A   1      36.948  31.869  33.135  1.00  0.00    -0.206 F 
ATOM     72  C   UNL A   1      34.103  34.022  33.302  1.00  0.00     0.006 A 
ENDBRANCH  51  65
BRANCH  52  73
ATOM     73  C   UNL A   1      42.648  29.098  35.062  1.00  0.00     0.057 A 
ATOM     74  C   UNL A   1      41.909  27.930  35.294  1.00  0.00     0.134 A 
ATOM     75  C   UNL A   1      43.777  29.285  35.880  1.00  0.00     0.134 A 
ATOM     76  F   UNL A   1      40.847  27.636  34.530  1.00  0.00    -0.206 F 
ATOM     77  C   UNL A   1      42.273  27.002  36.282  1.00  0.00     0.040 A 
ATOM     78  C   UNL A   1      44.150  28.371  36.870  1.00  0.00     0.040 A 
ATOM     79  F   UNL A   1      44.608  30.319  35.686  1.00  0.00    -0.206 F 
ATOM     80  C   UNL A   1      43.401  27.218  37.069  1.00  0.00     0.006 A 
ENDBRANCH  52  73
BRANCH  64  81
ATOM     81  C   UNL A   1      42.732  33.999  31.073  1.00  0.00     0.057 A 
ATOM     82  C   UNL A   1      43.315  33.185  30.088  1.00  0.00     0.134 A 
ATOM     83  C   UNL A   1      43.413  35.174  31.402  1.00  0.00     0.134 A 
ATOM     84  F   UNL A   1      42.685  32.094  29.634  1.00  0.00    -0.206 F 
ATOM     85  C   UNL A   1      44.537  33.507  29.490  1.00  0.00     0.040 A 
ATOM     86  C   UNL A   1      44.620  35.523  30.790  1.00  0.00     0.040 A 
ATOM     87  F   UNL A   1      42.887  36.033  32.288  1.00  0.00    -0.206 F 
ATOM     88  C   UNL A   1      45.191  34.684  29.837  1.00  0.00     0.006 A 
ENDBRANCH  64  81
ENDBRANCH  38  39
ENDBRANCH  31  33
ENDBRANCH  30  31
ENDBRANCH  29  30
ENDBRANCH  28  29
ENDBRANCH  27  28
ENDBRANCH   1  27
TORSDOF 17
ENDMDL
