MODEL 1
REMARK VINA RESULT:     -11.4      0.000      0.000
REMARK SMILES O=C(OCCOCCOC(=O)c1cc(-c2ccn(C(F)F)c(=O)c2)ccc1O)c1ccc(-c2c3nc(c(-c4c(F)cccc4F)c4ccc([nH]4)c(-c4c(F)cccc4F)c4nc(c(-c5c(F)cccc5F)c5ccc2[nH]5)C=C4)C=C3)cc1
REMARK SMILES IDX 6 1 5 2 4 3 3 4 2 5 1 6 29 7 30 8 82 9 31 10 81 11 32 12
REMARK SMILES IDX 33 13 34 14 75 15 35 16 80 17 74 18 76 19 36 20 79 21 73 22
REMARK SMILES IDX 72 23 37 25 63 26 46 27 62 28 47 29 50 30 61 31 77 32 48 33
REMARK SMILES IDX 49 34 60 36 78 37 51 38 38 39 39 40 44 41 40 42 41 43 43 44
REMARK SMILES IDX 45 45 42 46 64 47 65 48 70 49 66 50 67 51 69 52 71 53 68 54
REMARK SMILES IDX 52 55 53 56 58 57 54 58 55 59 57 60 59 61 56 62 7 63 8 64
REMARK SMILES IDX 9 65 10 66 11 67 12 68 13 69 27 70 14 71 26 72 25 73 28 74
REMARK SMILES IDX 15 76 16 77 24 78 17 79 22 80 18 81 23 82 19 83 20 84 21 85
REMARK H PARENT 76 24 50 35 28 75
REMARK Flexibility Score: inf
ROOT
ATOM      1  O   UNL A   1      45.792  20.794  25.304  1.00  0.00    -0.374 OA
ENDROOT
BRANCH   1   2
ATOM      2  C   UNL A   1      46.019  22.151  24.934  1.00  0.00     0.202 C 
BRANCH   2   3
ATOM      3  C   UNL A   1      44.954  22.851  24.090  1.00  0.00     0.261 C 
BRANCH   3   4
ATOM      4  O   UNL A   1      44.226  23.857  24.805  1.00  0.00    -0.460 OA
BRANCH   4   5
ATOM      5  C   UNL A   1      44.689  25.092  25.120  1.00  0.00     0.338 C 
ATOM      6  O   UNL A   1      45.745  25.484  24.629  1.00  0.00    -0.246 OA
BRANCH   5   7
ATOM      7  C   UNL A   1      44.082  25.880  26.232  1.00  0.00     0.060 A 
ATOM      8  C   UNL A   1      42.976  25.304  26.884  1.00  0.00     0.016 A 
ATOM      9  C   UNL A   1      44.523  27.134  26.661  1.00  0.00     0.016 A 
ATOM     10  C   UNL A   1      42.303  25.993  27.898  1.00  0.00     0.010 A 
ATOM     11  C   UNL A   1      43.812  27.858  27.605  1.00  0.00     0.010 A 
ATOM     12  C   UNL A   1      42.716  27.281  28.245  1.00  0.00    -0.014 A 
BRANCH  12  13
ATOM     13  C   UNL A   1      42.207  27.973  29.437  1.00  0.00     0.031 A 
ATOM     14  C   UNL A   1      42.803  27.760  30.787  1.00  0.00     0.074 A 
ATOM     15  C   UNL A   1      41.069  28.667  29.270  1.00  0.00     0.049 A 
ATOM     16  N   UNL A   1      42.507  28.354  31.912  1.00  0.00    -0.248 NA
ATOM     17  C   UNL A   1      43.850  26.733  30.896  1.00  0.00     0.031 C 
ATOM     18  C   UNL A   1      40.353  28.809  27.996  1.00  0.00     0.029 A 
ATOM     19  N   UNL A   1      40.294  29.340  30.168  1.00  0.00    -0.354 N 
ATOM     20  C   UNL A   1      43.354  27.806  32.863  1.00  0.00     0.074 A 
ATOM     21  C   UNL A   1      44.135  26.784  32.193  1.00  0.00     0.031 C 
ATOM     22  C   UNL A   1      39.237  29.522  28.198  1.00  0.00     0.029 A 
ATOM     23  C   UNL A   1      39.180  29.905  29.602  1.00  0.00     0.049 A 
ATOM     24  H   UNL A   1      40.511  29.414  31.125  1.00  0.00     0.167 HD
ATOM     25  C   UNL A   1      43.464  28.146  34.170  1.00  0.00     0.037 A 
ATOM     26  C   UNL A   1      38.237  30.681  30.156  1.00  0.00     0.037 A 
ATOM     27  C   UNL A   1      42.612  29.121  34.810  1.00  0.00     0.049 A 
ATOM     28  C   UNL A   1      38.391  31.054  31.599  1.00  0.00     0.074 A 
ATOM     29  C   UNL A   1      42.677  29.623  36.098  1.00  0.00     0.029 A 
ATOM     30  N   UNL A   1      41.505  29.712  34.210  1.00  0.00    -0.354 N 
ATOM     31  N   UNL A   1      39.315  30.685  32.455  1.00  0.00    -0.248 NA
ATOM     32  C   UNL A   1      37.396  31.982  32.138  1.00  0.00     0.031 C 
ATOM     33  C   UNL A   1      41.576  30.467  36.295  1.00  0.00     0.029 A 
ATOM     34  C   UNL A   1      40.857  30.542  35.111  1.00  0.00     0.049 A 
ATOM     35  H   UNL A   1      41.223  29.563  33.279  1.00  0.00     0.167 HD
ATOM     36  C   UNL A   1      39.032  31.363  33.630  1.00  0.00     0.074 A 
ATOM     37  C   UNL A   1      37.865  32.184  33.360  1.00  0.00     0.031 C 
ATOM     38  C   UNL A   1      39.675  31.319  34.824  1.00  0.00     0.037 A 
BRANCH  25  39
ATOM     39  C   UNL A   1      44.534  27.469  34.981  1.00  0.00     0.057 A 
ATOM     40  C   UNL A   1      44.266  26.302  35.707  1.00  0.00     0.134 A 
ATOM     41  C   UNL A   1      45.829  28.001  35.084  1.00  0.00     0.134 A 
ATOM     42  F   UNL A   1      43.048  25.739  35.667  1.00  0.00    -0.206 F 
ATOM     43  C   UNL A   1      45.240  25.690  36.499  1.00  0.00     0.040 A 
ATOM     44  C   UNL A   1      46.819  27.383  35.851  1.00  0.00     0.040 A 
ATOM     45  F   UNL A   1      46.161  29.118  34.417  1.00  0.00    -0.206 F 
ATOM     46  C   UNL A   1      46.523  26.226  36.567  1.00  0.00     0.006 A 
ENDBRANCH  25  39
BRANCH  26  47
ATOM     47  C   UNL A   1      37.165  31.250  29.311  1.00  0.00     0.057 A 
ATOM     48  C   UNL A   1      37.228  32.554  28.812  1.00  0.00     0.134 A 
ATOM     49  C   UNL A   1      36.021  30.498  29.019  1.00  0.00     0.134 A 
ATOM     50  F   UNL A   1      38.284  33.335  29.085  1.00  0.00    -0.206 F 
ATOM     51  C   UNL A   1      36.194  33.088  28.043  1.00  0.00     0.040 A 
ATOM     52  C   UNL A   1      34.992  31.010  28.231  1.00  0.00     0.040 A 
ATOM     53  F   UNL A   1      35.905  29.242  29.478  1.00  0.00    -0.206 F 
ATOM     54  C   UNL A   1      35.076  32.312  27.742  1.00  0.00     0.006 A 
ENDBRANCH  26  47
BRANCH  38  55
ATOM     55  C   UNL A   1      39.113  32.200  35.902  1.00  0.00     0.057 A 
ATOM     56  C   UNL A   1      38.221  31.685  36.850  1.00  0.00     0.134 A 
ATOM     57  C   UNL A   1      39.497  33.543  36.036  1.00  0.00     0.134 A 
ATOM     58  F   UNL A   1      37.805  30.412  36.776  1.00  0.00    -0.206 F 
ATOM     59  C   UNL A   1      37.749  32.466  37.906  1.00  0.00     0.040 A 
ATOM     60  C   UNL A   1      39.061  34.321  37.109  1.00  0.00     0.040 A 
ATOM     61  F   UNL A   1      40.365  34.092  35.173  1.00  0.00    -0.206 F 
ATOM     62  C   UNL A   1      38.183  33.782  38.046  1.00  0.00     0.006 A 
ENDBRANCH  38  55
ENDBRANCH  12  13
ENDBRANCH   5   7
ENDBRANCH   4   5
ENDBRANCH   3   4
ENDBRANCH   2   3
ENDBRANCH   1   2
BRANCH   1  63
ATOM     63  C   UNL A   1      44.957  20.048  24.411  1.00  0.00     0.202 C 
BRANCH  63  64
ATOM     64  C   UNL A   1      44.068  19.001  25.095  1.00  0.00     0.261 C 
BRANCH  64  65
ATOM     65  O   UNL A   1      42.710  19.449  25.223  1.00  0.00    -0.460 OA
BRANCH  65  66
ATOM     66  C   UNL A   1      42.169  19.389  26.469  1.00  0.00     0.342 C 
ATOM     67  O   UNL A   1      42.419  18.581  27.348  1.00  0.00    -0.246 OA
BRANCH  66  68
ATOM     68  C   UNL A   1      41.408  20.635  26.700  1.00  0.00     0.102 A 
ATOM     69  C   UNL A   1      40.200  20.816  25.998  1.00  0.00     0.028 A 
ATOM     70  C   UNL A   1      41.820  21.576  27.644  1.00  0.00     0.130 A 
ATOM     71  C   UNL A   1      39.374  21.903  26.296  1.00  0.00    -0.017 A 
ATOM     72  C   UNL A   1      41.027  22.690  27.904  1.00  0.00     0.048 A 
ATOM     73  C   UNL A   1      39.806  22.845  27.242  1.00  0.00     0.012 A 
BRANCH  70  74
ATOM     74  O   UNL A   1      43.004  21.415  28.303  1.00  0.00    -0.507 OA
ATOM     75  H   UNL A   1      43.033  20.934  29.106  1.00  0.00     0.293 HD
ENDBRANCH  70  74
BRANCH  71  76
ATOM     76  C   UNL A   1      38.055  22.096  25.666  1.00  0.00    -0.011 A 
ATOM     77  C   UNL A   1      37.462  23.406  25.493  1.00  0.00     0.027 A 
ATOM     78  C   UNL A   1      37.324  21.005  25.372  1.00  0.00     0.080 A 
ATOM     79  C   UNL A   1      36.175  23.530  25.151  1.00  0.00     0.095 A 
ATOM     80  C   UNL A   1      35.899  21.130  24.944  1.00  0.00     0.255 A 
ATOM     81  N   UNL A   1      35.391  22.419  24.908  1.00  0.00    -0.258 N 
ATOM     82  O   UNL A   1      35.272  20.105  24.695  1.00  0.00    -0.269 OA
BRANCH  81  83
ATOM     83  C   UNL A   1      33.979  22.562  24.648  1.00  0.00     0.451 C 
ATOM     84  F   UNL A   1      33.608  23.863  24.619  1.00  0.00    -0.185 F 
ATOM     85  F   UNL A   1      33.653  22.006  23.454  1.00  0.00    -0.185 F 
ENDBRANCH  81  83
ENDBRANCH  71  76
ENDBRANCH  66  68
ENDBRANCH  65  66
ENDBRANCH  64  65
ENDBRANCH  63  64
ENDBRANCH   1  63
TORSDOF 17
ENDMDL
MODEL 2
REMARK VINA RESULT:     -11.0      4.516      9.883
REMARK SMILES O=C(OCCOCCOC(=O)c1cc(-c2ccn(C(F)F)c(=O)c2)ccc1O)c1ccc(-c2c3nc(c(-c4c(F)cccc4F)c4ccc([nH]4)c(-c4c(F)cccc4F)c4nc(c(-c5c(F)cccc5F)c5ccc2[nH]5)C=C4)C=C3)cc1
REMARK SMILES IDX 6 1 5 2 4 3 3 4 2 5 1 6 29 7 30 8 82 9 31 10 81 11 32 12
REMARK SMILES IDX 33 13 34 14 75 15 35 16 80 17 74 18 76 19 36 20 79 21 73 22
REMARK SMILES IDX 72 23 37 25 63 26 46 27 62 28 47 29 50 30 61 31 77 32 48 33
REMARK SMILES IDX 49 34 60 36 78 37 51 38 38 39 39 40 44 41 40 42 41 43 43 44
REMARK SMILES IDX 45 45 42 46 64 47 65 48 70 49 66 50 67 51 69 52 71 53 68 54
REMARK SMILES IDX 52 55 53 56 58 57 54 58 55 59 57 60 59 61 56 62 7 63 8 64
REMARK SMILES IDX 9 65 10 66 11 67 12 68 13 69 27 70 14 71 26 72 25 73 28 74
REMARK SMILES IDX 15 76 16 77 24 78 17 79 22 80 18 81 23 82 19 83 20 84 21 85
REMARK H PARENT 76 24 50 35 28 75
REMARK Flexibility Score: inf
ROOT
ATOM      1  O   UNL A   1      44.685  19.855  24.227  1.00  0.00    -0.374 OA
ENDROOT
BRANCH   1   2
ATOM      2  C   UNL A   1      44.427  18.627  24.902  1.00  0.00     0.202 C 
BRANCH   2   3
ATOM      3  C   UNL A   1      43.226  18.565  25.845  1.00  0.00     0.261 C 
BRANCH   3   4
ATOM      4  O   UNL A   1      42.058  19.216  25.331  1.00  0.00    -0.460 OA
BRANCH   4   5
ATOM      5  C   UNL A   1      41.174  19.941  26.060  1.00  0.00     0.338 C 
ATOM      6  O   UNL A   1      39.981  19.647  26.029  1.00  0.00    -0.246 OA
BRANCH   5   7
ATOM      7  C   UNL A   1      41.576  21.229  26.697  1.00  0.00     0.060 A 
ATOM      8  C   UNL A   1      42.021  22.248  25.835  1.00  0.00     0.016 A 
ATOM      9  C   UNL A   1      41.549  21.488  28.069  1.00  0.00     0.016 A 
ATOM     10  C   UNL A   1      42.474  23.470  26.343  1.00  0.00     0.010 A 
ATOM     11  C   UNL A   1      42.075  22.662  28.586  1.00  0.00     0.010 A 
ATOM     12  C   UNL A   1      42.515  23.667  27.725  1.00  0.00    -0.014 A 
BRANCH  12  13
ATOM     13  C   UNL A   1      42.766  24.985  28.323  1.00  0.00     0.031 A 
ATOM     14  C   UNL A   1      41.696  26.018  28.429  1.00  0.00     0.074 A 
ATOM     15  C   UNL A   1      44.049  25.267  28.602  1.00  0.00     0.049 A 
ATOM     16  N   UNL A   1      41.753  27.194  28.995  1.00  0.00    -0.248 NA
ATOM     17  C   UNL A   1      40.405  25.705  27.800  1.00  0.00     0.031 C 
ATOM     18  C   UNL A   1      45.173  24.345  28.397  1.00  0.00     0.029 A 
ATOM     19  N   UNL A   1      44.631  26.408  29.071  1.00  0.00    -0.354 N 
ATOM     20  C   UNL A   1      40.494  27.753  28.829  1.00  0.00     0.074 A 
ATOM     21  C   UNL A   1      39.713  26.811  28.053  1.00  0.00     0.031 C 
ATOM     22  C   UNL A   1      46.313  24.963  28.735  1.00  0.00     0.029 A 
ATOM     23  C   UNL A   1      45.993  26.304  29.202  1.00  0.00     0.049 A 
ATOM     24  H   UNL A   1      44.126  27.223  29.294  1.00  0.00     0.167 HD
ATOM     25  C   UNL A   1      40.047  28.943  29.300  1.00  0.00     0.037 A 
ATOM     26  C   UNL A   1      46.876  27.189  29.685  1.00  0.00     0.037 A 
ATOM     27  C   UNL A   1      40.887  29.882  30.008  1.00  0.00     0.049 A 
ATOM     28  C   UNL A   1      46.353  28.490  30.213  1.00  0.00     0.074 A 
ATOM     29  C   UNL A   1      40.539  31.076  30.615  1.00  0.00     0.029 A 
ATOM     30  N   UNL A   1      42.262  29.745  30.162  1.00  0.00    -0.354 N 
ATOM     31  N   UNL A   1      45.120  28.939  30.233  1.00  0.00    -0.248 NA
ATOM     32  C   UNL A   1      47.339  29.385  30.821  1.00  0.00     0.031 C 
ATOM     33  C   UNL A   1      41.710  31.688  31.080  1.00  0.00     0.029 A 
ATOM     34  C   UNL A   1      42.783  30.849  30.820  1.00  0.00     0.049 A 
ATOM     35  H   UNL A   1      42.790  28.975  29.850  1.00  0.00     0.167 HD
ATOM     36  C   UNL A   1      45.175  30.160  30.886  1.00  0.00     0.074 A 
ATOM     37  C   UNL A   1      46.561  30.360  31.268  1.00  0.00     0.031 C 
ATOM     38  C   UNL A   1      44.174  31.037  31.154  1.00  0.00     0.037 A 
BRANCH  25  39
ATOM     39  C   UNL A   1      38.601  29.287  29.071  1.00  0.00     0.057 A 
ATOM     40  C   UNL A   1      37.661  29.196  30.105  1.00  0.00     0.134 A 
ATOM     41  C   UNL A   1      38.126  29.667  27.807  1.00  0.00     0.134 A 
ATOM     42  F   UNL A   1      38.038  28.830  31.339  1.00  0.00    -0.206 F 
ATOM     43  C   UNL A   1      36.308  29.472  29.893  1.00  0.00     0.040 A 
ATOM     44  C   UNL A   1      36.780  29.971  27.588  1.00  0.00     0.040 A 
ATOM     45  F   UNL A   1      38.967  29.775  26.767  1.00  0.00    -0.206 F 
ATOM     46  C   UNL A   1      35.865  29.867  28.633  1.00  0.00     0.006 A 
ENDBRANCH  25  39
BRANCH  26  47
ATOM     47  C   UNL A   1      48.301  26.811  29.808  1.00  0.00     0.057 A 
ATOM     48  C   UNL A   1      48.745  25.901  30.772  1.00  0.00     0.134 A 
ATOM     49  C   UNL A   1      49.262  27.395  28.975  1.00  0.00     0.134 A 
ATOM     50  F   UNL A   1      47.876  25.333  31.621  1.00  0.00    -0.206 F 
ATOM     51  C   UNL A   1      50.097  25.578  30.897  1.00  0.00     0.040 A 
ATOM     52  C   UNL A   1      50.612  27.063  29.072  1.00  0.00     0.040 A 
ATOM     53  F   UNL A   1      48.892  28.280  28.037  1.00  0.00    -0.206 F 
ATOM     54  C   UNL A   1      51.033  26.153  30.039  1.00  0.00     0.006 A 
ENDBRANCH  26  47
BRANCH  38  55
ATOM     55  C   UNL A   1      44.574  32.276  31.903  1.00  0.00     0.057 A 
ATOM     56  C   UNL A   1      44.932  33.441  31.213  1.00  0.00     0.134 A 
ATOM     57  C   UNL A   1      44.550  32.334  33.304  1.00  0.00     0.134 A 
ATOM     58  F   UNL A   1      44.984  33.453  29.873  1.00  0.00    -0.206 F 
ATOM     59  C   UNL A   1      45.230  34.624  31.889  1.00  0.00     0.040 A 
ATOM     60  C   UNL A   1      44.810  33.522  33.988  1.00  0.00     0.040 A 
ATOM     61  F   UNL A   1      44.196  31.258  34.023  1.00  0.00    -0.206 F 
ATOM     62  C   UNL A   1      45.151  34.671  33.279  1.00  0.00     0.006 A 
ENDBRANCH  38  55
ENDBRANCH  12  13
ENDBRANCH   5   7
ENDBRANCH   4   5
ENDBRANCH   3   4
ENDBRANCH   2   3
ENDBRANCH   1   2
BRANCH   1  63
ATOM     63  C   UNL A   1      45.867  20.545  24.645  1.00  0.00     0.202 C 
BRANCH  63  64
ATOM     64  C   UNL A   1      45.641  21.585  25.752  1.00  0.00     0.261 C 
BRANCH  64  65
ATOM     65  O   UNL A   1      46.397  22.784  25.525  1.00  0.00    -0.460 OA
BRANCH  65  66
ATOM     66  C   UNL A   1      45.838  23.702  24.691  1.00  0.00     0.342 C 
ATOM     67  O   UNL A   1      44.891  23.541  23.938  1.00  0.00    -0.246 OA
BRANCH  66  68
ATOM     68  C   UNL A   1      46.392  25.029  25.032  1.00  0.00     0.102 A 
ATOM     69  C   UNL A   1      47.787  25.148  25.189  1.00  0.00     0.028 A 
ATOM     70  C   UNL A   1      45.577  26.159  25.118  1.00  0.00     0.130 A 
ATOM     71  C   UNL A   1      48.367  26.407  25.361  1.00  0.00    -0.017 A 
ATOM     72  C   UNL A   1      46.146  27.409  25.346  1.00  0.00     0.048 A 
ATOM     73  C   UNL A   1      47.533  27.532  25.454  1.00  0.00     0.012 A 
BRANCH  70  74
ATOM     74  O   UNL A   1      44.223  26.040  24.996  1.00  0.00    -0.507 OA
ATOM     75  H   UNL A   1      43.811  26.203  24.171  1.00  0.00     0.293 HD
ENDBRANCH  70  74
BRANCH  71  76
ATOM     76  C   UNL A   1      49.827  26.607  25.434  1.00  0.00    -0.011 A 
ATOM     77  C   UNL A   1      50.468  27.817  24.961  1.00  0.00     0.027 A 
ATOM     78  C   UNL A   1      50.592  25.572  25.825  1.00  0.00     0.080 A 
ATOM     79  C   UNL A   1      51.796  27.868  24.812  1.00  0.00     0.095 A 
ATOM     80  C   UNL A   1      52.079  25.632  25.708  1.00  0.00     0.255 A 
ATOM     81  N   UNL A   1      52.594  26.791  25.148  1.00  0.00    -0.258 N 
ATOM     82  O   UNL A   1      52.733  24.660  26.071  1.00  0.00    -0.269 OA
BRANCH  81  83
ATOM     83  C   UNL A   1      54.011  26.819  24.881  1.00  0.00     0.451 C 
ATOM     84  F   UNL A   1      54.292  26.360  23.638  1.00  0.00    -0.185 F 
ATOM     85  F   UNL A   1      54.493  28.083  24.981  1.00  0.00    -0.185 F 
ENDBRANCH  81  83
ENDBRANCH  71  76
ENDBRANCH  66  68
ENDBRANCH  65  66
ENDBRANCH  64  65
ENDBRANCH  63  64
ENDBRANCH   1  63
TORSDOF 17
ENDMDL
MODEL 3
REMARK VINA RESULT:     -10.9      4.450      7.115
REMARK SMILES O=C(OCCOCCOC(=O)c1cc(-c2ccn(C(F)F)c(=O)c2)ccc1O)c1ccc(-c2c3nc(c(-c4c(F)cccc4F)c4ccc([nH]4)c(-c4c(F)cccc4F)c4nc(c(-c5c(F)cccc5F)c5ccc2[nH]5)C=C4)C=C3)cc1
REMARK SMILES IDX 6 1 5 2 4 3 3 4 2 5 1 6 29 7 30 8 82 9 31 10 81 11 32 12
REMARK SMILES IDX 33 13 34 14 75 15 35 16 80 17 74 18 76 19 36 20 79 21 73 22
REMARK SMILES IDX 72 23 37 25 63 26 46 27 62 28 47 29 50 30 61 31 77 32 48 33
REMARK SMILES IDX 49 34 60 36 78 37 51 38 38 39 39 40 44 41 40 42 41 43 43 44
REMARK SMILES IDX 45 45 42 46 64 47 65 48 70 49 66 50 67 51 69 52 71 53 68 54
REMARK SMILES IDX 52 55 53 56 58 57 54 58 55 59 57 60 59 61 56 62 7 63 8 64
REMARK SMILES IDX 9 65 10 66 11 67 12 68 13 69 27 70 14 71 26 72 25 73 28 74
REMARK SMILES IDX 15 76 16 77 24 78 17 79 22 80 18 81 23 82 19 83 20 84 21 85
REMARK H PARENT 76 24 50 35 28 75
REMARK Flexibility Score: inf
ROOT
ATOM      1  O   UNL A   1      38.391  21.761  25.765  1.00  0.00    -0.374 OA
ENDROOT
BRANCH   1   2
ATOM      2  C   UNL A   1      38.590  20.485  25.165  1.00  0.00     0.202 C 
BRANCH   2   3
ATOM      3  C   UNL A   1      39.280  19.402  25.995  1.00  0.00     0.261 C 
BRANCH   3   4
ATOM      4  O   UNL A   1      40.570  19.031  25.494  1.00  0.00    -0.460 OA
BRANCH   4   5
ATOM      5  C   UNL A   1      41.759  19.367  26.054  1.00  0.00     0.338 C 
ATOM      6  O   UNL A   1      42.509  18.481  26.456  1.00  0.00    -0.246 OA
BRANCH   5   7
ATOM      7  C   UNL A   1      42.066  20.782  26.415  1.00  0.00     0.060 A 
ATOM      8  C   UNL A   1      42.048  21.102  27.785  1.00  0.00     0.016 A 
ATOM      9  C   UNL A   1      42.360  21.797  25.503  1.00  0.00     0.016 A 
ATOM     10  C   UNL A   1      42.265  22.414  28.218  1.00  0.00     0.010 A 
ATOM     11  C   UNL A   1      42.492  23.114  25.916  1.00  0.00     0.010 A 
ATOM     12  C   UNL A   1      42.471  23.423  27.275  1.00  0.00    -0.014 A 
BRANCH  12  13
ATOM     13  C   UNL A   1      42.921  24.769  27.653  1.00  0.00     0.031 A 
ATOM     14  C   UNL A   1      44.367  25.111  27.777  1.00  0.00     0.074 A 
ATOM     15  C   UNL A   1      41.959  25.618  28.051  1.00  0.00     0.049 A 
ATOM     16  N   UNL A   1      44.911  26.271  28.030  1.00  0.00    -0.248 NA
ATOM     17  C   UNL A   1      45.326  24.008  27.620  1.00  0.00     0.031 C 
ATOM     18  C   UNL A   1      40.525  25.304  28.083  1.00  0.00     0.029 A 
ATOM     19  N   UNL A   1      42.036  26.889  28.542  1.00  0.00    -0.354 N 
ATOM     20  C   UNL A   1      46.281  26.054  28.026  1.00  0.00     0.074 A 
ATOM     21  C   UNL A   1      46.482  24.635  27.807  1.00  0.00     0.031 C 
ATOM     22  C   UNL A   1      39.858  26.357  28.575  1.00  0.00     0.029 A 
ATOM     23  C   UNL A   1      40.812  27.418  28.863  1.00  0.00     0.049 A 
ATOM     24  H   UNL A   1      42.884  27.377  28.654  1.00  0.00     0.167 HD
ATOM     25  C   UNL A   1      47.266  26.971  28.182  1.00  0.00     0.037 A 
ATOM     26  C   UNL A   1      40.499  28.644  29.306  1.00  0.00     0.037 A 
ATOM     27  C   UNL A   1      47.014  28.364  28.472  1.00  0.00     0.049 A 
ATOM     28  C   UNL A   1      41.606  29.642  29.455  1.00  0.00     0.074 A 
ATOM     29  C   UNL A   1      47.914  29.412  28.562  1.00  0.00     0.029 A 
ATOM     30  N   UNL A   1      45.761  28.893  28.761  1.00  0.00    -0.354 N 
ATOM     31  N   UNL A   1      42.894  29.486  29.259  1.00  0.00    -0.248 NA
ATOM     32  C   UNL A   1      41.208  30.996  29.846  1.00  0.00     0.031 C 
ATOM     33  C   UNL A   1      47.215  30.557  28.967  1.00  0.00     0.029 A 
ATOM     34  C   UNL A   1      45.868  30.241  29.068  1.00  0.00     0.049 A 
ATOM     35  H   UNL A   1      44.919  28.383  28.749  1.00  0.00     0.167 HD
ATOM     36  C   UNL A   1      43.461  30.732  29.471  1.00  0.00     0.074 A 
ATOM     37  C   UNL A   1      42.367  31.634  29.783  1.00  0.00     0.031 C 
ATOM     38  C   UNL A   1      44.765  31.105  29.411  1.00  0.00     0.037 A 
BRANCH  25  39
ATOM     39  C   UNL A   1      48.688  26.502  28.039  1.00  0.00     0.057 A 
ATOM     40  C   UNL A   1      49.472  26.211  29.162  1.00  0.00     0.134 A 
ATOM     41  C   UNL A   1      49.301  26.383  26.783  1.00  0.00     0.134 A 
ATOM     42  F   UNL A   1      48.959  26.312  30.397  1.00  0.00    -0.206 F 
ATOM     43  C   UNL A   1      50.807  25.817  29.043  1.00  0.00     0.040 A 
ATOM     44  C   UNL A   1      50.628  25.963  26.649  1.00  0.00     0.040 A 
ATOM     45  F   UNL A   1      48.613  26.646  25.661  1.00  0.00    -0.206 F 
ATOM     46  C   UNL A   1      51.387  25.685  27.783  1.00  0.00     0.006 A 
ENDBRANCH  25  39
BRANCH  26  47
ATOM     47  C   UNL A   1      39.080  29.013  29.502  1.00  0.00     0.057 A 
ATOM     48  C   UNL A   1      38.434  28.844  30.730  1.00  0.00     0.134 A 
ATOM     49  C   UNL A   1      38.325  29.510  28.434  1.00  0.00     0.134 A 
ATOM     50  F   UNL A   1      39.096  28.342  31.783  1.00  0.00    -0.206 F 
ATOM     51  C   UNL A   1      37.085  29.167  30.892  1.00  0.00     0.040 A 
ATOM     52  C   UNL A   1      36.984  29.859  28.587  1.00  0.00     0.040 A 
ATOM     53  F   UNL A   1      38.893  29.685  27.231  1.00  0.00    -0.206 F 
ATOM     54  C   UNL A   1      36.360  29.685  29.821  1.00  0.00     0.006 A 
ENDBRANCH  26  47
BRANCH  38  55
ATOM     55  C   UNL A   1      45.043  32.555  29.683  1.00  0.00     0.057 A 
ATOM     56  C   UNL A   1      45.375  32.987  30.973  1.00  0.00     0.134 A 
ATOM     57  C   UNL A   1      45.039  33.514  28.659  1.00  0.00     0.134 A 
ATOM     58  F   UNL A   1      45.389  32.125  32.000  1.00  0.00    -0.206 F 
ATOM     59  C   UNL A   1      45.714  34.315  31.231  1.00  0.00     0.040 A 
ATOM     60  C   UNL A   1      45.412  34.837  28.899  1.00  0.00     0.040 A 
ATOM     61  F   UNL A   1      44.749  33.162  27.398  1.00  0.00    -0.206 F 
ATOM     62  C   UNL A   1      45.751  35.240  30.189  1.00  0.00     0.006 A 
ENDBRANCH  38  55
ENDBRANCH  12  13
ENDBRANCH   5   7
ENDBRANCH   4   5
ENDBRANCH   3   4
ENDBRANCH   2   3
ENDBRANCH   1   2
BRANCH   1  63
ATOM     63  C   UNL A   1      37.573  22.667  25.017  1.00  0.00     0.202 C 
BRANCH  63  64
ATOM     64  C   UNL A   1      36.847  23.720  25.866  1.00  0.00     0.261 C 
BRANCH  64  65
ATOM     65  O   UNL A   1      35.501  23.328  26.172  1.00  0.00    -0.460 OA
BRANCH  65  66
ATOM     66  C   UNL A   1      34.512  24.071  25.606  1.00  0.00     0.342 C 
ATOM     67  O   UNL A   1      34.346  25.276  25.696  1.00  0.00    -0.246 OA
BRANCH  66  68
ATOM     68  C   UNL A   1      33.804  23.221  24.626  1.00  0.00     0.102 A 
ATOM     69  C   UNL A   1      33.810  21.827  24.827  1.00  0.00     0.028 A 
ATOM     70  C   UNL A   1      33.076  23.776  23.571  1.00  0.00     0.130 A 
ATOM     71  C   UNL A   1      33.030  21.000  24.015  1.00  0.00    -0.017 A 
ATOM     72  C   UNL A   1      32.343  22.949  22.725  1.00  0.00     0.048 A 
ATOM     73  C   UNL A   1      32.311  21.571  22.954  1.00  0.00     0.012 A 
BRANCH  70  74
ATOM     74  O   UNL A   1      33.094  25.124  23.359  1.00  0.00    -0.507 OA
ATOM     75  H   UNL A   1      32.525  25.683  23.849  1.00  0.00     0.293 HD
ENDBRANCH  70  74
BRANCH  71  76
ATOM     76  C   UNL A   1      32.918  19.545  24.235  1.00  0.00    -0.011 A 
ATOM     77  C   UNL A   1      32.523  18.983  25.510  1.00  0.00     0.027 A 
ATOM     78  C   UNL A   1      33.334  18.719  23.257  1.00  0.00     0.080 A 
ATOM     79  C   UNL A   1      32.671  17.675  25.751  1.00  0.00     0.095 A 
ATOM     80  C   UNL A   1      33.459  17.252  23.497  1.00  0.00     0.255 A 
ATOM     81  N   UNL A   1      33.157  16.821  24.779  1.00  0.00    -0.258 N 
ATOM     82  O   UNL A   1      33.850  16.541  22.577  1.00  0.00    -0.269 OA
BRANCH  81  83
ATOM     83  C   UNL A   1      33.414  15.435  25.086  1.00  0.00     0.451 C 
ATOM     84  F   UNL A   1      34.698  15.240  25.466  1.00  0.00    -0.185 F 
ATOM     85  F   UNL A   1      32.609  15.010  26.091  1.00  0.00    -0.185 F 
ENDBRANCH  81  83
ENDBRANCH  71  76
ENDBRANCH  66  68
ENDBRANCH  65  66
ENDBRANCH  64  65
ENDBRANCH  63  64
ENDBRANCH   1  63
TORSDOF 17
ENDMDL
