MODEL 1
REMARK VINA RESULT:     -10.0      0.000      0.000
REMARK SMILES CC[NH2+][C@]1(C(=O)OCCOCCOC(=O)c2ccc(-c3c4nc(c(-c5c(F)cccc5F)c5ccc([nH]5)c(-c5c(F)cccc5F)c5nc(c(-c6c(F)cccc6F)c6ccc3[nH]6)C=C5)C=C4)cc2)CCC[C@H]1CC[N@H+]1CCC[C@@H](CC)C1
REMARK SMILES IDX 9 1 8 2 7 3 5 4 6 5 4 6 70 7 73 8 71 9 72 10 3 11 2 14 1 15
REMARK SMILES IDX 74 16 75 17 76 18 77 19 83 20 78 22 80 23 79 24 81 25 82 26
REMARK SMILES IDX 10 27 11 28 12 29 13 30 14 31 15 32 16 33 17 34 69 35 18 36
REMARK SMILES IDX 68 37 19 38 20 39 21 40 62 41 22 42 67 43 61 44 63 45 23 46
REMARK SMILES IDX 66 47 60 48 59 49 24 51 50 52 33 53 49 54 34 55 37 56 48 57
REMARK SMILES IDX 64 58 35 59 36 60 47 62 65 63 38 64 25 65 26 66 31 67 27 68
REMARK SMILES IDX 28 69 30 70 32 71 29 72 51 73 52 74 57 75 53 76 54 77 56 78
REMARK SMILES IDX 58 79 55 80 39 81 40 82 45 83 41 84 42 85 44 86 46 87 43 88
REMARK H PARENT 3 12 3 13 76 21 63 50 37 61
REMARK Flexibility Score: inf
ROOT
ATOM      1  C   UNL A   1      33.593  30.067  26.908  1.00  0.00     0.202 C 
ENDROOT
BRANCH   1   2
ATOM      2  C   UNL A   1      33.683  28.582  27.253  1.00  0.00     0.261 C 
BRANCH   2   3
ATOM      3  O   UNL A   1      33.184  27.683  26.242  1.00  0.00    -0.459 OA
BRANCH   3   4
ATOM      4  C   UNL A   1      31.860  27.321  26.357  1.00  0.00     0.368 C 
ATOM      5  O   UNL A   1      31.183  27.453  27.368  1.00  0.00    -0.245 OA
BRANCH   4   6
ATOM      6  C   UNL A   1      31.397  26.532  25.105  1.00  0.00     0.197 C 
ATOM      7  C   UNL A   1      32.597  26.058  24.264  1.00  0.00     0.081 C 
ATOM      8  C   UNL A   1      30.651  25.163  25.335  1.00  0.00     0.068 C 
ATOM      9  C   UNL A   1      32.016  25.030  23.293  1.00  0.00     0.008 C 
ATOM     10  C   UNL A   1      30.646  24.631  23.873  1.00  0.00     0.011 C 
BRANCH   6  11
ATOM     11  N   UNL A   1      30.480  27.430  24.308  1.00  0.00    -0.332 N 
ATOM     12  H   UNL A   1      30.088  26.885  23.541  1.00  0.00     0.347 HD
ATOM     13  H   UNL A   1      29.771  27.772  24.957  1.00  0.00     0.347 HD
BRANCH  11  14
ATOM     14  C   UNL A   1      31.135  28.612  23.742  1.00  0.00     0.257 C 
ATOM     15  C   UNL A   1      30.343  29.122  22.548  1.00  0.00     0.071 C 
ENDBRANCH  11  14
ENDBRANCH   6  11
BRANCH   8  16
ATOM     16  C   UNL A   1      31.394  24.102  26.213  1.00  0.00     0.072 C 
BRANCH  16  17
ATOM     17  C   UNL A   1      31.202  22.575  25.975  1.00  0.00     0.262 C 
BRANCH  17  18
ATOM     18  N   UNL A   1      32.374  21.689  25.924  1.00  0.00    -0.335 N 
ATOM     19  C   UNL A   1      32.153  20.562  24.996  1.00  0.00     0.262 C 
ATOM     20  C   UNL A   1      33.576  22.433  25.473  1.00  0.00     0.265 C 
ATOM     21  H   UNL A   1      32.518  21.330  26.867  1.00  0.00     0.348 HD
ATOM     22  C   UNL A   1      33.353  19.609  24.986  1.00  0.00     0.062 C 
ATOM     23  C   UNL A   1      34.824  21.544  25.600  1.00  0.00     0.044 C 
ATOM     24  C   UNL A   1      34.673  20.324  24.688  1.00  0.00     0.015 C 
BRANCH  23  25
ATOM     25  C   UNL A   1      36.114  22.351  25.374  1.00  0.00     0.006 C 
ATOM     26  C   UNL A   1      36.642  22.276  23.947  1.00  0.00     0.004 C 
ENDBRANCH  23  25
ENDBRANCH  17  18
ENDBRANCH  16  17
ENDBRANCH   8  16
ENDBRANCH   4   6
ENDBRANCH   3   4
ENDBRANCH   2   3
ENDBRANCH   1   2
BRANCH   1  27
ATOM     27  O   UNL A   1      32.351  30.598  27.331  1.00  0.00    -0.374 OA
BRANCH  27  28
ATOM     28  C   UNL A   1      31.729  31.564  26.494  1.00  0.00     0.202 C 
BRANCH  28  29
ATOM     29  C   UNL A   1      31.775  33.038  26.906  1.00  0.00     0.261 C 
BRANCH  29  30
ATOM     30  O   UNL A   1      33.070  33.614  27.123  1.00  0.00    -0.460 OA
BRANCH  30  31
ATOM     31  C   UNL A   1      33.241  34.243  28.301  1.00  0.00     0.338 C 
ATOM     32  O   UNL A   1      32.549  35.151  28.748  1.00  0.00    -0.246 OA
BRANCH  31  33
ATOM     33  C   UNL A   1      34.384  33.654  29.029  1.00  0.00     0.060 A 
ATOM     34  C   UNL A   1      35.663  34.143  28.749  1.00  0.00     0.016 A 
ATOM     35  C   UNL A   1      34.222  32.583  29.919  1.00  0.00     0.016 A 
ATOM     36  C   UNL A   1      36.779  33.538  29.320  1.00  0.00     0.010 A 
ATOM     37  C   UNL A   1      35.342  31.944  30.450  1.00  0.00     0.010 A 
ATOM     38  C   UNL A   1      36.626  32.415  30.145  1.00  0.00    -0.014 A 
BRANCH  38  39
ATOM     39  C   UNL A   1      37.823  31.769  30.719  1.00  0.00     0.031 A 
ATOM     40  C   UNL A   1      38.262  32.087  32.117  1.00  0.00     0.074 A 
ATOM     41  C   UNL A   1      38.488  30.874  29.969  1.00  0.00     0.049 A 
ATOM     42  N   UNL A   1      39.195  31.520  32.836  1.00  0.00    -0.248 NA
ATOM     43  C   UNL A   1      37.566  33.192  32.794  1.00  0.00     0.031 C 
ATOM     44  C   UNL A   1      38.151  30.522  28.588  1.00  0.00     0.029 A 
ATOM     45  N   UNL A   1      39.581  30.103  30.256  1.00  0.00    -0.354 N 
ATOM     46  C   UNL A   1      39.181  32.177  34.061  1.00  0.00     0.074 A 
ATOM     47  C   UNL A   1      38.173  33.212  33.974  1.00  0.00     0.031 C 
ATOM     48  C   UNL A   1      39.031  29.614  28.142  1.00  0.00     0.029 A 
ATOM     49  C   UNL A   1      39.979  29.311  29.210  1.00  0.00     0.049 A 
ATOM     50  H   UNL A   1      40.037  30.115  31.129  1.00  0.00     0.167 HD
ATOM     51  C   UNL A   1      39.938  31.920  35.155  1.00  0.00     0.037 A 
ATOM     52  C   UNL A   1      40.988  28.425  29.130  1.00  0.00     0.037 A 
ATOM     53  C   UNL A   1      40.950  30.895  35.206  1.00  0.00     0.049 A 
ATOM     54  C   UNL A   1      41.799  28.148  30.361  1.00  0.00     0.074 A 
ATOM     55  C   UNL A   1      41.741  30.512  36.275  1.00  0.00     0.029 A 
ATOM     56  N   UNL A   1      41.318  30.100  34.131  1.00  0.00    -0.354 N 
ATOM     57  N   UNL A   1      41.709  28.700  31.548  1.00  0.00    -0.248 NA
ATOM     58  C   UNL A   1      42.826  27.104  30.256  1.00  0.00     0.031 C 
ATOM     59  C   UNL A   1      42.613  29.509  35.836  1.00  0.00     0.029 A 
ATOM     60  C   UNL A   1      42.339  29.241  34.503  1.00  0.00     0.049 A 
ATOM     61  H   UNL A   1      40.913  30.139  33.235  1.00  0.00     0.167 HD
ATOM     62  C   UNL A   1      42.651  28.060  32.337  1.00  0.00     0.074 A 
ATOM     63  C   UNL A   1      43.291  27.065  31.498  1.00  0.00     0.031 C 
ATOM     64  C   UNL A   1      42.961  28.270  33.640  1.00  0.00     0.037 A 
BRANCH  51  65
ATOM     65  C   UNL A   1      39.705  32.751  36.383  1.00  0.00     0.057 A 
ATOM     66  C   UNL A   1      40.456  33.905  36.643  1.00  0.00     0.134 A 
ATOM     67  C   UNL A   1      38.675  32.439  37.279  1.00  0.00     0.134 A 
ATOM     68  F   UNL A   1      41.462  34.258  35.828  1.00  0.00    -0.206 F 
ATOM     69  C   UNL A   1      40.198  34.712  37.753  1.00  0.00     0.040 A 
ATOM     70  C   UNL A   1      38.394  33.249  38.382  1.00  0.00     0.040 A 
ATOM     71  F   UNL A   1      37.912  31.353  37.089  1.00  0.00    -0.206 F 
ATOM     72  C   UNL A   1      39.158  34.389  38.622  1.00  0.00     0.006 A 
ENDBRANCH  51  65
BRANCH  52  73
ATOM     73  C   UNL A   1      41.235  27.715  27.853  1.00  0.00     0.057 A 
ATOM     74  C   UNL A   1      40.644  26.478  27.580  1.00  0.00     0.134 A 
ATOM     75  C   UNL A   1      42.033  28.287  26.853  1.00  0.00     0.134 A 
ATOM     76  F   UNL A   1      39.876  25.879  28.502  1.00  0.00    -0.206 F 
ATOM     77  C   UNL A   1      40.845  25.826  26.362  1.00  0.00     0.040 A 
ATOM     78  C   UNL A   1      42.225  27.656  25.623  1.00  0.00     0.040 A 
ATOM     79  F   UNL A   1      42.613  29.479  27.050  1.00  0.00    -0.206 F 
ATOM     80  C   UNL A   1      41.632  26.420  25.377  1.00  0.00     0.006 A 
ENDBRANCH  52  73
BRANCH  64  81
ATOM     81  C   UNL A   1      44.032  27.402  34.224  1.00  0.00     0.057 A 
ATOM     82  C   UNL A   1      43.739  26.147  34.773  1.00  0.00     0.134 A 
ATOM     83  C   UNL A   1      45.369  27.817  34.222  1.00  0.00     0.134 A 
ATOM     84  F   UNL A   1      42.474  25.703  34.814  1.00  0.00    -0.206 F 
ATOM     85  C   UNL A   1      44.738  25.344  35.322  1.00  0.00     0.040 A 
ATOM     86  C   UNL A   1      46.379  27.014  34.750  1.00  0.00     0.040 A 
ATOM     87  F   UNL A   1      45.713  29.006  33.706  1.00  0.00    -0.206 F 
ATOM     88  C   UNL A   1      46.064  25.776  35.308  1.00  0.00     0.006 A 
ENDBRANCH  64  81
ENDBRANCH  38  39
ENDBRANCH  31  33
ENDBRANCH  30  31
ENDBRANCH  29  30
ENDBRANCH  28  29
ENDBRANCH  27  28
ENDBRANCH   1  27
TORSDOF 20
ENDMDL
MODEL 2
REMARK VINA RESULT:      -9.9      4.736      9.497
REMARK SMILES CC[NH2+][C@]1(C(=O)OCCOCCOC(=O)c2ccc(-c3c4nc(c(-c5c(F)cccc5F)c5ccc([nH]5)c(-c5c(F)cccc5F)c5nc(c(-c6c(F)cccc6F)c6ccc3[nH]6)C=C5)C=C4)cc2)CCC[C@H]1CC[N@H+]1CCC[C@@H](CC)C1
REMARK SMILES IDX 9 1 8 2 7 3 5 4 6 5 4 6 70 7 73 8 71 9 72 10 3 11 2 14 1 15
REMARK SMILES IDX 74 16 75 17 76 18 77 19 83 20 78 22 80 23 79 24 81 25 82 26
REMARK SMILES IDX 10 27 11 28 12 29 13 30 14 31 15 32 16 33 17 34 69 35 18 36
REMARK SMILES IDX 68 37 19 38 20 39 21 40 62 41 22 42 67 43 61 44 63 45 23 46
REMARK SMILES IDX 66 47 60 48 59 49 24 51 50 52 33 53 49 54 34 55 37 56 48 57
REMARK SMILES IDX 64 58 35 59 36 60 47 62 65 63 38 64 25 65 26 66 31 67 27 68
REMARK SMILES IDX 28 69 30 70 32 71 29 72 51 73 52 74 57 75 53 76 54 77 56 78
REMARK SMILES IDX 58 79 55 80 39 81 40 82 45 83 41 84 42 85 44 86 46 87 43 88
REMARK H PARENT 3 12 3 13 76 21 63 50 37 61
REMARK Flexibility Score: inf
ROOT
ATOM      1  C   UNL A   1      36.671  21.771  25.550  1.00  0.00     0.202 C 
ENDROOT
BRANCH   1   2
ATOM      2  C   UNL A   1      36.556  23.293  25.616  1.00  0.00     0.261 C 
BRANCH   2   3
ATOM      3  O   UNL A   1      35.425  23.856  24.920  1.00  0.00    -0.459 OA
BRANCH   3   4
ATOM      4  C   UNL A   1      34.272  23.995  25.659  1.00  0.00     0.368 C 
ATOM      5  O   UNL A   1      34.131  23.622  26.816  1.00  0.00    -0.245 OA
BRANCH   4   6
ATOM      6  C   UNL A   1      33.106  24.496  24.766  1.00  0.00     0.197 C 
ATOM      7  C   UNL A   1      33.556  24.674  23.303  1.00  0.00     0.081 C 
ATOM      8  C   UNL A   1      31.869  23.540  24.570  1.00  0.00     0.068 C 
ATOM      9  C   UNL A   1      32.259  24.825  22.509  1.00  0.00     0.008 C 
ATOM     10  C   UNL A   1      31.139  24.306  23.430  1.00  0.00     0.011 C 
BRANCH   6  11
ATOM     11  N   UNL A   1      32.600  25.792  25.354  1.00  0.00    -0.332 N 
ATOM     12  H   UNL A   1      31.763  26.069  24.843  1.00  0.00     0.347 HD
ATOM     13  H   UNL A   1      32.423  25.614  26.342  1.00  0.00     0.347 HD
BRANCH  11  14
ATOM     14  C   UNL A   1      33.561  26.897  25.295  1.00  0.00     0.257 C 
ATOM     15  C   UNL A   1      33.506  27.702  26.584  1.00  0.00     0.071 C 
ENDBRANCH  11  14
ENDBRANCH   6  11
BRANCH   8  16
ATOM     16  C   UNL A   1      32.176  22.100  24.040  1.00  0.00     0.072 C 
BRANCH  16  17
ATOM     17  C   UNL A   1      32.168  20.867  24.992  1.00  0.00     0.262 C 
BRANCH  17  18
ATOM     18  N   UNL A   1      32.133  19.509  24.429  1.00  0.00    -0.335 N 
ATOM     19  C   UNL A   1      32.528  19.510  23.007  1.00  0.00     0.262 C 
ATOM     20  C   UNL A   1      33.056  18.611  25.166  1.00  0.00     0.265 C 
ATOM     21  H   UNL A   1      31.175  19.175  24.516  1.00  0.00     0.348 HD
ATOM     22  C   UNL A   1      32.439  18.103  22.405  1.00  0.00     0.062 C 
ATOM     23  C   UNL A   1      32.874  17.161  24.687  1.00  0.00     0.044 C 
ATOM     24  C   UNL A   1      33.235  17.068  23.203  1.00  0.00     0.015 C 
BRANCH  23  25
ATOM     25  C   UNL A   1      33.632  16.172  25.589  1.00  0.00     0.006 C 
ATOM     26  C   UNL A   1      35.079  15.947  25.172  1.00  0.00     0.004 C 
ENDBRANCH  23  25
ENDBRANCH  17  18
ENDBRANCH  16  17
ENDBRANCH   8  16
ENDBRANCH   4   6
ENDBRANCH   3   4
ENDBRANCH   2   3
ENDBRANCH   1   2
BRANCH   1  27
ATOM     27  O   UNL A   1      37.977  21.392  25.159  1.00  0.00    -0.374 OA
BRANCH  27  28
ATOM     28  C   UNL A   1      38.232  20.005  24.975  1.00  0.00     0.202 C 
BRANCH  28  29
ATOM     29  C   UNL A   1      39.343  19.343  25.794  1.00  0.00     0.261 C 
BRANCH  29  30
ATOM     30  O   UNL A   1      40.641  19.265  25.189  1.00  0.00    -0.460 OA
BRANCH  30  31
ATOM     31  C   UNL A   1      41.684  19.273  26.039  1.00  0.00     0.338 C 
ATOM     32  O   UNL A   1      42.375  18.309  26.352  1.00  0.00    -0.246 OA
BRANCH  31  33
ATOM     33  C   UNL A   1      41.925  20.643  26.537  1.00  0.00     0.060 A 
ATOM     34  C   UNL A   1      42.112  21.660  25.596  1.00  0.00     0.016 A 
ATOM     35  C   UNL A   1      42.045  20.923  27.905  1.00  0.00     0.016 A 
ATOM     36  C   UNL A   1      42.461  22.940  26.016  1.00  0.00     0.010 A 
ATOM     37  C   UNL A   1      42.446  22.191  28.323  1.00  0.00     0.010 A 
ATOM     38  C   UNL A   1      42.664  23.203  27.378  1.00  0.00    -0.014 A 
BRANCH  38  39
ATOM     39  C   UNL A   1      43.061  24.560  27.803  1.00  0.00     0.031 A 
ATOM     40  C   UNL A   1      44.501  24.977  27.771  1.00  0.00     0.074 A 
ATOM     41  C   UNL A   1      42.099  25.415  28.191  1.00  0.00     0.049 A 
ATOM     42  N   UNL A   1      45.020  26.160  27.968  1.00  0.00    -0.248 NA
ATOM     43  C   UNL A   1      45.488  23.924  27.485  1.00  0.00     0.031 C 
ATOM     44  C   UNL A   1      40.675  25.089  28.282  1.00  0.00     0.029 A 
ATOM     45  N   UNL A   1      42.171  26.724  28.583  1.00  0.00    -0.354 N 
ATOM     46  C   UNL A   1      46.391  26.005  27.803  1.00  0.00     0.074 A 
ATOM     47  C   UNL A   1      46.628  24.603  27.527  1.00  0.00     0.031 C 
ATOM     48  C   UNL A   1      40.007  26.167  28.719  1.00  0.00     0.029 A 
ATOM     49  C   UNL A   1      40.955  27.259  28.920  1.00  0.00     0.049 A 
ATOM     50  H   UNL A   1      43.014  27.232  28.618  1.00  0.00     0.167 HD
ATOM     51  C   UNL A   1      47.353  26.956  27.865  1.00  0.00     0.037 A 
ATOM     52  C   UNL A   1      40.639  28.500  29.331  1.00  0.00     0.037 A 
ATOM     53  C   UNL A   1      47.091  28.342  28.161  1.00  0.00     0.049 A 
ATOM     54  C   UNL A   1      41.720  29.539  29.374  1.00  0.00     0.074 A 
ATOM     55  C   UNL A   1      47.980  29.402  28.200  1.00  0.00     0.029 A 
ATOM     56  N   UNL A   1      45.843  28.854  28.485  1.00  0.00    -0.354 N 
ATOM     57  N   UNL A   1      43.000  29.406  29.113  1.00  0.00    -0.248 NA
ATOM     58  C   UNL A   1      41.315  30.903  29.733  1.00  0.00     0.031 C 
ATOM     59  C   UNL A   1      47.275  30.549  28.583  1.00  0.00     0.029 A 
ATOM     60  C   UNL A   1      45.940  30.211  28.746  1.00  0.00     0.049 A 
ATOM     61  H   UNL A   1      45.010  28.330  28.523  1.00  0.00     0.167 HD
ATOM     62  C   UNL A   1      43.550  30.671  29.257  1.00  0.00     0.074 A 
ATOM     63  C   UNL A   1      42.460  31.561  29.611  1.00  0.00     0.031 C 
ATOM     64  C   UNL A   1      44.837  31.065  29.106  1.00  0.00     0.037 A 
BRANCH  51  65
ATOM     65  C   UNL A   1      48.773  26.540  27.607  1.00  0.00     0.057 A 
ATOM     66  C   UNL A   1      49.613  26.112  28.644  1.00  0.00     0.134 A 
ATOM     67  C   UNL A   1      49.286  26.498  26.305  1.00  0.00     0.134 A 
ATOM     68  F   UNL A   1      49.186  26.133  29.916  1.00  0.00    -0.206 F 
ATOM     69  C   UNL A   1      50.913  25.667  28.397  1.00  0.00     0.040 A 
ATOM     70  C   UNL A   1      50.578  26.036  26.042  1.00  0.00     0.040 A 
ATOM     71  F   UNL A   1      48.535  26.887  25.264  1.00  0.00    -0.206 F 
ATOM     72  C   UNL A   1      51.396  25.620  27.090  1.00  0.00     0.006 A 
ENDBRANCH  51  65
BRANCH  52  73
ATOM     73  C   UNL A   1      39.233  28.819  29.675  1.00  0.00     0.057 A 
ATOM     74  C   UNL A   1      38.742  28.641  30.972  1.00  0.00     0.134 A 
ATOM     75  C   UNL A   1      38.361  29.357  28.720  1.00  0.00     0.134 A 
ATOM     76  F   UNL A   1      39.529  28.123  31.926  1.00  0.00    -0.206 F 
ATOM     77  C   UNL A   1      37.429  28.976  31.306  1.00  0.00     0.040 A 
ATOM     78  C   UNL A   1      37.053  29.716  29.046  1.00  0.00     0.040 A 
ATOM     79  F   UNL A   1      38.780  29.565  27.464  1.00  0.00    -0.206 F 
ATOM     80  C   UNL A   1      36.583  29.522  30.343  1.00  0.00     0.006 A 
ENDBRANCH  52  73
BRANCH  64  81
ATOM     81  C   UNL A   1      45.123  32.519  29.321  1.00  0.00     0.057 A 
ATOM     82  C   UNL A   1      45.015  33.449  28.280  1.00  0.00     0.134 A 
ATOM     83  C   UNL A   1      45.494  32.995  30.585  1.00  0.00     0.134 A 
ATOM     84  F   UNL A   1      44.678  33.048  27.045  1.00  0.00    -0.206 F 
ATOM     85  C   UNL A   1      45.290  34.801  28.483  1.00  0.00     0.040 A 
ATOM     86  C   UNL A   1      45.750  34.348  30.805  1.00  0.00     0.040 A 
ATOM     87  F   UNL A   1      45.609  32.155  31.624  1.00  0.00    -0.206 F 
ATOM     88  C   UNL A   1      45.654  35.255  29.749  1.00  0.00     0.006 A 
ENDBRANCH  64  81
ENDBRANCH  38  39
ENDBRANCH  31  33
ENDBRANCH  30  31
ENDBRANCH  29  30
ENDBRANCH  28  29
ENDBRANCH  27  28
ENDBRANCH   1  27
TORSDOF 20
ENDMDL
MODEL 3
REMARK VINA RESULT:      -9.8      1.303      2.012
REMARK SMILES CC[NH2+][C@]1(C(=O)OCCOCCOC(=O)c2ccc(-c3c4nc(c(-c5c(F)cccc5F)c5ccc([nH]5)c(-c5c(F)cccc5F)c5nc(c(-c6c(F)cccc6F)c6ccc3[nH]6)C=C5)C=C4)cc2)CCC[C@H]1CC[N@H+]1CCC[C@@H](CC)C1
REMARK SMILES IDX 9 1 8 2 7 3 5 4 6 5 4 6 70 7 73 8 71 9 72 10 3 11 2 14 1 15
REMARK SMILES IDX 74 16 75 17 76 18 77 19 83 20 78 22 80 23 79 24 81 25 82 26
REMARK SMILES IDX 10 27 11 28 12 29 13 30 14 31 15 32 16 33 17 34 69 35 18 36
REMARK SMILES IDX 68 37 19 38 20 39 21 40 62 41 22 42 67 43 61 44 63 45 23 46
REMARK SMILES IDX 66 47 60 48 59 49 24 51 50 52 33 53 49 54 34 55 37 56 48 57
REMARK SMILES IDX 64 58 35 59 36 60 47 62 65 63 38 64 25 65 26 66 31 67 27 68
REMARK SMILES IDX 28 69 30 70 32 71 29 72 51 73 52 74 57 75 53 76 54 77 56 78
REMARK SMILES IDX 58 79 55 80 39 81 40 82 45 83 41 84 42 85 44 86 46 87 43 88
REMARK H PARENT 3 12 3 13 76 21 63 50 37 61
REMARK Flexibility Score: inf
ROOT
ATOM      1  C   UNL A   1      32.839  30.298  26.972  1.00  0.00     0.202 C 
ENDROOT
BRANCH   1   2
ATOM      2  C   UNL A   1      32.594  28.848  27.383  1.00  0.00     0.261 C 
BRANCH   2   3
ATOM      3  O   UNL A   1      32.971  27.858  26.406  1.00  0.00    -0.459 OA
BRANCH   3   4
ATOM      4  C   UNL A   1      31.937  27.281  25.702  1.00  0.00     0.368 C 
ATOM      5  O   UNL A   1      30.977  26.714  26.206  1.00  0.00    -0.245 OA
BRANCH   4   6
ATOM      6  C   UNL A   1      32.253  27.260  24.183  1.00  0.00     0.197 C 
ATOM      7  C   UNL A   1      33.388  28.241  23.831  1.00  0.00     0.081 C 
ATOM      8  C   UNL A   1      32.830  25.926  23.572  1.00  0.00     0.068 C 
ATOM      9  C   UNL A   1      33.810  27.861  22.413  1.00  0.00     0.008 C 
ATOM     10  C   UNL A   1      33.241  26.451  22.167  1.00  0.00     0.011 C 
BRANCH   6  11
ATOM     11  N   UNL A   1      30.979  27.594  23.444  1.00  0.00    -0.332 N 
ATOM     12  H   UNL A   1      31.130  27.413  22.452  1.00  0.00     0.347 HD
ATOM     13  H   UNL A   1      30.246  27.012  23.848  1.00  0.00     0.347 HD
BRANCH  11  14
ATOM     14  C   UNL A   1      30.541  28.984  23.594  1.00  0.00     0.257 C 
ATOM     15  C   UNL A   1      30.158  29.557  22.239  1.00  0.00     0.071 C 
ENDBRANCH  11  14
ENDBRANCH   6  11
BRANCH   8  16
ATOM     16  C   UNL A   1      34.118  25.349  24.248  1.00  0.00     0.072 C 
BRANCH  16  17
ATOM     17  C   UNL A   1      34.481  23.838  24.141  1.00  0.00     0.262 C 
BRANCH  17  18
ATOM     18  N   UNL A   1      33.417  22.842  23.942  1.00  0.00    -0.335 N 
ATOM     19  C   UNL A   1      33.169  22.605  22.507  1.00  0.00     0.262 C 
ATOM     20  C   UNL A   1      33.785  21.549  24.569  1.00  0.00     0.265 C 
ATOM     21  H   UNL A   1      32.575  23.216  24.377  1.00  0.00     0.348 HD
ATOM     22  C   UNL A   1      32.023  21.609  22.299  1.00  0.00     0.062 C 
ATOM     23  C   UNL A   1      32.592  20.579  24.512  1.00  0.00     0.044 C 
ATOM     24  C   UNL A   1      32.239  20.294  23.051  1.00  0.00     0.015 C 
BRANCH  23  25
ATOM     25  C   UNL A   1      32.849  19.322  25.361  1.00  0.00     0.006 C 
ATOM     26  C   UNL A   1      32.526  18.019  24.642  1.00  0.00     0.004 C 
ENDBRANCH  23  25
ENDBRANCH  17  18
ENDBRANCH  16  17
ENDBRANCH   8  16
ENDBRANCH   4   6
ENDBRANCH   3   4
ENDBRANCH   2   3
ENDBRANCH   1   2
BRANCH   1  27
ATOM     27  O   UNL A   1      31.663  30.862  26.423  1.00  0.00    -0.374 OA
BRANCH  27  28
ATOM     28  C   UNL A   1      31.443  32.252  26.627  1.00  0.00     0.202 C 
BRANCH  28  29
ATOM     29  C   UNL A   1      32.548  33.087  27.279  1.00  0.00     0.261 C 
BRANCH  29  30
ATOM     30  O   UNL A   1      32.193  33.841  28.445  1.00  0.00    -0.460 OA
BRANCH  30  31
ATOM     31  C   UNL A   1      33.018  34.857  28.759  1.00  0.00     0.338 C 
ATOM     32  O   UNL A   1      32.798  36.051  28.589  1.00  0.00    -0.246 OA
BRANCH  31  33
ATOM     33  C   UNL A   1      34.249  34.337  29.390  1.00  0.00     0.060 A 
ATOM     34  C   UNL A   1      35.469  34.588  28.756  1.00  0.00     0.016 A 
ATOM     35  C   UNL A   1      34.208  33.545  30.546  1.00  0.00     0.016 A 
ATOM     36  C   UNL A   1      36.639  34.015  29.249  1.00  0.00     0.010 A 
ATOM     37  C   UNL A   1      35.371  32.930  31.009  1.00  0.00     0.010 A 
ATOM     38  C   UNL A   1      36.590  33.157  30.355  1.00  0.00    -0.014 A 
BRANCH  38  39
ATOM     39  C   UNL A   1      37.837  32.537  30.846  1.00  0.00     0.031 A 
ATOM     40  C   UNL A   1      38.498  33.043  32.093  1.00  0.00     0.074 A 
ATOM     41  C   UNL A   1      38.345  31.497  30.163  1.00  0.00     0.049 A 
ATOM     42  N   UNL A   1      39.510  32.539  32.751  1.00  0.00    -0.248 NA
ATOM     43  C   UNL A   1      37.956  34.280  32.674  1.00  0.00     0.031 C 
ATOM     44  C   UNL A   1      37.786  30.954  28.924  1.00  0.00     0.029 A 
ATOM     45  N   UNL A   1      39.440  30.715  30.410  1.00  0.00    -0.354 N 
ATOM     46  C   UNL A   1      39.709  33.379  33.840  1.00  0.00     0.074 A 
ATOM     47  C   UNL A   1      38.739  34.448  33.733  1.00  0.00     0.031 C 
ATOM     48  C   UNL A   1      38.553  29.935  28.509  1.00  0.00     0.029 A 
ATOM     49  C   UNL A   1      39.642  29.745  29.461  1.00  0.00     0.049 A 
ATOM     50  H   UNL A   1      40.025  30.835  31.193  1.00  0.00     0.167 HD
ATOM     51  C   UNL A   1      40.616  33.251  34.838  1.00  0.00     0.037 A 
ATOM     52  C   UNL A   1      40.593  28.798  29.381  1.00  0.00     0.037 A 
ATOM     53  C   UNL A   1      41.585  32.186  34.909  1.00  0.00     0.049 A 
ATOM     54  C   UNL A   1      41.574  28.667  30.508  1.00  0.00     0.074 A 
ATOM     55  C   UNL A   1      42.517  31.928  35.898  1.00  0.00     0.029 A 
ATOM     56  N   UNL A   1      41.754  31.212  33.936  1.00  0.00    -0.354 N 
ATOM     57  N   UNL A   1      41.689  29.404  31.589  1.00  0.00    -0.248 NA
ATOM     58  C   UNL A   1      42.533  27.560  30.427  1.00  0.00     0.031 C 
ATOM     59  C   UNL A   1      43.274  30.817  35.506  1.00  0.00     0.029 A 
ATOM     60  C   UNL A   1      42.787  30.361  34.291  1.00  0.00     0.049 A 
ATOM     61  H   UNL A   1      41.216  31.134  33.115  1.00  0.00     0.167 HD
ATOM     62  C   UNL A   1      42.718  28.838  32.325  1.00  0.00     0.074 A 
ATOM     63  C   UNL A   1      43.183  27.687  31.576  1.00  0.00     0.031 C 
ATOM     64  C   UNL A   1      43.232  29.230  33.516  1.00  0.00     0.037 A 
BRANCH  51  65
ATOM     65  C   UNL A   1      40.606  34.277  35.934  1.00  0.00     0.057 A 
ATOM     66  C   UNL A   1      41.362  35.453  35.846  1.00  0.00     0.134 A 
ATOM     67  C   UNL A   1      39.781  34.125  37.055  1.00  0.00     0.134 A 
ATOM     68  F   UNL A   1      42.178  35.659  34.801  1.00  0.00    -0.206 F 
ATOM     69  C   UNL A   1      41.306  36.436  36.836  1.00  0.00     0.040 A 
ATOM     70  C   UNL A   1      39.701  35.109  38.044  1.00  0.00     0.040 A 
ATOM     71  F   UNL A   1      39.026  33.027  37.202  1.00  0.00    -0.206 F 
ATOM     72  C   UNL A   1      40.466  36.269  37.936  1.00  0.00     0.006 A 
ENDBRANCH  51  65
BRANCH  52  73
ATOM     73  C   UNL A   1      40.614  27.883  28.215  1.00  0.00     0.057 A 
ATOM     74  C   UNL A   1      41.333  28.192  27.057  1.00  0.00     0.134 A 
ATOM     75  C   UNL A   1      39.950  26.650  28.256  1.00  0.00     0.134 A 
ATOM     76  F   UNL A   1      41.982  29.362  26.958  1.00  0.00    -0.206 F 
ATOM     77  C   UNL A   1      41.383  27.314  25.974  1.00  0.00     0.040 A 
ATOM     78  C   UNL A   1      40.009  25.753  27.188  1.00  0.00     0.040 A 
ATOM     79  F   UNL A   1      39.257  26.290  29.345  1.00  0.00    -0.206 F 
ATOM     80  C   UNL A   1      40.726  26.087  26.041  1.00  0.00     0.006 A 
ENDBRANCH  52  73
BRANCH  64  81
ATOM     81  C   UNL A   1      44.348  28.400  34.072  1.00  0.00     0.057 A 
ATOM     82  C   UNL A   1      44.099  27.297  34.898  1.00  0.00     0.134 A 
ATOM     83  C   UNL A   1      45.681  28.697  33.764  1.00  0.00     0.134 A 
ATOM     84  F   UNL A   1      42.842  26.974  35.237  1.00  0.00    -0.206 F 
ATOM     85  C   UNL A   1      45.141  26.531  35.419  1.00  0.00     0.040 A 
ATOM     86  C   UNL A   1      46.731  27.926  34.263  1.00  0.00     0.040 A 
ATOM     87  F   UNL A   1      45.983  29.738  32.974  1.00  0.00    -0.206 F 
ATOM     88  C   UNL A   1      46.461  26.842  35.098  1.00  0.00     0.006 A 
ENDBRANCH  64  81
ENDBRANCH  38  39
ENDBRANCH  31  33
ENDBRANCH  30  31
ENDBRANCH  29  30
ENDBRANCH  28  29
ENDBRANCH  27  28
ENDBRANCH   1  27
TORSDOF 20
ENDMDL
