MODEL 1
REMARK VINA RESULT:     -10.8      0.000      0.000
REMARK SMILES C[C@@H](C(=O)OCCOCCOC(=O)c1ccc(-c2c3nc(c(-c4c(F)cccc4F)c4ccc([nH]4)c(-c4c(F)cccc4F)c4nc(c(-c5c(F)cccc5F)c5ccc2[nH]5)C=C4)C=C3)cc1)c1ccc(C[C@H]2CCC[C@H]2O)cc1
REMARK SMILES IDX 7 1 6 2 5 3 3 4 4 5 2 6 1 7 68 8 69 9 80 10 70 11 79 12
REMARK SMILES IDX 71 13 72 14 73 15 74 16 77 17 75 18 76 19 78 20 8 22 9 23
REMARK SMILES IDX 10 24 11 25 12 26 13 27 14 28 15 29 67 30 16 31 66 32 17 33
REMARK SMILES IDX 18 34 19 35 60 36 20 37 65 38 59 39 61 40 21 41 64 42 58 43
REMARK SMILES IDX 57 44 22 46 48 47 31 48 47 49 32 50 35 51 46 52 62 53 33 54
REMARK SMILES IDX 34 55 45 57 63 58 36 59 23 60 24 61 29 62 25 63 26 64 28 65
REMARK SMILES IDX 30 66 27 67 49 68 50 69 55 70 51 71 52 72 54 73 56 74 53 75
REMARK SMILES IDX 37 76 38 77 43 78 39 79 40 80 42 81 44 82 41 83
REMARK H PARENT 78 21 61 45 35 56
REMARK Flexibility Score: inf
ROOT
ATOM      1  C   UNL A   1      32.680  29.488  26.042  1.00  0.00     0.202 C 
ENDROOT
BRANCH   1   2
ATOM      2  C   UNL A   1      32.286  28.276  26.891  1.00  0.00     0.261 C 
BRANCH   2   3
ATOM      3  O   UNL A   1      32.931  27.087  26.409  1.00  0.00    -0.463 OA
BRANCH   3   4
ATOM      4  C   UNL A   1      32.104  26.048  26.109  1.00  0.00     0.313 C 
ATOM      5  O   UNL A   1      31.500  25.392  26.952  1.00  0.00    -0.252 OA
BRANCH   4   6
ATOM      6  C   UNL A   1      31.963  25.817  24.595  1.00  0.00     0.126 C 
ATOM      7  C   UNL A   1      33.320  25.885  23.877  1.00  0.00     0.025 C 
BRANCH   6   8
ATOM      8  C   UNL A   1      30.861  26.686  23.980  1.00  0.00    -0.034 A 
ATOM      9  C   UNL A   1      31.124  27.774  23.134  1.00  0.00     0.005 A 
ATOM     10  C   UNL A   1      29.512  26.379  24.230  1.00  0.00     0.005 A 
ATOM     11  C   UNL A   1      30.082  28.554  22.612  1.00  0.00     0.004 A 
ATOM     12  C   UNL A   1      28.475  27.176  23.735  1.00  0.00     0.004 A 
ATOM     13  C   UNL A   1      28.751  28.296  22.946  1.00  0.00    -0.048 A 
BRANCH  13  14
ATOM     14  C   UNL A   1      27.634  29.194  22.470  1.00  0.00     0.041 C 
BRANCH  14  15
ATOM     15  C   UNL A   1      27.756  30.704  22.745  1.00  0.00     0.022 C 
ATOM     16  C   UNL A   1      28.713  31.121  23.873  1.00  0.00     0.007 C 
ATOM     17  C   UNL A   1      28.130  31.619  21.568  1.00  0.00     0.117 C 
ATOM     18  C   UNL A   1      29.191  32.535  23.521  1.00  0.00     0.003 C 
ATOM     19  C   UNL A   1      28.423  32.943  22.266  1.00  0.00     0.032 C 
BRANCH  17  20
ATOM     20  O   UNL A   1      29.286  31.214  20.855  1.00  0.00    -0.393 OA
ATOM     21  H   UNL A   1      30.046  31.743  21.145  1.00  0.00     0.210 HD
ENDBRANCH  17  20
ENDBRANCH  14  15
ENDBRANCH  13  14
ENDBRANCH   6   8
ENDBRANCH   4   6
ENDBRANCH   3   4
ENDBRANCH   2   3
ENDBRANCH   1   2
BRANCH   1  22
ATOM     22  O   UNL A   1      32.746  30.737  26.729  1.00  0.00    -0.374 OA
BRANCH  22  23
ATOM     23  C   UNL A   1      31.644  31.633  26.577  1.00  0.00     0.202 C 
BRANCH  23  24
ATOM     24  C   UNL A   1      31.941  33.123  26.792  1.00  0.00     0.261 C 
BRANCH  24  25
ATOM     25  O   UNL A   1      32.361  33.415  28.141  1.00  0.00    -0.460 OA
BRANCH  25  26
ATOM     26  C   UNL A   1      33.465  34.195  28.236  1.00  0.00     0.338 C 
ATOM     27  O   UNL A   1      33.512  35.418  28.239  1.00  0.00    -0.246 OA
BRANCH  26  28
ATOM     28  C   UNL A   1      34.655  33.373  28.521  1.00  0.00     0.060 A 
ATOM     29  C   UNL A   1      34.452  32.119  29.111  1.00  0.00     0.016 A 
ATOM     30  C   UNL A   1      35.950  33.856  28.313  1.00  0.00     0.016 A 
ATOM     31  C   UNL A   1      35.540  31.361  29.539  1.00  0.00     0.010 A 
ATOM     32  C   UNL A   1      37.041  33.097  28.754  1.00  0.00     0.010 A 
ATOM     33  C   UNL A   1      36.840  31.864  29.400  1.00  0.00    -0.014 A 
BRANCH  33  34
ATOM     34  C   UNL A   1      37.967  31.162  30.063  1.00  0.00     0.031 A 
ATOM     35  C   UNL A   1      38.264  31.455  31.509  1.00  0.00     0.074 A 
ATOM     36  C   UNL A   1      38.694  30.243  29.403  1.00  0.00     0.049 A 
ATOM     37  N   UNL A   1      39.203  30.969  32.280  1.00  0.00    -0.248 NA
ATOM     38  C   UNL A   1      37.381  32.426  32.174  1.00  0.00     0.031 C 
ATOM     39  C   UNL A   1      38.483  29.839  28.015  1.00  0.00     0.029 A 
ATOM     40  N   UNL A   1      39.761  29.485  29.818  1.00  0.00    -0.354 N 
ATOM     41  C   UNL A   1      39.026  31.573  33.519  1.00  0.00     0.074 A 
ATOM     42  C   UNL A   1      37.909  32.484  33.389  1.00  0.00     0.031 C 
ATOM     43  C   UNL A   1      39.402  28.913  27.687  1.00  0.00     0.029 A 
ATOM     44  C   UNL A   1      40.277  28.679  28.835  1.00  0.00     0.049 A 
ATOM     45  H   UNL A   1      40.120  29.516  30.734  1.00  0.00     0.167 HD
ATOM     46  C   UNL A   1      39.721  31.379  34.664  1.00  0.00     0.037 A 
ATOM     47  C   UNL A   1      41.347  27.861  28.853  1.00  0.00     0.037 A 
ATOM     48  C   UNL A   1      40.834  30.475  34.797  1.00  0.00     0.049 A 
ATOM     49  C   UNL A   1      42.149  27.713  30.119  1.00  0.00     0.074 A 
ATOM     50  C   UNL A   1      41.595  30.202  35.920  1.00  0.00     0.029 A 
ATOM     51  N   UNL A   1      41.347  29.700  33.768  1.00  0.00    -0.354 N 
ATOM     52  N   UNL A   1      41.959  28.273  31.289  1.00  0.00    -0.248 NA
ATOM     53  C   UNL A   1      43.313  26.815  30.066  1.00  0.00     0.031 C 
ATOM     54  C   UNL A   1      42.595  29.293  35.561  1.00  0.00     0.029 A 
ATOM     55  C   UNL A   1      42.430  28.967  34.225  1.00  0.00     0.049 A 
ATOM     56  H   UNL A   1      40.995  29.677  32.849  1.00  0.00     0.167 HD
ATOM     57  C   UNL A   1      42.961  27.780  32.115  1.00  0.00     0.074 A 
ATOM     58  C   UNL A   1      43.750  26.865  31.317  1.00  0.00     0.031 C 
ATOM     59  C   UNL A   1      43.204  28.057  33.420  1.00  0.00     0.037 A 
BRANCH  46  60
ATOM     60  C   UNL A   1      39.310  32.179  35.863  1.00  0.00     0.057 A 
ATOM     61  C   UNL A   1      39.834  33.454  36.115  1.00  0.00     0.134 A 
ATOM     62  C   UNL A   1      38.359  31.681  36.763  1.00  0.00     0.134 A 
ATOM     63  F   UNL A   1      40.759  33.982  35.299  1.00  0.00    -0.206 F 
ATOM     64  C   UNL A   1      39.441  34.196  37.231  1.00  0.00     0.040 A 
ATOM     65  C   UNL A   1      37.942  32.423  37.869  1.00  0.00     0.040 A 
ATOM     66  F   UNL A   1      37.816  30.468  36.577  1.00  0.00    -0.206 F 
ATOM     67  C   UNL A   1      38.488  33.682  38.108  1.00  0.00     0.006 A 
ENDBRANCH  46  60
BRANCH  47  68
ATOM     68  C   UNL A   1      41.736  27.123  27.626  1.00  0.00     0.057 A 
ATOM     69  C   UNL A   1      42.537  27.713  26.643  1.00  0.00     0.134 A 
ATOM     70  C   UNL A   1      41.299  25.811  27.400  1.00  0.00     0.134 A 
ATOM     71  F   UNL A   1      42.966  28.977  26.792  1.00  0.00    -0.206 F 
ATOM     72  C   UNL A   1      42.879  27.035  25.473  1.00  0.00     0.040 A 
ATOM     73  C   UNL A   1      41.652  25.112  26.245  1.00  0.00     0.040 A 
ATOM     74  F   UNL A   1      40.528  25.190  28.304  1.00  0.00    -0.206 F 
ATOM     75  C   UNL A   1      42.439  25.727  25.274  1.00  0.00     0.006 A 
ENDBRANCH  47  68
BRANCH  59  76
ATOM     76  C   UNL A   1      44.350  27.344  34.074  1.00  0.00     0.057 A 
ATOM     77  C   UNL A   1      44.195  26.085  34.667  1.00  0.00     0.134 A 
ATOM     78  C   UNL A   1      45.634  27.905  34.073  1.00  0.00     0.134 A 
ATOM     79  F   UNL A   1      42.990  25.498  34.712  1.00  0.00    -0.206 F 
ATOM     80  C   UNL A   1      45.273  25.417  35.253  1.00  0.00     0.040 A 
ATOM     81  C   UNL A   1      46.723  27.237  34.634  1.00  0.00     0.040 A 
ATOM     82  F   UNL A   1      45.853  29.104  33.513  1.00  0.00    -0.206 F 
ATOM     83  C   UNL A   1      46.543  25.991  35.232  1.00  0.00     0.006 A 
ENDBRANCH  59  76
ENDBRANCH  33  34
ENDBRANCH  26  28
ENDBRANCH  25  26
ENDBRANCH  24  25
ENDBRANCH  23  24
ENDBRANCH  22  23
ENDBRANCH   1  22
TORSDOF 18
ENDMDL
MODEL 2
REMARK VINA RESULT:     -10.7      3.879      7.285
REMARK SMILES C[C@@H](C(=O)OCCOCCOC(=O)c1ccc(-c2c3nc(c(-c4c(F)cccc4F)c4ccc([nH]4)c(-c4c(F)cccc4F)c4nc(c(-c5c(F)cccc5F)c5ccc2[nH]5)C=C4)C=C3)cc1)c1ccc(C[C@H]2CCC[C@H]2O)cc1
REMARK SMILES IDX 7 1 6 2 5 3 3 4 4 5 2 6 1 7 68 8 69 9 80 10 70 11 79 12
REMARK SMILES IDX 71 13 72 14 73 15 74 16 77 17 75 18 76 19 78 20 8 22 9 23
REMARK SMILES IDX 10 24 11 25 12 26 13 27 14 28 15 29 67 30 16 31 66 32 17 33
REMARK SMILES IDX 18 34 19 35 60 36 20 37 65 38 59 39 61 40 21 41 64 42 58 43
REMARK SMILES IDX 57 44 22 46 48 47 31 48 47 49 32 50 35 51 46 52 62 53 33 54
REMARK SMILES IDX 34 55 45 57 63 58 36 59 23 60 24 61 29 62 25 63 26 64 28 65
REMARK SMILES IDX 30 66 27 67 49 68 50 69 55 70 51 71 52 72 54 73 56 74 53 75
REMARK SMILES IDX 37 76 38 77 43 78 39 79 40 80 42 81 44 82 41 83
REMARK H PARENT 78 21 61 45 35 56
REMARK Flexibility Score: inf
ROOT
ATOM      1  C   UNL A   1      32.977  36.188  30.683  1.00  0.00     0.202 C 
ENDROOT
BRANCH   1   2
ATOM      2  C   UNL A   1      32.807  35.748  32.139  1.00  0.00     0.261 C 
BRANCH   2   3
ATOM      3  O   UNL A   1      33.519  34.525  32.386  1.00  0.00    -0.463 OA
BRANCH   3   4
ATOM      4  C   UNL A   1      34.877  34.620  32.365  1.00  0.00     0.313 C 
ATOM      5  O   UNL A   1      35.505  35.533  32.891  1.00  0.00    -0.252 OA
BRANCH   4   6
ATOM      6  C   UNL A   1      35.546  33.428  31.659  1.00  0.00     0.126 C 
ATOM      7  C   UNL A   1      35.468  32.146  32.503  1.00  0.00     0.025 C 
BRANCH   6   8
ATOM      8  C   UNL A   1      36.945  33.776  31.140  1.00  0.00    -0.034 A 
ATOM      9  C   UNL A   1      37.986  34.215  31.972  1.00  0.00     0.005 A 
ATOM     10  C   UNL A   1      37.237  33.624  29.774  1.00  0.00     0.005 A 
ATOM     11  C   UNL A   1      39.244  34.543  31.448  1.00  0.00     0.004 A 
ATOM     12  C   UNL A   1      38.483  33.981  29.246  1.00  0.00     0.004 A 
ATOM     13  C   UNL A   1      39.492  34.478  30.075  1.00  0.00    -0.048 A 
BRANCH  13  14
ATOM     14  C   UNL A   1      40.811  34.928  29.494  1.00  0.00     0.041 C 
BRANCH  14  15
ATOM     15  C   UNL A   1      42.081  34.165  29.910  1.00  0.00     0.022 C 
ATOM     16  C   UNL A   1      42.014  32.631  29.840  1.00  0.00     0.007 C 
ATOM     17  C   UNL A   1      43.398  34.523  29.204  1.00  0.00     0.117 C 
ATOM     18  C   UNL A   1      43.453  32.155  29.610  1.00  0.00     0.003 C 
ATOM     19  C   UNL A   1      44.328  33.405  29.661  1.00  0.00     0.032 C 
BRANCH  17  20
ATOM     20  O   UNL A   1      43.326  34.505  27.788  1.00  0.00    -0.393 OA
ATOM     21  H   UNL A   1      43.838  35.246  27.429  1.00  0.00     0.210 HD
ENDBRANCH  17  20
ENDBRANCH  14  15
ENDBRANCH  13  14
ENDBRANCH   6   8
ENDBRANCH   4   6
ENDBRANCH   3   4
ENDBRANCH   2   3
ENDBRANCH   1   2
BRANCH   1  22
ATOM     22  O   UNL A   1      32.606  35.230  29.693  1.00  0.00    -0.374 OA
BRANCH  22  23
ATOM     23  C   UNL A   1      33.581  34.889  28.705  1.00  0.00     0.202 C 
BRANCH  23  24
ATOM     24  C   UNL A   1      33.413  33.526  28.023  1.00  0.00     0.261 C 
BRANCH  24  25
ATOM     25  O   UNL A   1      34.352  32.544  28.508  1.00  0.00    -0.460 OA
BRANCH  25  26
ATOM     26  C   UNL A   1      34.303  31.348  27.874  1.00  0.00     0.338 C 
ATOM     27  O   UNL A   1      33.484  30.982  27.040  1.00  0.00    -0.246 OA
BRANCH  26  28
ATOM     28  C   UNL A   1      35.503  30.549  28.183  1.00  0.00     0.060 A 
ATOM     29  C   UNL A   1      35.585  29.969  29.456  1.00  0.00     0.016 A 
ATOM     30  C   UNL A   1      36.573  30.451  27.291  1.00  0.00     0.016 A 
ATOM     31  C   UNL A   1      36.755  29.329  29.860  1.00  0.00     0.010 A 
ATOM     32  C   UNL A   1      37.752  29.816  27.703  1.00  0.00     0.010 A 
ATOM     33  C   UNL A   1      37.860  29.283  29.001  1.00  0.00    -0.014 A 
BRANCH  33  34
ATOM     34  C   UNL A   1      39.167  28.810  29.520  1.00  0.00     0.031 A 
ATOM     35  C   UNL A   1      39.770  29.492  30.719  1.00  0.00     0.074 A 
ATOM     36  C   UNL A   1      39.794  27.760  28.961  1.00  0.00     0.049 A 
ATOM     37  N   UNL A   1      40.903  29.253  31.329  1.00  0.00    -0.248 NA
ATOM     38  C   UNL A   1      38.989  30.591  31.308  1.00  0.00     0.031 C 
ATOM     39  C   UNL A   1      39.297  26.989  27.823  1.00  0.00     0.029 A 
ATOM     40  N   UNL A   1      40.989  27.165  29.278  1.00  0.00    -0.354 N 
ATOM     41  C   UNL A   1      40.971  30.168  32.372  1.00  0.00     0.074 A 
ATOM     42  C   UNL A   1      39.781  30.988  32.294  1.00  0.00     0.031 C 
ATOM     43  C   UNL A   1      40.189  26.027  27.529  1.00  0.00     0.029 A 
ATOM     44  C   UNL A   1      41.327  26.131  28.441  1.00  0.00     0.049 A 
ATOM     45  H   UNL A   1      41.550  27.451  30.035  1.00  0.00     0.167 HD
ATOM     46  C   UNL A   1      41.931  30.307  33.317  1.00  0.00     0.037 A 
ATOM     47  C   UNL A   1      42.437  25.368  28.403  1.00  0.00     0.037 A 
ATOM     48  C   UNL A   1      43.116  29.494  33.398  1.00  0.00     0.049 A 
ATOM     49  C   UNL A   1      43.524  25.586  29.422  1.00  0.00     0.074 A 
ATOM     50  C   UNL A   1      44.142  29.552  34.326  1.00  0.00     0.029 A 
ATOM     51  N   UNL A   1      43.438  28.478  32.510  1.00  0.00    -0.354 N 
ATOM     52  N   UNL A   1      43.568  26.440  30.415  1.00  0.00    -0.248 NA
ATOM     53  C   UNL A   1      44.716  24.731  29.314  1.00  0.00     0.031 C 
ATOM     54  C   UNL A   1      45.103  28.599  33.976  1.00  0.00     0.029 A 
ATOM     55  C   UNL A   1      44.656  27.917  32.856  1.00  0.00     0.049 A 
ATOM     56  H   UNL A   1      42.883  28.198  31.747  1.00  0.00     0.167 HD
ATOM     57  C   UNL A   1      44.775  26.210  31.064  1.00  0.00     0.074 A 
ATOM     58  C   UNL A   1      45.429  25.128  30.359  1.00  0.00     0.031 C 
ATOM     59  C   UNL A   1      45.294  26.837  32.148  1.00  0.00     0.037 A 
BRANCH  46  60
ATOM     60  C   UNL A   1      41.747  31.396  34.331  1.00  0.00     0.057 A 
ATOM     61  C   UNL A   1      42.164  32.710  34.086  1.00  0.00     0.134 A 
ATOM     62  C   UNL A   1      41.120  31.133  35.556  1.00  0.00     0.134 A 
ATOM     63  F   UNL A   1      42.783  33.024  32.937  1.00  0.00    -0.206 F 
ATOM     64  C   UNL A   1      41.984  33.721  35.032  1.00  0.00     0.040 A 
ATOM     65  C   UNL A   1      40.914  32.140  36.501  1.00  0.00     0.040 A 
ATOM     66  F   UNL A   1      40.694  29.896  35.851  1.00  0.00    -0.206 F 
ATOM     67  C   UNL A   1      41.351  33.437  36.242  1.00  0.00     0.006 A 
ENDBRANCH  46  60
BRANCH  47  68
ATOM     68  C   UNL A   1      42.588  24.331  27.353  1.00  0.00     0.057 A 
ATOM     69  C   UNL A   1      42.177  23.011  27.568  1.00  0.00     0.134 A 
ATOM     70  C   UNL A   1      43.165  24.634  26.113  1.00  0.00     0.134 A 
ATOM     71  F   UNL A   1      41.640  22.655  28.745  1.00  0.00    -0.206 F 
ATOM     72  C   UNL A   1      42.346  22.025  26.596  1.00  0.00     0.040 A 
ATOM     73  C   UNL A   1      43.320  23.662  25.123  1.00  0.00     0.040 A 
ATOM     74  F   UNL A   1      43.580  25.880  25.846  1.00  0.00    -0.206 F 
ATOM     75  C   UNL A   1      42.915  22.352  25.366  1.00  0.00     0.006 A 
ENDBRANCH  47  68
BRANCH  59  76
ATOM     76  C   UNL A   1      46.619  26.351  32.657  1.00  0.00     0.057 A 
ATOM     77  C   UNL A   1      46.717  25.295  33.572  1.00  0.00     0.134 A 
ATOM     78  C   UNL A   1      47.813  26.919  32.193  1.00  0.00     0.134 A 
ATOM     79  F   UNL A   1      45.610  24.717  34.062  1.00  0.00    -0.206 F 
ATOM     80  C   UNL A   1      47.955  24.833  34.022  1.00  0.00     0.040 A 
ATOM     81  C   UNL A   1      49.057  26.449  32.618  1.00  0.00     0.040 A 
ATOM     82  F   UNL A   1      47.789  27.927  31.309  1.00  0.00    -0.206 F 
ATOM     83  C   UNL A   1      49.130  25.407  33.540  1.00  0.00     0.006 A 
ENDBRANCH  59  76
ENDBRANCH  33  34
ENDBRANCH  26  28
ENDBRANCH  25  26
ENDBRANCH  24  25
ENDBRANCH  23  24
ENDBRANCH  22  23
ENDBRANCH   1  22
TORSDOF 18
ENDMDL
MODEL 3
REMARK VINA RESULT:     -10.7      4.087      9.538
REMARK SMILES C[C@@H](C(=O)OCCOCCOC(=O)c1ccc(-c2c3nc(c(-c4c(F)cccc4F)c4ccc([nH]4)c(-c4c(F)cccc4F)c4nc(c(-c5c(F)cccc5F)c5ccc2[nH]5)C=C4)C=C3)cc1)c1ccc(C[C@H]2CCC[C@H]2O)cc1
REMARK SMILES IDX 7 1 6 2 5 3 3 4 4 5 2 6 1 7 68 8 69 9 80 10 70 11 79 12
REMARK SMILES IDX 71 13 72 14 73 15 74 16 77 17 75 18 76 19 78 20 8 22 9 23
REMARK SMILES IDX 10 24 11 25 12 26 13 27 14 28 15 29 67 30 16 31 66 32 17 33
REMARK SMILES IDX 18 34 19 35 60 36 20 37 65 38 59 39 61 40 21 41 64 42 58 43
REMARK SMILES IDX 57 44 22 46 48 47 31 48 47 49 32 50 35 51 46 52 62 53 33 54
REMARK SMILES IDX 34 55 45 57 63 58 36 59 23 60 24 61 29 62 25 63 26 64 28 65
REMARK SMILES IDX 30 66 27 67 49 68 50 69 55 70 51 71 52 72 54 73 56 74 53 75
REMARK SMILES IDX 37 76 38 77 43 78 39 79 40 80 42 81 44 82 41 83
REMARK H PARENT 78 21 61 45 35 56
REMARK Flexibility Score: inf
ROOT
ATOM      1  C   UNL A   1      44.086  19.219  24.623  1.00  0.00     0.202 C 
ENDROOT
BRANCH   1   2
ATOM      2  C   UNL A   1      43.293  19.269  25.932  1.00  0.00     0.261 C 
BRANCH   2   3
ATOM      3  O   UNL A   1      41.941  19.689  25.691  1.00  0.00    -0.463 OA
BRANCH   3   4
ATOM      4  C   UNL A   1      41.268  20.163  26.775  1.00  0.00     0.313 C 
ATOM      5  O   UNL A   1      40.785  19.445  27.645  1.00  0.00    -0.252 OA
BRANCH   4   6
ATOM      6  C   UNL A   1      41.226  21.699  26.825  1.00  0.00     0.126 C 
ATOM      7  C   UNL A   1      41.821  22.246  28.132  1.00  0.00     0.025 C 
BRANCH   6   8
ATOM      8  C   UNL A   1      39.843  22.250  26.464  1.00  0.00    -0.034 A 
ATOM      9  C   UNL A   1      38.878  21.507  25.767  1.00  0.00     0.005 A 
ATOM     10  C   UNL A   1      39.484  23.548  26.868  1.00  0.00     0.005 A 
ATOM     11  C   UNL A   1      37.633  22.062  25.440  1.00  0.00     0.004 A 
ATOM     12  C   UNL A   1      38.254  24.112  26.515  1.00  0.00     0.004 A 
ATOM     13  C   UNL A   1      37.325  23.385  25.765  1.00  0.00    -0.048 A 
BRANCH  13  14
ATOM     14  C   UNL A   1      36.028  24.020  25.325  1.00  0.00     0.041 C 
BRANCH  14  15
ATOM     15  C   UNL A   1      34.727  23.546  25.998  1.00  0.00     0.022 C 
ATOM     16  C   UNL A   1      33.607  24.589  26.138  1.00  0.00     0.007 C 
ATOM     17  C   UNL A   1      34.027  22.308  25.416  1.00  0.00     0.117 C 
ATOM     18  C   UNL A   1      32.293  23.798  26.156  1.00  0.00     0.003 C 
ATOM     19  C   UNL A   1      32.685  22.322  26.138  1.00  0.00     0.032 C 
BRANCH  17  20
ATOM     20  O   UNL A   1      33.794  22.371  24.019  1.00  0.00    -0.393 OA
ATOM     21  H   UNL A   1      32.885  22.667  23.856  1.00  0.00     0.210 HD
ENDBRANCH  17  20
ENDBRANCH  14  15
ENDBRANCH  13  14
ENDBRANCH   6   8
ENDBRANCH   4   6
ENDBRANCH   3   4
ENDBRANCH   2   3
ENDBRANCH   1   2
BRANCH   1  22
ATOM     22  O   UNL A   1      44.451  20.481  24.066  1.00  0.00    -0.374 OA
BRANCH  22  23
ATOM     23  C   UNL A   1      44.387  21.624  24.922  1.00  0.00     0.202 C 
BRANCH  23  24
ATOM     24  C   UNL A   1      44.707  22.978  24.276  1.00  0.00     0.261 C 
BRANCH  24  25
ATOM     25  O   UNL A   1      43.857  24.038  24.761  1.00  0.00    -0.460 OA
BRANCH  25  26
ATOM     26  C   UNL A   1      44.509  25.164  25.136  1.00  0.00     0.338 C 
ATOM     27  O   UNL A   1      45.548  25.612  24.668  1.00  0.00    -0.246 OA
BRANCH  26  28
ATOM     28  C   UNL A   1      43.706  25.928  26.108  1.00  0.00     0.060 A 
ATOM     29  C   UNL A   1      44.075  27.258  26.352  1.00  0.00     0.016 A 
ATOM     30  C   UNL A   1      42.678  25.334  26.844  1.00  0.00     0.016 A 
ATOM     31  C   UNL A   1      43.451  27.984  27.365  1.00  0.00     0.010 A 
ATOM     32  C   UNL A   1      42.059  26.062  27.868  1.00  0.00     0.010 A 
ATOM     33  C   UNL A   1      42.467  27.377  28.156  1.00  0.00    -0.014 A 
BRANCH  33  34
ATOM     34  C   UNL A   1      41.978  28.075  29.371  1.00  0.00     0.031 A 
ATOM     35  C   UNL A   1      40.709  28.881  29.292  1.00  0.00     0.074 A 
ATOM     36  C   UNL A   1      42.629  27.962  30.542  1.00  0.00     0.049 A 
ATOM     37  N   UNL A   1      40.109  29.579  30.223  1.00  0.00    -0.248 NA
ATOM     38  C   UNL A   1      40.027  28.901  27.989  1.00  0.00     0.031 C 
ATOM     39  C   UNL A   1      43.843  27.180  30.760  1.00  0.00     0.029 A 
ATOM     40  N   UNL A   1      42.354  28.511  31.770  1.00  0.00    -0.354 N 
ATOM     41  C   UNL A   1      38.980  30.120  29.620  1.00  0.00     0.074 A 
ATOM     42  C   UNL A   1      38.995  29.696  28.237  1.00  0.00     0.031 C 
ATOM     43  C   UNL A   1      44.218  27.309  32.045  1.00  0.00     0.029 A 
ATOM     44  C   UNL A   1      43.284  28.201  32.730  1.00  0.00     0.049 A 
ATOM     45  H   UNL A   1      41.565  29.073  31.945  1.00  0.00     0.167 HD
ATOM     46  C   UNL A   1      38.013  30.891  30.170  1.00  0.00     0.037 A 
ATOM     47  C   UNL A   1      43.381  28.606  34.011  1.00  0.00     0.037 A 
ATOM     48  C   UNL A   1      37.995  31.316  31.545  1.00  0.00     0.049 A 
ATOM     49  C   UNL A   1      42.330  29.520  34.583  1.00  0.00     0.074 A 
ATOM     50  C   UNL A   1      37.051  32.090  32.198  1.00  0.00     0.029 A 
ATOM     51  N   UNL A   1      38.973  31.008  32.478  1.00  0.00    -0.354 N 
ATOM     52  N   UNL A   1      41.257  30.008  34.010  1.00  0.00    -0.248 NA
ATOM     53  C   UNL A   1      42.503  29.938  35.983  1.00  0.00     0.031 C 
ATOM     54  C   UNL A   1      37.478  32.284  33.515  1.00  0.00     0.029 A 
ATOM     55  C   UNL A   1      38.667  31.595  33.695  1.00  0.00     0.049 A 
ATOM     56  H   UNL A   1      39.768  30.455  32.301  1.00  0.00     0.167 HD
ATOM     57  C   UNL A   1      40.616  30.768  34.982  1.00  0.00     0.074 A 
ATOM     58  C   UNL A   1      41.414  30.667  36.185  1.00  0.00     0.031 C 
ATOM     59  C   UNL A   1      39.468  31.483  34.887  1.00  0.00     0.037 A 
BRANCH  46  60
ATOM     60  C   UNL A   1      36.899  31.343  29.273  1.00  0.00     0.057 A 
ATOM     61  C   UNL A   1      35.841  30.493  28.925  1.00  0.00     0.134 A 
ATOM     62  C   UNL A   1      36.871  32.651  28.773  1.00  0.00     0.134 A 
ATOM     63  F   UNL A   1      35.817  29.224  29.361  1.00  0.00    -0.206 F 
ATOM     64  C   UNL A   1      34.804  30.922  28.095  1.00  0.00     0.040 A 
ATOM     65  C   UNL A   1      35.828  33.098  27.960  1.00  0.00     0.040 A 
ATOM     66  F   UNL A   1      37.852  33.515  29.071  1.00  0.00    -0.206 F 
ATOM     67  C   UNL A   1      34.793  32.231  27.614  1.00  0.00     0.006 A 
ENDBRANCH  46  60
BRANCH  47  68
ATOM     68  C   UNL A   1      44.525  28.163  34.844  1.00  0.00     0.057 A 
ATOM     69  C   UNL A   1      45.702  28.915  34.926  1.00  0.00     0.134 A 
ATOM     70  C   UNL A   1      44.475  26.963  35.565  1.00  0.00     0.134 A 
ATOM     71  F   UNL A   1      45.819  30.061  34.238  1.00  0.00    -0.206 F 
ATOM     72  C   UNL A   1      46.793  28.486  35.682  1.00  0.00     0.040 A 
ATOM     73  C   UNL A   1      45.550  26.533  36.344  1.00  0.00     0.040 A 
ATOM     74  F   UNL A   1      43.376  26.196  35.528  1.00  0.00    -0.206 F 
ATOM     75  C   UNL A   1      46.716  27.293  36.399  1.00  0.00     0.006 A 
ENDBRANCH  47  68
BRANCH  59  76
ATOM     76  C   UNL A   1      38.991  32.187  36.122  1.00  0.00     0.057 A 
ATOM     77  C   UNL A   1      38.164  31.556  37.059  1.00  0.00     0.134 A 
ATOM     78  C   UNL A   1      39.398  33.499  36.397  1.00  0.00     0.134 A 
ATOM     79  F   UNL A   1      37.730  30.304  36.849  1.00  0.00    -0.206 F 
ATOM     80  C   UNL A   1      37.743  32.211  38.218  1.00  0.00     0.040 A 
ATOM     81  C   UNL A   1      39.003  34.156  37.564  1.00  0.00     0.040 A 
ATOM     82  F   UNL A   1      40.197  34.157  35.545  1.00  0.00    -0.206 F 
ATOM     83  C   UNL A   1      38.168  33.513  38.476  1.00  0.00     0.006 A 
ENDBRANCH  59  76
ENDBRANCH  33  34
ENDBRANCH  26  28
ENDBRANCH  25  26
ENDBRANCH  24  25
ENDBRANCH  23  24
ENDBRANCH  22  23
ENDBRANCH   1  22
TORSDOF 18
ENDMDL
