MODEL 1
REMARK VINA RESULT:     -10.1      0.000      0.000
REMARK SMILES CC[C@](C)(NS(=O)(=O)c1ccc(OC)c(F)c1)C(=O)OCCOCCOC(=O)c1ccc(-c2c3nc(c(-c4c(F)cccc4F)c4ccc([nH]4)c(-c4c(F)cccc4F)c4nc(c(-c5c(F)cccc5F)c5ccc2[nH]5)C=C4)C=C3)cc1
REMARK SMILES IDX 22 1 21 2 20 3 18 4 19 5 3 6 4 7 2 8 1 9 5 10 6 12 7 13 8 14
REMARK SMILES IDX 9 15 10 16 17 17 11 18 15 19 12 20 16 21 13 22 14 23 23 24
REMARK SMILES IDX 24 25 25 26 26 27 27 28 28 29 29 30 30 31 82 32 31 33 81 34
REMARK SMILES IDX 32 35 33 36 34 37 75 38 35 39 80 40 74 41 76 42 36 43 79 44
REMARK SMILES IDX 73 45 72 46 37 48 63 49 46 50 62 51 47 52 50 53 61 54 77 55
REMARK SMILES IDX 48 56 49 57 60 59 78 60 51 61 38 62 39 63 44 64 40 65 41 66
REMARK SMILES IDX 43 67 45 68 42 69 64 70 65 71 70 72 66 73 67 74 69 75 71 76
REMARK SMILES IDX 68 77 52 78 53 79 58 80 54 81 55 82 57 83 59 84 56 85
REMARK H PARENT 5 11 76 47 50 58
REMARK Flexibility Score: inf
ROOT
ATOM      1  C   UNL A   1      37.306  22.176  25.615  1.00  0.00     0.202 C 
ENDROOT
BRANCH   1   2
ATOM      2  C   UNL A   1      36.499  22.443  24.332  1.00  0.00     0.261 C 
BRANCH   2   3
ATOM      3  O   UNL A   1      35.112  22.613  24.660  1.00  0.00    -0.462 OA
BRANCH   3   4
ATOM      4  C   UNL A   1      34.484  23.714  24.175  1.00  0.00     0.327 C 
ATOM      5  O   UNL A   1      34.648  24.153  23.042  1.00  0.00    -0.250 OA
BRANCH   4   6
ATOM      6  C   UNL A   1      33.406  24.215  25.157  1.00  0.00     0.127 C 
ATOM      7  C   UNL A   1      33.817  23.587  26.518  1.00  0.00     0.042 C 
BRANCH   6   8
ATOM      8  C   UNL A   1      32.029  23.664  24.734  1.00  0.00     0.032 C 
ATOM      9  C   UNL A   1      31.618  22.358  25.413  1.00  0.00     0.006 C 
ENDBRANCH   6   8
BRANCH   6  10
ATOM     10  N   UNL A   1      33.366  25.693  25.360  1.00  0.00    -0.194 NA
ATOM     11  H   UNL A   1      33.751  26.087  24.502  1.00  0.00     0.142 HD
BRANCH  10  12
ATOM     12  S   UNL A   1      32.014  26.629  25.698  1.00  0.00     0.241 S 
ATOM     13  O   UNL A   1      31.229  26.805  24.506  1.00  0.00    -0.207 OA
ATOM     14  O   UNL A   1      31.447  26.030  26.892  1.00  0.00    -0.207 OA
BRANCH  12  15
ATOM     15  C   UNL A   1      32.649  28.203  26.185  1.00  0.00     0.085 A 
ATOM     16  C   UNL A   1      33.952  28.381  26.644  1.00  0.00     0.026 A 
ATOM     17  C   UNL A   1      31.784  29.278  26.138  1.00  0.00     0.065 A 
ATOM     18  C   UNL A   1      34.348  29.638  27.136  1.00  0.00     0.051 A 
ATOM     19  C   UNL A   1      32.173  30.494  26.684  1.00  0.00     0.166 A 
ATOM     20  C   UNL A   1      33.443  30.702  27.200  1.00  0.00     0.154 A 
ATOM     21  F   UNL A   1      31.238  31.437  26.817  1.00  0.00    -0.203 F 
BRANCH  20  22
ATOM     22  O   UNL A   1      33.888  31.841  27.813  1.00  0.00    -0.494 OA
ATOM     23  C   UNL A   1      35.294  32.098  27.794  1.00  0.00     0.278 C 
ENDBRANCH  20  22
ENDBRANCH  12  15
ENDBRANCH  10  12
ENDBRANCH   6  10
ENDBRANCH   4   6
ENDBRANCH   3   4
ENDBRANCH   2   3
ENDBRANCH   1   2
BRANCH   1  24
ATOM     24  O   UNL A   1      38.595  21.591  25.407  1.00  0.00    -0.374 OA
BRANCH  24  25
ATOM     25  C   UNL A   1      38.620  20.172  25.184  1.00  0.00     0.202 C 
BRANCH  25  26
ATOM     26  C   UNL A   1      39.690  19.389  25.976  1.00  0.00     0.261 C 
BRANCH  26  27
ATOM     27  O   UNL A   1      40.963  19.397  25.277  1.00  0.00    -0.460 OA
BRANCH  27  28
ATOM     28  C   UNL A   1      42.091  19.524  26.026  1.00  0.00     0.338 C 
ATOM     29  O   UNL A   1      42.979  18.695  26.134  1.00  0.00    -0.246 OA
BRANCH  28  30
ATOM     30  C   UNL A   1      42.207  20.919  26.552  1.00  0.00     0.060 A 
ATOM     31  C   UNL A   1      42.087  21.960  25.620  1.00  0.00     0.016 A 
ATOM     32  C   UNL A   1      42.323  21.237  27.911  1.00  0.00     0.016 A 
ATOM     33  C   UNL A   1      41.980  23.291  26.041  1.00  0.00     0.010 A 
ATOM     34  C   UNL A   1      42.297  22.589  28.328  1.00  0.00     0.010 A 
ATOM     35  C   UNL A   1      42.115  23.629  27.396  1.00  0.00    -0.014 A 
BRANCH  35  36
ATOM     36  C   UNL A   1      42.390  25.064  27.725  1.00  0.00     0.031 A 
ATOM     37  C   UNL A   1      43.703  25.621  27.230  1.00  0.00     0.074 A 
ATOM     38  C   UNL A   1      41.502  25.906  28.296  1.00  0.00     0.049 A 
ATOM     39  N   UNL A   1      44.177  26.839  27.292  1.00  0.00    -0.248 NA
ATOM     40  C   UNL A   1      44.583  24.669  26.531  1.00  0.00     0.031 C 
ATOM     41  C   UNL A   1      40.145  25.565  28.716  1.00  0.00     0.029 A 
ATOM     42  N   UNL A   1      41.612  27.250  28.597  1.00  0.00    -0.354 N 
ATOM     43  C   UNL A   1      45.392  26.799  26.620  1.00  0.00     0.074 A 
ATOM     44  C   UNL A   1      45.591  25.442  26.168  1.00  0.00     0.031 C 
ATOM     45  C   UNL A   1      39.549  26.668  29.214  1.00  0.00     0.029 A 
ATOM     46  C   UNL A   1      40.489  27.792  29.184  1.00  0.00     0.049 A 
ATOM     47  H   UNL A   1      42.423  27.776  28.408  1.00  0.00     0.167 HD
ATOM     48  C   UNL A   1      46.277  27.796  26.398  1.00  0.00     0.037 A 
ATOM     49  C   UNL A   1      40.253  29.040  29.652  1.00  0.00     0.037 A 
ATOM     50  C   UNL A   1      46.131  29.136  26.888  1.00  0.00     0.049 A 
ATOM     51  C   UNL A   1      41.329  30.102  29.541  1.00  0.00     0.074 A 
ATOM     52  C   UNL A   1      47.022  30.188  26.785  1.00  0.00     0.029 A 
ATOM     53  N   UNL A   1      45.031  29.604  27.588  1.00  0.00    -0.354 N 
ATOM     54  N   UNL A   1      42.494  30.042  28.941  1.00  0.00    -0.248 NA
ATOM     55  C   UNL A   1      41.064  31.402  30.184  1.00  0.00     0.031 C 
ATOM     56  C   UNL A   1      46.488  31.278  27.475  1.00  0.00     0.029 A 
ATOM     57  C   UNL A   1      45.235  30.924  27.947  1.00  0.00     0.049 A 
ATOM     58  H   UNL A   1      44.227  29.076  27.799  1.00  0.00     0.167 HD
ATOM     59  C   UNL A   1      43.081  31.294  29.108  1.00  0.00     0.074 A 
ATOM     60  C   UNL A   1      42.143  32.100  29.857  1.00  0.00     0.031 C 
ATOM     61  C   UNL A   1      44.291  31.731  28.678  1.00  0.00     0.037 A 
BRANCH  48  62
ATOM     62  C   UNL A   1      47.522  27.440  25.645  1.00  0.00     0.057 A 
ATOM     63  C   UNL A   1      48.646  26.955  26.324  1.00  0.00     0.134 A 
ATOM     64  C   UNL A   1      47.608  27.572  24.253  1.00  0.00     0.134 A 
ATOM     65  F   UNL A   1      48.622  26.798  27.656  1.00  0.00    -0.206 F 
ATOM     66  C   UNL A   1      49.818  26.622  25.645  1.00  0.00     0.040 A 
ATOM     67  C   UNL A   1      48.766  27.215  23.562  1.00  0.00     0.040 A 
ATOM     68  F   UNL A   1      46.554  28.002  23.544  1.00  0.00    -0.206 F 
ATOM     69  C   UNL A   1      49.877  26.746  24.259  1.00  0.00     0.006 A 
ENDBRANCH  48  62
BRANCH  49  70
ATOM     70  C   UNL A   1      38.956  29.375  30.313  1.00  0.00     0.057 A 
ATOM     71  C   UNL A   1      37.834  29.755  29.565  1.00  0.00     0.134 A 
ATOM     72  C   UNL A   1      38.783  29.260  31.700  1.00  0.00     0.134 A 
ATOM     73  F   UNL A   1      37.914  29.860  28.231  1.00  0.00    -0.206 F 
ATOM     74  C   UNL A   1      36.603  30.029  30.167  1.00  0.00     0.040 A 
ATOM     75  C   UNL A   1      37.550  29.505  32.313  1.00  0.00     0.040 A 
ATOM     76  F   UNL A   1      39.799  28.856  32.476  1.00  0.00    -0.206 F 
ATOM     77  C   UNL A   1      36.456  29.899  31.545  1.00  0.00     0.006 A 
ENDBRANCH  49  70
BRANCH  61  78
ATOM     78  C   UNL A   1      44.687  33.153  28.963  1.00  0.00     0.057 A 
ATOM     79  C   UNL A   1      44.444  34.160  28.018  1.00  0.00     0.134 A 
ATOM     80  C   UNL A   1      45.422  33.503  30.103  1.00  0.00     0.134 A 
ATOM     81  F   UNL A   1      43.763  33.891  26.895  1.00  0.00    -0.206 F 
ATOM     82  C   UNL A   1      44.940  35.455  28.183  1.00  0.00     0.040 A 
ATOM     83  C   UNL A   1      45.897  34.802  30.293  1.00  0.00     0.040 A 
ATOM     84  F   UNL A   1      45.688  32.589  31.048  1.00  0.00    -0.206 F 
ATOM     85  C   UNL A   1      45.669  35.778  29.325  1.00  0.00     0.006 A 
ENDBRANCH  61  78
ENDBRANCH  35  36
ENDBRANCH  28  30
ENDBRANCH  27  28
ENDBRANCH  26  27
ENDBRANCH  25  26
ENDBRANCH  24  25
ENDBRANCH   1  24
TORSDOF 19
ENDMDL
MODEL 2
REMARK VINA RESULT:     -10.1      4.471     10.180
REMARK SMILES CC[C@](C)(NS(=O)(=O)c1ccc(OC)c(F)c1)C(=O)OCCOCCOC(=O)c1ccc(-c2c3nc(c(-c4c(F)cccc4F)c4ccc([nH]4)c(-c4c(F)cccc4F)c4nc(c(-c5c(F)cccc5F)c5ccc2[nH]5)C=C4)C=C3)cc1
REMARK SMILES IDX 22 1 21 2 20 3 18 4 19 5 3 6 4 7 2 8 1 9 5 10 6 12 7 13 8 14
REMARK SMILES IDX 9 15 10 16 17 17 11 18 15 19 12 20 16 21 13 22 14 23 23 24
REMARK SMILES IDX 24 25 25 26 26 27 27 28 28 29 29 30 30 31 82 32 31 33 81 34
REMARK SMILES IDX 32 35 33 36 34 37 75 38 35 39 80 40 74 41 76 42 36 43 79 44
REMARK SMILES IDX 73 45 72 46 37 48 63 49 46 50 62 51 47 52 50 53 61 54 77 55
REMARK SMILES IDX 48 56 49 57 60 59 78 60 51 61 38 62 39 63 44 64 40 65 41 66
REMARK SMILES IDX 43 67 45 68 42 69 64 70 65 71 70 72 66 73 67 74 69 75 71 76
REMARK SMILES IDX 68 77 52 78 53 79 58 80 54 81 55 82 57 83 59 84 56 85
REMARK H PARENT 5 11 76 47 50 58
REMARK Flexibility Score: inf
ROOT
ATOM      1  C   UNL A   1      32.456  29.446  27.159  1.00  0.00     0.202 C 
ENDROOT
BRANCH   1   2
ATOM      2  C   UNL A   1      33.626  28.482  26.888  1.00  0.00     0.261 C 
BRANCH   2   3
ATOM      3  O   UNL A   1      33.487  27.910  25.580  1.00  0.00    -0.462 OA
BRANCH   3   4
ATOM      4  C   UNL A   1      32.749  26.776  25.467  1.00  0.00     0.327 C 
ATOM      5  O   UNL A   1      32.556  25.991  26.388  1.00  0.00    -0.250 OA
BRANCH   4   6
ATOM      6  C   UNL A   1      32.036  26.713  24.101  1.00  0.00     0.127 C 
ATOM      7  C   UNL A   1      32.890  27.636  23.189  1.00  0.00     0.042 C 
BRANCH   6   8
ATOM      8  C   UNL A   1      30.615  27.297  24.236  1.00  0.00     0.032 C 
ATOM      9  C   UNL A   1      30.506  28.798  23.971  1.00  0.00     0.006 C 
ENDBRANCH   6   8
BRANCH   6  10
ATOM     10  N   UNL A   1      32.017  25.368  23.455  1.00  0.00    -0.194 NA
ATOM     11  H   UNL A   1      31.489  25.498  22.592  1.00  0.00     0.142 HD
BRANCH  10  12
ATOM     12  S   UNL A   1      33.346  24.441  23.015  1.00  0.00     0.241 S 
ATOM     13  O   UNL A   1      33.528  24.491  21.589  1.00  0.00    -0.207 OA
ATOM     14  O   UNL A   1      34.397  24.858  23.924  1.00  0.00    -0.207 OA
BRANCH  12  15
ATOM     15  C   UNL A   1      32.926  22.786  23.466  1.00  0.00     0.085 A 
ATOM     16  C   UNL A   1      33.138  22.277  24.745  1.00  0.00     0.026 A 
ATOM     17  C   UNL A   1      32.407  21.971  22.479  1.00  0.00     0.065 A 
ATOM     18  C   UNL A   1      32.899  20.913  24.996  1.00  0.00     0.051 A 
ATOM     19  C   UNL A   1      32.237  20.616  22.730  1.00  0.00     0.166 A 
ATOM     20  C   UNL A   1      32.485  20.056  23.973  1.00  0.00     0.154 A 
ATOM     21  F   UNL A   1      31.944  19.830  21.692  1.00  0.00    -0.203 F 
BRANCH  20  22
ATOM     22  O   UNL A   1      32.406  18.727  24.289  1.00  0.00    -0.494 OA
ATOM     23  C   UNL A   1      32.660  18.352  25.645  1.00  0.00     0.278 C 
ENDBRANCH  20  22
ENDBRANCH  12  15
ENDBRANCH  10  12
ENDBRANCH   6  10
ENDBRANCH   4   6
ENDBRANCH   3   4
ENDBRANCH   2   3
ENDBRANCH   1   2
BRANCH   1  24
ATOM     24  O   UNL A   1      32.804  30.833  27.160  1.00  0.00    -0.374 OA
BRANCH  24  25
ATOM     25  C   UNL A   1      31.741  31.756  26.869  1.00  0.00     0.202 C 
BRANCH  25  26
ATOM     26  C   UNL A   1      32.111  33.252  26.953  1.00  0.00     0.261 C 
BRANCH  26  27
ATOM     27  O   UNL A   1      32.202  33.688  28.336  1.00  0.00    -0.460 OA
BRANCH  27  28
ATOM     28  C   UNL A   1      33.181  34.577  28.652  1.00  0.00     0.338 C 
ATOM     29  O   UNL A   1      33.037  35.776  28.820  1.00  0.00    -0.246 OA
BRANCH  28  30
ATOM     30  C   UNL A   1      34.450  33.854  28.975  1.00  0.00     0.060 A 
ATOM     31  C   UNL A   1      34.332  32.655  29.694  1.00  0.00     0.016 A 
ATOM     32  C   UNL A   1      35.714  34.247  28.518  1.00  0.00     0.016 A 
ATOM     33  C   UNL A   1      35.435  31.810  29.867  1.00  0.00     0.010 A 
ATOM     34  C   UNL A   1      36.844  33.431  28.765  1.00  0.00     0.010 A 
ATOM     35  C   UNL A   1      36.712  32.198  29.434  1.00  0.00    -0.014 A 
BRANCH  35  36
ATOM     36  C   UNL A   1      37.884  31.455  29.995  1.00  0.00     0.031 A 
ATOM     37  C   UNL A   1      38.201  31.709  31.449  1.00  0.00     0.074 A 
ATOM     38  C   UNL A   1      38.570  30.493  29.339  1.00  0.00     0.049 A 
ATOM     39  N   UNL A   1      39.099  31.155  32.223  1.00  0.00    -0.248 NA
ATOM     40  C   UNL A   1      37.352  32.702  32.128  1.00  0.00     0.031 C 
ATOM     41  C   UNL A   1      38.312  30.034  27.977  1.00  0.00     0.029 A 
ATOM     42  N   UNL A   1      39.623  29.703  29.760  1.00  0.00    -0.354 N 
ATOM     43  C   UNL A   1      38.902  31.715  33.479  1.00  0.00     0.074 A 
ATOM     44  C   UNL A   1      37.812  32.655  33.366  1.00  0.00     0.031 C 
ATOM     45  C   UNL A   1      39.177  29.044  27.676  1.00  0.00     0.029 A 
ATOM     46  C   UNL A   1      40.078  28.815  28.810  1.00  0.00     0.049 A 
ATOM     47  H   UNL A   1      40.014  29.769  30.661  1.00  0.00     0.167 HD
ATOM     48  C   UNL A   1      39.567  31.479  34.632  1.00  0.00     0.037 A 
ATOM     49  C   UNL A   1      41.105  27.934  28.845  1.00  0.00     0.037 A 
ATOM     50  C   UNL A   1      40.690  30.596  34.756  1.00  0.00     0.049 A 
ATOM     51  C   UNL A   1      41.946  27.808  30.100  1.00  0.00     0.074 A 
ATOM     52  C   UNL A   1      41.480  30.365  35.867  1.00  0.00     0.029 A 
ATOM     53  N   UNL A   1      41.193  29.812  33.731  1.00  0.00    -0.354 N 
ATOM     54  N   UNL A   1      41.777  28.374  31.271  1.00  0.00    -0.248 NA
ATOM     55  C   UNL A   1      43.128  26.930  30.035  1.00  0.00     0.031 C 
ATOM     56  C   UNL A   1      42.500  29.485  35.499  1.00  0.00     0.029 A 
ATOM     57  C   UNL A   1      42.302  29.116  34.178  1.00  0.00     0.049 A 
ATOM     58  H   UNL A   1      40.819  29.760  32.822  1.00  0.00     0.167 HD
ATOM     59  C   UNL A   1      42.806  27.901  32.082  1.00  0.00     0.074 A 
ATOM     60  C   UNL A   1      43.591  26.993  31.277  1.00  0.00     0.031 C 
ATOM     61  C   UNL A   1      43.072  28.197  33.379  1.00  0.00     0.037 A 
BRANCH  48  62
ATOM     62  C   UNL A   1      39.130  32.256  35.836  1.00  0.00     0.057 A 
ATOM     63  C   UNL A   1      38.240  31.691  36.757  1.00  0.00     0.134 A 
ATOM     64  C   UNL A   1      39.590  33.554  36.086  1.00  0.00     0.134 A 
ATOM     65  F   UNL A   1      37.770  30.447  36.577  1.00  0.00    -0.206 F 
ATOM     66  C   UNL A   1      37.815  32.395  37.883  1.00  0.00     0.040 A 
ATOM     67  C   UNL A   1      39.193  34.257  37.224  1.00  0.00     0.040 A 
ATOM     68  F   UNL A   1      40.468  34.137  35.256  1.00  0.00    -0.206 F 
ATOM     69  C   UNL A   1      38.296  33.681  38.122  1.00  0.00     0.006 A 
ENDBRANCH  48  62
BRANCH  49  70
ATOM     70  C   UNL A   1      41.446  27.110  27.647  1.00  0.00     0.057 A 
ATOM     71  C   UNL A   1      42.279  27.606  26.635  1.00  0.00     0.134 A 
ATOM     72  C   UNL A   1      41.008  25.784  27.514  1.00  0.00     0.134 A 
ATOM     73  F   UNL A   1      42.759  28.856  26.705  1.00  0.00    -0.206 F 
ATOM     74  C   UNL A   1      42.642  26.830  25.530  1.00  0.00     0.040 A 
ATOM     75  C   UNL A   1      41.387  24.987  26.428  1.00  0.00     0.040 A 
ATOM     76  F   UNL A   1      40.248  25.225  28.467  1.00  0.00    -0.206 F 
ATOM     77  C   UNL A   1      42.200  25.514  25.427  1.00  0.00     0.006 A 
ENDBRANCH  49  70
BRANCH  61  78
ATOM     78  C   UNL A   1      44.238  27.524  34.047  1.00  0.00     0.057 A 
ATOM     79  C   UNL A   1      45.520  28.087  33.972  1.00  0.00     0.134 A 
ATOM     80  C   UNL A   1      44.122  26.264  34.647  1.00  0.00     0.134 A 
ATOM     81  F   UNL A   1      45.707  29.284  33.395  1.00  0.00    -0.206 F 
ATOM     82  C   UNL A   1      46.647  27.411  34.443  1.00  0.00     0.040 A 
ATOM     83  C   UNL A   1      45.238  25.590  35.149  1.00  0.00     0.040 A 
ATOM     84  F   UNL A   1      42.925  25.669  34.754  1.00  0.00    -0.206 F 
ATOM     85  C   UNL A   1      46.506  26.157  35.034  1.00  0.00     0.006 A 
ENDBRANCH  61  78
ENDBRANCH  35  36
ENDBRANCH  28  30
ENDBRANCH  27  28
ENDBRANCH  26  27
ENDBRANCH  25  26
ENDBRANCH  24  25
ENDBRANCH   1  24
TORSDOF 19
ENDMDL
MODEL 3
REMARK VINA RESULT:      -9.9      1.323      1.866
REMARK SMILES CC[C@](C)(NS(=O)(=O)c1ccc(OC)c(F)c1)C(=O)OCCOCCOC(=O)c1ccc(-c2c3nc(c(-c4c(F)cccc4F)c4ccc([nH]4)c(-c4c(F)cccc4F)c4nc(c(-c5c(F)cccc5F)c5ccc2[nH]5)C=C4)C=C3)cc1
REMARK SMILES IDX 22 1 21 2 20 3 18 4 19 5 3 6 4 7 2 8 1 9 5 10 6 12 7 13 8 14
REMARK SMILES IDX 9 15 10 16 17 17 11 18 15 19 12 20 16 21 13 22 14 23 23 24
REMARK SMILES IDX 24 25 25 26 26 27 27 28 28 29 29 30 30 31 82 32 31 33 81 34
REMARK SMILES IDX 32 35 33 36 34 37 75 38 35 39 80 40 74 41 76 42 36 43 79 44
REMARK SMILES IDX 73 45 72 46 37 48 63 49 46 50 62 51 47 52 50 53 61 54 77 55
REMARK SMILES IDX 48 56 49 57 60 59 78 60 51 61 38 62 39 63 44 64 40 65 41 66
REMARK SMILES IDX 43 67 45 68 42 69 64 70 65 71 70 72 66 73 67 74 69 75 71 76
REMARK SMILES IDX 68 77 52 78 53 79 58 80 54 81 55 82 57 83 59 84 56 85
REMARK H PARENT 5 11 76 47 50 58
REMARK Flexibility Score: inf
ROOT
ATOM      1  C   UNL A   1      36.608  22.818  24.668  1.00  0.00     0.202 C 
ENDROOT
BRANCH   1   2
ATOM      2  C   UNL A   1      36.113  22.754  26.125  1.00  0.00     0.261 C 
BRANCH   2   3
ATOM      3  O   UNL A   1      34.740  23.167  26.186  1.00  0.00    -0.462 OA
BRANCH   3   4
ATOM      4  C   UNL A   1      33.791  22.222  25.960  1.00  0.00     0.327 C 
ATOM      5  O   UNL A   1      33.737  21.151  26.553  1.00  0.00    -0.250 OA
BRANCH   4   6
ATOM      6  C   UNL A   1      32.696  22.752  25.013  1.00  0.00     0.127 C 
ATOM      7  C   UNL A   1      31.404  22.038  25.495  1.00  0.00     0.042 C 
BRANCH   6   8
ATOM      8  C   UNL A   1      33.013  22.318  23.567  1.00  0.00     0.032 C 
ATOM      9  C   UNL A   1      32.373  20.999  23.134  1.00  0.00     0.006 C 
ENDBRANCH   6   8
BRANCH   6  10
ATOM     10  N   UNL A   1      32.435  24.219  25.099  1.00  0.00    -0.194 NA
ATOM     11  H   UNL A   1      32.173  24.497  24.154  1.00  0.00     0.142 HD
BRANCH  10  12
ATOM     12  S   UNL A   1      31.329  24.989  26.100  1.00  0.00     0.241 S 
ATOM     13  O   UNL A   1      30.070  25.135  25.418  1.00  0.00    -0.207 OA
ATOM     14  O   UNL A   1      31.424  24.280  27.362  1.00  0.00    -0.207 OA
BRANCH  12  15
ATOM     15  C   UNL A   1      32.000  26.598  26.382  1.00  0.00     0.085 A 
ATOM     16  C   UNL A   1      31.436  27.504  27.276  1.00  0.00     0.026 A 
ATOM     17  C   UNL A   1      33.107  26.963  25.641  1.00  0.00     0.065 A 
ATOM     18  C   UNL A   1      31.948  28.812  27.354  1.00  0.00     0.051 A 
ATOM     19  C   UNL A   1      33.559  28.275  25.686  1.00  0.00     0.166 A 
ATOM     20  C   UNL A   1      32.994  29.224  26.523  1.00  0.00     0.154 A 
ATOM     21  F   UNL A   1      34.486  28.638  24.797  1.00  0.00    -0.203 F 
BRANCH  20  22
ATOM     22  O   UNL A   1      33.332  30.549  26.584  1.00  0.00    -0.494 OA
ATOM     23  C   UNL A   1      34.403  30.920  27.453  1.00  0.00     0.278 C 
ENDBRANCH  20  22
ENDBRANCH  12  15
ENDBRANCH  10  12
ENDBRANCH   6  10
ENDBRANCH   4   6
ENDBRANCH   3   4
ENDBRANCH   2   3
ENDBRANCH   1   2
BRANCH   1  24
ATOM     24  O   UNL A   1      37.013  21.564  24.113  1.00  0.00    -0.374 OA
BRANCH  24  25
ATOM     25  C   UNL A   1      36.868  20.415  24.963  1.00  0.00     0.202 C 
BRANCH  25  26
ATOM     26  C   UNL A   1      38.168  19.642  25.274  1.00  0.00     0.261 C 
BRANCH  26  27
ATOM     27  O   UNL A   1      39.309  20.541  25.314  1.00  0.00    -0.460 OA
BRANCH  27  28
ATOM     28  C   UNL A   1      40.210  20.368  26.318  1.00  0.00     0.338 C 
ATOM     29  O   UNL A   1      40.733  19.316  26.640  1.00  0.00    -0.246 OA
BRANCH  28  30
ATOM     30  C   UNL A   1      40.642  21.695  26.857  1.00  0.00     0.060 A 
ATOM     31  C   UNL A   1      40.030  22.832  26.310  1.00  0.00     0.016 A 
ATOM     32  C   UNL A   1      41.530  21.854  27.929  1.00  0.00     0.016 A 
ATOM     33  C   UNL A   1      40.218  24.095  26.885  1.00  0.00     0.010 A 
ATOM     34  C   UNL A   1      41.783  23.142  28.456  1.00  0.00     0.010 A 
ATOM     35  C   UNL A   1      41.120  24.275  27.945  1.00  0.00    -0.014 A 
BRANCH  35  36
ATOM     36  C   UNL A   1      41.569  25.673  28.238  1.00  0.00     0.031 A 
ATOM     37  C   UNL A   1      42.941  26.052  27.734  1.00  0.00     0.074 A 
ATOM     38  C   UNL A   1      40.790  26.632  28.785  1.00  0.00     0.049 A 
ATOM     39  N   UNL A   1      43.560  27.204  27.768  1.00  0.00    -0.248 NA
ATOM     40  C   UNL A   1      43.698  24.982  27.063  1.00  0.00     0.031 C 
ATOM     41  C   UNL A   1      39.402  26.471  29.207  1.00  0.00     0.029 A 
ATOM     42  N   UNL A   1      41.064  27.960  29.052  1.00  0.00    -0.354 N 
ATOM     43  C   UNL A   1      44.762  26.999  27.102  1.00  0.00     0.074 A 
ATOM     44  C   UNL A   1      44.793  25.617  26.684  1.00  0.00     0.031 C 
ATOM     45  C   UNL A   1      38.945  27.650  29.676  1.00  0.00     0.029 A 
ATOM     46  C   UNL A   1      40.016  28.649  29.620  1.00  0.00     0.049 A 
ATOM     47  H   UNL A   1      41.934  28.377  28.853  1.00  0.00     0.167 HD
ATOM     48  C   UNL A   1      45.762  27.874  26.858  1.00  0.00     0.037 A 
ATOM     49  C   UNL A   1      39.934  29.928  30.056  1.00  0.00     0.037 A 
ATOM     50  C   UNL A   1      45.782  29.234  27.313  1.00  0.00     0.049 A 
ATOM     51  C   UNL A   1      41.132  30.848  29.923  1.00  0.00     0.074 A 
ATOM     52  C   UNL A   1      46.795  30.166  27.188  1.00  0.00     0.029 A 
ATOM     53  N   UNL A   1      44.747  29.850  27.997  1.00  0.00    -0.354 N 
ATOM     54  N   UNL A   1      42.281  30.630  29.329  1.00  0.00    -0.248 NA
ATOM     55  C   UNL A   1      41.028  32.186  30.532  1.00  0.00     0.031 C 
ATOM     56  C   UNL A   1      46.398  31.330  27.848  1.00  0.00     0.029 A 
ATOM     57  C   UNL A   1      45.110  31.145  28.323  1.00  0.00     0.049 A 
ATOM     58  H   UNL A   1      43.884  29.431  28.218  1.00  0.00     0.167 HD
ATOM     59  C   UNL A   1      43.017  31.805  29.467  1.00  0.00     0.074 A 
ATOM     60  C   UNL A   1      42.185  32.739  30.192  1.00  0.00     0.031 C 
ATOM     61  C   UNL A   1      44.272  32.080  29.030  1.00  0.00     0.037 A 
BRANCH  48  62
ATOM     62  C   UNL A   1      46.955  27.349  26.119  1.00  0.00     0.057 A 
ATOM     63  C   UNL A   1      47.039  27.480  24.727  1.00  0.00     0.134 A 
ATOM     64  C   UNL A   1      48.018  26.722  26.779  1.00  0.00     0.134 A 
ATOM     65  F   UNL A   1      46.057  28.080  24.038  1.00  0.00    -0.206 F 
ATOM     66  C   UNL A   1      48.137  26.996  24.016  1.00  0.00     0.040 A 
ATOM     67  C   UNL A   1      49.134  26.258  26.081  1.00  0.00     0.040 A 
ATOM     68  F   UNL A   1      48.009  26.595  28.115  1.00  0.00    -0.206 F 
ATOM     69  C   UNL A   1      49.191  26.388  24.695  1.00  0.00     0.006 A 
ENDBRANCH  48  62
BRANCH  49  70
ATOM     70  C   UNL A   1      38.687  30.437  30.704  1.00  0.00     0.057 A 
ATOM     71  C   UNL A   1      37.686  31.071  29.957  1.00  0.00     0.134 A 
ATOM     72  C   UNL A   1      38.433  30.243  32.070  1.00  0.00     0.134 A 
ATOM     73  F   UNL A   1      37.845  31.268  28.641  1.00  0.00    -0.206 F 
ATOM     74  C   UNL A   1      36.496  31.513  30.543  1.00  0.00     0.040 A 
ATOM     75  C   UNL A   1      37.235  30.655  32.663  1.00  0.00     0.040 A 
ATOM     76  F   UNL A   1      39.324  29.600  32.838  1.00  0.00    -0.206 F 
ATOM     77  C   UNL A   1      36.264  31.300  31.899  1.00  0.00     0.006 A 
ENDBRANCH  49  70
BRANCH  61  78
ATOM     78  C   UNL A   1      44.839  33.448  29.281  1.00  0.00     0.057 A 
ATOM     79  C   UNL A   1      44.656  34.475  28.343  1.00  0.00     0.134 A 
ATOM     80  C   UNL A   1      45.672  33.717  30.375  1.00  0.00     0.134 A 
ATOM     81  F   UNL A   1      43.885  34.281  27.262  1.00  0.00    -0.206 F 
ATOM     82  C   UNL A   1      45.301  35.707  28.469  1.00  0.00     0.040 A 
ATOM     83  C   UNL A   1      46.299  34.956  30.527  1.00  0.00     0.040 A 
ATOM     84  F   UNL A   1      45.888  32.781  31.311  1.00  0.00    -0.206 F 
ATOM     85  C   UNL A   1      46.125  35.949  29.565  1.00  0.00     0.006 A 
ENDBRANCH  61  78
ENDBRANCH  35  36
ENDBRANCH  28  30
ENDBRANCH  27  28
ENDBRANCH  26  27
ENDBRANCH  25  26
ENDBRANCH  24  25
ENDBRANCH   1  24
TORSDOF 19
ENDMDL
