MODEL 1
REMARK VINA RESULT:     -11.4      0.000      0.000
REMARK SMILES C/C(=C(/F)C(=O)OCCOCCOC(=O)c1ccc(-c2c3nc(c(-c4c(F)cccc4F)c4ccc([nH]4)c(-c4c(F)cccc4F)c4nc(c(-c5c(F)cccc5F)c5ccc2[nH]5)C=C4)C=C3)cc1)c1cccc(-n2cnnn2)c1
REMARK SMILES IDX 10 1 9 2 8 3 7 4 5 5 6 6 3 7 1 8 2 9 4 10 70 11 71 12 80 13
REMARK SMILES IDX 72 14 74 15 73 16 75 17 76 18 79 19 77 20 78 21 11 22 12 23
REMARK SMILES IDX 13 24 14 25 15 26 16 27 17 28 69 29 18 30 68 31 19 32 20 33
REMARK SMILES IDX 21 34 62 35 22 36 67 37 61 38 63 39 23 40 66 41 60 42 59 43
REMARK SMILES IDX 24 45 50 46 33 47 49 48 34 49 37 50 48 51 64 52 35 53 36 54
REMARK SMILES IDX 47 56 65 57 38 58 25 59 26 60 31 61 27 62 28 63 30 64 32 65
REMARK SMILES IDX 29 66 51 67 52 68 57 69 53 70 54 71 56 72 58 73 55 74 39 75
REMARK SMILES IDX 40 76 45 77 41 78 42 79 44 80 46 81 43 82
REMARK H PARENT 63 44 37 55
REMARK Flexibility Score: inf
ROOT
ATOM      1  O   UNL A   1      34.694  34.697  30.789  1.00  0.00    -0.374 OA
ENDROOT
BRANCH   1   2
ATOM      2  C   UNL A   1      33.829  35.144  29.745  1.00  0.00     0.202 C 
BRANCH   2   3
ATOM      3  C   UNL A   1      33.587  34.148  28.608  1.00  0.00     0.261 C 
BRANCH   3   4
ATOM      4  O   UNL A   1      34.077  32.845  28.958  1.00  0.00    -0.458 OA
BRANCH   4   5
ATOM      5  C   UNL A   1      34.713  32.186  27.958  1.00  0.00     0.367 C 
ATOM      6  O   UNL A   1      35.824  32.435  27.515  1.00  0.00    -0.243 OA
BRANCH   5   7
ATOM      7  C   UNL A   1      33.892  31.029  27.528  1.00  0.00     0.211 C 
ATOM      8  C   UNL A   1      35.738  29.369  27.942  1.00  0.00     0.048 C 
ATOM      9  C   UNL A   1      34.359  29.766  27.464  1.00  0.00    -0.000 C 
ATOM     10  F   UNL A   1      32.611  31.332  27.219  1.00  0.00    -0.199 F 
BRANCH   9  11
ATOM     11  C   UNL A   1      33.547  28.676  26.857  1.00  0.00    -0.017 A 
ATOM     12  C   UNL A   1      32.302  28.345  27.419  1.00  0.00     0.008 A 
ATOM     13  C   UNL A   1      33.912  28.060  25.645  1.00  0.00     0.037 A 
ATOM     14  C   UNL A   1      31.428  27.467  26.777  1.00  0.00     0.003 A 
ATOM     15  C   UNL A   1      33.023  27.195  24.983  1.00  0.00     0.069 A 
ATOM     16  C   UNL A   1      31.774  26.912  25.548  1.00  0.00     0.028 A 
BRANCH  15  17
ATOM     17  N   UNL A   1      33.351  26.639  23.724  1.00  0.00    -0.201 N 
ATOM     18  C   UNL A   1      33.230  27.182  22.469  1.00  0.00     0.252 A 
ATOM     19  N   UNL A   1      33.849  25.388  23.587  1.00  0.00    -0.040 NA
ATOM     20  N   UNL A   1      33.584  26.290  21.573  1.00  0.00    -0.117 NA
ATOM     21  N   UNL A   1      33.953  25.177  22.282  1.00  0.00    -0.024 NA
ENDBRANCH  15  17
ENDBRANCH   9  11
ENDBRANCH   5   7
ENDBRANCH   4   5
ENDBRANCH   3   4
ENDBRANCH   2   3
ENDBRANCH   1   2
BRANCH   1  22
ATOM     22  C   UNL A   1      34.173  34.713  32.120  1.00  0.00     0.202 C 
BRANCH  22  23
ATOM     23  C   UNL A   1      34.012  33.355  32.812  1.00  0.00     0.261 C 
BRANCH  23  24
ATOM     24  O   UNL A   1      34.930  32.379  32.289  1.00  0.00    -0.460 OA
BRANCH  24  25
ATOM     25  C   UNL A   1      36.079  32.239  32.988  1.00  0.00     0.338 C 
ATOM     26  O   UNL A   1      36.275  32.534  34.161  1.00  0.00    -0.246 OA
BRANCH  25  27
ATOM     27  C   UNL A   1      37.062  31.493  32.186  1.00  0.00     0.060 A 
ATOM     28  C   UNL A   1      37.915  30.608  32.858  1.00  0.00     0.016 A 
ATOM     29  C   UNL A   1      37.188  31.693  30.810  1.00  0.00     0.016 A 
ATOM     30  C   UNL A   1      38.931  29.953  32.165  1.00  0.00     0.010 A 
ATOM     31  C   UNL A   1      38.214  31.044  30.117  1.00  0.00     0.010 A 
ATOM     32  C   UNL A   1      39.108  30.197  30.797  1.00  0.00    -0.014 A 
BRANCH  32  33
ATOM     33  C   UNL A   1      40.316  29.690  30.105  1.00  0.00     0.031 A 
ATOM     34  C   UNL A   1      41.480  30.621  29.906  1.00  0.00     0.074 A 
ATOM     35  C   UNL A   1      40.377  28.422  29.664  1.00  0.00     0.049 A 
ATOM     36  N   UNL A   1      42.596  30.427  29.253  1.00  0.00    -0.248 NA
ATOM     37  C   UNL A   1      41.368  31.950  30.528  1.00  0.00     0.031 C 
ATOM     38  C   UNL A   1      39.334  27.414  29.841  1.00  0.00     0.029 A 
ATOM     39  N   UNL A   1      41.362  27.772  28.963  1.00  0.00    -0.354 N 
ATOM     40  C   UNL A   1      43.315  31.609  29.376  1.00  0.00     0.074 A 
ATOM     41  C   UNL A   1      42.498  32.525  30.143  1.00  0.00     0.031 C 
ATOM     42  C   UNL A   1      39.727  26.273  29.248  1.00  0.00     0.029 A 
ATOM     43  C   UNL A   1      41.031  26.484  28.620  1.00  0.00     0.049 A 
ATOM     44  H   UNL A   1      42.222  28.188  28.729  1.00  0.00     0.167 HD
ATOM     45  C   UNL A   1      44.547  31.902  28.899  1.00  0.00     0.037 A 
ATOM     46  C   UNL A   1      41.693  25.592  27.859  1.00  0.00     0.037 A 
ATOM     47  C   UNL A   1      45.355  30.990  28.134  1.00  0.00     0.049 A 
ATOM     48  C   UNL A   1      43.024  25.972  27.266  1.00  0.00     0.074 A 
ATOM     49  C   UNL A   1      46.619  31.189  27.609  1.00  0.00     0.029 A 
ATOM     50  N   UNL A   1      44.973  29.704  27.784  1.00  0.00    -0.354 N 
ATOM     51  N   UNL A   1      43.700  27.088  27.395  1.00  0.00    -0.248 NA
ATOM     52  C   UNL A   1      43.683  24.968  26.416  1.00  0.00     0.031 C 
ATOM     53  C   UNL A   1      46.985  30.040  26.902  1.00  0.00     0.029 A 
ATOM     54  C   UNL A   1      45.969  29.107  27.029  1.00  0.00     0.049 A 
ATOM     55  H   UNL A   1      44.121  29.280  28.033  1.00  0.00     0.167 HD
ATOM     56  C   UNL A   1      44.876  26.908  26.675  1.00  0.00     0.074 A 
ATOM     57  C   UNL A   1      44.823  25.574  26.115  1.00  0.00     0.031 C 
ATOM     58  C   UNL A   1      45.907  27.769  26.496  1.00  0.00     0.037 A 
BRANCH  45  59
ATOM     59  C   UNL A   1      45.086  33.276  29.172  1.00  0.00     0.057 A 
ATOM     60  C   UNL A   1      44.835  34.352  28.310  1.00  0.00     0.134 A 
ATOM     61  C   UNL A   1      45.837  33.531  30.325  1.00  0.00     0.134 A 
ATOM     62  F   UNL A   1      44.136  34.169  27.180  1.00  0.00    -0.206 F 
ATOM     63  C   UNL A   1      45.331  35.630  28.577  1.00  0.00     0.040 A 
ATOM     64  C   UNL A   1      46.315  34.810  30.616  1.00  0.00     0.040 A 
ATOM     65  F   UNL A   1      46.110  32.545  31.193  1.00  0.00    -0.206 F 
ATOM     66  C   UNL A   1      46.067  35.862  29.737  1.00  0.00     0.006 A 
ENDBRANCH  45  59
BRANCH  46  67
ATOM     67  C   UNL A   1      41.106  24.254  27.596  1.00  0.00     0.057 A 
ATOM     68  C   UNL A   1      41.594  23.110  28.236  1.00  0.00     0.134 A 
ATOM     69  C   UNL A   1      40.064  24.082  26.676  1.00  0.00     0.134 A 
ATOM     70  F   UNL A   1      42.608  23.207  29.109  1.00  0.00    -0.206 F 
ATOM     71  C   UNL A   1      41.082  21.841  27.960  1.00  0.00     0.040 A 
ATOM     72  C   UNL A   1      39.525  22.824  26.408  1.00  0.00     0.040 A 
ATOM     73  F   UNL A   1      39.552  25.139  26.028  1.00  0.00    -0.206 F 
ATOM     74  C   UNL A   1      40.041  21.697  27.045  1.00  0.00     0.006 A 
ENDBRANCH  46  67
BRANCH  58  75
ATOM     75  C   UNL A   1      47.085  27.282  25.706  1.00  0.00     0.057 A 
ATOM     76  C   UNL A   1      47.213  27.536  24.334  1.00  0.00     0.134 A 
ATOM     77  C   UNL A   1      48.132  26.599  26.339  1.00  0.00     0.134 A 
ATOM     78  F   UNL A   1      46.240  28.174  23.666  1.00  0.00    -0.206 F 
ATOM     79  C   UNL A   1      48.334  27.112  23.617  1.00  0.00     0.040 A 
ATOM     80  C   UNL A   1      49.268  26.193  25.639  1.00  0.00     0.040 A 
ATOM     81  F   UNL A   1      48.074  26.333  27.653  1.00  0.00    -0.206 F 
ATOM     82  C   UNL A   1      49.369  26.447  24.272  1.00  0.00     0.006 A 
ENDBRANCH  58  75
ENDBRANCH  32  33
ENDBRANCH  25  27
ENDBRANCH  24  25
ENDBRANCH  23  24
ENDBRANCH  22  23
ENDBRANCH   1  22
TORSDOF 16
ENDMDL
MODEL 2
REMARK VINA RESULT:     -11.2      4.968      9.950
REMARK SMILES C/C(=C(/F)C(=O)OCCOCCOC(=O)c1ccc(-c2c3nc(c(-c4c(F)cccc4F)c4ccc([nH]4)c(-c4c(F)cccc4F)c4nc(c(-c5c(F)cccc5F)c5ccc2[nH]5)C=C4)C=C3)cc1)c1cccc(-n2cnnn2)c1
REMARK SMILES IDX 10 1 9 2 8 3 7 4 5 5 6 6 3 7 1 8 2 9 4 10 70 11 71 12 80 13
REMARK SMILES IDX 72 14 74 15 73 16 75 17 76 18 79 19 77 20 78 21 11 22 12 23
REMARK SMILES IDX 13 24 14 25 15 26 16 27 17 28 69 29 18 30 68 31 19 32 20 33
REMARK SMILES IDX 21 34 62 35 22 36 67 37 61 38 63 39 23 40 66 41 60 42 59 43
REMARK SMILES IDX 24 45 50 46 33 47 49 48 34 49 37 50 48 51 64 52 35 53 36 54
REMARK SMILES IDX 47 56 65 57 38 58 25 59 26 60 31 61 27 62 28 63 30 64 32 65
REMARK SMILES IDX 29 66 51 67 52 68 57 69 53 70 54 71 56 72 58 73 55 74 39 75
REMARK SMILES IDX 40 76 45 77 41 78 42 79 44 80 46 81 43 82
REMARK H PARENT 63 44 37 55
REMARK Flexibility Score: inf
ROOT
ATOM      1  O   UNL A   1      41.912  20.507  27.175  1.00  0.00    -0.374 OA
ENDROOT
BRANCH   1   2
ATOM      2  C   UNL A   1      40.639  21.149  27.255  1.00  0.00     0.202 C 
BRANCH   2   3
ATOM      3  C   UNL A   1      39.821  21.168  25.961  1.00  0.00     0.261 C 
BRANCH   3   4
ATOM      4  O   UNL A   1      38.596  21.895  26.142  1.00  0.00    -0.458 OA
BRANCH   4   5
ATOM      5  C   UNL A   1      37.648  21.661  25.201  1.00  0.00     0.367 C 
ATOM      6  O   UNL A   1      37.457  20.609  24.607  1.00  0.00    -0.243 OA
BRANCH   5   7
ATOM      7  C   UNL A   1      36.790  22.860  25.055  1.00  0.00     0.211 C 
ATOM      8  C   UNL A   1      34.922  21.878  26.428  1.00  0.00     0.048 C 
ATOM      9  C   UNL A   1      35.540  22.947  25.555  1.00  0.00    -0.000 C 
ATOM     10  F   UNL A   1      37.365  23.886  24.391  1.00  0.00    -0.199 F 
BRANCH   9  11
ATOM     11  C   UNL A   1      34.661  24.103  25.227  1.00  0.00    -0.017 A 
ATOM     12  C   UNL A   1      34.521  25.152  26.152  1.00  0.00     0.008 A 
ATOM     13  C   UNL A   1      34.076  24.257  23.956  1.00  0.00     0.037 A 
ATOM     14  C   UNL A   1      33.863  26.334  25.812  1.00  0.00     0.003 A 
ATOM     15  C   UNL A   1      33.436  25.458  23.602  1.00  0.00     0.069 A 
ATOM     16  C   UNL A   1      33.343  26.500  24.532  1.00  0.00     0.028 A 
BRANCH  15  17
ATOM     17  N   UNL A   1      32.919  25.650  22.298  1.00  0.00    -0.201 N 
ATOM     18  C   UNL A   1      31.672  26.063  21.903  1.00  0.00     0.252 A 
ATOM     19  N   UNL A   1      33.648  25.410  21.183  1.00  0.00    -0.040 NA
ATOM     20  N   UNL A   1      31.597  26.031  20.593  1.00  0.00    -0.117 NA
ATOM     21  N   UNL A   1      32.828  25.611  20.161  1.00  0.00    -0.024 NA
ENDBRANCH  15  17
ENDBRANCH   9  11
ENDBRANCH   5   7
ENDBRANCH   4   5
ENDBRANCH   3   4
ENDBRANCH   2   3
ENDBRANCH   1   2
BRANCH   1  22
ATOM     22  C   UNL A   1      42.491  20.364  25.877  1.00  0.00     0.202 C 
BRANCH  22  23
ATOM     23  C   UNL A   1      43.504  21.434  25.453  1.00  0.00     0.261 C 
BRANCH  23  24
ATOM     24  O   UNL A   1      42.853  22.627  24.984  1.00  0.00    -0.460 OA
BRANCH  24  25
ATOM     25  C   UNL A   1      43.603  23.751  25.044  1.00  0.00     0.338 C 
ATOM     26  O   UNL A   1      44.585  24.025  24.364  1.00  0.00    -0.246 OA
BRANCH  25  27
ATOM     27  C   UNL A   1      42.965  24.728  25.941  1.00  0.00     0.060 A 
ATOM     28  C   UNL A   1      43.517  26.014  26.002  1.00  0.00     0.016 A 
ATOM     29  C   UNL A   1      41.882  24.381  26.751  1.00  0.00     0.016 A 
ATOM     30  C   UNL A   1      43.017  26.947  26.908  1.00  0.00     0.010 A 
ATOM     31  C   UNL A   1      41.389  25.313  27.668  1.00  0.00     0.010 A 
ATOM     32  C   UNL A   1      41.975  26.588  27.772  1.00  0.00    -0.014 A 
BRANCH  32  33
ATOM     33  C   UNL A   1      41.595  27.487  28.887  1.00  0.00     0.031 A 
ATOM     34  C   UNL A   1      42.370  27.412  30.172  1.00  0.00     0.074 A 
ATOM     35  C   UNL A   1      40.579  28.357  28.756  1.00  0.00     0.049 A 
ATOM     36  N   UNL A   1      42.161  28.031  31.305  1.00  0.00    -0.248 NA
ATOM     37  C   UNL A   1      43.538  26.517  30.181  1.00  0.00     0.031 C 
ATOM     38  C   UNL A   1      39.786  28.555  27.544  1.00  0.00     0.029 A 
ATOM     39  N   UNL A   1      40.033  29.229  29.664  1.00  0.00    -0.354 N 
ATOM     40  C   UNL A   1      43.163  27.595  32.163  1.00  0.00     0.074 A 
ATOM     41  C   UNL A   1      43.964  26.640  31.429  1.00  0.00     0.031 C 
ATOM     42  C   UNL A   1      38.842  29.481  27.789  1.00  0.00     0.029 A 
ATOM     43  C   UNL A   1      38.943  29.911  29.183  1.00  0.00     0.049 A 
ATOM     44  H   UNL A   1      40.390  29.355  30.572  1.00  0.00     0.167 HD
ATOM     45  C   UNL A   1      43.398  27.964  33.445  1.00  0.00     0.037 A 
ATOM     46  C   UNL A   1      38.105  30.760  29.808  1.00  0.00     0.037 A 
ATOM     47  C   UNL A   1      42.597  28.913  34.171  1.00  0.00     0.049 A 
ATOM     48  C   UNL A   1      38.336  31.088  31.260  1.00  0.00     0.074 A 
ATOM     49  C   UNL A   1      42.755  29.358  35.471  1.00  0.00     0.029 A 
ATOM     50  N   UNL A   1      41.484  29.560  33.658  1.00  0.00    -0.354 N 
ATOM     51  N   UNL A   1      39.291  30.679  32.060  1.00  0.00    -0.248 NA
ATOM     52  C   UNL A   1      37.368  31.994  31.897  1.00  0.00     0.031 C 
ATOM     53  C   UNL A   1      41.711  30.242  35.760  1.00  0.00     0.029 A 
ATOM     54  C   UNL A   1      40.932  30.385  34.624  1.00  0.00     0.049 A 
ATOM     55  H   UNL A   1      41.137  29.450  32.744  1.00  0.00     0.167 HD
ATOM     56  C   UNL A   1      39.060  31.303  33.281  1.00  0.00     0.074 A 
ATOM     57  C   UNL A   1      37.877  32.122  33.114  1.00  0.00     0.031 C 
ATOM     58  C   UNL A   1      39.765  31.209  34.434  1.00  0.00     0.037 A 
BRANCH  45  59
ATOM     59  C   UNL A   1      44.556  27.320  34.148  1.00  0.00     0.057 A 
ATOM     60  C   UNL A   1      45.829  27.905  34.161  1.00  0.00     0.134 A 
ATOM     61  C   UNL A   1      44.388  26.118  34.846  1.00  0.00     0.134 A 
ATOM     62  F   UNL A   1      46.059  29.048  33.498  1.00  0.00    -0.206 F 
ATOM     63  C   UNL A   1      46.899  27.304  34.828  1.00  0.00     0.040 A 
ATOM     64  C   UNL A   1      45.444  25.523  35.537  1.00  0.00     0.040 A 
ATOM     65  F   UNL A   1      43.193  25.508  34.875  1.00  0.00    -0.206 F 
ATOM     66  C   UNL A   1      46.705  26.113  35.525  1.00  0.00     0.006 A 
ENDBRANCH  45  59
BRANCH  46  67
ATOM     67  C   UNL A   1      36.957  31.351  29.076  1.00  0.00     0.057 A 
ATOM     68  C   UNL A   1      36.991  32.674  28.623  1.00  0.00     0.134 A 
ATOM     69  C   UNL A   1      35.788  30.618  28.837  1.00  0.00     0.134 A 
ATOM     70  F   UNL A   1      38.073  33.435  28.843  1.00  0.00    -0.206 F 
ATOM     71  C   UNL A   1      35.898  33.255  27.977  1.00  0.00     0.040 A 
ATOM     72  C   UNL A   1      34.697  31.177  28.171  1.00  0.00     0.040 A 
ATOM     73  F   UNL A   1      35.691  29.344  29.247  1.00  0.00    -0.206 F 
ATOM     74  C   UNL A   1      34.748  32.503  27.745  1.00  0.00     0.006 A 
ENDBRANCH  46  67
BRANCH  58  75
ATOM     75  C   UNL A   1      39.311  32.047  35.593  1.00  0.00     0.057 A 
ATOM     76  C   UNL A   1      39.725  33.375  35.753  1.00  0.00     0.134 A 
ATOM     77  C   UNL A   1      38.404  31.533  36.529  1.00  0.00     0.134 A 
ATOM     78  F   UNL A   1      40.602  33.922  34.898  1.00  0.00    -0.206 F 
ATOM     79  C   UNL A   1      39.265  34.157  36.814  1.00  0.00     0.040 A 
ATOM     80  C   UNL A   1      37.917  32.312  37.578  1.00  0.00     0.040 A 
ATOM     81  F   UNL A   1      37.961  30.270  36.426  1.00  0.00    -0.206 F 
ATOM     82  C   UNL A   1      38.351  33.629  37.725  1.00  0.00     0.006 A 
ENDBRANCH  58  75
ENDBRANCH  32  33
ENDBRANCH  25  27
ENDBRANCH  24  25
ENDBRANCH  23  24
ENDBRANCH  22  23
ENDBRANCH   1  22
TORSDOF 16
ENDMDL
MODEL 3
REMARK VINA RESULT:     -11.1      4.821      9.225
REMARK SMILES C/C(=C(/F)C(=O)OCCOCCOC(=O)c1ccc(-c2c3nc(c(-c4c(F)cccc4F)c4ccc([nH]4)c(-c4c(F)cccc4F)c4nc(c(-c5c(F)cccc5F)c5ccc2[nH]5)C=C4)C=C3)cc1)c1cccc(-n2cnnn2)c1
REMARK SMILES IDX 10 1 9 2 8 3 7 4 5 5 6 6 3 7 1 8 2 9 4 10 70 11 71 12 80 13
REMARK SMILES IDX 72 14 74 15 73 16 75 17 76 18 79 19 77 20 78 21 11 22 12 23
REMARK SMILES IDX 13 24 14 25 15 26 16 27 17 28 69 29 18 30 68 31 19 32 20 33
REMARK SMILES IDX 21 34 62 35 22 36 67 37 61 38 63 39 23 40 66 41 60 42 59 43
REMARK SMILES IDX 24 45 50 46 33 47 49 48 34 49 37 50 48 51 64 52 35 53 36 54
REMARK SMILES IDX 47 56 65 57 38 58 25 59 26 60 31 61 27 62 28 63 30 64 32 65
REMARK SMILES IDX 29 66 51 67 52 68 57 69 53 70 54 71 56 72 58 73 55 74 39 75
REMARK SMILES IDX 40 76 45 77 41 78 42 79 44 80 46 81 43 82
REMARK H PARENT 63 44 37 55
REMARK Flexibility Score: inf
ROOT
ATOM      1  O   UNL A   1      38.010  20.757  25.078  1.00  0.00    -0.374 OA
ENDROOT
BRANCH   1   2
ATOM      2  C   UNL A   1      38.453  21.918  25.781  1.00  0.00     0.202 C 
BRANCH   2   3
ATOM      3  C   UNL A   1      37.668  23.203  25.505  1.00  0.00     0.261 C 
BRANCH   3   4
ATOM      4  O   UNL A   1      36.406  23.188  26.188  1.00  0.00    -0.458 OA
BRANCH   4   5
ATOM      5  C   UNL A   1      35.354  23.629  25.455  1.00  0.00     0.367 C 
ATOM      6  O   UNL A   1      35.013  24.793  25.299  1.00  0.00    -0.243 OA
BRANCH   5   7
ATOM      7  C   UNL A   1      34.712  22.482  24.772  1.00  0.00     0.211 C 
ATOM      8  C   UNL A   1      32.952  22.209  26.550  1.00  0.00     0.048 C 
ATOM      9  C   UNL A   1      33.666  21.800  25.282  1.00  0.00    -0.000 C 
ATOM     10  F   UNL A   1      35.245  22.174  23.569  1.00  0.00    -0.199 F 
BRANCH   9  11
ATOM     11  C   UNL A   1      33.177  20.549  24.639  1.00  0.00    -0.017 A 
ATOM     12  C   UNL A   1      32.416  20.628  23.460  1.00  0.00     0.008 A 
ATOM     13  C   UNL A   1      33.575  19.276  25.087  1.00  0.00     0.037 A 
ATOM     14  C   UNL A   1      32.099  19.486  22.725  1.00  0.00     0.003 A 
ATOM     15  C   UNL A   1      33.281  18.125  24.334  1.00  0.00     0.069 A 
ATOM     16  C   UNL A   1      32.552  18.238  23.144  1.00  0.00     0.028 A 
BRANCH  15  17
ATOM     17  N   UNL A   1      33.750  16.852  24.737  1.00  0.00    -0.201 N 
ATOM     18  C   UNL A   1      35.036  16.419  24.943  1.00  0.00     0.252 A 
ATOM     19  N   UNL A   1      32.920  15.809  24.968  1.00  0.00    -0.040 NA
ATOM     20  N   UNL A   1      35.023  15.141  25.238  1.00  0.00    -0.117 NA
ATOM     21  N   UNL A   1      33.703  14.773  25.237  1.00  0.00    -0.024 NA
ENDBRANCH  15  17
ENDBRANCH   9  11
ENDBRANCH   5   7
ENDBRANCH   4   5
ENDBRANCH   3   4
ENDBRANCH   2   3
ENDBRANCH   1   2
BRANCH   1  22
ATOM     22  C   UNL A   1      38.842  19.597  25.144  1.00  0.00     0.202 C 
BRANCH  22  23
ATOM     23  C   UNL A   1      39.986  19.628  26.164  1.00  0.00     0.261 C 
BRANCH  23  24
ATOM     24  O   UNL A   1      41.117  18.860  25.720  1.00  0.00    -0.460 OA
BRANCH  24  25
ATOM     25  C   UNL A   1      42.314  19.277  26.190  1.00  0.00     0.338 C 
ATOM     26  O   UNL A   1      43.361  18.640  26.225  1.00  0.00    -0.246 OA
BRANCH  25  27
ATOM     27  C   UNL A   1      42.253  20.714  26.503  1.00  0.00     0.060 A 
ATOM     28  C   UNL A   1      42.228  21.615  25.431  1.00  0.00     0.016 A 
ATOM     29  C   UNL A   1      42.276  21.178  27.820  1.00  0.00     0.016 A 
ATOM     30  C   UNL A   1      42.273  22.987  25.669  1.00  0.00     0.010 A 
ATOM     31  C   UNL A   1      42.333  22.553  28.058  1.00  0.00     0.010 A 
ATOM     32  C   UNL A   1      42.364  23.462  26.984  1.00  0.00    -0.014 A 
BRANCH  32  33
ATOM     33  C   UNL A   1      42.643  24.895  27.236  1.00  0.00     0.031 A 
ATOM     34  C   UNL A   1      43.991  25.445  26.862  1.00  0.00     0.074 A 
ATOM     35  C   UNL A   1      41.712  25.693  27.786  1.00  0.00     0.049 A 
ATOM     36  N   UNL A   1      44.489  26.636  27.071  1.00  0.00    -0.248 NA
ATOM     37  C   UNL A   1      44.900  24.527  26.157  1.00  0.00     0.031 C 
ATOM     38  C   UNL A   1      40.355  25.286  28.145  1.00  0.00     0.029 A 
ATOM     39  N   UNL A   1      41.777  27.014  28.149  1.00  0.00    -0.354 N 
ATOM     40  C   UNL A   1      45.769  26.609  26.535  1.00  0.00     0.074 A 
ATOM     41  C   UNL A   1      45.983  25.276  26.013  1.00  0.00     0.031 C 
ATOM     42  C   UNL A   1      39.719  26.335  28.695  1.00  0.00     0.029 A 
ATOM     43  C   UNL A   1      40.635  27.473  28.758  1.00  0.00     0.049 A 
ATOM     44  H   UNL A   1      42.566  27.580  27.988  1.00  0.00     0.167 HD
ATOM     45  C   UNL A   1      46.682  27.607  26.475  1.00  0.00     0.037 A 
ATOM     46  C   UNL A   1      40.374  28.665  29.327  1.00  0.00     0.037 A 
ATOM     47  C   UNL A   1      46.466  28.931  26.996  1.00  0.00     0.049 A 
ATOM     48  C   UNL A   1      41.437  29.732  29.326  1.00  0.00     0.074 A 
ATOM     49  C   UNL A   1      47.326  30.015  26.981  1.00  0.00     0.029 A 
ATOM     50  N   UNL A   1      45.306  29.347  27.631  1.00  0.00    -0.354 N 
ATOM     51  N   UNL A   1      42.641  29.701  28.808  1.00  0.00    -0.248 NA
ATOM     52  C   UNL A   1      41.105  31.000  29.993  1.00  0.00     0.031 C 
ATOM     53  C   UNL A   1      46.703  31.075  27.646  1.00  0.00     0.029 A 
ATOM     54  C   UNL A   1      45.437  30.666  28.031  1.00  0.00     0.049 A 
ATOM     55  H   UNL A   1      44.509  28.789  27.775  1.00  0.00     0.167 HD
ATOM     56  C   UNL A   1      43.196  30.952  29.054  1.00  0.00     0.074 A 
ATOM     57  C   UNL A   1      42.195  31.719  29.765  1.00  0.00     0.031 C 
ATOM     58  C   UNL A   1      44.422  31.422  28.721  1.00  0.00     0.037 A 
BRANCH  45  59
ATOM     59  C   UNL A   1      48.006  27.297  25.842  1.00  0.00     0.057 A 
ATOM     60  C   UNL A   1      49.089  26.817  26.591  1.00  0.00     0.134 A 
ATOM     61  C   UNL A   1      48.191  27.450  24.462  1.00  0.00     0.134 A 
ATOM     62  F   UNL A   1      48.981  26.665  27.920  1.00  0.00    -0.206 F 
ATOM     63  C   UNL A   1      50.315  26.520  25.992  1.00  0.00     0.040 A 
ATOM     64  C   UNL A   1      49.403  27.131  23.849  1.00  0.00     0.040 A 
ATOM     65  F   UNL A   1      47.194  27.901  23.687  1.00  0.00    -0.206 F 
ATOM     66  C   UNL A   1      50.471  26.670  24.616  1.00  0.00     0.006 A 
ENDBRANCH  45  59
BRANCH  46  67
ATOM     67  C   UNL A   1      39.057  28.916  29.965  1.00  0.00     0.057 A 
ATOM     68  C   UNL A   1      38.000  29.483  29.245  1.00  0.00     0.134 A 
ATOM     69  C   UNL A   1      38.832  28.622  31.316  1.00  0.00     0.134 A 
ATOM     70  F   UNL A   1      38.162  29.809  27.954  1.00  0.00    -0.206 F 
ATOM     71  C   UNL A   1      36.773  29.767  29.848  1.00  0.00     0.040 A 
ATOM     72  C   UNL A   1      37.604  28.878  31.925  1.00  0.00     0.040 A 
ATOM     73  F   UNL A   1      39.805  28.078  32.062  1.00  0.00    -0.206 F 
ATOM     74  C   UNL A   1      36.572  29.460  31.192  1.00  0.00     0.006 A 
ENDBRANCH  46  67
BRANCH  58  75
ATOM     75  C   UNL A   1      44.735  32.846  29.072  1.00  0.00     0.057 A 
ATOM     76  C   UNL A   1      45.390  33.189  30.261  1.00  0.00     0.134 A 
ATOM     77  C   UNL A   1      44.427  33.882  28.180  1.00  0.00     0.134 A 
ATOM     78  F   UNL A   1      45.702  32.246  31.163  1.00  0.00    -0.206 F 
ATOM     79  C   UNL A   1      45.712  34.515  30.558  1.00  0.00     0.040 A 
ATOM     80  C   UNL A   1      44.766  35.207  28.453  1.00  0.00     0.040 A 
ATOM     81  F   UNL A   1      43.808  33.618  27.018  1.00  0.00    -0.206 F 
ATOM     82  C   UNL A   1      45.408  35.527  29.649  1.00  0.00     0.006 A 
ENDBRANCH  58  75
ENDBRANCH  32  33
ENDBRANCH  25  27
ENDBRANCH  24  25
ENDBRANCH  23  24
ENDBRANCH  22  23
ENDBRANCH   1  22
TORSDOF 16
ENDMDL
