MODEL 1
REMARK VINA RESULT:     -11.2      0.000      0.000
REMARK SMILES CSc1ncc(Cl)c(C(=O)Nc2ccsc2C(=O)OCCOCCOC(=O)c2ccc(-c3c4nc(c(-c5c(F)cccc5F)c5ccc([nH]5)c(-c5c(F)cccc5F)c5nc(c(-c6c(F)cccc6F)c6ccc3[nH]6)C=C5)C=C4)cc2)n1
REMARK SMILES IDX 21 1 20 2 19 3 17 4 18 5 16 6 12 7 13 8 14 9 15 10 11 11
REMARK SMILES IDX 9 12 10 13 8 15 3 16 4 17 82 18 5 19 6 20 7 21 2 22 1 23
REMARK SMILES IDX 22 24 23 25 24 26 25 27 26 28 27 29 28 30 29 31 81 32 30 33
REMARK SMILES IDX 80 34 31 35 32 36 33 37 74 38 34 39 79 40 73 41 75 42 35 43
REMARK SMILES IDX 78 44 72 45 71 46 36 48 62 49 45 50 61 51 46 52 49 53 60 54
REMARK SMILES IDX 76 55 47 56 48 57 59 59 77 60 50 61 37 62 38 63 43 64 39 65
REMARK SMILES IDX 40 66 42 67 44 68 41 69 63 70 64 71 69 72 65 73 66 74 68 75
REMARK SMILES IDX 70 76 67 77 51 78 52 79 57 80 53 81 54 82 56 83 58 84 55 85
REMARK H PARENT 11 14 75 47 49 58
REMARK Flexibility Score: inf
ROOT
ATOM      1  C   UNL A   1      32.502  30.148  26.545  1.00  0.00     0.202 C 
ENDROOT
BRANCH   1   2
ATOM      2  C   UNL A   1      32.022  28.742  26.906  1.00  0.00     0.261 C 
BRANCH   2   3
ATOM      3  O   UNL A   1      31.854  27.950  25.714  1.00  0.00    -0.459 OA
BRANCH   3   4
ATOM      4  C   UNL A   1      31.236  26.742  25.884  1.00  0.00     0.350 C 
ATOM      5  O   UNL A   1      30.646  26.419  26.909  1.00  0.00    -0.245 OA
BRANCH   4   6
ATOM      6  C   UNL A   1      31.349  25.933  24.676  1.00  0.00     0.136 A 
ATOM      7  C   UNL A   1      30.974  24.621  24.384  1.00  0.00     0.067 A 
ATOM      8  C   UNL A   1      31.265  24.295  23.020  1.00  0.00     0.039 A 
ATOM      9  C   UNL A   1      31.966  25.284  22.370  1.00  0.00     0.068 A 
ATOM     10  S   UNL A   1      32.180  26.656  23.348  1.00  0.00    -0.135 S 
BRANCH   7  11
ATOM     11  N   UNL A   1      30.378  23.790  25.327  1.00  0.00    -0.319 N 
ATOM     12  C   UNL A   1      30.693  22.524  25.777  1.00  0.00     0.276 C 
ATOM     13  O   UNL A   1      29.897  21.957  26.531  1.00  0.00    -0.267 OA
ATOM     14  H   UNL A   1      29.580  24.180  25.755  1.00  0.00     0.170 HD
BRANCH  12  15
ATOM     15  C   UNL A   1      31.983  21.839  25.478  1.00  0.00     0.151 A 
ATOM     16  C   UNL A   1      32.955  19.904  24.687  1.00  0.00     0.188 A 
ATOM     17  N   UNL A   1      34.189  20.338  24.985  1.00  0.00    -0.230 NA
ATOM     18  N   UNL A   1      31.841  20.627  24.871  1.00  0.00    -0.216 NA
ATOM     19  C   UNL A   1      34.281  21.537  25.595  1.00  0.00     0.137 A 
ATOM     20  C   UNL A   1      33.199  22.324  25.915  1.00  0.00     0.090 A 
ATOM     21  Cl  UNL A   1      33.450  23.734  26.856  1.00  0.00    -0.080 Cl
BRANCH  16  22
ATOM     22  S   UNL A   1      32.753  18.242  24.102  1.00  0.00    -0.090 SA
ATOM     23  C   UNL A   1      34.450  17.622  24.271  1.00  0.00     0.094 C 
ENDBRANCH  16  22
ENDBRANCH  12  15
ENDBRANCH   7  11
ENDBRANCH   4   6
ENDBRANCH   3   4
ENDBRANCH   2   3
ENDBRANCH   1   2
BRANCH   1  24
ATOM     24  O   UNL A   1      31.485  30.968  25.968  1.00  0.00    -0.374 OA
BRANCH  24  25
ATOM     25  C   UNL A   1      31.353  32.282  26.518  1.00  0.00     0.202 C 
BRANCH  25  26
ATOM     26  C   UNL A   1      32.493  32.680  27.462  1.00  0.00     0.261 C 
BRANCH  26  27
ATOM     27  O   UNL A   1      32.446  34.094  27.734  1.00  0.00    -0.460 OA
BRANCH  27  28
ATOM     28  C   UNL A   1      33.143  34.482  28.828  1.00  0.00     0.338 C 
ATOM     29  O   UNL A   1      32.782  35.269  29.687  1.00  0.00    -0.246 OA
BRANCH  28  30
ATOM     30  C   UNL A   1      34.383  33.690  28.960  1.00  0.00     0.060 A 
ATOM     31  C   UNL A   1      34.258  32.412  29.517  1.00  0.00     0.016 A 
ATOM     32  C   UNL A   1      35.644  34.194  28.625  1.00  0.00     0.016 A 
ATOM     33  C   UNL A   1      35.395  31.668  29.823  1.00  0.00     0.010 A 
ATOM     34  C   UNL A   1      36.787  33.445  28.936  1.00  0.00     0.010 A 
ATOM     35  C   UNL A   1      36.667  32.204  29.584  1.00  0.00    -0.014 A 
BRANCH  35  36
ATOM     36  C   UNL A   1      37.845  31.534  30.191  1.00  0.00     0.031 A 
ATOM     37  C   UNL A   1      38.191  31.834  31.625  1.00  0.00     0.074 A 
ATOM     38  C   UNL A   1      38.546  30.612  29.508  1.00  0.00     0.049 A 
ATOM     39  N   UNL A   1      39.132  31.323  32.378  1.00  0.00    -0.248 NA
ATOM     40  C   UNL A   1      37.360  32.843  32.303  1.00  0.00     0.031 C 
ATOM     41  C   UNL A   1      38.293  30.209  28.127  1.00  0.00     0.029 A 
ATOM     42  N   UNL A   1      39.614  29.842  29.896  1.00  0.00    -0.354 N 
ATOM     43  C   UNL A   1      39.006  31.946  33.614  1.00  0.00     0.074 A 
ATOM     44  C   UNL A   1      37.922  32.897  33.501  1.00  0.00     0.031 C 
ATOM     45  C   UNL A   1      39.182  29.261  27.781  1.00  0.00     0.029 A 
ATOM     46  C   UNL A   1      40.075  29.006  28.910  1.00  0.00     0.049 A 
ATOM     47  H   UNL A   1      40.010  29.884  30.796  1.00  0.00     0.167 HD
ATOM     48  C   UNL A   1      39.719  31.737  34.746  1.00  0.00     0.037 A 
ATOM     49  C   UNL A   1      41.105  28.139  28.918  1.00  0.00     0.037 A 
ATOM     50  C   UNL A   1      40.797  30.791  34.863  1.00  0.00     0.049 A 
ATOM     51  C   UNL A   1      41.915  27.959  30.174  1.00  0.00     0.074 A 
ATOM     52  C   UNL A   1      41.575  30.502  35.971  1.00  0.00     0.029 A 
ATOM     53  N   UNL A   1      41.252  29.983  33.833  1.00  0.00    -0.354 N 
ATOM     54  N   UNL A   1      41.769  28.532  31.344  1.00  0.00    -0.248 NA
ATOM     55  C   UNL A   1      43.029  27.000  30.112  1.00  0.00     0.031 C 
ATOM     56  C   UNL A   1      42.527  29.546  35.600  1.00  0.00     0.029 A 
ATOM     57  C   UNL A   1      42.311  29.206  34.274  1.00  0.00     0.049 A 
ATOM     58  H   UNL A   1      40.879  29.964  32.923  1.00  0.00     0.167 HD
ATOM     59  C   UNL A   1      42.747  27.981  32.164  1.00  0.00     0.074 A 
ATOM     60  C   UNL A   1      43.475  27.022  31.360  1.00  0.00     0.031 C 
ATOM     61  C   UNL A   1      43.016  28.244  33.466  1.00  0.00     0.037 A 
BRANCH  48  62
ATOM     62  C   UNL A   1      39.362  32.563  35.945  1.00  0.00     0.057 A 
ATOM     63  C   UNL A   1      39.909  33.836  36.154  1.00  0.00     0.134 A 
ATOM     64  C   UNL A   1      38.445  32.090  36.892  1.00  0.00     0.134 A 
ATOM     65  F   UNL A   1      40.805  34.341  35.294  1.00  0.00    -0.206 F 
ATOM     66  C   UNL A   1      39.571  34.600  37.274  1.00  0.00     0.040 A 
ATOM     67  C   UNL A   1      38.082  32.854  38.001  1.00  0.00     0.040 A 
ATOM     68  F   UNL A   1      37.884  30.880  36.748  1.00  0.00    -0.206 F 
ATOM     69  C   UNL A   1      38.650  34.111  38.198  1.00  0.00     0.006 A 
ENDBRANCH  48  62
BRANCH  49  70
ATOM     70  C   UNL A   1      41.433  27.364  27.696  1.00  0.00     0.057 A 
ATOM     71  C   UNL A   1      42.270  27.888  26.704  1.00  0.00     0.134 A 
ATOM     72  C   UNL A   1      40.894  26.090  27.479  1.00  0.00     0.134 A 
ATOM     73  F   UNL A   1      42.797  29.113  26.844  1.00  0.00    -0.206 F 
ATOM     74  C   UNL A   1      42.547  27.180  25.533  1.00  0.00     0.040 A 
ATOM     75  C   UNL A   1      41.181  25.361  26.323  1.00  0.00     0.040 A 
ATOM     76  F   UNL A   1      40.083  25.534  28.390  1.00  0.00    -0.206 F 
ATOM     77  C   UNL A   1      42.004  25.911  25.343  1.00  0.00     0.006 A 
ENDBRANCH  49  70
BRANCH  61  78
ATOM     78  C   UNL A   1      44.112  27.451  34.117  1.00  0.00     0.057 A 
ATOM     79  C   UNL A   1      45.432  27.913  34.168  1.00  0.00     0.134 A 
ATOM     80  C   UNL A   1      43.831  26.221  34.727  1.00  0.00     0.134 A 
ATOM     81  F   UNL A   1      45.769  29.077  33.594  1.00  0.00    -0.206 F 
ATOM     82  C   UNL A   1      46.442  27.166  34.780  1.00  0.00     0.040 A 
ATOM     83  C   UNL A   1      44.827  25.478  35.362  1.00  0.00     0.040 A 
ATOM     84  F   UNL A   1      42.585  25.727  34.722  1.00  0.00    -0.206 F 
ATOM     85  C   UNL A   1      46.139  25.947  35.384  1.00  0.00     0.006 A 
ENDBRANCH  61  78
ENDBRANCH  35  36
ENDBRANCH  28  30
ENDBRANCH  27  28
ENDBRANCH  26  27
ENDBRANCH  25  26
ENDBRANCH  24  25
ENDBRANCH   1  24
TORSDOF 17
ENDMDL
MODEL 2
REMARK VINA RESULT:     -10.9      4.437      9.354
REMARK SMILES CSc1ncc(Cl)c(C(=O)Nc2ccsc2C(=O)OCCOCCOC(=O)c2ccc(-c3c4nc(c(-c5c(F)cccc5F)c5ccc([nH]5)c(-c5c(F)cccc5F)c5nc(c(-c6c(F)cccc6F)c6ccc3[nH]6)C=C5)C=C4)cc2)n1
REMARK SMILES IDX 21 1 20 2 19 3 17 4 18 5 16 6 12 7 13 8 14 9 15 10 11 11
REMARK SMILES IDX 9 12 10 13 8 15 3 16 4 17 82 18 5 19 6 20 7 21 2 22 1 23
REMARK SMILES IDX 22 24 23 25 24 26 25 27 26 28 27 29 28 30 29 31 81 32 30 33
REMARK SMILES IDX 80 34 31 35 32 36 33 37 74 38 34 39 79 40 73 41 75 42 35 43
REMARK SMILES IDX 78 44 72 45 71 46 36 48 62 49 45 50 61 51 46 52 49 53 60 54
REMARK SMILES IDX 76 55 47 56 48 57 59 59 77 60 50 61 37 62 38 63 43 64 39 65
REMARK SMILES IDX 40 66 42 67 44 68 41 69 63 70 64 71 69 72 65 73 66 74 68 75
REMARK SMILES IDX 70 76 67 77 51 78 52 79 57 80 53 81 54 82 56 83 58 84 55 85
REMARK H PARENT 11 14 75 47 49 58
REMARK Flexibility Score: inf
ROOT
ATOM      1  C   UNL A   1      37.277  22.529  25.619  1.00  0.00     0.202 C 
ENDROOT
BRANCH   1   2
ATOM      2  C   UNL A   1      35.833  22.926  25.929  1.00  0.00     0.261 C 
BRANCH   2   3
ATOM      3  O   UNL A   1      35.251  23.609  24.801  1.00  0.00    -0.459 OA
BRANCH   3   4
ATOM      4  C   UNL A   1      34.375  24.616  25.103  1.00  0.00     0.350 C 
ATOM      5  O   UNL A   1      34.606  25.491  25.930  1.00  0.00    -0.245 OA
BRANCH   4   6
ATOM      6  C   UNL A   1      33.173  24.514  24.284  1.00  0.00     0.136 A 
ATOM      7  C   UNL A   1      32.766  25.177  23.126  1.00  0.00     0.067 A 
ATOM      8  C   UNL A   1      31.500  24.684  22.670  1.00  0.00     0.039 A 
ATOM      9  C   UNL A   1      30.926  23.792  23.545  1.00  0.00     0.068 A 
ATOM     10  S   UNL A   1      31.945  23.448  24.859  1.00  0.00    -0.135 S 
BRANCH   7  11
ATOM     11  N   UNL A   1      33.539  26.164  22.522  1.00  0.00    -0.319 N 
ATOM     12  C   UNL A   1      33.362  27.526  22.390  1.00  0.00     0.276 C 
ATOM     13  O   UNL A   1      34.148  28.150  21.672  1.00  0.00    -0.267 OA
ATOM     14  H   UNL A   1      34.369  25.826  22.112  1.00  0.00     0.170 HD
BRANCH  12  15
ATOM     15  C   UNL A   1      32.332  28.302  23.138  1.00  0.00     0.151 A 
ATOM     16  C   UNL A   1      30.302  29.383  22.984  1.00  0.00     0.188 A 
ATOM     17  N   UNL A   1      30.390  29.843  24.242  1.00  0.00    -0.230 NA
ATOM     18  N   UNL A   1      31.213  28.583  22.413  1.00  0.00    -0.216 NA
ATOM     19  C   UNL A   1      31.520  29.551  24.917  1.00  0.00     0.137 A 
ATOM     20  C   UNL A   1      32.561  28.816  24.399  1.00  0.00     0.090 A 
ATOM     21  Cl  UNL A   1      34.011  28.680  25.301  1.00  0.00    -0.080 Cl
BRANCH  16  22
ATOM     22  S   UNL A   1      28.954  29.929  21.969  1.00  0.00    -0.090 SA
ATOM     23  C   UNL A   1      27.551  29.201  22.861  1.00  0.00     0.094 C 
ENDBRANCH  16  22
ENDBRANCH  12  15
ENDBRANCH   7  11
ENDBRANCH   4   6
ENDBRANCH   3   4
ENDBRANCH   2   3
ENDBRANCH   1   2
BRANCH   1  24
ATOM     24  O   UNL A   1      37.396  21.605  24.537  1.00  0.00    -0.374 OA
BRANCH  24  25
ATOM     25  C   UNL A   1      37.370  20.219  24.891  1.00  0.00     0.202 C 
BRANCH  25  26
ATOM     26  C   UNL A   1      38.752  19.560  24.934  1.00  0.00     0.261 C 
BRANCH  26  27
ATOM     27  O   UNL A   1      39.453  19.945  26.133  1.00  0.00    -0.460 OA
BRANCH  27  28
ATOM     28  C   UNL A   1      40.795  19.776  26.081  1.00  0.00     0.338 C 
ATOM     29  O   UNL A   1      41.400  18.846  25.574  1.00  0.00    -0.246 OA
BRANCH  28  30
ATOM     30  C   UNL A   1      41.488  20.978  26.590  1.00  0.00     0.060 A 
ATOM     31  C   UNL A   1      41.462  21.181  27.975  1.00  0.00     0.016 A 
ATOM     32  C   UNL A   1      42.082  21.924  25.749  1.00  0.00     0.016 A 
ATOM     33  C   UNL A   1      41.949  22.368  28.517  1.00  0.00     0.010 A 
ATOM     34  C   UNL A   1      42.569  23.119  26.296  1.00  0.00     0.010 A 
ATOM     35  C   UNL A   1      42.456  23.365  27.675  1.00  0.00    -0.014 A 
BRANCH  35  36
ATOM     36  C   UNL A   1      42.682  24.722  28.236  1.00  0.00     0.031 A 
ATOM     37  C   UNL A   1      44.083  25.132  28.601  1.00  0.00     0.074 A 
ATOM     38  C   UNL A   1      41.673  25.605  28.340  1.00  0.00     0.049 A 
ATOM     39  N   UNL A   1      44.525  26.281  29.045  1.00  0.00    -0.248 NA
ATOM     40  C   UNL A   1      45.130  24.109  28.438  1.00  0.00     0.031 C 
ATOM     41  C   UNL A   1      40.279  25.343  27.991  1.00  0.00     0.029 A 
ATOM     42  N   UNL A   1      41.677  26.909  28.767  1.00  0.00    -0.354 N 
ATOM     43  C   UNL A   1      45.895  26.120  29.214  1.00  0.00     0.074 A 
ATOM     44  C   UNL A   1      46.208  24.752  28.858  1.00  0.00     0.031 C 
ATOM     45  C   UNL A   1      39.558  26.455  28.215  1.00  0.00     0.029 A 
ATOM     46  C   UNL A   1      40.437  27.499  28.740  1.00  0.00     0.049 A 
ATOM     47  H   UNL A   1      42.491  27.378  29.062  1.00  0.00     0.167 HD
ATOM     48  C   UNL A   1      46.813  27.030  29.616  1.00  0.00     0.037 A 
ATOM     49  C   UNL A   1      40.057  28.738  29.106  1.00  0.00     0.037 A 
ATOM     50  C   UNL A   1      46.508  28.390  29.969  1.00  0.00     0.049 A 
ATOM     51  C   UNL A   1      41.089  29.718  29.596  1.00  0.00     0.074 A 
ATOM     52  C   UNL A   1      47.372  29.390  30.382  1.00  0.00     0.029 A 
ATOM     53  N   UNL A   1      45.236  28.941  29.956  1.00  0.00    -0.354 N 
ATOM     54  N   UNL A   1      42.384  29.564  29.724  1.00  0.00    -0.248 NA
ATOM     55  C   UNL A   1      40.605  31.052  29.982  1.00  0.00     0.031 C 
ATOM     56  C   UNL A   1      46.616  30.536  30.655  1.00  0.00     0.029 A 
ATOM     57  C   UNL A   1      45.288  30.262  30.368  1.00  0.00     0.049 A 
ATOM     58  H   UNL A   1      44.416  28.464  29.693  1.00  0.00     0.167 HD
ATOM     59  C   UNL A   1      42.874  30.785  30.172  1.00  0.00     0.074 A 
ATOM     60  C   UNL A   1      41.736  31.674  30.286  1.00  0.00     0.031 C 
ATOM     61  C   UNL A   1      44.149  31.139  30.462  1.00  0.00     0.037 A 
BRANCH  48  62
ATOM     62  C   UNL A   1      48.239  26.572  29.710  1.00  0.00     0.057 A 
ATOM     63  C   UNL A   1      48.749  25.981  30.873  1.00  0.00     0.134 A 
ATOM     64  C   UNL A   1      49.105  26.705  28.618  1.00  0.00     0.134 A 
ATOM     65  F   UNL A   1      47.976  25.839  31.960  1.00  0.00    -0.206 F 
ATOM     66  C   UNL A   1      50.078  25.557  30.953  1.00  0.00     0.040 A 
ATOM     67  C   UNL A   1      50.427  26.263  28.678  1.00  0.00     0.040 A 
ATOM     68  F   UNL A   1      48.677  27.259  27.474  1.00  0.00    -0.206 F 
ATOM     69  C   UNL A   1      50.919  25.692  29.850  1.00  0.00     0.006 A 
ENDBRANCH  48  62
BRANCH  49  70
ATOM     70  C   UNL A   1      38.629  29.133  29.017  1.00  0.00     0.057 A 
ATOM     71  C   UNL A   1      38.074  29.593  27.817  1.00  0.00     0.134 A 
ATOM     72  C   UNL A   1      37.792  29.083  30.138  1.00  0.00     0.134 A 
ATOM     73  F   UNL A   1      38.833  29.686  26.715  1.00  0.00    -0.206 F 
ATOM     74  C   UNL A   1      36.743  30.006  27.738  1.00  0.00     0.040 A 
ATOM     75  C   UNL A   1      36.453  29.471  30.068  1.00  0.00     0.040 A 
ATOM     76  F   UNL A   1      38.264  28.654  31.316  1.00  0.00    -0.206 F 
ATOM     77  C   UNL A   1      35.928  29.941  28.866  1.00  0.00     0.006 A 
ENDBRANCH  49  70
BRANCH  61  78
ATOM     78  C   UNL A   1      44.391  32.560  30.882  1.00  0.00     0.057 A 
ATOM     79  C   UNL A   1      44.634  33.578  29.952  1.00  0.00     0.134 A 
ATOM     80  C   UNL A   1      44.350  32.916  32.237  1.00  0.00     0.134 A 
ATOM     81  F   UNL A   1      44.698  33.301  28.641  1.00  0.00    -0.206 F 
ATOM     82  C   UNL A   1      44.855  34.896  30.357  1.00  0.00     0.040 A 
ATOM     83  C   UNL A   1      44.544  34.235  32.650  1.00  0.00     0.040 A 
ATOM     84  F   UNL A   1      44.111  31.990  33.178  1.00  0.00    -0.206 F 
ATOM     85  C   UNL A   1      44.804  35.228  31.709  1.00  0.00     0.006 A 
ENDBRANCH  61  78
ENDBRANCH  35  36
ENDBRANCH  28  30
ENDBRANCH  27  28
ENDBRANCH  26  27
ENDBRANCH  25  26
ENDBRANCH  24  25
ENDBRANCH   1  24
TORSDOF 17
ENDMDL
MODEL 3
REMARK VINA RESULT:     -10.9      4.432      9.645
REMARK SMILES CSc1ncc(Cl)c(C(=O)Nc2ccsc2C(=O)OCCOCCOC(=O)c2ccc(-c3c4nc(c(-c5c(F)cccc5F)c5ccc([nH]5)c(-c5c(F)cccc5F)c5nc(c(-c6c(F)cccc6F)c6ccc3[nH]6)C=C5)C=C4)cc2)n1
REMARK SMILES IDX 21 1 20 2 19 3 17 4 18 5 16 6 12 7 13 8 14 9 15 10 11 11
REMARK SMILES IDX 9 12 10 13 8 15 3 16 4 17 82 18 5 19 6 20 7 21 2 22 1 23
REMARK SMILES IDX 22 24 23 25 24 26 25 27 26 28 27 29 28 30 29 31 81 32 30 33
REMARK SMILES IDX 80 34 31 35 32 36 33 37 74 38 34 39 79 40 73 41 75 42 35 43
REMARK SMILES IDX 78 44 72 45 71 46 36 48 62 49 45 50 61 51 46 52 49 53 60 54
REMARK SMILES IDX 76 55 47 56 48 57 59 59 77 60 50 61 37 62 38 63 43 64 39 65
REMARK SMILES IDX 40 66 42 67 44 68 41 69 63 70 64 71 69 72 65 73 66 74 68 75
REMARK SMILES IDX 70 76 67 77 51 78 52 79 57 80 53 81 54 82 56 83 58 84 55 85
REMARK H PARENT 11 14 75 47 49 58
REMARK Flexibility Score: inf
ROOT
ATOM      1  C   UNL A   1      34.986  21.622  26.266  1.00  0.00     0.202 C 
ENDROOT
BRANCH   1   2
ATOM      2  C   UNL A   1      33.820  22.365  25.614  1.00  0.00     0.261 C 
BRANCH   2   3
ATOM      3  O   UNL A   1      33.690  23.684  26.180  1.00  0.00    -0.459 OA
BRANCH   3   4
ATOM      4  C   UNL A   1      33.770  24.723  25.293  1.00  0.00     0.350 C 
ATOM      5  O   UNL A   1      34.731  25.481  25.219  1.00  0.00    -0.245 OA
BRANCH   4   6
ATOM      6  C   UNL A   1      32.585  24.764  24.443  1.00  0.00     0.136 A 
ATOM      7  C   UNL A   1      32.321  25.398  23.228  1.00  0.00     0.067 A 
ATOM      8  C   UNL A   1      30.999  25.094  22.767  1.00  0.00     0.039 A 
ATOM      9  C   UNL A   1      30.263  24.379  23.683  1.00  0.00     0.068 A 
ATOM     10  S   UNL A   1      31.181  23.967  25.051  1.00  0.00    -0.135 S 
BRANCH   7  11
ATOM     11  N   UNL A   1      33.263  26.193  22.583  1.00  0.00    -0.319 N 
ATOM     12  C   UNL A   1      33.528  27.547  22.641  1.00  0.00     0.276 C 
ATOM     13  O   UNL A   1      34.343  28.016  21.842  1.00  0.00    -0.267 OA
ATOM     14  H   UNL A   1      33.853  25.695  21.970  1.00  0.00     0.170 HD
BRANCH  12  15
ATOM     15  C   UNL A   1      32.953  28.457  23.672  1.00  0.00     0.151 A 
ATOM     16  C   UNL A   1      33.260  29.371  25.766  1.00  0.00     0.188 A 
ATOM     17  N   UNL A   1      32.050  29.949  25.750  1.00  0.00    -0.230 NA
ATOM     18  N   UNL A   1      33.766  28.663  24.746  1.00  0.00    -0.216 NA
ATOM     19  C   UNL A   1      31.275  29.708  24.673  1.00  0.00     0.137 A 
ATOM     20  C   UNL A   1      31.655  28.923  23.610  1.00  0.00     0.090 A 
ATOM     21  Cl  UNL A   1      30.501  28.552  22.399  1.00  0.00    -0.080 Cl
BRANCH  16  22
ATOM     22  S   UNL A   1      34.227  29.456  27.250  1.00  0.00    -0.090 SA
ATOM     23  C   UNL A   1      34.007  31.202  27.690  1.00  0.00     0.094 C 
ENDBRANCH  16  22
ENDBRANCH  12  15
ENDBRANCH   7  11
ENDBRANCH   4   6
ENDBRANCH   3   4
ENDBRANCH   2   3
ENDBRANCH   1   2
BRANCH   1  24
ATOM     24  O   UNL A   1      36.122  21.481  25.412  1.00  0.00    -0.374 OA
BRANCH  24  25
ATOM     25  C   UNL A   1      36.417  20.150  24.979  1.00  0.00     0.202 C 
BRANCH  25  26
ATOM     26  C   UNL A   1      37.902  19.781  25.063  1.00  0.00     0.261 C 
BRANCH  26  27
ATOM     27  O   UNL A   1      38.694  20.953  25.339  1.00  0.00    -0.460 OA
BRANCH  27  28
ATOM     28  C   UNL A   1      39.731  20.748  26.185  1.00  0.00     0.338 C 
ATOM     29  O   UNL A   1      40.405  19.737  26.289  1.00  0.00    -0.246 OA
BRANCH  28  30
ATOM     30  C   UNL A   1      40.079  21.999  26.890  1.00  0.00     0.060 A 
ATOM     31  C   UNL A   1      39.390  23.154  26.501  1.00  0.00     0.016 A 
ATOM     32  C   UNL A   1      41.095  22.072  27.847  1.00  0.00     0.016 A 
ATOM     33  C   UNL A   1      39.770  24.397  27.000  1.00  0.00     0.010 A 
ATOM     34  C   UNL A   1      41.478  23.324  28.347  1.00  0.00     0.010 A 
ATOM     35  C   UNL A   1      40.852  24.495  27.884  1.00  0.00    -0.014 A 
BRANCH  35  36
ATOM     36  C   UNL A   1      41.426  25.836  28.159  1.00  0.00     0.031 A 
ATOM     37  C   UNL A   1      42.797  26.161  27.629  1.00  0.00     0.074 A 
ATOM     38  C   UNL A   1      40.710  26.779  28.796  1.00  0.00     0.049 A 
ATOM     39  N   UNL A   1      43.469  27.282  27.691  1.00  0.00    -0.248 NA
ATOM     40  C   UNL A   1      43.503  25.076  26.927  1.00  0.00     0.031 C 
ATOM     41  C   UNL A   1      39.361  26.601  29.329  1.00  0.00     0.029 A 
ATOM     42  N   UNL A   1      41.023  28.082  29.092  1.00  0.00    -0.354 N 
ATOM     43  C   UNL A   1      44.672  27.038  27.040  1.00  0.00     0.074 A 
ATOM     44  C   UNL A   1      44.654  25.654  26.620  1.00  0.00     0.031 C 
ATOM     45  C   UNL A   1      38.959  27.756  29.888  1.00  0.00     0.029 A 
ATOM     46  C   UNL A   1      40.028  28.746  29.766  1.00  0.00     0.049 A 
ATOM     47  H   UNL A   1      41.878  28.502  28.843  1.00  0.00     0.167 HD
ATOM     48  C   UNL A   1      45.696  27.892  26.801  1.00  0.00     0.037 A 
ATOM     49  C   UNL A   1      39.991  30.007  30.238  1.00  0.00     0.037 A 
ATOM     50  C   UNL A   1      45.718  29.270  27.215  1.00  0.00     0.049 A 
ATOM     51  C   UNL A   1      41.162  30.924  30.002  1.00  0.00     0.074 A 
ATOM     52  C   UNL A   1      46.707  30.216  27.013  1.00  0.00     0.029 A 
ATOM     53  N   UNL A   1      44.703  29.896  27.921  1.00  0.00    -0.354 N 
ATOM     54  N   UNL A   1      42.281  30.691  29.361  1.00  0.00    -0.248 NA
ATOM     55  C   UNL A   1      41.057  32.286  30.547  1.00  0.00     0.031 C 
ATOM     56  C   UNL A   1      46.307  31.407  27.630  1.00  0.00     0.029 A 
ATOM     57  C   UNL A   1      45.048  31.214  28.176  1.00  0.00     0.049 A 
ATOM     58  H   UNL A   1      43.861  29.469  28.200  1.00  0.00     0.167 HD
ATOM     59  C   UNL A   1      42.997  31.881  29.397  1.00  0.00     0.074 A 
ATOM     60  C   UNL A   1      42.182  32.838  30.116  1.00  0.00     0.031 C 
ATOM     61  C   UNL A   1      44.219  32.158  28.880  1.00  0.00     0.037 A 
BRANCH  48  62
ATOM     62  C   UNL A   1      46.886  27.349  26.069  1.00  0.00     0.057 A 
ATOM     63  C   UNL A   1      47.005  27.446  24.676  1.00  0.00     0.134 A 
ATOM     64  C   UNL A   1      47.937  26.740  26.766  1.00  0.00     0.134 A 
ATOM     65  F   UNL A   1      46.026  28.003  23.948  1.00  0.00    -0.206 F 
ATOM     66  C   UNL A   1      48.117  26.938  24.001  1.00  0.00     0.040 A 
ATOM     67  C   UNL A   1      49.064  26.251  26.105  1.00  0.00     0.040 A 
ATOM     68  F   UNL A   1      47.887  26.618  28.101  1.00  0.00    -0.206 F 
ATOM     69  C   UNL A   1      49.154  26.344  24.717  1.00  0.00     0.006 A 
ENDBRANCH  48  62
BRANCH  49  70
ATOM     70  C   UNL A   1      38.798  30.487  30.979  1.00  0.00     0.057 A 
ATOM     71  C   UNL A   1      37.753  31.150  30.324  1.00  0.00     0.134 A 
ATOM     72  C   UNL A   1      38.688  30.317  32.364  1.00  0.00     0.134 A 
ATOM     73  F   UNL A   1      37.814  31.364  29.002  1.00  0.00    -0.206 F 
ATOM     74  C   UNL A   1      36.649  31.642  31.022  1.00  0.00     0.040 A 
ATOM     75  C   UNL A   1      37.578  30.783  33.071  1.00  0.00     0.040 A 
ATOM     76  F   UNL A   1      39.656  29.692  33.049  1.00  0.00    -0.206 F 
ATOM     77  C   UNL A   1      36.558  31.454  32.400  1.00  0.00     0.006 A 
ENDBRANCH  49  70
BRANCH  61  78
ATOM     78  C   UNL A   1      44.728  33.563  29.029  1.00  0.00     0.057 A 
ATOM     79  C   UNL A   1      44.453  34.556  28.081  1.00  0.00     0.134 A 
ATOM     80  C   UNL A   1      45.479  33.930  30.153  1.00  0.00     0.134 A 
ATOM     81  F   UNL A   1      43.750  34.266  26.977  1.00  0.00    -0.206 F 
ATOM     82  C   UNL A   1      44.930  35.860  28.233  1.00  0.00     0.040 A 
ATOM     83  C   UNL A   1      45.939  35.236  30.328  1.00  0.00     0.040 A 
ATOM     84  F   UNL A   1      45.769  33.029  31.103  1.00  0.00    -0.206 F 
ATOM     85  C   UNL A   1      45.671  36.204  29.363  1.00  0.00     0.006 A 
ENDBRANCH  61  78
ENDBRANCH  35  36
ENDBRANCH  28  30
ENDBRANCH  27  28
ENDBRANCH  26  27
ENDBRANCH  25  26
ENDBRANCH  24  25
ENDBRANCH   1  24
TORSDOF 17
ENDMDL
