MODEL 1
REMARK VINA RESULT:     -11.5      0.000      0.000
REMARK SMILES Cc1ccc(Cl)c(Nc2ccccc2C(=O)N[C@@H](C)C(=O)OCCOCCOC(=O)c2ccc(-c3c4nc(c(-c5c(F)cccc5F)c5ccc([nH]5)c(-c5c(F)cccc5F)c5nc(c(-c6c(F)cccc6F)c6ccc3[nH]6)C=C5)C=C4)cc2)c1Cl
REMARK SMILES IDX 24 1 23 2 22 3 20 4 21 5 18 6 19 7 17 8 15 9 16 10 14 12
REMARK SMILES IDX 9 13 10 14 11 15 13 16 12 17 8 18 7 20 1 21 2 22 3 23 85 24
REMARK SMILES IDX 4 25 86 26 5 27 6 28 25 29 26 30 27 31 28 32 29 33 30 34
REMARK SMILES IDX 31 35 32 36 84 37 33 38 83 39 34 40 35 41 36 42 77 43 37 44
REMARK SMILES IDX 82 45 76 46 78 47 38 48 81 49 75 50 74 51 39 53 65 54 48 55
REMARK SMILES IDX 64 56 49 57 52 58 63 59 79 60 50 61 51 62 62 64 80 65 53 66
REMARK SMILES IDX 40 67 41 68 46 69 42 70 43 71 45 72 47 73 44 74 66 75 67 76
REMARK SMILES IDX 72 77 68 78 69 79 71 80 73 81 70 82 54 83 55 84 60 85 56 86
REMARK SMILES IDX 57 87 59 88 61 89 58 90
REMARK H PARENT 17 11 8 19 78 52 52 63
REMARK Flexibility Score: inf
ROOT
ATOM      1  C   UNL A   1      41.318  20.635  26.305  1.00  0.00     0.202 C 
ENDROOT
BRANCH   1   2
ATOM      2  C   UNL A   1      39.816  21.134  26.118  1.00  0.00     0.261 C 
BRANCH   2   3
ATOM      3  O   UNL A   1      39.327  22.316  26.840  1.00  0.00    -0.462 OA
BRANCH   3   4
ATOM      4  C   UNL A   1      38.336  23.052  26.220  1.00  0.00     0.328 C 
ATOM      5  O   UNL A   1      38.512  24.221  25.875  1.00  0.00    -0.250 OA
BRANCH   4   6
ATOM      6  C   UNL A   1      37.030  22.249  25.784  1.00  0.00     0.189 C 
ATOM      7  C   UNL A   1      36.840  22.343  24.266  1.00  0.00     0.043 C 
BRANCH   6   8
ATOM      8  N   UNL A   1      35.751  22.536  26.426  1.00  0.00    -0.339 N 
ATOM      9  C   UNL A   1      34.434  22.697  26.048  1.00  0.00     0.254 C 
ATOM     10  O   UNL A   1      33.778  23.178  26.990  1.00  0.00    -0.269 OA
ATOM     11  H   UNL A   1      35.856  22.646  27.398  1.00  0.00     0.164 HD
BRANCH   9  12
ATOM     12  C   UNL A   1      33.648  22.357  24.770  1.00  0.00     0.063 A 
ATOM     13  C   UNL A   1      33.310  23.056  23.578  1.00  0.00     0.051 A 
ATOM     14  C   UNL A   1      32.565  22.393  22.549  1.00  0.00     0.027 A 
ATOM     15  C   UNL A   1      32.204  21.055  22.623  1.00  0.00     0.002 A 
ATOM     16  C   UNL A   1      33.197  20.998  24.810  1.00  0.00     0.016 A 
ATOM     17  C   UNL A   1      32.519  20.353  23.764  1.00  0.00     0.001 A 
BRANCH  13  18
ATOM     18  N   UNL A   1      33.841  24.285  23.122  1.00  0.00    -0.352 N 
ATOM     19  H   UNL A   1      34.731  24.280  22.702  1.00  0.00     0.167 HD
BRANCH  18  20
ATOM     20  C   UNL A   1      33.150  25.545  23.239  1.00  0.00     0.077 A 
ATOM     21  C   UNL A   1      31.203  25.501  26.137  1.00  0.00     0.046 C 
ATOM     22  C   UNL A   1      31.536  26.135  24.822  1.00  0.00    -0.030 A 
ATOM     23  C   UNL A   1      30.644  26.498  23.809  1.00  0.00     0.006 A 
ATOM     24  C   UNL A   1      32.866  26.044  24.500  1.00  0.00     0.069 A 
ATOM     25  C   UNL A   1      31.069  26.507  22.479  1.00  0.00     0.023 A 
ATOM     26  Cl  UNL A   1      34.047  26.342  25.728  1.00  0.00    -0.082 Cl
ATOM     27  C   UNL A   1      32.306  25.943  22.189  1.00  0.00     0.066 A 
ATOM     28  Cl  UNL A   1      32.711  25.585  20.553  1.00  0.00    -0.082 Cl
ENDBRANCH  18  20
ENDBRANCH  13  18
ENDBRANCH   9  12
ENDBRANCH   6   8
ENDBRANCH   4   6
ENDBRANCH   3   4
ENDBRANCH   2   3
ENDBRANCH   1   2
BRANCH   1  29
ATOM     29  O   UNL A   1      42.333  21.037  25.384  1.00  0.00    -0.374 OA
BRANCH  29  30
ATOM     30  C   UNL A   1      43.712  20.827  25.769  1.00  0.00     0.202 C 
BRANCH  30  31
ATOM     31  C   UNL A   1      44.689  22.005  25.529  1.00  0.00     0.261 C 
BRANCH  31  32
ATOM     32  O   UNL A   1      43.936  23.129  25.076  1.00  0.00    -0.460 OA
BRANCH  32  33
ATOM     33  C   UNL A   1      44.486  24.335  25.186  1.00  0.00     0.338 C 
ATOM     34  O   UNL A   1      45.513  24.771  24.640  1.00  0.00    -0.246 OA
BRANCH  33  35
ATOM     35  C   UNL A   1      43.496  25.152  25.875  1.00  0.00     0.060 A 
ATOM     36  C   UNL A   1      43.795  26.517  25.989  1.00  0.00     0.016 A 
ATOM     37  C   UNL A   1      42.361  24.615  26.476  1.00  0.00     0.016 A 
ATOM     38  C   UNL A   1      42.974  27.361  26.712  1.00  0.00     0.010 A 
ATOM     39  C   UNL A   1      41.560  25.453  27.258  1.00  0.00     0.010 A 
ATOM     40  C   UNL A   1      41.905  26.811  27.422  1.00  0.00    -0.014 A 
BRANCH  40  41
ATOM     41  C   UNL A   1      41.433  27.583  28.592  1.00  0.00     0.031 A 
ATOM     42  C   UNL A   1      42.243  27.487  29.860  1.00  0.00     0.074 A 
ATOM     43  C   UNL A   1      40.425  28.465  28.505  1.00  0.00     0.049 A 
ATOM     44  N   UNL A   1      42.048  28.069  31.015  1.00  0.00    -0.248 NA
ATOM     45  C   UNL A   1      43.441  26.631  29.811  1.00  0.00     0.031 C 
ATOM     46  C   UNL A   1      39.637  28.746  27.309  1.00  0.00     0.029 A 
ATOM     47  N   UNL A   1      39.905  29.298  29.463  1.00  0.00    -0.354 N 
ATOM     48  C   UNL A   1      43.085  27.634  31.831  1.00  0.00     0.074 A 
ATOM     49  C   UNL A   1      43.896  26.729  31.049  1.00  0.00     0.031 C 
ATOM     50  C   UNL A   1      38.718  29.680  27.609  1.00  0.00     0.029 A 
ATOM     51  C   UNL A   1      38.834  30.034  29.024  1.00  0.00     0.049 A 
ATOM     52  H   UNL A   1      40.267  29.363  30.376  1.00  0.00     0.167 HD
ATOM     53  C   UNL A   1      43.343  27.959  33.117  1.00  0.00     0.037 A 
ATOM     54  C   UNL A   1      38.027  30.872  29.699  1.00  0.00     0.037 A 
ATOM     55  C   UNL A   1      42.553  28.867  33.902  1.00  0.00     0.049 A 
ATOM     56  C   UNL A   1      38.274  31.142  31.162  1.00  0.00     0.074 A 
ATOM     57  C   UNL A   1      42.734  29.243  35.221  1.00  0.00     0.029 A 
ATOM     58  N   UNL A   1      41.433  29.540  33.443  1.00  0.00    -0.354 N 
ATOM     59  N   UNL A   1      39.237  30.706  31.937  1.00  0.00    -0.248 NA
ATOM     60  C   UNL A   1      37.318  32.030  31.841  1.00  0.00     0.031 C 
ATOM     61  C   UNL A   1      41.695  30.109  35.575  1.00  0.00     0.029 A 
ATOM     62  C   UNL A   1      40.900  30.315  34.459  1.00  0.00     0.049 A 
ATOM     63  H   UNL A   1      41.070  29.476  32.529  1.00  0.00     0.167 HD
ATOM     64  C   UNL A   1      39.021  31.291  33.180  1.00  0.00     0.074 A 
ATOM     65  C   UNL A   1      37.844  32.121  33.054  1.00  0.00     0.031 C 
ATOM     66  C   UNL A   1      39.738  31.155  34.323  1.00  0.00     0.037 A 
BRANCH  53  67
ATOM     67  C   UNL A   1      44.513  27.289  33.770  1.00  0.00     0.057 A 
ATOM     68  C   UNL A   1      45.797  27.848  33.756  1.00  0.00     0.134 A 
ATOM     69  C   UNL A   1      44.340  26.076  34.447  1.00  0.00     0.134 A 
ATOM     70  F   UNL A   1      46.031  28.997  33.103  1.00  0.00    -0.206 F 
ATOM     71  C   UNL A   1      46.872  27.215  34.381  1.00  0.00     0.040 A 
ATOM     72  C   UNL A   1      45.401  25.446  35.098  1.00  0.00     0.040 A 
ATOM     73  F   UNL A   1      43.135  25.488  34.494  1.00  0.00    -0.206 F 
ATOM     74  C   UNL A   1      46.673  26.015  35.062  1.00  0.00     0.006 A 
ENDBRANCH  53  67
BRANCH  54  75
ATOM     75  C   UNL A   1      36.872  31.501  29.013  1.00  0.00     0.057 A 
ATOM     76  C   UNL A   1      36.904  32.841  28.613  1.00  0.00     0.134 A 
ATOM     77  C   UNL A   1      35.689  30.787  28.788  1.00  0.00     0.134 A 
ATOM     78  F   UNL A   1      38.000  33.584  28.829  1.00  0.00    -0.206 F 
ATOM     79  C   UNL A   1      35.793  33.457  28.035  1.00  0.00     0.040 A 
ATOM     80  C   UNL A   1      34.581  31.381  28.186  1.00  0.00     0.040 A 
ATOM     81  F   UNL A   1      35.594  29.499  29.153  1.00  0.00    -0.206 F 
ATOM     82  C   UNL A   1      34.629  32.723  27.816  1.00  0.00     0.006 A 
ENDBRANCH  54  75
BRANCH  66  83
ATOM     83  C   UNL A   1      39.309  31.963  35.515  1.00  0.00     0.057 A 
ATOM     84  C   UNL A   1      38.409  31.468  36.468  1.00  0.00     0.134 A 
ATOM     85  C   UNL A   1      39.832  33.246  35.728  1.00  0.00     0.134 A 
ATOM     86  F   UNL A   1      37.865  30.251  36.321  1.00  0.00    -0.206 F 
ATOM     87  C   UNL A   1      38.020  32.232  37.571  1.00  0.00     0.040 A 
ATOM     88  C   UNL A   1      39.472  34.007  36.842  1.00  0.00     0.040 A 
ATOM     89  F   UNL A   1      40.708  33.777  34.863  1.00  0.00    -0.206 F 
ATOM     90  C   UNL A   1      38.557  33.503  37.763  1.00  0.00     0.006 A 
ENDBRANCH  66  83
ENDBRANCH  40  41
ENDBRANCH  33  35
ENDBRANCH  32  33
ENDBRANCH  31  32
ENDBRANCH  30  31
ENDBRANCH  29  30
ENDBRANCH   1  29
TORSDOF 18
ENDMDL
MODEL 2
REMARK VINA RESULT:     -11.4      4.363      9.449
REMARK SMILES Cc1ccc(Cl)c(Nc2ccccc2C(=O)N[C@@H](C)C(=O)OCCOCCOC(=O)c2ccc(-c3c4nc(c(-c5c(F)cccc5F)c5ccc([nH]5)c(-c5c(F)cccc5F)c5nc(c(-c6c(F)cccc6F)c6ccc3[nH]6)C=C5)C=C4)cc2)c1Cl
REMARK SMILES IDX 24 1 23 2 22 3 20 4 21 5 18 6 19 7 17 8 15 9 16 10 14 12
REMARK SMILES IDX 9 13 10 14 11 15 13 16 12 17 8 18 7 20 1 21 2 22 3 23 85 24
REMARK SMILES IDX 4 25 86 26 5 27 6 28 25 29 26 30 27 31 28 32 29 33 30 34
REMARK SMILES IDX 31 35 32 36 84 37 33 38 83 39 34 40 35 41 36 42 77 43 37 44
REMARK SMILES IDX 82 45 76 46 78 47 38 48 81 49 75 50 74 51 39 53 65 54 48 55
REMARK SMILES IDX 64 56 49 57 52 58 63 59 79 60 50 61 51 62 62 64 80 65 53 66
REMARK SMILES IDX 40 67 41 68 46 69 42 70 43 71 45 72 47 73 44 74 66 75 67 76
REMARK SMILES IDX 72 77 68 78 69 79 71 80 73 81 70 82 54 83 55 84 60 85 56 86
REMARK SMILES IDX 57 87 59 88 61 89 58 90
REMARK H PARENT 17 11 8 19 78 52 52 63
REMARK Flexibility Score: inf
ROOT
ATOM      1  C   UNL A   1      34.552  32.929  29.321  1.00  0.00     0.202 C 
ENDROOT
BRANCH   1   2
ATOM      2  C   UNL A   1      34.759  31.667  28.370  1.00  0.00     0.261 C 
BRANCH   2   3
ATOM      3  O   UNL A   1      33.604  30.997  27.758  1.00  0.00    -0.462 OA
BRANCH   3   4
ATOM      4  C   UNL A   1      33.852  29.793  27.126  1.00  0.00     0.328 C 
ATOM      5  O   UNL A   1      34.837  29.105  27.399  1.00  0.00    -0.250 OA
BRANCH   4   6
ATOM      6  C   UNL A   1      32.693  29.240  26.183  1.00  0.00     0.189 C 
ATOM      7  C   UNL A   1      31.805  30.397  25.711  1.00  0.00     0.043 C 
BRANCH   6   8
ATOM      8  N   UNL A   1      31.830  28.159  26.649  1.00  0.00    -0.339 N 
ATOM      9  C   UNL A   1      31.615  26.828  26.356  1.00  0.00     0.254 C 
ATOM     10  O   UNL A   1      30.569  26.436  26.906  1.00  0.00    -0.269 OA
ATOM     11  H   UNL A   1      31.236  28.462  27.372  1.00  0.00     0.164 HD
BRANCH   9  12
ATOM     12  C   UNL A   1      32.412  25.772  25.570  1.00  0.00     0.063 A 
ATOM     13  C   UNL A   1      32.142  24.928  24.458  1.00  0.00     0.051 A 
ATOM     14  C   UNL A   1      33.167  24.061  23.955  1.00  0.00     0.027 A 
ATOM     15  C   UNL A   1      34.459  24.048  24.462  1.00  0.00     0.002 A 
ATOM     16  C   UNL A   1      33.745  25.671  26.085  1.00  0.00     0.016 A 
ATOM     17  C   UNL A   1      34.749  24.856  25.538  1.00  0.00     0.001 A 
BRANCH  13  18
ATOM     18  N   UNL A   1      31.044  25.000  23.569  1.00  0.00    -0.352 N 
ATOM     19  H   UNL A   1      30.450  24.218  23.499  1.00  0.00     0.167 HD
BRANCH  18  20
ATOM     20  C   UNL A   1      30.748  26.156  22.760  1.00  0.00     0.077 A 
ATOM     21  C   UNL A   1      33.654  28.055  22.393  1.00  0.00     0.046 C 
ATOM     22  C   UNL A   1      32.166  27.948  22.273  1.00  0.00    -0.030 A 
ATOM     23  C   UNL A   1      31.212  28.857  22.740  1.00  0.00     0.006 A 
ATOM     24  C   UNL A   1      31.740  26.685  21.950  1.00  0.00     0.069 A 
ATOM     25  C   UNL A   1      29.942  28.407  23.104  1.00  0.00     0.023 A 
ATOM     26  Cl  UNL A   1      32.595  25.798  20.737  1.00  0.00    -0.082 Cl
ATOM     27  C   UNL A   1      29.741  27.034  23.194  1.00  0.00     0.066 A 
ATOM     28  Cl  UNL A   1      28.337  26.434  23.992  1.00  0.00    -0.082 Cl
ENDBRANCH  18  20
ENDBRANCH  13  18
ENDBRANCH   9  12
ENDBRANCH   6   8
ENDBRANCH   4   6
ENDBRANCH   3   4
ENDBRANCH   2   3
ENDBRANCH   1   2
BRANCH   1  29
ATOM     29  O   UNL A   1      34.275  32.749  30.711  1.00  0.00    -0.374 OA
BRANCH  29  30
ATOM     30  C   UNL A   1      34.392  33.903  31.575  1.00  0.00     0.202 C 
BRANCH  30  31
ATOM     31  C   UNL A   1      34.858  33.641  33.029  1.00  0.00     0.261 C 
BRANCH  31  32
ATOM     32  O   UNL A   1      35.487  32.362  33.076  1.00  0.00    -0.460 OA
BRANCH  32  33
ATOM     33  C   UNL A   1      36.775  32.310  33.408  1.00  0.00     0.338 C 
ATOM     34  O   UNL A   1      37.326  32.720  34.442  1.00  0.00    -0.246 OA
BRANCH  33  35
ATOM     35  C   UNL A   1      37.393  31.428  32.426  1.00  0.00     0.060 A 
ATOM     36  C   UNL A   1      38.241  30.435  32.937  1.00  0.00     0.016 A 
ATOM     37  C   UNL A   1      37.242  31.603  31.053  1.00  0.00     0.016 A 
ATOM     38  C   UNL A   1      38.956  29.613  32.089  1.00  0.00     0.010 A 
ATOM     39  C   UNL A   1      38.009  30.813  30.191  1.00  0.00     0.010 A 
ATOM     40  C   UNL A   1      38.909  29.862  30.715  1.00  0.00    -0.014 A 
BRANCH  40  41
ATOM     41  C   UNL A   1      40.069  29.393  29.928  1.00  0.00     0.031 A 
ATOM     42  C   UNL A   1      41.223  30.348  29.754  1.00  0.00     0.074 A 
ATOM     43  C   UNL A   1      40.184  28.121  29.514  1.00  0.00     0.049 A 
ATOM     44  N   UNL A   1      42.353  30.177  29.120  1.00  0.00    -0.248 NA
ATOM     45  C   UNL A   1      41.086  31.667  30.396  1.00  0.00     0.031 C 
ATOM     46  C   UNL A   1      39.199  27.064  29.722  1.00  0.00     0.029 A 
ATOM     47  N   UNL A   1      41.207  27.509  28.835  1.00  0.00    -0.354 N 
ATOM     48  C   UNL A   1      43.049  31.370  29.270  1.00  0.00     0.074 A 
ATOM     49  C   UNL A   1      42.212  32.262  30.039  1.00  0.00     0.031 C 
ATOM     50  C   UNL A   1      39.660  25.931  29.165  1.00  0.00     0.029 A 
ATOM     51  C   UNL A   1      40.954  26.196  28.535  1.00  0.00     0.049 A 
ATOM     52  H   UNL A   1      42.041  27.969  28.589  1.00  0.00     0.167 HD
ATOM     53  C   UNL A   1      44.278  31.697  28.812  1.00  0.00     0.037 A 
ATOM     54  C   UNL A   1      41.675  25.321  27.809  1.00  0.00     0.037 A 
ATOM     55  C   UNL A   1      45.127  30.816  28.057  1.00  0.00     0.049 A 
ATOM     56  C   UNL A   1      42.999  25.740  27.222  1.00  0.00     0.074 A 
ATOM     57  C   UNL A   1      46.384  31.071  27.538  1.00  0.00     0.029 A 
ATOM     58  N   UNL A   1      44.806  29.514  27.712  1.00  0.00    -0.354 N 
ATOM     59  N   UNL A   1      43.639  26.877  27.341  1.00  0.00    -0.248 NA
ATOM     60  C   UNL A   1      43.702  24.743  26.399  1.00  0.00     0.031 C 
ATOM     61  C   UNL A   1      46.806  29.936  26.839  1.00  0.00     0.029 A 
ATOM     62  C   UNL A   1      45.834  28.957  26.970  1.00  0.00     0.049 A 
ATOM     63  H   UNL A   1      43.971  29.052  27.958  1.00  0.00     0.167 HD
ATOM     64  C   UNL A   1      44.830  26.721  26.640  1.00  0.00     0.074 A 
ATOM     65  C   UNL A   1      44.830  25.376  26.108  1.00  0.00     0.031 C 
ATOM     66  C   UNL A   1      45.837  27.611  26.458  1.00  0.00     0.037 A 
BRANCH  53  67
ATOM     67  C   UNL A   1      44.761  33.089  29.081  1.00  0.00     0.057 A 
ATOM     68  C   UNL A   1      44.469  34.158  28.224  1.00  0.00     0.134 A 
ATOM     69  C   UNL A   1      45.508  33.365  30.232  1.00  0.00     0.134 A 
ATOM     70  F   UNL A   1      43.778  33.952  27.091  1.00  0.00    -0.206 F 
ATOM     71  C   UNL A   1      44.916  35.451  28.496  1.00  0.00     0.040 A 
ATOM     72  C   UNL A   1      45.938  34.658  30.529  1.00  0.00     0.040 A 
ATOM     73  F   UNL A   1      45.823  32.383  31.091  1.00  0.00    -0.206 F 
ATOM     74  C   UNL A   1      45.646  35.705  29.657  1.00  0.00     0.006 A 
ENDBRANCH  53  67
BRANCH  54  75
ATOM     75  C   UNL A   1      41.149  23.957  27.558  1.00  0.00     0.057 A 
ATOM     76  C   UNL A   1      41.689  22.839  28.200  1.00  0.00     0.134 A 
ATOM     77  C   UNL A   1      40.126  23.738  26.627  1.00  0.00     0.134 A 
ATOM     78  F   UNL A   1      42.692  22.983  29.079  1.00  0.00    -0.206 F 
ATOM     79  C   UNL A   1      41.248  21.546  27.909  1.00  0.00     0.040 A 
ATOM     80  C   UNL A   1      39.655  22.456  26.348  1.00  0.00     0.040 A 
ATOM     81  F   UNL A   1      39.570  24.770  25.975  1.00  0.00    -0.206 F 
ATOM     82  C   UNL A   1      40.224  21.354  26.984  1.00  0.00     0.006 A 
ENDBRANCH  54  75
BRANCH  66  83
ATOM     83  C   UNL A   1      47.048  27.147  25.700  1.00  0.00     0.057 A 
ATOM     84  C   UNL A   1      47.246  27.452  24.347  1.00  0.00     0.134 A 
ATOM     85  C   UNL A   1      48.050  26.410  26.347  1.00  0.00     0.134 A 
ATOM     86  F   UNL A   1      46.322  28.147  23.666  1.00  0.00    -0.206 F 
ATOM     87  C   UNL A   1      48.378  27.014  23.657  1.00  0.00     0.040 A 
ATOM     88  C   UNL A   1      49.200  25.991  25.675  1.00  0.00     0.040 A 
ATOM     89  F   UNL A   1      47.934  26.094  27.645  1.00  0.00    -0.206 F 
ATOM     90  C   UNL A   1      49.362  26.286  24.323  1.00  0.00     0.006 A 
ENDBRANCH  66  83
ENDBRANCH  40  41
ENDBRANCH  33  35
ENDBRANCH  32  33
ENDBRANCH  31  32
ENDBRANCH  30  31
ENDBRANCH  29  30
ENDBRANCH   1  29
TORSDOF 18
ENDMDL
MODEL 3
REMARK VINA RESULT:     -11.4      4.387      9.582
REMARK SMILES Cc1ccc(Cl)c(Nc2ccccc2C(=O)N[C@@H](C)C(=O)OCCOCCOC(=O)c2ccc(-c3c4nc(c(-c5c(F)cccc5F)c5ccc([nH]5)c(-c5c(F)cccc5F)c5nc(c(-c6c(F)cccc6F)c6ccc3[nH]6)C=C5)C=C4)cc2)c1Cl
REMARK SMILES IDX 24 1 23 2 22 3 20 4 21 5 18 6 19 7 17 8 15 9 16 10 14 12
REMARK SMILES IDX 9 13 10 14 11 15 13 16 12 17 8 18 7 20 1 21 2 22 3 23 85 24
REMARK SMILES IDX 4 25 86 26 5 27 6 28 25 29 26 30 27 31 28 32 29 33 30 34
REMARK SMILES IDX 31 35 32 36 84 37 33 38 83 39 34 40 35 41 36 42 77 43 37 44
REMARK SMILES IDX 82 45 76 46 78 47 38 48 81 49 75 50 74 51 39 53 65 54 48 55
REMARK SMILES IDX 64 56 49 57 52 58 63 59 79 60 50 61 51 62 62 64 80 65 53 66
REMARK SMILES IDX 40 67 41 68 46 69 42 70 43 71 45 72 47 73 44 74 66 75 67 76
REMARK SMILES IDX 72 77 68 78 69 79 71 80 73 81 70 82 54 83 55 84 60 85 56 86
REMARK SMILES IDX 57 87 59 88 61 89 58 90
REMARK H PARENT 17 11 8 19 78 52 52 63
REMARK Flexibility Score: inf
ROOT
ATOM      1  C   UNL A   1      34.848  34.076  28.684  1.00  0.00     0.202 C 
ENDROOT
BRANCH   1   2
ATOM      2  C   UNL A   1      35.011  32.618  28.063  1.00  0.00     0.261 C 
BRANCH   2   3
ATOM      3  O   UNL A   1      33.852  31.724  27.943  1.00  0.00    -0.462 OA
BRANCH   3   4
ATOM      4  C   UNL A   1      34.072  30.508  27.324  1.00  0.00     0.328 C 
ATOM      5  O   UNL A   1      34.996  29.766  27.657  1.00  0.00    -0.250 OA
BRANCH   4   6
ATOM      6  C   UNL A   1      32.945  30.021  26.308  1.00  0.00     0.189 C 
ATOM      7  C   UNL A   1      31.875  29.218  27.058  1.00  0.00     0.043 C 
BRANCH   6   8
ATOM      8  N   UNL A   1      33.319  29.279  25.108  1.00  0.00    -0.339 N 
ATOM      9  C   UNL A   1      32.824  28.229  24.363  1.00  0.00     0.254 C 
ATOM     10  O   UNL A   1      33.687  27.838  23.555  1.00  0.00    -0.269 OA
ATOM     11  H   UNL A   1      34.157  29.623  24.722  1.00  0.00     0.164 HD
BRANCH   9  12
ATOM     12  C   UNL A   1      31.458  27.523  24.301  1.00  0.00     0.063 A 
ATOM     13  C   UNL A   1      30.880  26.389  24.935  1.00  0.00     0.051 A 
ATOM     14  C   UNL A   1      29.523  26.026  24.650  1.00  0.00     0.027 A 
ATOM     15  C   UNL A   1      28.701  26.777  23.822  1.00  0.00     0.002 A 
ATOM     16  C   UNL A   1      30.577  28.222  23.414  1.00  0.00     0.016 A 
ATOM     17  C   UNL A   1      29.233  27.882  23.196  1.00  0.00     0.001 A 
BRANCH  13  18
ATOM     18  N   UNL A   1      31.382  25.678  26.050  1.00  0.00    -0.352 N 
ATOM     19  H   UNL A   1      31.247  26.062  26.946  1.00  0.00     0.167 HD
BRANCH  18  20
ATOM     20  C   UNL A   1      32.081  24.421  25.946  1.00  0.00     0.077 A 
ATOM     21  C   UNL A   1      33.816  24.340  22.917  1.00  0.00     0.046 C 
ATOM     22  C   UNL A   1      33.278  23.612  24.110  1.00  0.00    -0.030 A 
ATOM     23  C   UNL A   1      32.526  22.433  24.112  1.00  0.00     0.006 A 
ATOM     24  C   UNL A   1      33.279  24.371  25.252  1.00  0.00     0.069 A 
ATOM     25  C   UNL A   1      31.617  22.191  25.143  1.00  0.00     0.023 A 
ATOM     26  Cl  UNL A   1      34.662  25.348  25.606  1.00  0.00    -0.082 Cl
ATOM     27  C   UNL A   1      31.334  23.234  26.018  1.00  0.00     0.066 A 
ATOM     28  Cl  UNL A   1      29.964  23.120  27.057  1.00  0.00    -0.082 Cl
ENDBRANCH  18  20
ENDBRANCH  13  18
ENDBRANCH   9  12
ENDBRANCH   6   8
ENDBRANCH   4   6
ENDBRANCH   3   4
ENDBRANCH   2   3
ENDBRANCH   1   2
BRANCH   1  29
ATOM     29  O   UNL A   1      33.968  34.299  29.787  1.00  0.00    -0.374 OA
BRANCH  29  30
ATOM     30  C   UNL A   1      34.559  34.662  31.057  1.00  0.00     0.202 C 
BRANCH  30  31
ATOM     31  C   UNL A   1      34.265  33.725  32.255  1.00  0.00     0.261 C 
BRANCH  31  32
ATOM     32  O   UNL A   1      34.937  32.486  32.032  1.00  0.00    -0.460 OA
BRANCH  32  33
ATOM     33  C   UNL A   1      35.985  32.196  32.800  1.00  0.00     0.338 C 
ATOM     34  O   UNL A   1      36.184  32.501  33.987  1.00  0.00    -0.246 OA
BRANCH  33  35
ATOM     35  C   UNL A   1      36.753  31.210  32.051  1.00  0.00     0.060 A 
ATOM     36  C   UNL A   1      37.836  30.630  32.726  1.00  0.00     0.016 A 
ATOM     37  C   UNL A   1      36.505  30.918  30.713  1.00  0.00     0.016 A 
ATOM     38  C   UNL A   1      38.690  29.761  32.075  1.00  0.00     0.010 A 
ATOM     39  C   UNL A   1      37.400  30.086  30.034  1.00  0.00     0.010 A 
ATOM     40  C   UNL A   1      38.525  29.559  30.704  1.00  0.00    -0.014 A 
BRANCH  40  41
ATOM     41  C   UNL A   1      39.728  29.133  29.957  1.00  0.00     0.031 A 
ATOM     42  C   UNL A   1      40.865  30.117  29.850  1.00  0.00     0.074 A 
ATOM     43  C   UNL A   1      39.890  27.873  29.526  1.00  0.00     0.049 A 
ATOM     44  N   UNL A   1      42.025  29.985  29.262  1.00  0.00    -0.248 NA
ATOM     45  C   UNL A   1      40.669  31.420  30.511  1.00  0.00     0.031 C 
ATOM     46  C   UNL A   1      38.922  26.789  29.672  1.00  0.00     0.029 A 
ATOM     47  N   UNL A   1      40.955  27.297  28.880  1.00  0.00    -0.354 N 
ATOM     48  C   UNL A   1      42.685  31.190  29.464  1.00  0.00     0.074 A 
ATOM     49  C   UNL A   1      41.795  32.048  30.213  1.00  0.00     0.031 C 
ATOM     50  C   UNL A   1      39.434  25.678  29.114  1.00  0.00     0.029 A 
ATOM     51  C   UNL A   1      40.746  25.985  28.544  1.00  0.00     0.049 A 
ATOM     52  H   UNL A   1      41.788  27.781  28.677  1.00  0.00     0.167 HD
ATOM     53  C   UNL A   1      43.924  31.554  29.065  1.00  0.00     0.037 A 
ATOM     54  C   UNL A   1      41.518  25.141  27.834  1.00  0.00     0.037 A 
ATOM     55  C   UNL A   1      44.824  30.708  28.331  1.00  0.00     0.049 A 
ATOM     56  C   UNL A   1      42.855  25.601  27.311  1.00  0.00     0.074 A 
ATOM     57  C   UNL A   1      46.096  31.001  27.871  1.00  0.00     0.029 A 
ATOM     58  N   UNL A   1      44.550  29.406  27.948  1.00  0.00    -0.354 N 
ATOM     59  N   UNL A   1      43.462  26.751  27.479  1.00  0.00    -0.248 NA
ATOM     60  C   UNL A   1      43.615  24.638  26.501  1.00  0.00     0.031 C 
ATOM     61  C   UNL A   1      46.573  29.890  27.169  1.00  0.00     0.029 A 
ATOM     62  C   UNL A   1      45.621  28.887  27.240  1.00  0.00     0.049 A 
ATOM     63  H   UNL A   1      43.716  28.921  28.149  1.00  0.00     0.167 HD
ATOM     64  C   UNL A   1      44.685  26.636  26.826  1.00  0.00     0.074 A 
ATOM     65  C   UNL A   1      44.739  25.302  26.269  1.00  0.00     0.031 C 
ATOM     66  C   UNL A   1      45.677  27.552  26.704  1.00  0.00     0.037 A 
BRANCH  53  67
ATOM     67  C   UNL A   1      44.362  32.952  29.380  1.00  0.00     0.057 A 
ATOM     68  C   UNL A   1      45.002  33.280  30.581  1.00  0.00     0.134 A 
ATOM     69  C   UNL A   1      44.160  33.978  28.449  1.00  0.00     0.134 A 
ATOM     70  F   UNL A   1      45.201  32.345  31.523  1.00  0.00    -0.206 F 
ATOM     71  C   UNL A   1      45.413  34.585  30.852  1.00  0.00     0.040 A 
ATOM     72  C   UNL A   1      44.590  35.281  28.697  1.00  0.00     0.040 A 
ATOM     73  F   UNL A   1      43.550  33.728  27.281  1.00  0.00    -0.206 F 
ATOM     74  C   UNL A   1      45.216  35.589  29.904  1.00  0.00     0.006 A 
ENDBRANCH  53  67
BRANCH  54  75
ATOM     75  C   UNL A   1      41.035  23.770  27.535  1.00  0.00     0.057 A 
ATOM     76  C   UNL A   1      41.578  22.652  28.174  1.00  0.00     0.134 A 
ATOM     77  C   UNL A   1      40.053  23.547  26.561  1.00  0.00     0.134 A 
ATOM     78  F   UNL A   1      42.543  22.802  29.094  1.00  0.00    -0.206 F 
ATOM     79  C   UNL A   1      41.179  21.356  27.841  1.00  0.00     0.040 A 
ATOM     80  C   UNL A   1      39.625  22.261  26.239  1.00  0.00     0.040 A 
ATOM     81  F   UNL A   1      39.497  24.580  25.910  1.00  0.00    -0.206 F 
ATOM     82  C   UNL A   1      40.196  21.159  26.874  1.00  0.00     0.006 A 
ENDBRANCH  54  75
BRANCH  66  83
ATOM     83  C   UNL A   1      46.930  27.131  25.990  1.00  0.00     0.057 A 
ATOM     84  C   UNL A   1      47.974  26.463  26.642  1.00  0.00     0.134 A 
ATOM     85  C   UNL A   1      47.078  27.370  24.616  1.00  0.00     0.134 A 
ATOM     86  F   UNL A   1      47.900  26.210  27.958  1.00  0.00    -0.206 F 
ATOM     87  C   UNL A   1      49.132  26.078  25.964  1.00  0.00     0.040 A 
ATOM     88  C   UNL A   1      48.219  26.964  23.921  1.00  0.00     0.040 A 
ATOM     89  F   UNL A   1      46.113  27.993  23.925  1.00  0.00    -0.206 F 
ATOM     90  C   UNL A   1      49.254  26.323  24.598  1.00  0.00     0.006 A 
ENDBRANCH  66  83
ENDBRANCH  40  41
ENDBRANCH  33  35
ENDBRANCH  32  33
ENDBRANCH  31  32
ENDBRANCH  30  31
ENDBRANCH  29  30
ENDBRANCH   1  29
TORSDOF 18
ENDMDL
