MODEL 1
REMARK VINA RESULT:     -11.0      0.000      0.000
REMARK SMILES O=C(Cn1cc(C(=O)C(F)(F)F)c2ccccc21)OCCOCCOC(=O)c1ccc(-c2c3nc(c(-c4c(F)cccc4F)c4ccc([nH]4)c(-c4c(F)cccc4F)c4nc(c(-c5c(F)cccc5F)c5ccc2[nH]5)C=C4)C=C3)cc1
REMARK SMILES IDX 21 1 20 2 19 3 2 4 1 5 3 6 4 7 5 8 18 9 6 10 13 11 17 12
REMARK SMILES IDX 14 13 16 14 15 15 7 16 8 17 9 18 10 19 11 20 12 21 22 22
REMARK SMILES IDX 23 23 24 24 25 25 26 26 27 27 28 28 29 29 81 30 30 31 80 32
REMARK SMILES IDX 31 33 32 34 33 35 74 36 34 37 79 38 73 39 75 40 35 41 78 42
REMARK SMILES IDX 72 43 71 44 36 46 62 47 45 48 61 49 46 50 49 51 60 52 76 53
REMARK SMILES IDX 47 54 48 55 59 57 77 58 50 59 37 60 38 61 43 62 39 63 40 64
REMARK SMILES IDX 42 65 44 66 41 67 63 68 64 69 69 70 65 71 66 72 68 73 70 74
REMARK SMILES IDX 67 75 51 76 52 77 57 78 53 79 54 80 56 81 58 82 55 83
REMARK H PARENT 75 45 49 56
REMARK Flexibility Score: inf
ROOT
ATOM      1  C   UNL A   1      32.266  27.562  26.856  1.00  0.00     0.202 C 
ENDROOT
BRANCH   1   2
ATOM      2  C   UNL A   1      31.503  26.356  26.298  1.00  0.00     0.261 C 
BRANCH   2   3
ATOM      3  O   UNL A   1      31.877  25.051  26.764  1.00  0.00    -0.462 OA
BRANCH   3   4
ATOM      4  C   UNL A   1      31.296  23.876  26.436  1.00  0.00     0.326 C 
ATOM      5  O   UNL A   1      30.567  23.319  27.257  1.00  0.00    -0.250 OA
BRANCH   4   6
ATOM      6  C   UNL A   1      31.585  23.232  25.108  1.00  0.00     0.244 C 
BRANCH   6   7
ATOM      7  N   UNL A   1      32.445  22.065  25.173  1.00  0.00    -0.335 N 
ATOM      8  C   UNL A   1      31.998  20.792  25.381  1.00  0.00     0.099 A 
ATOM      9  C   UNL A   1      33.814  22.064  25.031  1.00  0.00     0.049 A 
ATOM     10  C   UNL A   1      33.043  19.916  25.175  1.00  0.00     0.053 A 
ATOM     11  C   UNL A   1      34.224  20.724  25.073  1.00  0.00     0.011 A 
ATOM     12  C   UNL A   1      34.719  23.124  24.866  1.00  0.00     0.027 A 
ATOM     13  C   UNL A   1      35.605  20.448  24.983  1.00  0.00     0.011 A 
ATOM     14  C   UNL A   1      36.080  22.820  24.803  1.00  0.00     0.002 A 
ATOM     15  C   UNL A   1      36.520  21.503  24.873  1.00  0.00     0.001 A 
BRANCH  10  16
ATOM     16  C   UNL A   1      32.896  18.458  25.089  1.00  0.00     0.268 C 
ATOM     17  O   UNL A   1      32.506  17.807  26.060  1.00  0.00    -0.284 OA
BRANCH  16  18
ATOM     18  C   UNL A   1      33.344  17.806  23.772  1.00  0.00     0.454 C 
ATOM     19  F   UNL A   1      34.701  17.704  23.649  1.00  0.00    -0.163 F 
ATOM     20  F   UNL A   1      32.863  16.536  23.639  1.00  0.00    -0.163 F 
ATOM     21  F   UNL A   1      32.955  18.490  22.671  1.00  0.00    -0.163 F 
ENDBRANCH  16  18
ENDBRANCH  10  16
ENDBRANCH   6   7
ENDBRANCH   4   6
ENDBRANCH   3   4
ENDBRANCH   2   3
ENDBRANCH   1   2
BRANCH   1  22
ATOM     22  O   UNL A   1      31.638  28.833  26.877  1.00  0.00    -0.374 OA
BRANCH  22  23
ATOM     23  C   UNL A   1      32.306  29.958  26.302  1.00  0.00     0.202 C 
BRANCH  23  24
ATOM     24  C   UNL A   1      32.798  31.080  27.222  1.00  0.00     0.261 C 
BRANCH  24  25
ATOM     25  O   UNL A   1      33.912  30.644  28.010  1.00  0.00    -0.460 OA
BRANCH  25  26
ATOM     26  C   UNL A   1      34.735  31.634  28.442  1.00  0.00     0.338 C 
ATOM     27  O   UNL A   1      34.425  32.756  28.803  1.00  0.00    -0.246 OA
BRANCH  26  28
ATOM     28  C   UNL A   1      36.019  30.982  28.762  1.00  0.00     0.060 A 
ATOM     29  C   UNL A   1      37.069  31.699  29.336  1.00  0.00     0.016 A 
ATOM     30  C   UNL A   1      36.223  29.699  28.229  1.00  0.00     0.016 A 
ATOM     31  C   UNL A   1      38.346  31.147  29.308  1.00  0.00     0.010 A 
ATOM     32  C   UNL A   1      37.506  29.165  28.176  1.00  0.00     0.010 A 
ATOM     33  C   UNL A   1      38.573  29.895  28.699  1.00  0.00    -0.014 A 
BRANCH  33  34
ATOM     34  C   UNL A   1      39.875  29.260  28.931  1.00  0.00     0.031 A 
ATOM     35  C   UNL A   1      40.189  29.192  30.389  1.00  0.00     0.074 A 
ATOM     36  C   UNL A   1      40.672  28.637  28.035  1.00  0.00     0.049 A 
ATOM     37  N   UNL A   1      41.160  29.764  31.019  1.00  0.00    -0.248 NA
ATOM     38  C   UNL A   1      39.204  28.538  31.270  1.00  0.00     0.031 C 
ATOM     39  C   UNL A   1      40.402  28.322  26.633  1.00  0.00     0.029 A 
ATOM     40  N   UNL A   1      41.897  28.061  28.243  1.00  0.00    -0.354 N 
ATOM     41  C   UNL A   1      41.010  29.406  32.356  1.00  0.00     0.074 A 
ATOM     42  C   UNL A   1      39.716  28.791  32.474  1.00  0.00     0.031 C 
ATOM     43  C   UNL A   1      41.321  27.427  26.192  1.00  0.00     0.029 A 
ATOM     44  C   UNL A   1      42.310  27.195  27.235  1.00  0.00     0.049 A 
ATOM     45  H   UNL A   1      42.441  28.243  29.043  1.00  0.00     0.167 HD
ATOM     46  C   UNL A   1      42.058  29.450  33.222  1.00  0.00     0.037 A 
ATOM     47  C   UNL A   1      43.351  26.317  27.280  1.00  0.00     0.037 A 
ATOM     48  C   UNL A   1      43.119  30.281  32.719  1.00  0.00     0.049 A 
ATOM     49  C   UNL A   1      44.247  26.701  28.397  1.00  0.00     0.074 A 
ATOM     50  C   UNL A   1      43.229  31.610  32.357  1.00  0.00     0.029 A 
ATOM     51  N   UNL A   1      44.223  29.663  32.190  1.00  0.00    -0.354 N 
ATOM     52  N   UNL A   1      45.037  27.734  28.382  1.00  0.00    -0.248 NA
ATOM     53  C   UNL A   1      43.946  26.170  29.716  1.00  0.00     0.031 C 
ATOM     54  C   UNL A   1      44.097  31.610  31.226  1.00  0.00     0.029 A 
ATOM     55  C   UNL A   1      44.514  30.297  31.011  1.00  0.00     0.049 A 
ATOM     56  H   UNL A   1      44.714  28.906  32.584  1.00  0.00     0.167 HD
ATOM     57  C   UNL A   1      44.925  28.273  29.652  1.00  0.00     0.074 A 
ATOM     58  C   UNL A   1      44.325  27.212  30.460  1.00  0.00     0.031 C 
ATOM     59  C   UNL A   1      45.063  29.617  29.864  1.00  0.00     0.037 A 
BRANCH  46  60
ATOM     60  C   UNL A   1      42.289  28.430  34.312  1.00  0.00     0.057 A 
ATOM     61  C   UNL A   1      41.863  28.586  35.647  1.00  0.00     0.134 A 
ATOM     62  C   UNL A   1      42.639  27.118  33.946  1.00  0.00     0.134 A 
ATOM     63  F   UNL A   1      41.452  29.758  36.144  1.00  0.00    -0.206 F 
ATOM     64  C   UNL A   1      41.733  27.511  36.529  1.00  0.00     0.040 A 
ATOM     65  C   UNL A   1      42.462  26.027  34.806  1.00  0.00     0.040 A 
ATOM     66  F   UNL A   1      43.068  26.840  32.706  1.00  0.00    -0.206 F 
ATOM     67  C   UNL A   1      41.992  26.221  36.098  1.00  0.00     0.006 A 
ENDBRANCH  46  60
BRANCH  47  68
ATOM     68  C   UNL A   1      43.520  25.004  26.609  1.00  0.00     0.057 A 
ATOM     69  C   UNL A   1      44.207  24.900  25.389  1.00  0.00     0.134 A 
ATOM     70  C   UNL A   1      42.762  23.881  26.982  1.00  0.00     0.134 A 
ATOM     71  F   UNL A   1      44.897  25.940  24.898  1.00  0.00    -0.206 F 
ATOM     72  C   UNL A   1      44.133  23.761  24.579  1.00  0.00     0.040 A 
ATOM     73  C   UNL A   1      42.674  22.734  26.179  1.00  0.00     0.040 A 
ATOM     74  F   UNL A   1      42.028  23.895  28.105  1.00  0.00    -0.206 F 
ATOM     75  C   UNL A   1      43.353  22.677  24.966  1.00  0.00     0.006 A 
ENDBRANCH  47  68
BRANCH  59  76
ATOM     76  C   UNL A   1      45.620  30.462  28.747  1.00  0.00     0.057 A 
ATOM     77  C   UNL A   1      46.941  30.923  28.842  1.00  0.00     0.134 A 
ATOM     78  C   UNL A   1      44.888  30.903  27.635  1.00  0.00     0.134 A 
ATOM     79  F   UNL A   1      47.704  30.583  29.894  1.00  0.00    -0.206 F 
ATOM     80  C   UNL A   1      47.507  31.768  27.885  1.00  0.00     0.040 A 
ATOM     81  C   UNL A   1      45.480  31.659  26.620  1.00  0.00     0.040 A 
ATOM     82  F   UNL A   1      43.571  30.676  27.521  1.00  0.00    -0.206 F 
ATOM     83  C   UNL A   1      46.782  32.123  26.756  1.00  0.00     0.006 A 
ENDBRANCH  59  76
ENDBRANCH  33  34
ENDBRANCH  26  28
ENDBRANCH  25  26
ENDBRANCH  24  25
ENDBRANCH  23  24
ENDBRANCH  22  23
ENDBRANCH   1  22
TORSDOF 17
ENDMDL
MODEL 2
REMARK VINA RESULT:     -10.7      2.853      4.194
REMARK SMILES O=C(Cn1cc(C(=O)C(F)(F)F)c2ccccc21)OCCOCCOC(=O)c1ccc(-c2c3nc(c(-c4c(F)cccc4F)c4ccc([nH]4)c(-c4c(F)cccc4F)c4nc(c(-c5c(F)cccc5F)c5ccc2[nH]5)C=C4)C=C3)cc1
REMARK SMILES IDX 21 1 20 2 19 3 2 4 1 5 3 6 4 7 5 8 18 9 6 10 13 11 17 12
REMARK SMILES IDX 14 13 16 14 15 15 7 16 8 17 9 18 10 19 11 20 12 21 22 22
REMARK SMILES IDX 23 23 24 24 25 25 26 26 27 27 28 28 29 29 81 30 30 31 80 32
REMARK SMILES IDX 31 33 32 34 33 35 74 36 34 37 79 38 73 39 75 40 35 41 78 42
REMARK SMILES IDX 72 43 71 44 36 46 62 47 45 48 61 49 46 50 49 51 60 52 76 53
REMARK SMILES IDX 47 54 48 55 59 57 77 58 50 59 37 60 38 61 43 62 39 63 40 64
REMARK SMILES IDX 42 65 44 66 41 67 63 68 64 69 69 70 65 71 66 72 68 73 70 74
REMARK SMILES IDX 67 75 51 76 52 77 57 78 53 79 54 80 56 81 58 82 55 83
REMARK H PARENT 75 45 49 56
REMARK Flexibility Score: inf
ROOT
ATOM      1  C   UNL A   1      33.402  29.858  27.238  1.00  0.00     0.202 C 
ENDROOT
BRANCH   1   2
ATOM      2  C   UNL A   1      31.938  29.536  26.921  1.00  0.00     0.261 C 
BRANCH   2   3
ATOM      3  O   UNL A   1      31.508  29.639  25.556  1.00  0.00    -0.462 OA
BRANCH   3   4
ATOM      4  C   UNL A   1      31.838  28.815  24.537  1.00  0.00     0.326 C 
ATOM      5  O   UNL A   1      32.858  29.043  23.888  1.00  0.00    -0.250 OA
BRANCH   4   6
ATOM      6  C   UNL A   1      30.937  27.667  24.169  1.00  0.00     0.244 C 
BRANCH   6   7
ATOM      7  N   UNL A   1      31.457  26.355  24.504  1.00  0.00    -0.335 N 
ATOM      8  C   UNL A   1      31.446  25.823  25.761  1.00  0.00     0.099 A 
ATOM      9  C   UNL A   1      32.023  25.464  23.622  1.00  0.00     0.049 A 
ATOM     10  C   UNL A   1      31.817  24.497  25.684  1.00  0.00     0.053 A 
ATOM     11  C   UNL A   1      32.301  24.297  24.348  1.00  0.00     0.011 A 
ATOM     12  C   UNL A   1      32.307  25.583  22.253  1.00  0.00     0.027 A 
ATOM     13  C   UNL A   1      32.925  23.226  23.673  1.00  0.00     0.011 A 
ATOM     14  C   UNL A   1      32.945  24.516  21.619  1.00  0.00     0.002 A 
ATOM     15  C   UNL A   1      33.263  23.358  22.321  1.00  0.00     0.001 A 
BRANCH  10  16
ATOM     16  C   UNL A   1      31.708  23.541  26.793  1.00  0.00     0.268 C 
ATOM     17  O   UNL A   1      30.638  23.385  27.385  1.00  0.00    -0.284 OA
BRANCH  16  18
ATOM     18  C   UNL A   1      33.007  22.839  27.218  1.00  0.00     0.454 C 
ATOM     19  F   UNL A   1      33.256  21.688  26.525  1.00  0.00    -0.163 F 
ATOM     20  F   UNL A   1      34.102  23.630  27.029  1.00  0.00    -0.163 F 
ATOM     21  F   UNL A   1      33.015  22.461  28.518  1.00  0.00    -0.163 F 
ENDBRANCH  16  18
ENDBRANCH  10  16
ENDBRANCH   6   7
ENDBRANCH   4   6
ENDBRANCH   3   4
ENDBRANCH   2   3
ENDBRANCH   1   2
BRANCH   1  22
ATOM     22  O   UNL A   1      33.852  31.200  27.159  1.00  0.00    -0.374 OA
BRANCH  22  23
ATOM     23  C   UNL A   1      34.455  31.808  28.303  1.00  0.00     0.202 C 
BRANCH  23  24
ATOM     24  C   UNL A   1      35.761  32.589  28.127  1.00  0.00     0.261 C 
BRANCH  24  25
ATOM     25  O   UNL A   1      36.896  31.747  28.359  1.00  0.00    -0.460 OA
BRANCH  25  26
ATOM     26  C   UNL A   1      37.357  31.738  29.636  1.00  0.00     0.338 C 
ATOM     27  O   UNL A   1      36.824  32.215  30.624  1.00  0.00    -0.246 OA
BRANCH  26  28
ATOM     28  C   UNL A   1      38.419  30.717  29.676  1.00  0.00     0.060 A 
ATOM     29  C   UNL A   1      39.767  31.075  29.637  1.00  0.00     0.016 A 
ATOM     30  C   UNL A   1      38.019  29.384  29.490  1.00  0.00     0.016 A 
ATOM     31  C   UNL A   1      40.709  30.096  29.339  1.00  0.00     0.010 A 
ATOM     32  C   UNL A   1      38.960  28.415  29.161  1.00  0.00     0.010 A 
ATOM     33  C   UNL A   1      40.305  28.772  29.067  1.00  0.00    -0.014 A 
BRANCH  33  34
ATOM     34  C   UNL A   1      41.353  27.746  29.018  1.00  0.00     0.031 A 
ATOM     35  C   UNL A   1      42.173  27.752  30.264  1.00  0.00     0.074 A 
ATOM     36  C   UNL A   1      41.524  26.771  28.097  1.00  0.00     0.049 A 
ATOM     37  N   UNL A   1      43.433  28.011  30.383  1.00  0.00    -0.248 NA
ATOM     38  C   UNL A   1      41.465  27.612  31.550  1.00  0.00     0.031 C 
ATOM     39  C   UNL A   1      40.653  26.401  26.982  1.00  0.00     0.029 A 
ATOM     40  N   UNL A   1      42.511  25.824  28.035  1.00  0.00    -0.354 N 
ATOM     41  C   UNL A   1      43.717  27.901  31.742  1.00  0.00     0.074 A 
ATOM     42  C   UNL A   1      42.452  27.812  32.420  1.00  0.00     0.031 C 
ATOM     43  C   UNL A   1      41.029  25.188  26.506  1.00  0.00     0.029 A 
ATOM     44  C   UNL A   1      42.233  24.749  27.197  1.00  0.00     0.049 A 
ATOM     45  H   UNL A   1      43.350  25.897  28.544  1.00  0.00     0.167 HD
ATOM     46  C   UNL A   1      44.983  27.674  32.185  1.00  0.00     0.037 A 
ATOM     47  C   UNL A   1      42.909  23.568  27.120  1.00  0.00     0.037 A 
ATOM     48  C   UNL A   1      45.956  27.998  31.175  1.00  0.00     0.049 A 
ATOM     49  C   UNL A   1      44.237  23.742  27.756  1.00  0.00     0.074 A 
ATOM     50  C   UNL A   1      46.294  29.142  30.479  1.00  0.00     0.029 A 
ATOM     51  N   UNL A   1      46.540  26.964  30.490  1.00  0.00    -0.354 N 
ATOM     52  N   UNL A   1      45.221  24.410  27.230  1.00  0.00    -0.248 NA
ATOM     53  C   UNL A   1      44.333  23.523  29.190  1.00  0.00     0.031 C 
ATOM     54  C   UNL A   1      46.616  28.689  29.165  1.00  0.00     0.029 A 
ATOM     55  C   UNL A   1      46.520  27.298  29.162  1.00  0.00     0.049 A 
ATOM     56  H   UNL A   1      46.905  26.136  30.880  1.00  0.00     0.167 HD
ATOM     57  C   UNL A   1      45.771  25.109  28.291  1.00  0.00     0.074 A 
ATOM     58  C   UNL A   1      45.252  24.444  29.487  1.00  0.00     0.031 C 
ATOM     59  C   UNL A   1      46.360  26.328  28.106  1.00  0.00     0.037 A 
BRANCH  46  60
ATOM     60  C   UNL A   1      45.314  26.784  33.359  1.00  0.00     0.057 A 
ATOM     61  C   UNL A   1      45.047  25.401  33.407  1.00  0.00     0.134 A 
ATOM     62  C   UNL A   1      46.228  27.250  34.322  1.00  0.00     0.134 A 
ATOM     63  F   UNL A   1      44.237  24.789  32.534  1.00  0.00    -0.206 F 
ATOM     64  C   UNL A   1      45.688  24.538  34.298  1.00  0.00     0.040 A 
ATOM     65  C   UNL A   1      46.914  26.386  35.184  1.00  0.00     0.040 A 
ATOM     66  F   UNL A   1      46.559  28.548  34.387  1.00  0.00    -0.206 F 
ATOM     67  C   UNL A   1      46.656  25.022  35.161  1.00  0.00     0.006 A 
ENDBRANCH  46  60
BRANCH  47  68
ATOM     68  C   UNL A   1      42.419  22.209  26.780  1.00  0.00     0.057 A 
ATOM     69  C   UNL A   1      41.431  21.583  27.555  1.00  0.00     0.134 A 
ATOM     70  C   UNL A   1      43.114  21.378  25.884  1.00  0.00     0.134 A 
ATOM     71  F   UNL A   1      40.762  22.263  28.497  1.00  0.00    -0.206 F 
ATOM     72  C   UNL A   1      41.159  20.213  27.463  1.00  0.00     0.040 A 
ATOM     73  C   UNL A   1      42.856  20.002  25.784  1.00  0.00     0.040 A 
ATOM     74  F   UNL A   1      44.111  21.866  25.132  1.00  0.00    -0.206 F 
ATOM     75  C   UNL A   1      41.883  19.414  26.585  1.00  0.00     0.006 A 
ENDBRANCH  47  68
BRANCH  59  76
ATOM     76  C   UNL A   1      46.657  26.770  26.696  1.00  0.00     0.057 A 
ATOM     77  C   UNL A   1      47.960  26.612  26.199  1.00  0.00     0.134 A 
ATOM     78  C   UNL A   1      45.744  27.413  25.848  1.00  0.00     0.134 A 
ATOM     79  F   UNL A   1      48.911  26.043  26.957  1.00  0.00    -0.206 F 
ATOM     80  C   UNL A   1      48.333  27.060  24.930  1.00  0.00     0.040 A 
ATOM     81  C   UNL A   1      46.080  27.766  24.540  1.00  0.00     0.040 A 
ATOM     82  F   UNL A   1      44.524  27.777  26.271  1.00  0.00    -0.206 F 
ATOM     83  C   UNL A   1      47.385  27.622  24.085  1.00  0.00     0.006 A 
ENDBRANCH  59  76
ENDBRANCH  33  34
ENDBRANCH  26  28
ENDBRANCH  25  26
ENDBRANCH  24  25
ENDBRANCH  23  24
ENDBRANCH  22  23
ENDBRANCH   1  22
TORSDOF 17
ENDMDL
MODEL 3
REMARK VINA RESULT:     -10.7      4.267      6.697
REMARK SMILES O=C(Cn1cc(C(=O)C(F)(F)F)c2ccccc21)OCCOCCOC(=O)c1ccc(-c2c3nc(c(-c4c(F)cccc4F)c4ccc([nH]4)c(-c4c(F)cccc4F)c4nc(c(-c5c(F)cccc5F)c5ccc2[nH]5)C=C4)C=C3)cc1
REMARK SMILES IDX 21 1 20 2 19 3 2 4 1 5 3 6 4 7 5 8 18 9 6 10 13 11 17 12
REMARK SMILES IDX 14 13 16 14 15 15 7 16 8 17 9 18 10 19 11 20 12 21 22 22
REMARK SMILES IDX 23 23 24 24 25 25 26 26 27 27 28 28 29 29 81 30 30 31 80 32
REMARK SMILES IDX 31 33 32 34 33 35 74 36 34 37 79 38 73 39 75 40 35 41 78 42
REMARK SMILES IDX 72 43 71 44 36 46 62 47 45 48 61 49 46 50 49 51 60 52 76 53
REMARK SMILES IDX 47 54 48 55 59 57 77 58 50 59 37 60 38 61 43 62 39 63 40 64
REMARK SMILES IDX 42 65 44 66 41 67 63 68 64 69 69 70 65 71 66 72 68 73 70 74
REMARK SMILES IDX 67 75 51 76 52 77 57 78 53 79 54 80 56 81 58 82 55 83
REMARK H PARENT 75 45 49 56
REMARK Flexibility Score: inf
ROOT
ATOM      1  C   UNL A   1      34.321  33.253  33.174  1.00  0.00     0.202 C 
ENDROOT
BRANCH   1   2
ATOM      2  C   UNL A   1      34.908  33.117  31.766  1.00  0.00     0.261 C 
BRANCH   2   3
ATOM      3  O   UNL A   1      34.011  33.224  30.651  1.00  0.00    -0.462 OA
BRANCH   3   4
ATOM      4  C   UNL A   1      34.043  34.153  29.671  1.00  0.00     0.326 C 
ATOM      5  O   UNL A   1      33.484  35.235  29.853  1.00  0.00    -0.250 OA
BRANCH   4   6
ATOM      6  C   UNL A   1      34.703  33.845  28.354  1.00  0.00     0.244 C 
BRANCH   6   7
ATOM      7  N   UNL A   1      34.760  32.434  28.020  1.00  0.00    -0.335 N 
ATOM      8  C   UNL A   1      33.714  31.725  27.504  1.00  0.00     0.099 A 
ATOM      9  C   UNL A   1      35.857  31.617  28.162  1.00  0.00     0.049 A 
ATOM     10  C   UNL A   1      34.171  30.484  27.111  1.00  0.00     0.053 A 
ATOM     11  C   UNL A   1      35.501  30.366  27.637  1.00  0.00     0.011 A 
ATOM     12  C   UNL A   1      37.128  31.872  28.701  1.00  0.00     0.027 A 
ATOM     13  C   UNL A   1      36.452  29.325  27.695  1.00  0.00     0.011 A 
ATOM     14  C   UNL A   1      38.037  30.816  28.765  1.00  0.00     0.002 A 
ATOM     15  C   UNL A   1      37.702  29.556  28.282  1.00  0.00     0.001 A 
BRANCH  10  16
ATOM     16  C   UNL A   1      33.393  29.530  26.312  1.00  0.00     0.268 C 
ATOM     17  O   UNL A   1      33.712  29.275  25.149  1.00  0.00    -0.284 OA
BRANCH  16  18
ATOM     18  C   UNL A   1      32.128  28.960  26.974  1.00  0.00     0.454 C 
ATOM     19  F   UNL A   1      31.310  29.920  27.501  1.00  0.00    -0.163 F 
ATOM     20  F   UNL A   1      31.358  28.261  26.091  1.00  0.00    -0.163 F 
ATOM     21  F   UNL A   1      32.389  28.131  28.011  1.00  0.00    -0.163 F 
ENDBRANCH  16  18
ENDBRANCH  10  16
ENDBRANCH   6   7
ENDBRANCH   4   6
ENDBRANCH   3   4
ENDBRANCH   2   3
ENDBRANCH   1   2
BRANCH   1  22
ATOM     22  O   UNL A   1      35.165  33.074  34.300  1.00  0.00    -0.374 OA
BRANCH  22  23
ATOM     23  C   UNL A   1      36.092  34.101  34.655  1.00  0.00     0.202 C 
BRANCH  23  24
ATOM     24  C   UNL A   1      37.592  33.796  34.611  1.00  0.00     0.261 C 
BRANCH  24  25
ATOM     25  O   UNL A   1      37.870  32.722  33.703  1.00  0.00    -0.460 OA
BRANCH  25  26
ATOM     26  C   UNL A   1      38.704  33.035  32.679  1.00  0.00     0.338 C 
ATOM     27  O   UNL A   1      38.959  34.142  32.236  1.00  0.00    -0.246 OA
BRANCH  26  28
ATOM     28  C   UNL A   1      39.536  31.838  32.456  1.00  0.00     0.060 A 
ATOM     29  C   UNL A   1      40.907  31.946  32.217  1.00  0.00     0.016 A 
ATOM     30  C   UNL A   1      38.856  30.630  32.235  1.00  0.00     0.016 A 
ATOM     31  C   UNL A   1      41.579  30.850  31.686  1.00  0.00     0.010 A 
ATOM     32  C   UNL A   1      39.525  29.547  31.676  1.00  0.00     0.010 A 
ATOM     33  C   UNL A   1      40.885  29.660  31.383  1.00  0.00    -0.014 A 
BRANCH  33  34
ATOM     34  C   UNL A   1      41.687  28.472  31.075  1.00  0.00     0.031 A 
ATOM     35  C   UNL A   1      42.286  27.891  32.312  1.00  0.00     0.074 A 
ATOM     36  C   UNL A   1      41.791  27.817  29.898  1.00  0.00     0.049 A 
ATOM     37  N   UNL A   1      43.538  27.778  32.610  1.00  0.00    -0.248 NA
ATOM     38  C   UNL A   1      41.373  27.544  33.416  1.00  0.00     0.031 C 
ATOM     39  C   UNL A   1      41.047  28.037  28.658  1.00  0.00     0.029 A 
ATOM     40  N   UNL A   1      42.555  26.720  29.599  1.00  0.00    -0.354 N 
ATOM     41  C   UNL A   1      43.577  27.188  33.871  1.00  0.00     0.074 A 
ATOM     42  C   UNL A   1      42.232  27.214  34.378  1.00  0.00     0.031 C 
ATOM     43  C   UNL A   1      41.229  26.975  27.834  1.00  0.00     0.029 A 
ATOM     44  C   UNL A   1      42.191  26.059  28.430  1.00  0.00     0.049 A 
ATOM     45  H   UNL A   1      43.301  26.421  30.168  1.00  0.00     0.167 HD
ATOM     46  C   UNL A   1      44.682  26.527  34.310  1.00  0.00     0.037 A 
ATOM     47  C   UNL A   1      42.607  24.830  28.015  1.00  0.00     0.037 A 
ATOM     48  C   UNL A   1      45.847  26.893  33.548  1.00  0.00     0.049 A 
ATOM     49  C   UNL A   1      43.827  24.462  28.775  1.00  0.00     0.074 A 
ATOM     50  C   UNL A   1      46.523  28.073  33.304  1.00  0.00     0.029 A 
ATOM     51  N   UNL A   1      46.300  26.008  32.603  1.00  0.00    -0.354 N 
ATOM     52  N   UNL A   1      44.998  24.992  28.583  1.00  0.00    -0.248 NA
ATOM     53  C   UNL A   1      43.649  23.798  30.055  1.00  0.00     0.031 C 
ATOM     54  C   UNL A   1      46.943  27.980  31.944  1.00  0.00     0.029 A 
ATOM     55  C   UNL A   1      46.558  26.727  31.467  1.00  0.00     0.049 A 
ATOM     56  H   UNL A   1      46.418  25.037  32.720  1.00  0.00     0.167 HD
ATOM     57  C   UNL A   1      45.511  25.171  29.857  1.00  0.00     0.074 A 
ATOM     58  C   UNL A   1      44.684  24.322  30.716  1.00  0.00     0.031 C 
ATOM     59  C   UNL A   1      46.364  26.200  30.138  1.00  0.00     0.037 A 
BRANCH  46  60
ATOM     60  C   UNL A   1      44.632  25.267  35.140  1.00  0.00     0.057 A 
ATOM     61  C   UNL A   1      44.101  24.041  34.690  1.00  0.00     0.134 A 
ATOM     62  C   UNL A   1      45.440  25.183  36.288  1.00  0.00     0.134 A 
ATOM     63  F   UNL A   1      43.351  23.939  33.587  1.00  0.00    -0.206 F 
ATOM     64  C   UNL A   1      44.404  22.819  35.295  1.00  0.00     0.040 A 
ATOM     65  C   UNL A   1      45.791  23.959  36.870  1.00  0.00     0.040 A 
ATOM     66  F   UNL A   1      45.997  26.281  36.822  1.00  0.00    -0.206 F 
ATOM     67  C   UNL A   1      45.285  22.770  36.362  1.00  0.00     0.006 A 
ENDBRANCH  46  60
BRANCH  47  68
ATOM     68  C   UNL A   1      41.902  23.808  27.202  1.00  0.00     0.057 A 
ATOM     69  C   UNL A   1      40.595  23.409  27.520  1.00  0.00     0.134 A 
ATOM     70  C   UNL A   1      42.590  22.987  26.292  1.00  0.00     0.134 A 
ATOM     71  F   UNL A   1      39.877  24.073  28.437  1.00  0.00    -0.206 F 
ATOM     72  C   UNL A   1      40.011  22.255  26.984  1.00  0.00     0.040 A 
ATOM     73  C   UNL A   1      42.019  21.825  25.750  1.00  0.00     0.040 A 
ATOM     74  F   UNL A   1      43.862  23.253  25.958  1.00  0.00    -0.206 F 
ATOM     75  C   UNL A   1      40.728  21.450  26.106  1.00  0.00     0.006 A 
ENDBRANCH  47  68
BRANCH  59  76
ATOM     76  C   UNL A   1      46.964  26.965  28.986  1.00  0.00     0.057 A 
ATOM     77  C   UNL A   1      48.258  26.633  28.555  1.00  0.00     0.134 A 
ATOM     78  C   UNL A   1      46.358  28.056  28.346  1.00  0.00     0.134 A 
ATOM     79  F   UNL A   1      48.930  25.628  29.138  1.00  0.00    -0.206 F 
ATOM     80  C   UNL A   1      48.910  27.340  27.542  1.00  0.00     0.040 A 
ATOM     81  C   UNL A   1      46.960  28.697  27.261  1.00  0.00     0.040 A 
ATOM     82  F   UNL A   1      45.202  28.577  28.782  1.00  0.00    -0.206 F 
ATOM     83  C   UNL A   1      48.253  28.365  26.876  1.00  0.00     0.006 A 
ENDBRANCH  59  76
ENDBRANCH  33  34
ENDBRANCH  26  28
ENDBRANCH  25  26
ENDBRANCH  24  25
ENDBRANCH  23  24
ENDBRANCH  22  23
ENDBRANCH   1  22
TORSDOF 17
ENDMDL
