MODEL 1
REMARK VINA RESULT:     -11.7      0.000      0.000
REMARK SMILES CC(C)Cc1ccc(S(=O)(=O)Nc2cnc(N3CCCC3)c(C(=O)OCCOCCOC(=O)c3ccc(-c4c5nc(c(-c6c(F)cccc6F)c6ccc([nH]6)c(-c6c(F)cccc6F)c6nc(c(-c7c(F)cccc7F)c7ccc4[nH]7)C=C6)C=C5)cc3)c2)cc1
REMARK SMILES IDX 26 1 25 2 23 3 24 4 22 5 13 6 14 7 88 8 15 9 16 10 12 11
REMARK SMILES IDX 9 13 10 14 11 15 8 16 5 17 6 18 90 19 7 20 89 21 4 22 2 23
REMARK SMILES IDX 1 24 3 25 17 26 18 27 21 28 19 29 20 30 27 31 28 32 29 33
REMARK SMILES IDX 30 34 31 35 32 36 33 37 34 38 35 39 87 40 36 41 86 42 37 43
REMARK SMILES IDX 38 44 39 45 80 46 40 47 85 48 79 49 81 50 41 51 84 52 78 53
REMARK SMILES IDX 77 54 42 56 68 57 51 58 67 59 52 60 55 61 66 62 82 63 53 64
REMARK SMILES IDX 54 65 65 67 83 68 56 69 43 70 44 71 49 72 45 73 46 74 48 75
REMARK SMILES IDX 50 76 47 77 69 78 70 79 75 80 71 81 72 82 74 83 76 84 73 85
REMARK SMILES IDX 57 86 58 87 63 88 59 89 60 90 62 91 64 92 61 93
REMARK H PARENT 12 12 81 55 55 66
REMARK Flexibility Score: inf
ROOT
ATOM      1  C   UNL A   1      36.069  21.037  25.240  1.00  0.00     0.261 C 
ENDROOT
BRANCH   1   2
ATOM      2  O   UNL A   1      35.179  21.874  25.994  1.00  0.00    -0.460 OA
BRANCH   2   3
ATOM      3  C   UNL A   1      33.992  21.294  26.313  1.00  0.00     0.342 C 
ATOM      4  O   UNL A   1      33.679  20.862  27.409  1.00  0.00    -0.246 OA
BRANCH   3   5
ATOM      5  C   UNL A   1      33.130  21.208  25.119  1.00  0.00     0.104 A 
ATOM      6  C   UNL A   1      32.041  22.439  23.360  1.00  0.00     0.068 A 
ATOM      7  C   UNL A   1      32.009  21.253  22.642  1.00  0.00     0.140 A 
ATOM      8  C   UNL A   1      32.591  22.406  24.630  1.00  0.00     0.048 A 
ATOM      9  N   UNL A   1      32.436  20.064  23.138  1.00  0.00    -0.236 NA
ATOM     10  C   UNL A   1      32.998  20.026  24.373  1.00  0.00     0.143 A 
BRANCH   6  11
ATOM     11  N   UNL A   1      31.673  23.710  22.810  1.00  0.00    -0.278 N 
ATOM     12  H   UNL A   1      30.733  23.997  22.778  1.00  0.00     0.180 HD
BRANCH  11  13
ATOM     13  S   UNL A   1      32.926  24.713  22.209  1.00  0.00     0.261 S 
ATOM     14  O   UNL A   1      32.350  25.411  21.082  1.00  0.00    -0.201 OA
ATOM     15  O   UNL A   1      34.094  23.871  22.037  1.00  0.00    -0.201 OA
BRANCH  13  16
ATOM     16  C   UNL A   1      33.289  25.904  23.477  1.00  0.00     0.087 A 
ATOM     17  C   UNL A   1      33.744  27.786  25.511  1.00  0.00    -0.048 A 
ATOM     18  C   UNL A   1      33.767  28.173  24.162  1.00  0.00     0.005 A 
ATOM     19  C   UNL A   1      33.587  26.428  25.819  1.00  0.00     0.005 A 
ATOM     20  C   UNL A   1      33.514  27.242  23.147  1.00  0.00     0.022 A 
ATOM     21  C   UNL A   1      33.403  25.486  24.806  1.00  0.00     0.022 A 
BRANCH  17  22
ATOM     22  C   UNL A   1      33.902  28.794  26.632  1.00  0.00     0.038 C 
BRANCH  22  23
ATOM     23  C   UNL A   1      32.583  29.387  27.175  1.00  0.00    -0.013 C 
ATOM     24  C   UNL A   1      31.890  30.274  26.145  1.00  0.00     0.008 C 
ATOM     25  C   UNL A   1      31.624  28.262  27.579  1.00  0.00     0.008 C 
ENDBRANCH  22  23
ENDBRANCH  17  22
ENDBRANCH  13  16
ENDBRANCH  11  13
ENDBRANCH   6  11
BRANCH  10  26
ATOM     26  N   UNL A   1      33.336  18.777  24.819  1.00  0.00    -0.356 N 
ATOM     27  C   UNL A   1      34.360  17.982  24.164  1.00  0.00     0.118 C 
ATOM     28  C   UNL A   1      32.374  17.937  25.522  1.00  0.00     0.118 C 
ATOM     29  C   UNL A   1      33.661  16.649  23.929  1.00  0.00     0.023 C 
ATOM     30  C   UNL A   1      32.808  16.503  25.184  1.00  0.00     0.023 C 
ENDBRANCH  10  26
ENDBRANCH   3   5
ENDBRANCH   2   3
ENDBRANCH   1   2
BRANCH   1  31
ATOM     31  C   UNL A   1      37.297  21.781  24.720  1.00  0.00     0.202 C 
BRANCH  31  32
ATOM     32  O   UNL A   1      38.103  22.491  25.653  1.00  0.00    -0.374 OA
BRANCH  32  33
ATOM     33  C   UNL A   1      39.252  21.834  26.172  1.00  0.00     0.202 C 
BRANCH  33  34
ATOM     34  C   UNL A   1      39.604  20.429  25.663  1.00  0.00     0.261 C 
BRANCH  34  35
ATOM     35  O   UNL A   1      40.452  19.673  26.537  1.00  0.00    -0.460 OA
BRANCH  35  36
ATOM     36  C   UNL A   1      41.759  19.683  26.175  1.00  0.00     0.338 C 
ATOM     37  O   UNL A   1      42.342  18.877  25.470  1.00  0.00    -0.246 OA
BRANCH  36  38
ATOM     38  C   UNL A   1      42.392  20.930  26.632  1.00  0.00     0.060 A 
ATOM     39  C   UNL A   1      42.271  21.265  27.987  1.00  0.00     0.016 A 
ATOM     40  C   UNL A   1      43.004  21.803  25.731  1.00  0.00     0.016 A 
ATOM     41  C   UNL A   1      42.724  22.498  28.441  1.00  0.00     0.010 A 
ATOM     42  C   UNL A   1      43.442  23.050  26.184  1.00  0.00     0.010 A 
ATOM     43  C   UNL A   1      43.267  23.414  27.531  1.00  0.00    -0.014 A 
BRANCH  43  44
ATOM     44  C   UNL A   1      43.477  24.814  27.959  1.00  0.00     0.031 A 
ATOM     45  C   UNL A   1      44.885  25.306  28.140  1.00  0.00     0.074 A 
ATOM     46  C   UNL A   1      42.434  25.641  28.139  1.00  0.00     0.049 A 
ATOM     47  N   UNL A   1      45.311  26.485  28.510  1.00  0.00    -0.248 NA
ATOM     48  C   UNL A   1      45.956  24.335  27.862  1.00  0.00     0.031 C 
ATOM     49  C   UNL A   1      41.031  25.287  27.941  1.00  0.00     0.029 A 
ATOM     50  N   UNL A   1      42.402  26.955  28.528  1.00  0.00    -0.354 N 
ATOM     51  C   UNL A   1      46.698  26.399  28.507  1.00  0.00     0.074 A 
ATOM     52  C   UNL A   1      47.041  25.045  28.133  1.00  0.00     0.031 C 
ATOM     53  C   UNL A   1      40.270  26.361  28.214  1.00  0.00     0.029 A 
ATOM     54  C   UNL A   1      41.133  27.465  28.631  1.00  0.00     0.049 A 
ATOM     55  H   UNL A   1      43.213  27.482  28.715  1.00  0.00     0.167 HD
ATOM     56  C   UNL A   1      47.605  27.366  28.785  1.00  0.00     0.037 A 
ATOM     57  C   UNL A   1      40.720  28.682  29.031  1.00  0.00     0.037 A 
ATOM     58  C   UNL A   1      47.259  28.707  29.174  1.00  0.00     0.049 A 
ATOM     59  C   UNL A   1      41.743  29.713  29.426  1.00  0.00     0.074 A 
ATOM     60  C   UNL A   1      48.098  29.765  29.476  1.00  0.00     0.029 A 
ATOM     61  N   UNL A   1      45.959  29.170  29.325  1.00  0.00    -0.354 N 
ATOM     62  N   UNL A   1      43.052  29.630  29.407  1.00  0.00    -0.248 NA
ATOM     63  C   UNL A   1      41.231  31.006  29.899  1.00  0.00     0.031 C 
ATOM     64  C   UNL A   1      47.306  30.855  29.853  1.00  0.00     0.029 A 
ATOM     65  C   UNL A   1      45.973  30.491  29.740  1.00  0.00     0.049 A 
ATOM     66  H   UNL A   1      45.148  28.639  29.159  1.00  0.00     0.167 HD
ATOM     67  C   UNL A   1      43.520  30.864  29.840  1.00  0.00     0.074 A 
ATOM     68  C   UNL A   1      42.353  31.681  30.106  1.00  0.00     0.031 C 
ATOM     69  C   UNL A   1      44.799  31.286  30.000  1.00  0.00     0.037 A 
BRANCH  56  70
ATOM     70  C   UNL A   1      49.054  26.985  28.706  1.00  0.00     0.057 A 
ATOM     71  C   UNL A   1      49.722  26.393  29.786  1.00  0.00     0.134 A 
ATOM     72  C   UNL A   1      49.792  27.220  27.539  1.00  0.00     0.134 A 
ATOM     73  F   UNL A   1      49.077  26.158  30.939  1.00  0.00    -0.206 F 
ATOM     74  C   UNL A   1      51.081  26.077  29.719  1.00  0.00     0.040 A 
ATOM     75  C   UNL A   1      51.144  26.886  27.452  1.00  0.00     0.040 A 
ATOM     76  F   UNL A   1      49.212  27.783  26.469  1.00  0.00    -0.206 F 
ATOM     77  C   UNL A   1      51.795  26.321  28.547  1.00  0.00     0.006 A 
ENDBRANCH  56  70
BRANCH  57  78
ATOM     78  C   UNL A   1      39.270  28.992  29.079  1.00  0.00     0.057 A 
ATOM     79  C   UNL A   1      38.538  28.839  30.260  1.00  0.00     0.134 A 
ATOM     80  C   UNL A   1      38.584  29.446  27.946  1.00  0.00     0.134 A 
ATOM     81  F   UNL A   1      39.137  28.387  31.372  1.00  0.00    -0.206 F 
ATOM     82  C   UNL A   1      37.172  29.120  30.314  1.00  0.00     0.040 A 
ATOM     83  C   UNL A   1      37.223  29.751  27.991  1.00  0.00     0.040 A 
ATOM     84  F   UNL A   1      39.231  29.614  26.784  1.00  0.00    -0.206 F 
ATOM     85  C   UNL A   1      36.512  29.584  29.178  1.00  0.00     0.006 A 
ENDBRANCH  57  78
BRANCH  69  86
ATOM     86  C   UNL A   1      45.001  32.701  30.455  1.00  0.00     0.057 A 
ATOM     87  C   UNL A   1      45.137  33.030  31.808  1.00  0.00     0.134 A 
ATOM     88  C   UNL A   1      45.100  33.742  29.521  1.00  0.00     0.134 A 
ATOM     89  F   UNL A   1      45.039  32.080  32.751  1.00  0.00    -0.206 F 
ATOM     90  C   UNL A   1      45.345  34.347  32.221  1.00  0.00     0.040 A 
ATOM     91  C   UNL A   1      45.333  35.058  29.920  1.00  0.00     0.040 A 
ATOM     92  F   UNL A   1      44.987  33.492  28.208  1.00  0.00    -0.206 F 
ATOM     93  C   UNL A   1      45.451  35.365  31.274  1.00  0.00     0.006 A 
ENDBRANCH  69  86
ENDBRANCH  43  44
ENDBRANCH  36  38
ENDBRANCH  35  36
ENDBRANCH  34  35
ENDBRANCH  33  34
ENDBRANCH  32  33
ENDBRANCH  31  32
ENDBRANCH   1  31
TORSDOF 20
ENDMDL
MODEL 2
REMARK VINA RESULT:     -11.6      0.394      5.993
REMARK SMILES CC(C)Cc1ccc(S(=O)(=O)Nc2cnc(N3CCCC3)c(C(=O)OCCOCCOC(=O)c3ccc(-c4c5nc(c(-c6c(F)cccc6F)c6ccc([nH]6)c(-c6c(F)cccc6F)c6nc(c(-c7c(F)cccc7F)c7ccc4[nH]7)C=C6)C=C5)cc3)c2)cc1
REMARK SMILES IDX 26 1 25 2 23 3 24 4 22 5 13 6 14 7 88 8 15 9 16 10 12 11
REMARK SMILES IDX 9 13 10 14 11 15 8 16 5 17 6 18 90 19 7 20 89 21 4 22 2 23
REMARK SMILES IDX 1 24 3 25 17 26 18 27 21 28 19 29 20 30 27 31 28 32 29 33
REMARK SMILES IDX 30 34 31 35 32 36 33 37 34 38 35 39 87 40 36 41 86 42 37 43
REMARK SMILES IDX 38 44 39 45 80 46 40 47 85 48 79 49 81 50 41 51 84 52 78 53
REMARK SMILES IDX 77 54 42 56 68 57 51 58 67 59 52 60 55 61 66 62 82 63 53 64
REMARK SMILES IDX 54 65 65 67 83 68 56 69 43 70 44 71 49 72 45 73 46 74 48 75
REMARK SMILES IDX 50 76 47 77 69 78 70 79 75 80 71 81 72 82 74 83 76 84 73 85
REMARK SMILES IDX 57 86 58 87 63 88 59 89 60 90 62 91 64 92 61 93
REMARK H PARENT 12 12 81 55 55 66
REMARK Flexibility Score: inf
ROOT
ATOM      1  C   UNL A   1      36.052  21.116  25.235  1.00  0.00     0.261 C 
ENDROOT
BRANCH   1   2
ATOM      2  O   UNL A   1      35.120  21.890  26.006  1.00  0.00    -0.460 OA
BRANCH   2   3
ATOM      3  C   UNL A   1      33.955  21.252  26.293  1.00  0.00     0.342 C 
ATOM      4  O   UNL A   1      33.657  20.759  27.367  1.00  0.00    -0.246 OA
BRANCH   3   5
ATOM      5  C   UNL A   1      33.102  21.186  25.093  1.00  0.00     0.104 A 
ATOM      6  C   UNL A   1      32.020  22.447  23.350  1.00  0.00     0.068 A 
ATOM      7  C   UNL A   1      31.996  21.274  22.609  1.00  0.00     0.140 A 
ATOM      8  C   UNL A   1      32.563  22.391  24.623  1.00  0.00     0.048 A 
ATOM      9  N   UNL A   1      32.423  20.077  23.086  1.00  0.00    -0.236 NA
ATOM     10  C   UNL A   1      32.978  20.018  24.324  1.00  0.00     0.143 A 
BRANCH   6  11
ATOM     11  N   UNL A   1      31.652  23.727  22.822  1.00  0.00    -0.278 N 
ATOM     12  H   UNL A   1      30.714  24.024  22.816  1.00  0.00     0.180 HD
BRANCH  11  13
ATOM     13  S   UNL A   1      32.901  24.723  22.199  1.00  0.00     0.261 S 
ATOM     14  O   UNL A   1      32.312  25.418  21.078  1.00  0.00    -0.201 OA
ATOM     15  O   UNL A   1      34.064  23.876  22.016  1.00  0.00    -0.201 OA
BRANCH  13  16
ATOM     16  C   UNL A   1      33.285  25.919  23.458  1.00  0.00     0.087 A 
ATOM     17  C   UNL A   1      33.774  27.802  25.482  1.00  0.00    -0.048 A 
ATOM     18  C   UNL A   1      33.699  28.201  24.138  1.00  0.00     0.005 A 
ATOM     19  C   UNL A   1      33.698  26.436  25.784  1.00  0.00     0.005 A 
ATOM     20  C   UNL A   1      33.429  27.269  23.130  1.00  0.00     0.022 A 
ATOM     21  C   UNL A   1      33.497  25.495  24.773  1.00  0.00     0.022 A 
BRANCH  17  22
ATOM     22  C   UNL A   1      33.954  28.806  26.603  1.00  0.00     0.038 C 
BRANCH  22  23
ATOM     23  C   UNL A   1      32.644  29.380  27.189  1.00  0.00    -0.013 C 
ATOM     24  C   UNL A   1      31.933  30.301  26.201  1.00  0.00     0.008 C 
ATOM     25  C   UNL A   1      31.693  28.242  27.571  1.00  0.00     0.008 C 
ENDBRANCH  22  23
ENDBRANCH  17  22
ENDBRANCH  13  16
ENDBRANCH  11  13
ENDBRANCH   6  11
BRANCH  10  26
ATOM     26  N   UNL A   1      33.317  18.761  24.748  1.00  0.00    -0.356 N 
ATOM     27  C   UNL A   1      34.342  17.979  24.081  1.00  0.00     0.118 C 
ATOM     28  C   UNL A   1      32.354  17.908  25.434  1.00  0.00     0.118 C 
ATOM     29  C   UNL A   1      33.645  16.650  23.821  1.00  0.00     0.023 C 
ATOM     30  C   UNL A   1      32.790  16.481  25.072  1.00  0.00     0.023 C 
ENDBRANCH  10  26
ENDBRANCH   3   5
ENDBRANCH   2   3
ENDBRANCH   1   2
BRANCH   1  31
ATOM     31  C   UNL A   1      37.244  21.932  24.739  1.00  0.00     0.202 C 
BRANCH  31  32
ATOM     32  O   UNL A   1      37.984  22.693  25.686  1.00  0.00    -0.374 OA
BRANCH  32  33
ATOM     33  C   UNL A   1      39.173  22.121  26.214  1.00  0.00     0.202 C 
BRANCH  33  34
ATOM     34  C   UNL A   1      39.601  20.722  25.749  1.00  0.00     0.261 C 
BRANCH  34  35
ATOM     35  O   UNL A   1      40.515  20.054  26.628  1.00  0.00    -0.460 OA
BRANCH  35  36
ATOM     36  C   UNL A   1      41.782  19.990  26.152  1.00  0.00     0.338 C 
ATOM     37  O   UNL A   1      42.248  19.165  25.384  1.00  0.00    -0.246 OA
BRANCH  36  38
ATOM     38  C   UNL A   1      42.534  21.182  26.575  1.00  0.00     0.060 A 
ATOM     39  C   UNL A   1      42.549  21.493  27.941  1.00  0.00     0.016 A 
ATOM     40  C   UNL A   1      43.125  22.033  25.639  1.00  0.00     0.016 A 
ATOM     41  C   UNL A   1      43.120  22.684  28.375  1.00  0.00     0.010 A 
ATOM     42  C   UNL A   1      43.681  23.238  26.075  1.00  0.00     0.010 A 
ATOM     43  C   UNL A   1      43.644  23.583  27.437  1.00  0.00    -0.014 A 
BRANCH  43  44
ATOM     44  C   UNL A   1      43.982  24.956  27.870  1.00  0.00     0.031 A 
ATOM     45  C   UNL A   1      42.862  25.920  28.142  1.00  0.00     0.074 A 
ATOM     46  C   UNL A   1      45.260  25.322  28.059  1.00  0.00     0.049 A 
ATOM     47  N   UNL A   1      42.915  27.169  28.525  1.00  0.00    -0.248 NA
ATOM     48  C   UNL A   1      41.496  25.401  27.958  1.00  0.00     0.031 C 
ATOM     49  C   UNL A   1      46.423  24.455  27.878  1.00  0.00     0.029 A 
ATOM     50  N   UNL A   1      45.789  26.524  28.451  1.00  0.00    -0.354 N 
ATOM     51  C   UNL A   1      41.594  27.584  28.632  1.00  0.00     0.074 A 
ATOM     52  C   UNL A   1      40.762  26.467  28.240  1.00  0.00     0.031 C 
ATOM     53  C   UNL A   1      47.534  25.158  28.156  1.00  0.00     0.029 A 
ATOM     54  C   UNL A   1      47.160  26.527  28.506  1.00  0.00     0.049 A 
ATOM     55  H   UNL A   1      45.239  27.310  28.672  1.00  0.00     0.167 HD
ATOM     56  C   UNL A   1      41.116  28.787  29.028  1.00  0.00     0.037 A 
ATOM     57  C   UNL A   1      48.012  27.529  28.795  1.00  0.00     0.037 A 
ATOM     58  C   UNL A   1      41.947  29.901  29.401  1.00  0.00     0.049 A 
ATOM     59  C   UNL A   1      47.461  28.886  29.142  1.00  0.00     0.074 A 
ATOM     60  C   UNL A   1      41.566  31.164  29.819  1.00  0.00     0.029 A 
ATOM     61  N   UNL A   1      43.335  29.884  29.388  1.00  0.00    -0.354 N 
ATOM     62  N   UNL A   1      46.210  29.268  29.254  1.00  0.00    -0.248 NA
ATOM     63  C   UNL A   1      48.439  29.951  29.400  1.00  0.00     0.031 C 
ATOM     64  C   UNL A   1      42.725  31.925  30.016  1.00  0.00     0.029 A 
ATOM     65  C   UNL A   1      43.826  31.122  29.766  1.00  0.00     0.049 A 
ATOM     66  H   UNL A   1      43.887  29.107  29.146  1.00  0.00     0.167 HD
ATOM     67  C   UNL A   1      46.252  30.607  29.621  1.00  0.00     0.074 A 
ATOM     68  C   UNL A   1      47.651  30.968  29.720  1.00  0.00     0.031 C 
ATOM     69  C   UNL A   1      45.225  31.461  29.858  1.00  0.00     0.037 A 
BRANCH  56  70
ATOM     70  C   UNL A   1      39.625  28.958  29.043  1.00  0.00     0.057 A 
ATOM     71  C   UNL A   1      38.910  29.311  27.891  1.00  0.00     0.134 A 
ATOM     72  C   UNL A   1      38.897  28.776  30.225  1.00  0.00     0.134 A 
ATOM     73  F   UNL A   1      39.551  29.518  26.730  1.00  0.00    -0.206 F 
ATOM     74  C   UNL A   1      37.528  29.507  27.921  1.00  0.00     0.040 A 
ATOM     75  C   UNL A   1      37.512  28.945  30.261  1.00  0.00     0.040 A 
ATOM     76  F   UNL A   1      39.520  28.437  31.363  1.00  0.00    -0.206 F 
ATOM     77  C   UNL A   1      36.825  29.320  29.109  1.00  0.00     0.006 A 
ENDBRANCH  56  70
BRANCH  57  78
ATOM     78  C   UNL A   1      49.475  27.286  28.767  1.00  0.00     0.057 A 
ATOM     79  C   UNL A   1      50.208  27.432  27.585  1.00  0.00     0.134 A 
ATOM     80  C   UNL A   1      50.173  26.903  29.919  1.00  0.00     0.134 A 
ATOM     81  F   UNL A   1      49.591  27.777  26.446  1.00  0.00    -0.206 F 
ATOM     82  C   UNL A   1      51.584  27.199  27.546  1.00  0.00     0.040 A 
ATOM     83  C   UNL A   1      51.551  26.687  29.899  1.00  0.00     0.040 A 
ATOM     84  F   UNL A   1      49.525  26.747  31.083  1.00  0.00    -0.206 F 
ATOM     85  C   UNL A   1      52.260  26.831  28.708  1.00  0.00     0.006 A 
ENDBRANCH  57  78
BRANCH  69  86
ATOM     86  C   UNL A   1      45.578  32.858  30.276  1.00  0.00     0.057 A 
ATOM     87  C   UNL A   1      45.721  33.893  29.345  1.00  0.00     0.134 A 
ATOM     88  C   UNL A   1      45.738  33.176  31.631  1.00  0.00     0.134 A 
ATOM     89  F   UNL A   1      45.593  33.649  28.032  1.00  0.00    -0.206 F 
ATOM     90  C   UNL A   1      46.030  35.194  29.745  1.00  0.00     0.040 A 
ATOM     91  C   UNL A   1      46.023  34.478  32.044  1.00  0.00     0.040 A 
ATOM     92  F   UNL A   1      45.606  32.230  32.573  1.00  0.00    -0.206 F 
ATOM     93  C   UNL A   1      46.175  35.490  31.100  1.00  0.00     0.006 A 
ENDBRANCH  69  86
ENDBRANCH  43  44
ENDBRANCH  36  38
ENDBRANCH  35  36
ENDBRANCH  34  35
ENDBRANCH  33  34
ENDBRANCH  32  33
ENDBRANCH  31  32
ENDBRANCH   1  31
TORSDOF 20
ENDMDL
MODEL 3
REMARK VINA RESULT:     -11.0      4.356      7.937
REMARK SMILES CC(C)Cc1ccc(S(=O)(=O)Nc2cnc(N3CCCC3)c(C(=O)OCCOCCOC(=O)c3ccc(-c4c5nc(c(-c6c(F)cccc6F)c6ccc([nH]6)c(-c6c(F)cccc6F)c6nc(c(-c7c(F)cccc7F)c7ccc4[nH]7)C=C6)C=C5)cc3)c2)cc1
REMARK SMILES IDX 26 1 25 2 23 3 24 4 22 5 13 6 14 7 88 8 15 9 16 10 12 11
REMARK SMILES IDX 9 13 10 14 11 15 8 16 5 17 6 18 90 19 7 20 89 21 4 22 2 23
REMARK SMILES IDX 1 24 3 25 17 26 18 27 21 28 19 29 20 30 27 31 28 32 29 33
REMARK SMILES IDX 30 34 31 35 32 36 33 37 34 38 35 39 87 40 36 41 86 42 37 43
REMARK SMILES IDX 38 44 39 45 80 46 40 47 85 48 79 49 81 50 41 51 84 52 78 53
REMARK SMILES IDX 77 54 42 56 68 57 51 58 67 59 52 60 55 61 66 62 82 63 53 64
REMARK SMILES IDX 54 65 65 67 83 68 56 69 43 70 44 71 49 72 45 73 46 74 48 75
REMARK SMILES IDX 50 76 47 77 69 78 70 79 75 80 71 81 72 82 74 83 76 84 73 85
REMARK SMILES IDX 57 86 58 87 63 88 59 89 60 90 62 91 64 92 61 93
REMARK H PARENT 12 12 81 55 55 66
REMARK Flexibility Score: inf
ROOT
ATOM      1  C   UNL A   1      34.945  22.032  27.122  1.00  0.00     0.261 C 
ENDROOT
BRANCH   1   2
ATOM      2  O   UNL A   1      33.940  21.259  26.448  1.00  0.00    -0.460 OA
BRANCH   2   3
ATOM      3  C   UNL A   1      34.328  20.751  25.248  1.00  0.00     0.342 C 
ATOM      4  O   UNL A   1      35.364  20.148  25.029  1.00  0.00    -0.246 OA
BRANCH   3   5
ATOM      5  C   UNL A   1      33.333  21.079  24.211  1.00  0.00     0.104 A 
ATOM      6  C   UNL A   1      32.557  22.744  22.654  1.00  0.00     0.068 A 
ATOM      7  C   UNL A   1      31.959  21.710  21.950  1.00  0.00     0.140 A 
ATOM      8  C   UNL A   1      33.235  22.420  23.818  1.00  0.00     0.048 A 
ATOM      9  N   UNL A   1      31.959  20.418  22.369  1.00  0.00    -0.236 NA
ATOM     10  C   UNL A   1      32.641  20.089  23.496  1.00  0.00     0.143 A 
BRANCH   6  11
ATOM     11  N   UNL A   1      32.635  24.091  22.173  1.00  0.00    -0.278 N 
ATOM     12  H   UNL A   1      33.371  24.380  21.587  1.00  0.00     0.180 HD
BRANCH  11  13
ATOM     13  S   UNL A   1      31.403  25.183  22.651  1.00  0.00     0.261 S 
ATOM     14  O   UNL A   1      30.321  24.353  23.126  1.00  0.00    -0.201 OA
ATOM     15  O   UNL A   1      31.201  26.100  21.546  1.00  0.00    -0.201 OA
BRANCH  13  16
ATOM     16  C   UNL A   1      32.041  26.112  24.026  1.00  0.00     0.087 A 
ATOM     17  C   UNL A   1      33.027  27.683  26.134  1.00  0.00    -0.048 A 
ATOM     18  C   UNL A   1      33.902  26.936  25.330  1.00  0.00     0.005 A 
ATOM     19  C   UNL A   1      31.647  27.554  25.927  1.00  0.00     0.005 A 
ATOM     20  C   UNL A   1      33.416  26.173  24.262  1.00  0.00     0.022 A 
ATOM     21  C   UNL A   1      31.155  26.741  24.906  1.00  0.00     0.022 A 
BRANCH  17  22
ATOM     22  C   UNL A   1      33.537  28.604  27.224  1.00  0.00     0.038 C 
BRANCH  22  23
ATOM     23  C   UNL A   1      33.633  30.096  26.834  1.00  0.00    -0.013 C 
ATOM     24  C   UNL A   1      32.272  30.785  26.876  1.00  0.00     0.008 C 
ATOM     25  C   UNL A   1      34.584  30.831  27.783  1.00  0.00     0.008 C 
ENDBRANCH  22  23
ENDBRANCH  17  22
ENDBRANCH  13  16
ENDBRANCH  11  13
ENDBRANCH   6  11
BRANCH  10  26
ATOM     26  N   UNL A   1      32.529  18.779  23.879  1.00  0.00    -0.356 N 
ATOM     27  C   UNL A   1      32.526  18.389  25.278  1.00  0.00     0.118 C 
ATOM     28  C   UNL A   1      32.997  17.697  23.022  1.00  0.00     0.118 C 
ATOM     29  C   UNL A   1      33.592  17.303  25.334  1.00  0.00     0.023 C 
ATOM     30  C   UNL A   1      33.395  16.585  24.004  1.00  0.00     0.023 C 
ENDBRANCH  10  26
ENDBRANCH   3   5
ENDBRANCH   2   3
ENDBRANCH   1   2
BRANCH   1  31
ATOM     31  C   UNL A   1      35.209  23.382  26.459  1.00  0.00     0.202 C 
BRANCH  31  32
ATOM     32  O   UNL A   1      36.218  23.459  25.459  1.00  0.00    -0.374 OA
BRANCH  32  33
ATOM     33  C   UNL A   1      37.529  23.034  25.806  1.00  0.00     0.202 C 
BRANCH  33  34
ATOM     34  C   UNL A   1      38.584  24.085  26.179  1.00  0.00     0.261 C 
BRANCH  34  35
ATOM     35  O   UNL A   1      39.778  23.552  26.765  1.00  0.00    -0.460 OA
BRANCH  35  36
ATOM     36  C   UNL A   1      40.811  24.430  26.796  1.00  0.00     0.338 C 
ATOM     37  O   UNL A   1      41.841  24.391  26.145  1.00  0.00    -0.246 OA
BRANCH  36  38
ATOM     38  C   UNL A   1      40.460  25.580  27.646  1.00  0.00     0.060 A 
ATOM     39  C   UNL A   1      41.298  26.702  27.601  1.00  0.00     0.016 A 
ATOM     40  C   UNL A   1      39.392  25.518  28.541  1.00  0.00     0.016 A 
ATOM     41  C   UNL A   1      41.096  27.754  28.487  1.00  0.00     0.010 A 
ATOM     42  C   UNL A   1      39.201  26.567  29.444  1.00  0.00     0.010 A 
ATOM     43  C   UNL A   1      40.076  27.668  29.444  1.00  0.00    -0.014 A 
BRANCH  43  44
ATOM     44  C   UNL A   1      40.049  28.643  30.555  1.00  0.00     0.031 A 
ATOM     45  C   UNL A   1      39.069  29.780  30.489  1.00  0.00     0.074 A 
ATOM     46  C   UNL A   1      40.851  28.491  31.622  1.00  0.00     0.049 A 
ATOM     47  N   UNL A   1      38.868  30.753  31.339  1.00  0.00    -0.248 NA
ATOM     48  C   UNL A   1      38.198  29.823  29.303  1.00  0.00     0.031 C 
ATOM     49  C   UNL A   1      41.800  27.398  31.817  1.00  0.00     0.029 A 
ATOM     50  N   UNL A   1      40.987  29.265  32.745  1.00  0.00    -0.354 N 
ATOM     51  C   UNL A   1      37.847  31.521  30.793  1.00  0.00     0.074 A 
ATOM     52  C   UNL A   1      37.494  30.922  29.525  1.00  0.00     0.031 C 
ATOM     53  C   UNL A   1      42.426  27.573  32.993  1.00  0.00     0.029 A 
ATOM     54  C   UNL A   1      41.941  28.802  33.617  1.00  0.00     0.049 A 
ATOM     55  H   UNL A   1      40.451  30.074  32.911  1.00  0.00     0.167 HD
ATOM     56  C   UNL A   1      37.251  32.623  31.308  1.00  0.00     0.037 A 
ATOM     57  C   UNL A   1      42.377  29.325  34.778  1.00  0.00     0.037 A 
ATOM     58  C   UNL A   1      37.617  33.225  32.562  1.00  0.00     0.049 A 
ATOM     59  C   UNL A   1      41.766  30.603  35.285  1.00  0.00     0.074 A 
ATOM     60  C   UNL A   1      37.078  34.341  33.177  1.00  0.00     0.029 A 
ATOM     61  N   UNL A   1      38.630  32.761  33.390  1.00  0.00    -0.354 N 
ATOM     62  N   UNL A   1      40.791  31.316  34.772  1.00  0.00    -0.248 NA
ATOM     63  C   UNL A   1      42.316  31.150  36.532  1.00  0.00     0.031 C 
ATOM     64  C   UNL A   1      37.795  34.578  34.355  1.00  0.00     0.029 A 
ATOM     65  C   UNL A   1      38.749  33.583  34.498  1.00  0.00     0.049 A 
ATOM     66  H   UNL A   1      39.181  31.965  33.215  1.00  0.00     0.167 HD
ATOM     67  C   UNL A   1      40.594  32.378  35.644  1.00  0.00     0.074 A 
ATOM     68  C   UNL A   1      41.545  32.212  36.723  1.00  0.00     0.031 C 
ATOM     69  C   UNL A   1      39.704  33.399  35.562  1.00  0.00     0.037 A 
BRANCH  56  70
ATOM     70  C   UNL A   1      36.166  33.257  30.489  1.00  0.00     0.057 A 
ATOM     71  C   UNL A   1      34.810  33.089  30.801  1.00  0.00     0.134 A 
ATOM     72  C   UNL A   1      36.479  34.037  29.368  1.00  0.00     0.134 A 
ATOM     73  F   UNL A   1      34.442  32.339  31.851  1.00  0.00    -0.206 F 
ATOM     74  C   UNL A   1      33.804  33.650  30.011  1.00  0.00     0.040 A 
ATOM     75  C   UNL A   1      35.483  34.622  28.586  1.00  0.00     0.040 A 
ATOM     76  F   UNL A   1      37.757  34.236  29.014  1.00  0.00    -0.206 F 
ATOM     77  C   UNL A   1      34.141  34.422  28.901  1.00  0.00     0.006 A 
ENDBRANCH  56  70
BRANCH  57  78
ATOM     78  C   UNL A   1      43.450  28.640  35.539  1.00  0.00     0.057 A 
ATOM     79  C   UNL A   1      44.797  28.956  35.332  1.00  0.00     0.134 A 
ATOM     80  C   UNL A   1      43.156  27.655  36.489  1.00  0.00     0.134 A 
ATOM     81  F   UNL A   1      45.141  29.876  34.419  1.00  0.00    -0.206 F 
ATOM     82  C   UNL A   1      45.815  28.313  36.037  1.00  0.00     0.040 A 
ATOM     83  C   UNL A   1      44.162  27.018  37.217  1.00  0.00     0.040 A 
ATOM     84  F   UNL A   1      41.883  27.309  36.734  1.00  0.00    -0.206 F 
ATOM     85  C   UNL A   1      45.497  27.345  36.987  1.00  0.00     0.006 A 
ENDBRANCH  57  78
BRANCH  69  86
ATOM     86  C   UNL A   1      39.699  34.395  36.684  1.00  0.00     0.057 A 
ATOM     87  C   UNL A   1      40.393  35.607  36.599  1.00  0.00     0.134 A 
ATOM     88  C   UNL A   1      38.956  34.152  37.847  1.00  0.00     0.134 A 
ATOM     89  F   UNL A   1      41.132  35.892  35.516  1.00  0.00    -0.206 F 
ATOM     90  C   UNL A   1      40.366  36.536  37.640  1.00  0.00     0.040 A 
ATOM     91  C   UNL A   1      38.901  35.085  38.884  1.00  0.00     0.040 A 
ATOM     92  F   UNL A   1      38.262  33.013  37.988  1.00  0.00    -0.206 F 
ATOM     93  C   UNL A   1      39.612  36.278  38.784  1.00  0.00     0.006 A 
ENDBRANCH  69  86
ENDBRANCH  43  44
ENDBRANCH  36  38
ENDBRANCH  35  36
ENDBRANCH  34  35
ENDBRANCH  33  34
ENDBRANCH  32  33
ENDBRANCH  31  32
ENDBRANCH   1  31
TORSDOF 20
ENDMDL
