MODEL 1
REMARK VINA RESULT:     -11.3      0.000      0.000
REMARK SMILES Cc1cc(C)c(C(N)=O)c(N[C@H]2C=C[C@H](C(=O)OCCOCCOC(=O)c3ccc(-c4c5nc(c(-c6c(F)cccc6F)c6ccc([nH]6)c(-c6c(F)cccc6F)c6nc(c(-c7c(F)cccc7F)c7ccc4[nH]7)C=C6)C=C5)cc3)C2)n1
REMARK SMILES IDX 20 1 19 2 18 3 16 4 17 5 15 6 12 7 13 8 81 9 14 10 11 11
REMARK SMILES IDX 10 13 1 14 2 15 3 16 82 17 4 18 5 19 6 20 7 21 8 22 9 23
REMARK SMILES IDX 21 26 22 27 23 28 24 29 25 30 26 31 27 32 28 33 80 34 29 35
REMARK SMILES IDX 79 36 30 37 31 38 32 39 73 40 33 41 78 42 72 43 74 44 34 45
REMARK SMILES IDX 77 46 71 47 70 48 35 50 61 51 44 52 60 53 45 54 48 55 59 56
REMARK SMILES IDX 75 57 46 58 47 59 58 61 76 62 49 63 36 64 37 65 42 66 38 67
REMARK SMILES IDX 39 68 41 69 43 70 40 71 62 72 63 73 68 74 64 75 65 76 67 77
REMARK SMILES IDX 69 78 66 79 50 80 51 81 56 82 52 83 53 84 55 85 57 86 54 87
REMARK H PARENT 11 12 8 24 8 25 74 49 48 60
REMARK Flexibility Score: inf
ROOT
ATOM      1  C   UNL A   1      41.182  19.956  26.439  1.00  0.00     0.202 C 
ENDROOT
BRANCH   1   2
ATOM      2  C   UNL A   1      40.229  21.089  26.821  1.00  0.00     0.261 C 
BRANCH   2   3
ATOM      3  O   UNL A   1      39.435  21.458  25.685  1.00  0.00    -0.463 OA
BRANCH   3   4
ATOM      4  C   UNL A   1      38.584  22.503  25.877  1.00  0.00     0.312 C 
ATOM      5  O   UNL A   1      38.733  23.393  26.705  1.00  0.00    -0.252 OA
BRANCH   4   6
ATOM      6  C   UNL A   1      37.474  22.469  24.838  1.00  0.00     0.124 C 
ATOM      7  C   UNL A   1      35.374  22.977  25.939  1.00  0.00     0.104 C 
ATOM      8  C   UNL A   1      35.472  21.522  25.607  1.00  0.00    -0.006 C 
ATOM      9  C   UNL A   1      36.493  23.621  25.114  1.00  0.00     0.048 C 
ATOM     10  C   UNL A   1      36.632  21.241  24.998  1.00  0.00    -0.014 C 
BRANCH   7  11
ATOM     11  N   UNL A   1      34.060  23.533  25.689  1.00  0.00    -0.363 N 
ATOM     12  H   UNL A   1      33.281  22.986  25.941  1.00  0.00     0.162 HD
BRANCH  11  13
ATOM     13  C   UNL A   1      33.813  24.777  25.123  1.00  0.00     0.139 A 
ATOM     14  C   UNL A   1      33.659  28.229  26.405  1.00  0.00     0.067 C 
ATOM     15  C   UNL A   1      33.641  27.088  25.437  1.00  0.00     0.040 A 
ATOM     16  C   UNL A   1      33.390  27.304  24.092  1.00  0.00     0.028 A 
ATOM     17  N   UNL A   1      33.865  25.856  25.937  1.00  0.00    -0.236 NA
ATOM     18  C   UNL A   1      33.366  26.214  23.215  1.00  0.00    -0.033 A 
ATOM     19  C   UNL A   1      33.107  26.492  21.760  1.00  0.00     0.045 C 
ATOM     20  C   UNL A   1      33.557  24.920  23.745  1.00  0.00     0.084 A 
BRANCH  20  21
ATOM     21  C   UNL A   1      33.454  23.725  22.859  1.00  0.00     0.252 C 
ATOM     22  N   UNL A   1      32.207  23.202  22.653  1.00  0.00    -0.365 N 
ATOM     23  O   UNL A   1      34.434  23.221  22.324  1.00  0.00    -0.269 OA
ATOM     24  H   UNL A   1      31.424  23.612  23.086  1.00  0.00     0.159 HD
ATOM     25  H   UNL A   1      32.093  22.416  22.070  1.00  0.00     0.159 HD
ENDBRANCH  20  21
ENDBRANCH  11  13
ENDBRANCH   7  11
ENDBRANCH   4   6
ENDBRANCH   3   4
ENDBRANCH   2   3
ENDBRANCH   1   2
BRANCH   1  26
ATOM     26  O   UNL A   1      42.215  20.306  25.517  1.00  0.00    -0.374 OA
BRANCH  26  27
ATOM     27  C   UNL A   1      43.281  21.129  25.994  1.00  0.00     0.202 C 
BRANCH  27  28
ATOM     28  C   UNL A   1      44.032  21.950  24.939  1.00  0.00     0.261 C 
BRANCH  28  29
ATOM     29  O   UNL A   1      43.356  23.188  24.650  1.00  0.00    -0.460 OA
BRANCH  29  30
ATOM     30  C   UNL A   1      44.052  24.303  24.968  1.00  0.00     0.338 C 
ATOM     31  O   UNL A   1      45.137  24.653  24.524  1.00  0.00    -0.246 OA
BRANCH  30  32
ATOM     32  C   UNL A   1      43.239  25.182  25.826  1.00  0.00     0.060 A 
ATOM     33  C   UNL A   1      43.652  26.514  25.959  1.00  0.00     0.016 A 
ATOM     34  C   UNL A   1      42.157  24.695  26.562  1.00  0.00     0.016 A 
ATOM     35  C   UNL A   1      43.022  27.351  26.877  1.00  0.00     0.010 A 
ATOM     36  C   UNL A   1      41.532  25.533  27.492  1.00  0.00     0.010 A 
ATOM     37  C   UNL A   1      41.992  26.850  27.683  1.00  0.00    -0.014 A 
BRANCH  37  38
ATOM     38  C   UNL A   1      41.531  27.647  28.843  1.00  0.00     0.031 A 
ATOM     39  C   UNL A   1      42.280  27.529  30.143  1.00  0.00     0.074 A 
ATOM     40  C   UNL A   1      40.495  28.496  28.734  1.00  0.00     0.049 A 
ATOM     41  N   UNL A   1      42.051  28.116  31.290  1.00  0.00    -0.248 NA
ATOM     42  C   UNL A   1      43.443  26.626  30.149  1.00  0.00     0.031 C 
ATOM     43  C   UNL A   1      39.718  28.730  27.518  1.00  0.00     0.029 A 
ATOM     44  N   UNL A   1      39.919  29.318  29.669  1.00  0.00    -0.354 N 
ATOM     45  C   UNL A   1      43.037  27.652  32.153  1.00  0.00     0.074 A 
ATOM     46  C   UNL A   1      43.848  26.714  31.407  1.00  0.00     0.031 C 
ATOM     47  C   UNL A   1      38.757  29.631  27.784  1.00  0.00     0.029 A 
ATOM     48  C   UNL A   1      38.837  30.016  29.193  1.00  0.00     0.049 A 
ATOM     49  H   UNL A   1      40.249  29.399  30.593  1.00  0.00     0.167 HD
ATOM     50  C   UNL A   1      43.253  27.984  33.447  1.00  0.00     0.037 A 
ATOM     51  C   UNL A   1      37.999  30.858  29.829  1.00  0.00     0.037 A 
ATOM     52  C   UNL A   1      42.451  28.920  34.188  1.00  0.00     0.049 A 
ATOM     53  C   UNL A   1      38.223  31.165  31.286  1.00  0.00     0.074 A 
ATOM     54  C   UNL A   1      42.596  29.332  35.501  1.00  0.00     0.029 A 
ATOM     55  N   UNL A   1      41.347  29.587  33.678  1.00  0.00    -0.354 N 
ATOM     56  N   UNL A   1      39.168  30.735  32.087  1.00  0.00    -0.248 NA
ATOM     57  C   UNL A   1      37.265  32.078  31.926  1.00  0.00     0.031 C 
ATOM     58  C   UNL A   1      41.555  30.219  35.798  1.00  0.00     0.029 A 
ATOM     59  C   UNL A   1      40.790  30.393  34.656  1.00  0.00     0.049 A 
ATOM     60  H   UNL A   1      41.010  29.499  32.757  1.00  0.00     0.167 HD
ATOM     61  C   UNL A   1      38.937  31.347  33.313  1.00  0.00     0.074 A 
ATOM     62  C   UNL A   1      37.766  32.184  33.148  1.00  0.00     0.031 C 
ATOM     63  C   UNL A   1      39.631  31.229  34.471  1.00  0.00     0.037 A 
BRANCH  50  64
ATOM     64  C   UNL A   1      44.395  27.311  34.149  1.00  0.00     0.057 A 
ATOM     65  C   UNL A   1      44.242  26.075  34.791  1.00  0.00     0.134 A 
ATOM     66  C   UNL A   1      45.667  27.896  34.164  1.00  0.00     0.134 A 
ATOM     67  F   UNL A   1      43.045  25.472  34.828  1.00  0.00    -0.206 F 
ATOM     68  C   UNL A   1      45.311  25.456  35.442  1.00  0.00     0.040 A 
ATOM     69  C   UNL A   1      46.748  27.274  34.790  1.00  0.00     0.040 A 
ATOM     70  F   UNL A   1      45.880  29.078  33.566  1.00  0.00    -0.206 F 
ATOM     71  C   UNL A   1      46.570  26.053  35.437  1.00  0.00     0.006 A 
ENDBRANCH  50  64
BRANCH  51  72
ATOM     72  C   UNL A   1      36.862  31.467  29.096  1.00  0.00     0.057 A 
ATOM     73  C   UNL A   1      36.897  32.803  28.680  1.00  0.00     0.134 A 
ATOM     74  C   UNL A   1      35.703  30.734  28.815  1.00  0.00     0.134 A 
ATOM     75  F   UNL A   1      37.971  33.563  28.943  1.00  0.00    -0.206 F 
ATOM     76  C   UNL A   1      35.816  33.393  28.025  1.00  0.00     0.040 A 
ATOM     77  C   UNL A   1      34.623  31.304  28.139  1.00  0.00     0.040 A 
ATOM     78  F   UNL A   1      35.607  29.449  29.188  1.00  0.00    -0.206 F 
ATOM     79  C   UNL A   1      34.676  32.640  27.748  1.00  0.00     0.006 A 
ENDBRANCH  51  72
BRANCH  63  80
ATOM     80  C   UNL A   1      39.171  32.052  35.637  1.00  0.00     0.057 A 
ATOM     81  C   UNL A   1      39.565  33.386  35.801  1.00  0.00     0.134 A 
ATOM     82  C   UNL A   1      38.287  31.516  36.582  1.00  0.00     0.134 A 
ATOM     83  F   UNL A   1      40.419  33.954  34.937  1.00  0.00    -0.206 F 
ATOM     84  C   UNL A   1      39.111  34.151  36.877  1.00  0.00     0.040 A 
ATOM     85  C   UNL A   1      37.807  32.278  37.647  1.00  0.00     0.040 A 
ATOM     86  F   UNL A   1      37.865  30.247  36.476  1.00  0.00    -0.206 F 
ATOM     87  C   UNL A   1      38.224  33.599  37.799  1.00  0.00     0.006 A 
ENDBRANCH  63  80
ENDBRANCH  37  38
ENDBRANCH  30  32
ENDBRANCH  29  30
ENDBRANCH  28  29
ENDBRANCH  27  28
ENDBRANCH  26  27
ENDBRANCH   1  26
TORSDOF 17
ENDMDL
MODEL 2
REMARK VINA RESULT:     -10.8      0.986      1.653
REMARK SMILES Cc1cc(C)c(C(N)=O)c(N[C@H]2C=C[C@H](C(=O)OCCOCCOC(=O)c3ccc(-c4c5nc(c(-c6c(F)cccc6F)c6ccc([nH]6)c(-c6c(F)cccc6F)c6nc(c(-c7c(F)cccc7F)c7ccc4[nH]7)C=C6)C=C5)cc3)C2)n1
REMARK SMILES IDX 20 1 19 2 18 3 16 4 17 5 15 6 12 7 13 8 81 9 14 10 11 11
REMARK SMILES IDX 10 13 1 14 2 15 3 16 82 17 4 18 5 19 6 20 7 21 8 22 9 23
REMARK SMILES IDX 21 26 22 27 23 28 24 29 25 30 26 31 27 32 28 33 80 34 29 35
REMARK SMILES IDX 79 36 30 37 31 38 32 39 73 40 33 41 78 42 72 43 74 44 34 45
REMARK SMILES IDX 77 46 71 47 70 48 35 50 61 51 44 52 60 53 45 54 48 55 59 56
REMARK SMILES IDX 75 57 46 58 47 59 58 61 76 62 49 63 36 64 37 65 42 66 38 67
REMARK SMILES IDX 39 68 41 69 43 70 40 71 62 72 63 73 68 74 64 75 65 76 67 77
REMARK SMILES IDX 69 78 66 79 50 80 51 81 56 82 52 83 53 84 55 85 57 86 54 87
REMARK H PARENT 11 12 8 24 8 25 74 49 48 60
REMARK Flexibility Score: inf
ROOT
ATOM      1  C   UNL A   1      40.826  20.495  26.746  1.00  0.00     0.202 C 
ENDROOT
BRANCH   1   2
ATOM      2  C   UNL A   1      39.999  21.756  26.492  1.00  0.00     0.261 C 
BRANCH   2   3
ATOM      3  O   UNL A   1      38.846  21.429  25.704  1.00  0.00    -0.463 OA
BRANCH   3   4
ATOM      4  C   UNL A   1      37.921  22.420  25.577  1.00  0.00     0.312 C 
ATOM      5  O   UNL A   1      37.928  23.477  26.196  1.00  0.00    -0.252 OA
BRANCH   4   6
ATOM      6  C   UNL A   1      36.936  22.074  24.471  1.00  0.00     0.124 C 
ATOM      7  C   UNL A   1      35.063  23.609  24.601  1.00  0.00     0.104 C 
ATOM      8  C   UNL A   1      34.686  22.252  25.104  1.00  0.00    -0.006 C 
ATOM      9  C   UNL A   1      36.385  23.376  23.864  1.00  0.00     0.048 C 
ATOM     10  C   UNL A   1      35.720  21.403  25.031  1.00  0.00    -0.014 C 
BRANCH   7  11
ATOM     11  N   UNL A   1      34.034  24.225  23.790  1.00  0.00    -0.363 N 
ATOM     12  H   UNL A   1      33.911  23.881  22.875  1.00  0.00     0.162 HD
BRANCH  11  13
ATOM     13  C   UNL A   1      33.205  25.261  24.201  1.00  0.00     0.139 A 
ATOM     14  C   UNL A   1      33.719  28.797  25.104  1.00  0.00     0.067 C 
ATOM     15  C   UNL A   1      33.013  27.507  24.819  1.00  0.00     0.040 A 
ATOM     16  C   UNL A   1      31.640  27.403  24.970  1.00  0.00     0.028 A 
ATOM     17  N   UNL A   1      33.774  26.466  24.426  1.00  0.00    -0.236 NA
ATOM     18  C   UNL A   1      31.013  26.179  24.709  1.00  0.00    -0.033 A 
ATOM     19  C   UNL A   1      29.520  26.111  24.869  1.00  0.00     0.045 C 
ATOM     20  C   UNL A   1      31.815  25.078  24.340  1.00  0.00     0.084 A 
BRANCH  20  21
ATOM     21  C   UNL A   1      31.196  23.737  24.137  1.00  0.00     0.252 C 
ATOM     22  N   UNL A   1      30.688  23.461  22.897  1.00  0.00    -0.365 N 
ATOM     23  O   UNL A   1      31.139  22.900  25.030  1.00  0.00    -0.269 OA
ATOM     24  H   UNL A   1      30.737  24.137  22.184  1.00  0.00     0.159 HD
ATOM     25  H   UNL A   1      30.274  22.585  22.718  1.00  0.00     0.159 HD
ENDBRANCH  20  21
ENDBRANCH  11  13
ENDBRANCH   7  11
ENDBRANCH   4   6
ENDBRANCH   3   4
ENDBRANCH   2   3
ENDBRANCH   1   2
BRANCH   1  26
ATOM     26  O   UNL A   1      42.024  20.381  25.976  1.00  0.00    -0.374 OA
BRANCH  26  27
ATOM     27  C   UNL A   1      43.084  21.298  26.256  1.00  0.00     0.202 C 
BRANCH  27  28
ATOM     28  C   UNL A   1      43.781  21.921  25.041  1.00  0.00     0.261 C 
BRANCH  28  29
ATOM     29  O   UNL A   1      43.218  23.204  24.706  1.00  0.00    -0.460 OA
BRANCH  29  30
ATOM     30  C   UNL A   1      43.974  24.267  25.064  1.00  0.00     0.338 C 
ATOM     31  O   UNL A   1      45.100  24.544  24.671  1.00  0.00    -0.246 OA
BRANCH  30  32
ATOM     32  C   UNL A   1      43.185  25.196  25.891  1.00  0.00     0.060 A 
ATOM     33  C   UNL A   1      43.722  26.469  26.122  1.00  0.00     0.016 A 
ATOM     34  C   UNL A   1      41.996  24.802  26.508  1.00  0.00     0.016 A 
ATOM     35  C   UNL A   1      43.104  27.333  27.022  1.00  0.00     0.010 A 
ATOM     36  C   UNL A   1      41.382  25.667  27.422  1.00  0.00     0.010 A 
ATOM     37  C   UNL A   1      41.959  26.917  27.713  1.00  0.00    -0.014 A 
BRANCH  37  38
ATOM     38  C   UNL A   1      41.484  27.715  28.867  1.00  0.00     0.031 A 
ATOM     39  C   UNL A   1      42.223  27.606  30.173  1.00  0.00     0.074 A 
ATOM     40  C   UNL A   1      40.443  28.556  28.747  1.00  0.00     0.049 A 
ATOM     41  N   UNL A   1      41.981  28.195  31.317  1.00  0.00    -0.248 NA
ATOM     42  C   UNL A   1      43.392  26.712  30.191  1.00  0.00     0.031 C 
ATOM     43  C   UNL A   1      39.674  28.781  27.524  1.00  0.00     0.029 A 
ATOM     44  N   UNL A   1      39.853  29.377  29.675  1.00  0.00    -0.354 N 
ATOM     45  C   UNL A   1      42.962  27.741  32.189  1.00  0.00     0.074 A 
ATOM     46  C   UNL A   1      43.786  26.806  31.452  1.00  0.00     0.031 C 
ATOM     47  C   UNL A   1      38.704  29.676  27.780  1.00  0.00     0.029 A 
ATOM     48  C   UNL A   1      38.770  30.065  29.187  1.00  0.00     0.049 A 
ATOM     49  H   UNL A   1      40.175  29.462  30.601  1.00  0.00     0.167 HD
ATOM     50  C   UNL A   1      43.166  28.079  33.484  1.00  0.00     0.037 A 
ATOM     51  C   UNL A   1      37.921  30.903  29.814  1.00  0.00     0.037 A 
ATOM     52  C   UNL A   1      42.350  29.011  34.215  1.00  0.00     0.049 A 
ATOM     53  C   UNL A   1      38.131  31.216  31.272  1.00  0.00     0.074 A 
ATOM     54  C   UNL A   1      42.482  29.428  35.528  1.00  0.00     0.029 A 
ATOM     55  N   UNL A   1      41.246  29.668  33.694  1.00  0.00    -0.354 N 
ATOM     56  N   UNL A   1      39.072  30.795  32.081  1.00  0.00    -0.248 NA
ATOM     57  C   UNL A   1      37.161  32.125  31.901  1.00  0.00     0.031 C 
ATOM     58  C   UNL A   1      41.433  30.308  35.814  1.00  0.00     0.029 A 
ATOM     59  C   UNL A   1      40.676  30.473  34.665  1.00  0.00     0.049 A 
ATOM     60  H   UNL A   1      40.918  29.575  32.771  1.00  0.00     0.167 HD
ATOM     61  C   UNL A   1      38.826  31.410  33.304  1.00  0.00     0.074 A 
ATOM     62  C   UNL A   1      37.651  32.238  33.127  1.00  0.00     0.031 C 
ATOM     63  C   UNL A   1      39.512  31.300  34.468  1.00  0.00     0.037 A 
BRANCH  50  64
ATOM     64  C   UNL A   1      44.307  27.416  34.197  1.00  0.00     0.057 A 
ATOM     65  C   UNL A   1      45.583  27.992  34.246  1.00  0.00     0.134 A 
ATOM     66  C   UNL A   1      44.120  26.196  34.860  1.00  0.00     0.134 A 
ATOM     67  F   UNL A   1      45.830  29.150  33.616  1.00  0.00    -0.206 F 
ATOM     68  C   UNL A   1      46.638  27.368  34.913  1.00  0.00     0.040 A 
ATOM     69  C   UNL A   1      45.162  25.575  35.550  1.00  0.00     0.040 A 
ATOM     70  F   UNL A   1      42.922  25.593  34.852  1.00  0.00    -0.206 F 
ATOM     71  C   UNL A   1      46.427  26.158  35.572  1.00  0.00     0.006 A 
ENDBRANCH  50  64
BRANCH  51  72
ATOM     72  C   UNL A   1      36.785  31.502  29.070  1.00  0.00     0.057 A 
ATOM     73  C   UNL A   1      36.806  32.842  28.668  1.00  0.00     0.134 A 
ATOM     74  C   UNL A   1      35.642  30.754  28.764  1.00  0.00     0.134 A 
ATOM     75  F   UNL A   1      37.863  33.616  28.955  1.00  0.00    -0.206 F 
ATOM     76  C   UNL A   1      35.726  33.422  28.002  1.00  0.00     0.040 A 
ATOM     77  C   UNL A   1      34.564  31.314  28.077  1.00  0.00     0.040 A 
ATOM     78  F   UNL A   1      35.561  29.463  29.123  1.00  0.00    -0.206 F 
ATOM     79  C   UNL A   1      34.601  32.654  27.700  1.00  0.00     0.006 A 
ENDBRANCH  51  72
BRANCH  63  80
ATOM     80  C   UNL A   1      39.037  32.124  35.628  1.00  0.00     0.057 A 
ATOM     81  C   UNL A   1      38.238  31.581  36.641  1.00  0.00     0.134 A 
ATOM     82  C   UNL A   1      39.424  33.464  35.754  1.00  0.00     0.134 A 
ATOM     83  F   UNL A   1      37.824  30.307  36.572  1.00  0.00    -0.206 F 
ATOM     84  C   UNL A   1      37.822  32.350  37.729  1.00  0.00     0.040 A 
ATOM     85  C   UNL A   1      39.035  34.236  36.850  1.00  0.00     0.040 A 
ATOM     86  F   UNL A   1      40.198  34.040  34.822  1.00  0.00    -0.206 F 
ATOM     87  C   UNL A   1      38.227  33.679  37.839  1.00  0.00     0.006 A 
ENDBRANCH  63  80
ENDBRANCH  37  38
ENDBRANCH  30  32
ENDBRANCH  29  30
ENDBRANCH  28  29
ENDBRANCH  27  28
ENDBRANCH  26  27
ENDBRANCH   1  26
TORSDOF 17
ENDMDL
MODEL 3
REMARK VINA RESULT:     -10.6      4.866      9.939
REMARK SMILES Cc1cc(C)c(C(N)=O)c(N[C@H]2C=C[C@H](C(=O)OCCOCCOC(=O)c3ccc(-c4c5nc(c(-c6c(F)cccc6F)c6ccc([nH]6)c(-c6c(F)cccc6F)c6nc(c(-c7c(F)cccc7F)c7ccc4[nH]7)C=C6)C=C5)cc3)C2)n1
REMARK SMILES IDX 20 1 19 2 18 3 16 4 17 5 15 6 12 7 13 8 81 9 14 10 11 11
REMARK SMILES IDX 10 13 1 14 2 15 3 16 82 17 4 18 5 19 6 20 7 21 8 22 9 23
REMARK SMILES IDX 21 26 22 27 23 28 24 29 25 30 26 31 27 32 28 33 80 34 29 35
REMARK SMILES IDX 79 36 30 37 31 38 32 39 73 40 33 41 78 42 72 43 74 44 34 45
REMARK SMILES IDX 77 46 71 47 70 48 35 50 61 51 44 52 60 53 45 54 48 55 59 56
REMARK SMILES IDX 75 57 46 58 47 59 58 61 76 62 49 63 36 64 37 65 42 66 38 67
REMARK SMILES IDX 39 68 41 69 43 70 40 71 62 72 63 73 68 74 64 75 65 76 67 77
REMARK SMILES IDX 69 78 66 79 50 80 51 81 56 82 52 83 53 84 55 85 57 86 54 87
REMARK H PARENT 11 12 8 24 8 25 74 49 48 60
REMARK Flexibility Score: inf
ROOT
ATOM      1  C   UNL A   1      34.464  33.444  28.929  1.00  0.00     0.202 C 
ENDROOT
BRANCH   1   2
ATOM      2  C   UNL A   1      34.003  31.996  28.752  1.00  0.00     0.261 C 
BRANCH   2   3
ATOM      3  O   UNL A   1      34.314  31.548  27.425  1.00  0.00    -0.463 OA
BRANCH   3   4
ATOM      4  C   UNL A   1      34.810  30.284  27.334  1.00  0.00     0.312 C 
ATOM      5  O   UNL A   1      35.980  29.969  27.511  1.00  0.00    -0.252 OA
BRANCH   4   6
ATOM      6  C   UNL A   1      33.679  29.296  27.089  1.00  0.00     0.124 C 
ATOM      7  C   UNL A   1      33.021  29.440  24.760  1.00  0.00     0.104 C 
ATOM      8  C   UNL A   1      32.010  30.091  25.649  1.00  0.00    -0.006 C 
ATOM      9  C   UNL A   1      33.887  28.622  25.723  1.00  0.00     0.048 C 
ATOM     10  C   UNL A   1      32.372  30.011  26.936  1.00  0.00    -0.014 C 
BRANCH   7  11
ATOM     11  N   UNL A   1      32.428  28.663  23.692  1.00  0.00    -0.363 N 
ATOM     12  H   UNL A   1      32.901  28.642  22.829  1.00  0.00     0.162 HD
BRANCH  11  13
ATOM     13  C   UNL A   1      31.243  27.944  23.789  1.00  0.00     0.139 A 
ATOM     14  C   UNL A   1      30.322  24.619  25.084  1.00  0.00     0.067 C 
ATOM     15  C   UNL A   1      30.176  25.986  24.490  1.00  0.00     0.040 A 
ATOM     16  C   UNL A   1      28.938  26.453  24.083  1.00  0.00     0.028 A 
ATOM     17  N   UNL A   1      31.299  26.721  24.364  1.00  0.00    -0.236 NA
ATOM     18  C   UNL A   1      28.838  27.729  23.519  1.00  0.00    -0.033 A 
ATOM     19  C   UNL A   1      27.474  28.206  23.104  1.00  0.00     0.045 C 
ATOM     20  C   UNL A   1      30.019  28.482  23.346  1.00  0.00     0.084 A 
BRANCH  20  21
ATOM     21  C   UNL A   1      29.967  29.811  22.671  1.00  0.00     0.252 C 
ATOM     22  N   UNL A   1      30.756  29.986  21.568  1.00  0.00    -0.365 N 
ATOM     23  O   UNL A   1      29.250  30.720  23.071  1.00  0.00    -0.269 OA
ATOM     24  H   UNL A   1      31.330  29.252  21.252  1.00  0.00     0.159 HD
ATOM     25  H   UNL A   1      30.748  30.847  21.089  1.00  0.00     0.159 HD
ENDBRANCH  20  21
ENDBRANCH  11  13
ENDBRANCH   7  11
ENDBRANCH   4   6
ENDBRANCH   3   4
ENDBRANCH   2   3
ENDBRANCH   1   2
BRANCH   1  26
ATOM     26  O   UNL A   1      33.824  34.168  29.981  1.00  0.00    -0.374 OA
BRANCH  26  27
ATOM     27  C   UNL A   1      34.598  34.476  31.142  1.00  0.00     0.202 C 
BRANCH  27  28
ATOM     28  C   UNL A   1      34.246  33.701  32.418  1.00  0.00     0.261 C 
BRANCH  28  29
ATOM     29  O   UNL A   1      34.771  32.360  32.387  1.00  0.00    -0.460 OA
BRANCH  29  30
ATOM     30  C   UNL A   1      35.958  32.200  33.015  1.00  0.00     0.338 C 
ATOM     31  O   UNL A   1      36.242  32.525  34.161  1.00  0.00    -0.246 OA
BRANCH  30  32
ATOM     32  C   UNL A   1      36.868  31.394  32.184  1.00  0.00     0.060 A 
ATOM     33  C   UNL A   1      37.816  30.604  32.846  1.00  0.00     0.016 A 
ATOM     34  C   UNL A   1      36.861  31.481  30.790  1.00  0.00     0.016 A 
ATOM     35  C   UNL A   1      38.804  29.945  32.119  1.00  0.00     0.010 A 
ATOM     36  C   UNL A   1      37.862  30.828  30.062  1.00  0.00     0.010 A 
ATOM     37  C   UNL A   1      38.861  30.094  30.728  1.00  0.00    -0.014 A 
BRANCH  37  38
ATOM     38  C   UNL A   1      40.069  29.637  30.003  1.00  0.00     0.031 A 
ATOM     39  C   UNL A   1      41.204  30.606  29.808  1.00  0.00     0.074 A 
ATOM     40  C   UNL A   1      40.178  28.372  29.564  1.00  0.00     0.049 A 
ATOM     41  N   UNL A   1      42.348  30.435  29.195  1.00  0.00    -0.248 NA
ATOM     42  C   UNL A   1      41.024  31.950  30.383  1.00  0.00     0.031 C 
ATOM     43  C   UNL A   1      39.166  27.330  29.729  1.00  0.00     0.029 A 
ATOM     44  N   UNL A   1      41.196  27.752  28.884  1.00  0.00    -0.354 N 
ATOM     45  C   UNL A   1      43.019  31.646  29.306  1.00  0.00     0.074 A 
ATOM     46  C   UNL A   1      42.146  32.553  30.019  1.00  0.00     0.031 C 
ATOM     47  C   UNL A   1      39.611  26.198  29.156  1.00  0.00     0.029 A 
ATOM     48  C   UNL A   1      40.925  26.445  28.564  1.00  0.00     0.049 A 
ATOM     49  H   UNL A   1      42.039  28.202  28.648  1.00  0.00     0.167 HD
ATOM     50  C   UNL A   1      44.256  31.971  28.863  1.00  0.00     0.037 A 
ATOM     51  C   UNL A   1      41.651  25.556  27.859  1.00  0.00     0.037 A 
ATOM     52  C   UNL A   1      45.127  31.069  28.158  1.00  0.00     0.049 A 
ATOM     53  C   UNL A   1      42.999  25.960  27.322  1.00  0.00     0.074 A 
ATOM     54  C   UNL A   1      46.404  31.301  27.677  1.00  0.00     0.029 A 
ATOM     55  N   UNL A   1      44.806  29.761  27.829  1.00  0.00    -0.354 N 
ATOM     56  N   UNL A   1      43.631  27.102  27.448  1.00  0.00    -0.248 NA
ATOM     57  C   UNL A   1      43.734  24.950  26.548  1.00  0.00     0.031 C 
ATOM     58  C   UNL A   1      46.840  30.144  27.022  1.00  0.00     0.029 A 
ATOM     59  C   UNL A   1      45.853  29.179  27.135  1.00  0.00     0.049 A 
ATOM     60  H   UNL A   1      43.959  29.314  28.056  1.00  0.00     0.167 HD
ATOM     61  C   UNL A   1      44.849  26.937  26.798  1.00  0.00     0.074 A 
ATOM     62  C   UNL A   1      44.869  25.583  26.284  1.00  0.00     0.031 C 
ATOM     63  C   UNL A   1      45.860  27.826  26.641  1.00  0.00     0.037 A 
BRANCH  50  64
ATOM     64  C   UNL A   1      44.730  33.373  29.112  1.00  0.00     0.057 A 
ATOM     65  C   UNL A   1      44.454  34.415  28.218  1.00  0.00     0.134 A 
ATOM     66  C   UNL A   1      45.453  33.685  30.270  1.00  0.00     0.134 A 
ATOM     67  F   UNL A   1      43.781  34.177  27.082  1.00  0.00    -0.206 F 
ATOM     68  C   UNL A   1      44.898  35.717  28.458  1.00  0.00     0.040 A 
ATOM     69  C   UNL A   1      45.881  34.987  30.531  1.00  0.00     0.040 A 
ATOM     70  F   UNL A   1      45.749  32.732  31.166  1.00  0.00    -0.206 F 
ATOM     71  C   UNL A   1      45.610  36.006  29.621  1.00  0.00     0.006 A 
ENDBRANCH  50  64
BRANCH  51  72
ATOM     72  C   UNL A   1      41.118  24.194  27.609  1.00  0.00     0.057 A 
ATOM     73  C   UNL A   1      41.623  23.080  28.288  1.00  0.00     0.134 A 
ATOM     74  C   UNL A   1      40.105  23.972  26.667  1.00  0.00     0.134 A 
ATOM     75  F   UNL A   1      42.612  23.227  29.183  1.00  0.00    -0.206 F 
ATOM     76  C   UNL A   1      41.153  21.792  28.030  1.00  0.00     0.040 A 
ATOM     77  C   UNL A   1      39.609  22.692  26.417  1.00  0.00     0.040 A 
ATOM     78  F   UNL A   1      39.579  24.999  25.983  1.00  0.00    -0.206 F 
ATOM     79  C   UNL A   1      40.138  21.596  27.094  1.00  0.00     0.006 A 
ENDBRANCH  51  72
BRANCH  63  80
ATOM     80  C   UNL A   1      47.088  27.352  25.921  1.00  0.00     0.057 A 
ATOM     81  C   UNL A   1      48.131  26.701  26.590  1.00  0.00     0.134 A 
ATOM     82  C   UNL A   1      47.205  27.510  24.534  1.00  0.00     0.134 A 
ATOM     83  F   UNL A   1      48.084  26.529  27.920  1.00  0.00    -0.206 F 
ATOM     84  C   UNL A   1      49.258  26.242  25.907  1.00  0.00     0.040 A 
ATOM     85  C   UNL A   1      48.315  27.034  23.837  1.00  0.00     0.040 A 
ATOM     86  F   UNL A   1      46.235  28.117  23.834  1.00  0.00    -0.206 F 
ATOM     87  C   UNL A   1      49.349  26.401  24.525  1.00  0.00     0.006 A 
ENDBRANCH  63  80
ENDBRANCH  37  38
ENDBRANCH  30  32
ENDBRANCH  29  30
ENDBRANCH  28  29
ENDBRANCH  27  28
ENDBRANCH  26  27
ENDBRANCH   1  26
TORSDOF 17
ENDMDL
