MODEL 1
REMARK VINA RESULT:     -11.6      0.000      0.000
REMARK SMILES Cc1cc2c(c(C)c1Cl)C=C(C(=O)OCCOCCOC(=O)c1ccc(-c3c4nc(c(-c5c(F)cccc5F)c5ccc([nH]5)c(-c5c(F)cccc5F)c5nc(c(-c6c(F)cccc6F)c6ccc3[nH]6)C=C5)C=C4)cc1)[C@H](C(F)(F)F)O2
REMARK SMILES IDX 18 1 17 2 16 3 15 4 14 5 12 6 13 7 11 8 1 9 2 10 3 11 8 12
REMARK SMILES IDX 4 13 6 14 9 15 5 16 82 17 7 18 10 19 77 20 78 21 79 22 80 23
REMARK SMILES IDX 81 24 19 25 20 26 21 27 22 28 23 29 24 30 76 31 25 32 75 33
REMARK SMILES IDX 26 34 27 35 28 36 69 37 29 38 74 39 68 40 70 41 30 42 73 43
REMARK SMILES IDX 67 44 66 45 31 47 57 48 40 49 56 50 41 51 44 52 55 53 71 54
REMARK SMILES IDX 42 55 43 56 54 58 72 59 45 60 32 61 33 62 38 63 34 64 35 65
REMARK SMILES IDX 37 66 39 67 36 68 58 69 59 70 64 71 60 72 61 73 63 74 65 75
REMARK SMILES IDX 62 76 46 77 47 78 52 79 48 80 49 81 51 82 53 83 50 84
REMARK H PARENT 70 46 44 57
REMARK Flexibility Score: inf
ROOT
ATOM      1  C   UNL A   1      34.088  34.394  30.050  1.00  0.00     0.202 C 
ENDROOT
BRANCH   1   2
ATOM      2  O   UNL A   1      34.842  33.756  29.014  1.00  0.00    -0.374 OA
BRANCH   2   3
ATOM      3  C   UNL A   1      34.098  33.124  27.971  1.00  0.00     0.202 C 
BRANCH   3   4
ATOM      4  C   UNL A   1      33.895  31.616  28.137  1.00  0.00     0.261 C 
BRANCH   4   5
ATOM      5  O   UNL A   1      34.294  30.927  26.940  1.00  0.00    -0.460 OA
BRANCH   5   6
ATOM      6  C   UNL A   1      34.391  29.588  27.063  1.00  0.00     0.338 C 
ATOM      7  O   UNL A   1      34.847  28.980  28.020  1.00  0.00    -0.246 OA
BRANCH   6   8
ATOM      8  C   UNL A   1      33.751  28.922  25.915  1.00  0.00     0.087 C 
ATOM      9  C   UNL A   1      32.902  25.206  20.681  1.00  0.00     0.046 C 
ATOM     10  C   UNL A   1      33.087  25.759  22.069  1.00  0.00    -0.028 A 
ATOM     11  C   UNL A   1      32.842  27.122  22.289  1.00  0.00     0.052 A 
ATOM     12  C   UNL A   1      33.564  24.967  23.134  1.00  0.00     0.047 A 
ATOM     13  C   UNL A   1      33.100  27.699  23.529  1.00  0.00     0.128 A 
ATOM     14  C   UNL A   1      33.804  25.529  24.407  1.00  0.00    -0.021 A 
ATOM     15  Cl  UNL A   1      33.907  23.289  22.835  1.00  0.00    -0.084 Cl
ATOM     16  C   UNL A   1      33.608  26.922  24.578  1.00  0.00     0.022 A 
ATOM     17  O   UNL A   1      32.912  29.055  23.605  1.00  0.00    -0.475 OA
ATOM     18  C   UNL A   1      34.306  24.699  25.566  1.00  0.00     0.047 C 
ATOM     19  C   UNL A   1      34.051  27.624  25.778  1.00  0.00     0.027 C 
ATOM     20  C   UNL A   1      32.904  29.670  24.926  1.00  0.00     0.316 C 
BRANCH  20  21
ATOM     21  C   UNL A   1      31.447  29.900  25.374  1.00  0.00     0.430 C 
ATOM     22  F   UNL A   1      31.261  31.126  25.918  1.00  0.00    -0.167 F 
ATOM     23  F   UNL A   1      30.571  29.775  24.351  1.00  0.00    -0.167 F 
ATOM     24  F   UNL A   1      31.068  28.989  26.307  1.00  0.00    -0.167 F 
ENDBRANCH  20  21
ENDBRANCH   6   8
ENDBRANCH   5   6
ENDBRANCH   4   5
ENDBRANCH   3   4
ENDBRANCH   2   3
ENDBRANCH   1   2
BRANCH   1  25
ATOM     25  C   UNL A   1      34.393  33.933  31.480  1.00  0.00     0.261 C 
BRANCH  25  26
ATOM     26  O   UNL A   1      34.636  32.514  31.522  1.00  0.00    -0.460 OA
BRANCH  26  27
ATOM     27  C   UNL A   1      35.637  32.132  32.344  1.00  0.00     0.338 C 
ATOM     28  O   UNL A   1      35.725  32.330  33.549  1.00  0.00    -0.246 OA
BRANCH  27  29
ATOM     29  C   UNL A   1      36.567  31.239  31.628  1.00  0.00     0.060 A 
ATOM     30  C   UNL A   1      37.492  30.526  32.403  1.00  0.00     0.016 A 
ATOM     31  C   UNL A   1      36.600  31.165  30.234  1.00  0.00     0.016 A 
ATOM     32  C   UNL A   1      38.503  29.797  31.788  1.00  0.00     0.010 A 
ATOM     33  C   UNL A   1      37.626  30.444  29.615  1.00  0.00     0.010 A 
ATOM     34  C   UNL A   1      38.610  29.802  30.392  1.00  0.00    -0.014 A 
BRANCH  34  35
ATOM     35  C   UNL A   1      39.870  29.337  29.766  1.00  0.00     0.031 A 
ATOM     36  C   UNL A   1      41.017  30.307  29.669  1.00  0.00     0.074 A 
ATOM     37  C   UNL A   1      40.022  28.068  29.351  1.00  0.00     0.049 A 
ATOM     38  N   UNL A   1      42.195  30.151  29.123  1.00  0.00    -0.248 NA
ATOM     39  C   UNL A   1      40.806  31.631  30.278  1.00  0.00     0.031 C 
ATOM     40  C   UNL A   1      39.016  27.015  29.463  1.00  0.00     0.029 A 
ATOM     41  N   UNL A   1      41.092  27.454  28.752  1.00  0.00    -0.354 N 
ATOM     42  C   UNL A   1      42.864  31.352  29.322  1.00  0.00     0.074 A 
ATOM     43  C   UNL A   1      41.954  32.237  30.016  1.00  0.00     0.031 C 
ATOM     44  C   UNL A   1      39.517  25.880  28.943  1.00  0.00     0.029 A 
ATOM     45  C   UNL A   1      40.861  26.140  28.431  1.00  0.00     0.049 A 
ATOM     46  H   UNL A   1      41.944  27.912  28.570  1.00  0.00     0.167 HD
ATOM     47  C   UNL A   1      44.126  31.686  28.968  1.00  0.00     0.037 A 
ATOM     48  C   UNL A   1      41.642  25.258  27.776  1.00  0.00     0.037 A 
ATOM     49  C   UNL A   1      45.030  30.809  28.272  1.00  0.00     0.049 A 
ATOM     50  C   UNL A   1      43.002  25.686  27.294  1.00  0.00     0.074 A 
ATOM     51  C   UNL A   1      46.323  31.062  27.850  1.00  0.00     0.029 A 
ATOM     52  N   UNL A   1      44.731  29.510  27.895  1.00  0.00    -0.354 N 
ATOM     53  N   UNL A   1      43.615  26.833  27.458  1.00  0.00    -0.248 NA
ATOM     54  C   UNL A   1      43.774  24.699  26.526  1.00  0.00     0.031 C 
ATOM     55  C   UNL A   1      46.793  29.926  27.182  1.00  0.00     0.029 A 
ATOM     56  C   UNL A   1      45.807  28.953  27.227  1.00  0.00     0.049 A 
ATOM     57  H   UNL A   1      43.878  29.050  28.076  1.00  0.00     0.167 HD
ATOM     58  C   UNL A   1      44.846  26.703  26.826  1.00  0.00     0.074 A 
ATOM     59  C   UNL A   1      44.902  25.357  26.295  1.00  0.00     0.031 C 
ATOM     60  C   UNL A   1      45.840  27.615  26.693  1.00  0.00     0.037 A 
BRANCH  47  61
ATOM     61  C   UNL A   1      44.594  33.069  29.306  1.00  0.00     0.057 A 
ATOM     62  C   UNL A   1      45.280  33.344  30.496  1.00  0.00     0.134 A 
ATOM     63  C   UNL A   1      44.383  34.131  28.419  1.00  0.00     0.134 A 
ATOM     64  F   UNL A   1      45.495  32.373  31.396  1.00  0.00    -0.206 F 
ATOM     65  C   UNL A   1      45.730  34.630  30.797  1.00  0.00     0.040 A 
ATOM     66  C   UNL A   1      44.847  35.417  28.698  1.00  0.00     0.040 A 
ATOM     67  F   UNL A   1      43.731  33.934  27.263  1.00  0.00    -0.206 F 
ATOM     68  C   UNL A   1      45.519  35.670  29.892  1.00  0.00     0.006 A 
ENDBRANCH  47  61
BRANCH  48  69
ATOM     69  C   UNL A   1      41.146  23.883  27.511  1.00  0.00     0.057 A 
ATOM     70  C   UNL A   1      40.172  23.641  26.536  1.00  0.00     0.134 A 
ATOM     71  C   UNL A   1      41.621  22.786  28.238  1.00  0.00     0.134 A 
ATOM     72  F   UNL A   1      39.660  24.656  25.827  1.00  0.00    -0.206 F 
ATOM     73  C   UNL A   1      39.682  22.356  26.299  1.00  0.00     0.040 A 
ATOM     74  C   UNL A   1      41.156  21.493  27.996  1.00  0.00     0.040 A 
ATOM     75  F   UNL A   1      42.551  22.954  29.190  1.00  0.00    -0.206 F 
ATOM     76  C   UNL A   1      40.179  21.275  27.026  1.00  0.00     0.006 A 
ENDBRANCH  48  69
BRANCH  60  77
ATOM     77  C   UNL A   1      47.070  27.189  25.948  1.00  0.00     0.057 A 
ATOM     78  C   UNL A   1      48.143  26.567  26.597  1.00  0.00     0.134 A 
ATOM     79  C   UNL A   1      47.165  27.363  24.561  1.00  0.00     0.134 A 
ATOM     80  F   UNL A   1      48.119  26.380  27.926  1.00  0.00    -0.206 F 
ATOM     81  C   UNL A   1      49.277  26.151  25.897  1.00  0.00     0.040 A 
ATOM     82  C   UNL A   1      48.282  26.929  23.846  1.00  0.00     0.040 A 
ATOM     83  F   UNL A   1      46.166  27.942  23.877  1.00  0.00    -0.206 F 
ATOM     84  C   UNL A   1      49.345  26.327  24.516  1.00  0.00     0.006 A 
ENDBRANCH  60  77
ENDBRANCH  34  35
ENDBRANCH  27  29
ENDBRANCH  26  27
ENDBRANCH  25  26
ENDBRANCH   1  25
TORSDOF 15
ENDMDL
MODEL 2
REMARK VINA RESULT:     -11.6      3.506      7.748
REMARK SMILES Cc1cc2c(c(C)c1Cl)C=C(C(=O)OCCOCCOC(=O)c1ccc(-c3c4nc(c(-c5c(F)cccc5F)c5ccc([nH]5)c(-c5c(F)cccc5F)c5nc(c(-c6c(F)cccc6F)c6ccc3[nH]6)C=C5)C=C4)cc1)[C@H](C(F)(F)F)O2
REMARK SMILES IDX 18 1 17 2 16 3 15 4 14 5 12 6 13 7 11 8 1 9 2 10 3 11 8 12
REMARK SMILES IDX 4 13 6 14 9 15 5 16 82 17 7 18 10 19 77 20 78 21 79 22 80 23
REMARK SMILES IDX 81 24 19 25 20 26 21 27 22 28 23 29 24 30 76 31 25 32 75 33
REMARK SMILES IDX 26 34 27 35 28 36 69 37 29 38 74 39 68 40 70 41 30 42 73 43
REMARK SMILES IDX 67 44 66 45 31 47 57 48 40 49 56 50 41 51 44 52 55 53 71 54
REMARK SMILES IDX 42 55 43 56 54 58 72 59 45 60 32 61 33 62 38 63 34 64 35 65
REMARK SMILES IDX 37 66 39 67 36 68 58 69 59 70 64 71 60 72 61 73 63 74 65 75
REMARK SMILES IDX 62 76 46 77 47 78 52 79 48 80 49 81 51 82 53 83 50 84
REMARK H PARENT 70 46 44 57
REMARK Flexibility Score: inf
ROOT
ATOM      1  C   UNL A   1      35.409  21.148  24.936  1.00  0.00     0.202 C 
ENDROOT
BRANCH   1   2
ATOM      2  O   UNL A   1      34.571  21.023  26.089  1.00  0.00    -0.374 OA
BRANCH   2   3
ATOM      3  C   UNL A   1      34.490  22.157  26.953  1.00  0.00     0.202 C 
BRANCH   3   4
ATOM      4  C   UNL A   1      33.127  22.376  27.614  1.00  0.00     0.261 C 
BRANCH   4   5
ATOM      5  O   UNL A   1      32.072  22.146  26.665  1.00  0.00    -0.460 OA
BRANCH   5   6
ATOM      6  C   UNL A   1      31.034  23.001  26.753  1.00  0.00     0.338 C 
ATOM      7  O   UNL A   1      30.178  23.013  27.626  1.00  0.00    -0.246 OA
BRANCH   6   8
ATOM      8  C   UNL A   1      31.126  24.028  25.701  1.00  0.00     0.087 C 
ATOM      9  C   UNL A   1      30.148  29.497  22.376  1.00  0.00     0.046 C 
ATOM     10  C   UNL A   1      30.577  28.436  23.354  1.00  0.00    -0.028 A 
ATOM     11  C   UNL A   1      30.454  27.089  22.982  1.00  0.00     0.052 A 
ATOM     12  C   UNL A   1      31.028  28.751  24.652  1.00  0.00     0.047 A 
ATOM     13  C   UNL A   1      30.737  26.072  23.891  1.00  0.00     0.128 A 
ATOM     14  C   UNL A   1      31.349  27.733  25.577  1.00  0.00    -0.021 A 
ATOM     15  Cl  UNL A   1      31.132  30.423  25.114  1.00  0.00    -0.084 Cl
ATOM     16  C   UNL A   1      31.152  26.384  25.191  1.00  0.00     0.022 A 
ATOM     17  O   UNL A   1      30.495  24.797  23.450  1.00  0.00    -0.475 OA
ATOM     18  C   UNL A   1      31.844  28.045  26.971  1.00  0.00     0.047 C 
ATOM     19  C   UNL A   1      31.230  25.286  26.149  1.00  0.00     0.027 C 
ATOM     20  C   UNL A   1      31.018  23.691  24.242  1.00  0.00     0.316 C 
BRANCH  20  21
ATOM     21  C   UNL A   1      32.324  23.178  23.604  1.00  0.00     0.430 C 
ATOM     22  F   UNL A   1      33.427  23.661  24.225  1.00  0.00    -0.167 F 
ATOM     23  F   UNL A   1      32.408  21.828  23.625  1.00  0.00    -0.167 F 
ATOM     24  F   UNL A   1      32.411  23.540  22.299  1.00  0.00    -0.167 F 
ENDBRANCH  20  21
ENDBRANCH   6   8
ENDBRANCH   5   6
ENDBRANCH   4   5
ENDBRANCH   3   4
ENDBRANCH   2   3
ENDBRANCH   1   2
BRANCH   1  25
ATOM     25  C   UNL A   1      36.757  20.420  25.007  1.00  0.00     0.261 C 
BRANCH  25  26
ATOM     26  O   UNL A   1      37.849  21.357  24.976  1.00  0.00    -0.460 OA
BRANCH  26  27
ATOM     27  C   UNL A   1      38.900  21.032  25.759  1.00  0.00     0.338 C 
ATOM     28  O   UNL A   1      39.499  19.964  25.795  1.00  0.00    -0.246 OA
BRANCH  27  29
ATOM     29  C   UNL A   1      39.393  22.228  26.466  1.00  0.00     0.060 A 
ATOM     30  C   UNL A   1      38.811  23.457  26.126  1.00  0.00     0.016 A 
ATOM     31  C   UNL A   1      40.453  22.170  27.373  1.00  0.00     0.016 A 
ATOM     32  C   UNL A   1      39.337  24.641  26.629  1.00  0.00     0.010 A 
ATOM     33  C   UNL A   1      40.993  23.363  27.866  1.00  0.00     0.010 A 
ATOM     34  C   UNL A   1      40.468  24.602  27.454  1.00  0.00    -0.014 A 
BRANCH  34  35
ATOM     35  C   UNL A   1      41.230  25.852  27.689  1.00  0.00     0.031 A 
ATOM     36  C   UNL A   1      40.564  26.956  28.467  1.00  0.00     0.074 A 
ATOM     37  C   UNL A   1      42.503  25.985  27.282  1.00  0.00     0.049 A 
ATOM     38  N   UNL A   1      41.006  28.152  28.757  1.00  0.00    -0.248 NA
ATOM     39  C   UNL A   1      39.220  26.665  28.995  1.00  0.00     0.031 C 
ATOM     40  C   UNL A   1      43.282  24.960  26.592  1.00  0.00     0.029 A 
ATOM     41  N   UNL A   1      43.364  27.047  27.399  1.00  0.00    -0.354 N 
ATOM     42  C   UNL A   1      39.998  28.755  29.498  1.00  0.00     0.074 A 
ATOM     43  C   UNL A   1      38.911  27.805  29.594  1.00  0.00     0.031 C 
ATOM     44  C   UNL A   1      44.511  25.447  26.341  1.00  0.00     0.029 A 
ATOM     45  C   UNL A   1      44.588  26.826  26.819  1.00  0.00     0.049 A 
ATOM     46  H   UNL A   1      43.125  27.886  27.854  1.00  0.00     0.167 HD
ATOM     47  C   UNL A   1      39.981  29.987  30.057  1.00  0.00     0.037 A 
ATOM     48  C   UNL A   1      45.640  27.656  26.673  1.00  0.00     0.037 A 
ATOM     49  C   UNL A   1      41.057  30.935  29.958  1.00  0.00     0.049 A 
ATOM     50  C   UNL A   1      45.556  29.060  27.209  1.00  0.00     0.074 A 
ATOM     51  C   UNL A   1      41.128  32.218  30.473  1.00  0.00     0.029 A 
ATOM     52  N   UNL A   1      42.252  30.703  29.295  1.00  0.00    -0.354 N 
ATOM     53  N   UNL A   1      44.588  29.634  27.880  1.00  0.00    -0.248 NA
ATOM     54  C   UNL A   1      46.710  29.935  26.956  1.00  0.00     0.031 C 
ATOM     55  C   UNL A   1      42.351  32.775  30.088  1.00  0.00     0.029 A 
ATOM     56  C   UNL A   1      43.059  31.824  29.370  1.00  0.00     0.049 A 
ATOM     57  H   UNL A   1      42.491  29.863  28.839  1.00  0.00     0.167 HD
ATOM     58  C   UNL A   1      45.018  30.929  28.141  1.00  0.00     0.074 A 
ATOM     59  C   UNL A   1      46.344  31.050  27.573  1.00  0.00     0.031 C 
ATOM     60  C   UNL A   1      44.372  31.931  28.787  1.00  0.00     0.037 A 
BRANCH  47  61
ATOM     61  C   UNL A   1      38.746  30.387  30.808  1.00  0.00     0.057 A 
ATOM     62  C   UNL A   1      37.684  31.049  30.179  1.00  0.00     0.134 A 
ATOM     63  C   UNL A   1      38.607  30.079  32.166  1.00  0.00     0.134 A 
ATOM     64  F   UNL A   1      37.767  31.389  28.884  1.00  0.00    -0.206 F 
ATOM     65  C   UNL A   1      36.529  31.401  30.879  1.00  0.00     0.040 A 
ATOM     66  C   UNL A   1      37.447  30.407  32.872  1.00  0.00     0.040 A 
ATOM     67  F   UNL A   1      39.588  29.447  32.827  1.00  0.00    -0.206 F 
ATOM     68  C   UNL A   1      36.406  31.074  32.229  1.00  0.00     0.006 A 
ENDBRANCH  47  61
BRANCH  48  69
ATOM     69  C   UNL A   1      46.858  27.190  25.964  1.00  0.00     0.057 A 
ATOM     70  C   UNL A   1      47.898  26.557  26.653  1.00  0.00     0.134 A 
ATOM     71  C   UNL A   1      47.019  27.384  24.587  1.00  0.00     0.134 A 
ATOM     72  F   UNL A   1      47.814  26.369  27.978  1.00  0.00    -0.206 F 
ATOM     73  C   UNL A   1      49.059  26.140  25.999  1.00  0.00     0.040 A 
ATOM     74  C   UNL A   1      48.163  26.951  23.917  1.00  0.00     0.040 A 
ATOM     75  F   UNL A   1      46.059  27.990  23.872  1.00  0.00    -0.206 F 
ATOM     76  C   UNL A   1      49.191  26.331  24.624  1.00  0.00     0.006 A 
ENDBRANCH  48  69
BRANCH  60  77
ATOM     77  C   UNL A   1      45.091  33.241  28.916  1.00  0.00     0.057 A 
ATOM     78  C   UNL A   1      45.966  33.497  29.979  1.00  0.00     0.134 A 
ATOM     79  C   UNL A   1      44.940  34.242  27.947  1.00  0.00     0.134 A 
ATOM     80  F   UNL A   1      46.147  32.585  30.946  1.00  0.00    -0.206 F 
ATOM     81  C   UNL A   1      46.651  34.710  30.085  1.00  0.00     0.040 A 
ATOM     82  C   UNL A   1      45.637  35.448  28.028  1.00  0.00     0.040 A 
ATOM     83  F   UNL A   1      44.125  34.056  26.898  1.00  0.00    -0.206 F 
ATOM     84  C   UNL A   1      46.491  35.686  29.103  1.00  0.00     0.006 A 
ENDBRANCH  60  77
ENDBRANCH  34  35
ENDBRANCH  27  29
ENDBRANCH  26  27
ENDBRANCH  25  26
ENDBRANCH   1  25
TORSDOF 15
ENDMDL
MODEL 3
REMARK VINA RESULT:     -11.5      4.739      9.878
REMARK SMILES Cc1cc2c(c(C)c1Cl)C=C(C(=O)OCCOCCOC(=O)c1ccc(-c3c4nc(c(-c5c(F)cccc5F)c5ccc([nH]5)c(-c5c(F)cccc5F)c5nc(c(-c6c(F)cccc6F)c6ccc3[nH]6)C=C5)C=C4)cc1)[C@H](C(F)(F)F)O2
REMARK SMILES IDX 18 1 17 2 16 3 15 4 14 5 12 6 13 7 11 8 1 9 2 10 3 11 8 12
REMARK SMILES IDX 4 13 6 14 9 15 5 16 82 17 7 18 10 19 77 20 78 21 79 22 80 23
REMARK SMILES IDX 81 24 19 25 20 26 21 27 22 28 23 29 24 30 76 31 25 32 75 33
REMARK SMILES IDX 26 34 27 35 28 36 69 37 29 38 74 39 68 40 70 41 30 42 73 43
REMARK SMILES IDX 67 44 66 45 31 47 57 48 40 49 56 50 41 51 44 52 55 53 71 54
REMARK SMILES IDX 42 55 43 56 54 58 72 59 45 60 32 61 33 62 38 63 34 64 35 65
REMARK SMILES IDX 37 66 39 67 36 68 58 69 59 70 64 71 60 72 61 73 63 74 65 75
REMARK SMILES IDX 62 76 46 77 47 78 52 79 48 80 49 81 51 82 53 83 50 84
REMARK H PARENT 70 46 44 57
REMARK Flexibility Score: inf
ROOT
ATOM      1  C   UNL A   1      42.990  20.390  26.115  1.00  0.00     0.202 C 
ENDROOT
BRANCH   1   2
ATOM      2  O   UNL A   1      41.841  20.797  26.865  1.00  0.00    -0.374 OA
BRANCH   2   3
ATOM      3  C   UNL A   1      40.626  20.977  26.136  1.00  0.00     0.202 C 
BRANCH   3   4
ATOM      4  C   UNL A   1      39.642  21.976  26.747  1.00  0.00     0.261 C 
BRANCH   4   5
ATOM      5  O   UNL A   1      38.573  22.247  25.825  1.00  0.00    -0.460 OA
BRANCH   5   6
ATOM      6  C   UNL A   1      37.841  23.342  26.111  1.00  0.00     0.338 C 
ATOM      7  O   UNL A   1      38.274  24.464  26.333  1.00  0.00    -0.246 OA
BRANCH   6   8
ATOM      8  C   UNL A   1      36.404  23.040  26.002  1.00  0.00     0.087 C 
ATOM      9  C   UNL A   1      29.995  23.344  26.874  1.00  0.00     0.046 C 
ATOM     10  C   UNL A   1      31.428  23.557  26.464  1.00  0.00    -0.028 A 
ATOM     11  C   UNL A   1      32.337  22.501  26.622  1.00  0.00     0.052 A 
ATOM     12  C   UNL A   1      31.897  24.801  25.995  1.00  0.00     0.047 A 
ATOM     13  C   UNL A   1      33.691  22.683  26.356  1.00  0.00     0.128 A 
ATOM     14  C   UNL A   1      33.263  24.996  25.692  1.00  0.00    -0.021 A 
ATOM     15  Cl  UNL A   1      30.768  26.114  25.848  1.00  0.00    -0.084 Cl
ATOM     16  C   UNL A   1      34.164  23.928  25.923  1.00  0.00     0.022 A 
ATOM     17  O   UNL A   1      34.501  21.611  26.632  1.00  0.00    -0.475 OA
ATOM     18  C   UNL A   1      33.788  26.317  25.178  1.00  0.00     0.047 C 
ATOM     19  C   UNL A   1      35.611  24.110  25.864  1.00  0.00     0.027 C 
ATOM     20  C   UNL A   1      35.868  21.643  26.129  1.00  0.00     0.316 C 
BRANCH  20  21
ATOM     21  C   UNL A   1      35.959  20.801  24.841  1.00  0.00     0.430 C 
ATOM     22  F   UNL A   1      36.466  21.503  23.799  1.00  0.00    -0.167 F 
ATOM     23  F   UNL A   1      36.732  19.702  25.001  1.00  0.00    -0.167 F 
ATOM     24  F   UNL A   1      34.737  20.350  24.459  1.00  0.00    -0.167 F 
ENDBRANCH  20  21
ENDBRANCH   6   8
ENDBRANCH   5   6
ENDBRANCH   4   5
ENDBRANCH   3   4
ENDBRANCH   2   3
ENDBRANCH   1   2
BRANCH   1  25
ATOM     25  C   UNL A   1      43.742  21.510  25.385  1.00  0.00     0.261 C 
BRANCH  25  26
ATOM     26  O   UNL A   1      43.994  22.619  26.267  1.00  0.00    -0.460 OA
BRANCH  26  27
ATOM     27  C   UNL A   1      44.045  23.826  25.664  1.00  0.00     0.338 C 
ATOM     28  O   UNL A   1      44.561  24.097  24.586  1.00  0.00    -0.246 OA
BRANCH  27  29
ATOM     29  C   UNL A   1      43.205  24.793  26.394  1.00  0.00     0.060 A 
ATOM     30  C   UNL A   1      43.628  26.129  26.400  1.00  0.00     0.016 A 
ATOM     31  C   UNL A   1      42.085  24.398  27.128  1.00  0.00     0.016 A 
ATOM     32  C   UNL A   1      42.980  27.062  27.202  1.00  0.00     0.010 A 
ATOM     33  C   UNL A   1      41.443  25.333  27.946  1.00  0.00     0.010 A 
ATOM     34  C   UNL A   1      41.922  26.655  28.023  1.00  0.00    -0.014 A 
BRANCH  34  35
ATOM     35  C   UNL A   1      41.480  27.547  29.122  1.00  0.00     0.031 A 
ATOM     36  C   UNL A   1      42.251  27.520  30.414  1.00  0.00     0.074 A 
ATOM     37  C   UNL A   1      40.463  28.408  28.960  1.00  0.00     0.049 A 
ATOM     38  N   UNL A   1      42.029  28.167  31.528  1.00  0.00    -0.248 NA
ATOM     39  C   UNL A   1      43.437  26.648  30.450  1.00  0.00     0.031 C 
ATOM     40  C   UNL A   1      39.691  28.586  27.732  1.00  0.00     0.029 A 
ATOM     41  N   UNL A   1      39.908  29.301  29.842  1.00  0.00    -0.354 N 
ATOM     42  C   UNL A   1      43.044  27.783  32.395  1.00  0.00     0.074 A 
ATOM     43  C   UNL A   1      43.870  26.827  31.689  1.00  0.00     0.031 C 
ATOM     44  C   UNL A   1      38.756  29.530  27.941  1.00  0.00     0.029 A 
ATOM     45  C   UNL A   1      38.842  29.992  29.325  1.00  0.00     0.049 A 
ATOM     46  H   UNL A   1      40.243  29.431  30.758  1.00  0.00     0.167 HD
ATOM     47  C   UNL A   1      43.275  28.195  33.662  1.00  0.00     0.037 A 
ATOM     48  C   UNL A   1      38.017  30.880  29.915  1.00  0.00     0.037 A 
ATOM     49  C   UNL A   1      42.453  29.140  34.369  1.00  0.00     0.049 A 
ATOM     50  C   UNL A   1      38.228  31.242  31.361  1.00  0.00     0.074 A 
ATOM     51  C   UNL A   1      42.593  29.607  35.664  1.00  0.00     0.029 A 
ATOM     52  N   UNL A   1      41.335  29.762  33.836  1.00  0.00    -0.354 N 
ATOM     53  N   UNL A   1      39.171  30.849  32.183  1.00  0.00    -0.248 NA
ATOM     54  C   UNL A   1      37.253  32.162  31.963  1.00  0.00     0.031 C 
ATOM     55  C   UNL A   1      41.534  30.482  35.927  1.00  0.00     0.029 A 
ATOM     56  C   UNL A   1      40.761  30.592  34.783  1.00  0.00     0.049 A 
ATOM     57  H   UNL A   1      40.998  29.631  32.919  1.00  0.00     0.167 HD
ATOM     58  C   UNL A   1      38.910  31.482  33.393  1.00  0.00     0.074 A 
ATOM     59  C   UNL A   1      37.733  32.301  33.191  1.00  0.00     0.031 C 
ATOM     60  C   UNL A   1      39.582  31.390  34.567  1.00  0.00     0.037 A 
BRANCH  47  61
ATOM     61  C   UNL A   1      44.455  27.604  34.375  1.00  0.00     0.057 A 
ATOM     62  C   UNL A   1      45.704  28.237  34.382  1.00  0.00     0.134 A 
ATOM     63  C   UNL A   1      44.330  26.405  35.087  1.00  0.00     0.134 A 
ATOM     64  F   UNL A   1      45.891  29.378  33.702  1.00  0.00    -0.206 F 
ATOM     65  C   UNL A   1      46.793  27.691  35.064  1.00  0.00     0.040 A 
ATOM     66  C   UNL A   1      45.406  25.861  35.791  1.00  0.00     0.040 A 
ATOM     67  F   UNL A   1      43.161  25.749  35.119  1.00  0.00    -0.206 F 
ATOM     68  C   UNL A   1      46.643  26.503  35.777  1.00  0.00     0.006 A 
ENDBRANCH  47  61
BRANCH  48  69
ATOM     69  C   UNL A   1      36.894  31.472  29.146  1.00  0.00     0.057 A 
ATOM     70  C   UNL A   1      36.941  32.799  28.702  1.00  0.00     0.134 A 
ATOM     71  C   UNL A   1      35.741  30.734  28.854  1.00  0.00     0.134 A 
ATOM     72  F   UNL A   1      38.007  33.564  28.976  1.00  0.00    -0.206 F 
ATOM     73  C   UNL A   1      35.879  33.371  28.001  1.00  0.00     0.040 A 
ATOM     74  C   UNL A   1      34.681  31.287  28.134  1.00  0.00     0.040 A 
ATOM     75  F   UNL A   1      35.633  29.459  29.257  1.00  0.00    -0.206 F 
ATOM     76  C   UNL A   1      34.747  32.612  27.709  1.00  0.00     0.006 A 
ENDBRANCH  48  69
BRANCH  60  77
ATOM     77  C   UNL A   1      39.062  32.196  35.721  1.00  0.00     0.057 A 
ATOM     78  C   UNL A   1      38.202  31.640  36.677  1.00  0.00     0.134 A 
ATOM     79  C   UNL A   1      39.457  33.527  35.903  1.00  0.00     0.134 A 
ATOM     80  F   UNL A   1      37.778  30.373  36.555  1.00  0.00    -0.206 F 
ATOM     81  C   UNL A   1      37.738  32.386  37.762  1.00  0.00     0.040 A 
ATOM     82  C   UNL A   1      39.020  34.276  36.997  1.00  0.00     0.040 A 
ATOM     83  F   UNL A   1      40.288  34.117  35.030  1.00  0.00    -0.206 F 
ATOM     84  C   UNL A   1      38.153  33.706  37.927  1.00  0.00     0.006 A 
ENDBRANCH  60  77
ENDBRANCH  34  35
ENDBRANCH  27  29
ENDBRANCH  26  27
ENDBRANCH  25  26
ENDBRANCH   1  25
TORSDOF 15
ENDMDL
