MODEL 1
REMARK VINA RESULT:      -8.6      0.000      0.000
REMARK SMILES O=C(OCCOCCOC(=O)c1ccc(OCc2sccc2Br)cn1)c1ccc(-c2c3nc(c(-c4c(F)cccc4F)c4ccc([nH]4)c(-c4c(F)cccc4F)c4nc(c(-c5c(F)cccc5F)c5ccc2[nH]5)C=C4)C=C3)cc1
REMARK SMILES IDX 7 1 6 2 5 3 4 4 3 5 2 6 1 7 26 8 27 9 79 10 28 11 78 12
REMARK SMILES IDX 29 13 30 14 31 15 72 16 32 17 77 18 71 19 73 20 33 21 76 22
REMARK SMILES IDX 70 23 69 24 34 26 60 27 43 28 59 29 44 30 47 31 58 32 74 33
REMARK SMILES IDX 45 34 46 35 57 37 75 38 48 39 35 40 36 41 41 42 37 43 38 44
REMARK SMILES IDX 40 45 42 46 39 47 61 48 62 49 67 50 63 51 64 52 66 53 68 54
REMARK SMILES IDX 65 55 49 56 50 57 55 58 51 59 52 60 54 61 56 62 53 63 8 64
REMARK SMILES IDX 9 65 10 66 11 67 12 68 13 69 25 70 14 71 24 72 15 73 16 74
REMARK SMILES IDX 17 75 18 76 19 77 22 78 20 79 21 80 23 81
REMARK H PARENT 73 25 47 36
REMARK Flexibility Score: inf
ROOT
ATOM      1  C   UNL A   1      35.299  34.817  33.261  1.00  0.00     0.202 C 
ENDROOT
BRANCH   1   2
ATOM      2  O   UNL A   1      34.400  35.918  33.087  1.00  0.00    -0.374 OA
BRANCH   2   3
ATOM      3  C   UNL A   1      33.145  35.599  32.482  1.00  0.00     0.202 C 
BRANCH   3   4
ATOM      4  C   UNL A   1      32.992  36.164  31.067  1.00  0.00     0.261 C 
BRANCH   4   5
ATOM      5  O   UNL A   1      32.514  35.150  30.166  1.00  0.00    -0.460 OA
BRANCH   5   6
ATOM      6  C   UNL A   1      33.189  34.478  29.206  1.00  0.00     0.338 C 
ATOM      7  O   UNL A   1      32.641  34.329  28.113  1.00  0.00    -0.246 OA
BRANCH   6   8
ATOM      8  C   UNL A   1      34.559  33.894  29.376  1.00  0.00     0.060 A 
ATOM      9  C   UNL A   1      35.710  34.307  28.702  1.00  0.00     0.016 A 
ATOM     10  C   UNL A   1      34.707  32.909  30.372  1.00  0.00     0.016 A 
ATOM     11  C   UNL A   1      36.952  33.741  28.966  1.00  0.00     0.010 A 
ATOM     12  C   UNL A   1      35.959  32.361  30.673  1.00  0.00     0.010 A 
ATOM     13  C   UNL A   1      37.086  32.772  29.959  1.00  0.00    -0.014 A 
BRANCH  13  14
ATOM     14  C   UNL A   1      38.419  32.181  30.176  1.00  0.00     0.031 A 
ATOM     15  C   UNL A   1      39.371  32.861  31.108  1.00  0.00     0.074 A 
ATOM     16  C   UNL A   1      38.701  30.981  29.637  1.00  0.00     0.049 A 
ATOM     17  N   UNL A   1      40.571  32.499  31.474  1.00  0.00    -0.248 NA
ATOM     18  C   UNL A   1      38.898  34.109  31.730  1.00  0.00     0.031 C 
ATOM     19  C   UNL A   1      37.792  30.202  28.791  1.00  0.00     0.029 A 
ATOM     20  N   UNL A   1      39.814  30.189  29.749  1.00  0.00    -0.354 N 
ATOM     21  C   UNL A   1      41.000  33.474  32.362  1.00  0.00     0.074 A 
ATOM     22  C   UNL A   1      39.940  34.452  32.472  1.00  0.00     0.031 C 
ATOM     23  C   UNL A   1      38.374  29.031  28.485  1.00  0.00     0.029 A 
ATOM     24  C   UNL A   1      39.711  29.000  29.069  1.00  0.00     0.049 A 
ATOM     25  H   UNL A   1      40.610  30.447  30.267  1.00  0.00     0.167 HD
ATOM     26  C   UNL A   1      42.178  33.542  33.024  1.00  0.00     0.037 A 
ATOM     27  C   UNL A   1      40.609  28.007  28.926  1.00  0.00     0.037 A 
ATOM     28  C   UNL A   1      43.224  32.566  32.889  1.00  0.00     0.049 A 
ATOM     29  C   UNL A   1      41.944  28.153  29.605  1.00  0.00     0.074 A 
ATOM     30  C   UNL A   1      44.489  32.566  33.449  1.00  0.00     0.029 A 
ATOM     31  N   UNL A   1      43.119  31.408  32.131  1.00  0.00    -0.354 N 
ATOM     32  N   UNL A   1      42.365  29.106  30.402  1.00  0.00    -0.248 NA
ATOM     33  C   UNL A   1      42.933  27.097  29.353  1.00  0.00     0.031 C 
ATOM     34  C   UNL A   1      45.160  31.422  33.001  1.00  0.00     0.029 A 
ATOM     35  C   UNL A   1      44.301  30.692  32.194  1.00  0.00     0.049 A 
ATOM     36  H   UNL A   1      42.321  31.136  31.623  1.00  0.00     0.167 HD
ATOM     37  C   UNL A   1      43.662  28.764  30.753  1.00  0.00     0.074 A 
ATOM     38  C   UNL A   1      43.949  27.500  30.102  1.00  0.00     0.031 C 
ATOM     39  C   UNL A   1      44.545  29.435  31.532  1.00  0.00     0.037 A 
BRANCH  26  40
ATOM     40  C   UNL A   1      42.397  34.738  33.899  1.00  0.00     0.057 A 
ATOM     41  C   UNL A   1      42.163  34.699  35.279  1.00  0.00     0.134 A 
ATOM     42  C   UNL A   1      42.816  35.954  33.347  1.00  0.00     0.134 A 
ATOM     43  F   UNL A   1      41.733  33.572  35.865  1.00  0.00    -0.206 F 
ATOM     44  C   UNL A   1      42.321  35.835  36.077  1.00  0.00     0.040 A 
ATOM     45  C   UNL A   1      42.994  37.091  34.136  1.00  0.00     0.040 A 
ATOM     46  F   UNL A   1      43.048  36.060  32.030  1.00  0.00    -0.206 F 
ATOM     47  C   UNL A   1      42.739  37.035  35.505  1.00  0.00     0.006 A 
ENDBRANCH  26  40
BRANCH  27  48
ATOM     48  C   UNL A   1      40.296  26.822  28.087  1.00  0.00     0.057 A 
ATOM     49  C   UNL A   1      40.799  26.691  26.787  1.00  0.00     0.134 A 
ATOM     50  C   UNL A   1      39.467  25.797  28.560  1.00  0.00     0.134 A 
ATOM     51  F   UNL A   1      41.581  27.649  26.266  1.00  0.00    -0.206 F 
ATOM     52  C   UNL A   1      40.476  25.596  25.983  1.00  0.00     0.040 A 
ATOM     53  C   UNL A   1      39.156  24.683  27.777  1.00  0.00     0.040 A 
ATOM     54  F   UNL A   1      38.949  25.859  29.795  1.00  0.00    -0.206 F 
ATOM     55  C   UNL A   1      39.656  24.584  26.481  1.00  0.00     0.006 A 
ENDBRANCH  27  48
BRANCH  39  56
ATOM     56  C   UNL A   1      45.889  28.803  31.723  1.00  0.00     0.057 A 
ATOM     57  C   UNL A   1      46.124  27.880  32.749  1.00  0.00     0.134 A 
ATOM     58  C   UNL A   1      46.945  29.094  30.851  1.00  0.00     0.134 A 
ATOM     59  F   UNL A   1      45.154  27.573  33.623  1.00  0.00    -0.206 F 
ATOM     60  C   UNL A   1      47.372  27.279  32.913  1.00  0.00     0.040 A 
ATOM     61  C   UNL A   1      48.191  28.483  30.993  1.00  0.00     0.040 A 
ATOM     62  F   UNL A   1      46.779  29.966  29.846  1.00  0.00    -0.206 F 
ATOM     63  C   UNL A   1      48.408  27.577  32.029  1.00  0.00     0.006 A 
ENDBRANCH  39  56
ENDBRANCH  13  14
ENDBRANCH   6   8
ENDBRANCH   5   6
ENDBRANCH   4   5
ENDBRANCH   3   4
ENDBRANCH   2   3
ENDBRANCH   1   2
BRANCH   1  64
ATOM     64  C   UNL A   1      35.301  34.400  34.735  1.00  0.00     0.261 C 
BRANCH  64  65
ATOM     65  O   UNL A   1      35.999  33.149  34.855  1.00  0.00    -0.459 OA
BRANCH  65  66
ATOM     66  C   UNL A   1      37.277  33.246  35.317  1.00  0.00     0.357 C 
ATOM     67  O   UNL A   1      37.688  33.981  36.199  1.00  0.00    -0.244 OA
BRANCH  66  68
ATOM     68  C   UNL A   1      38.041  32.142  34.673  1.00  0.00     0.148 A 
ATOM     69  C   UNL A   1      37.419  31.304  33.755  1.00  0.00     0.040 A 
ATOM     70  N   UNL A   1      39.289  31.924  35.160  1.00  0.00    -0.245 NA
ATOM     71  C   UNL A   1      38.085  30.145  33.358  1.00  0.00     0.050 A 
ATOM     72  C   UNL A   1      39.892  30.778  34.774  1.00  0.00     0.158 A 
ATOM     73  C   UNL A   1      39.329  29.845  33.909  1.00  0.00     0.138 A 
BRANCH  73  74
ATOM     74  O   UNL A   1      40.029  28.683  33.762  1.00  0.00    -0.486 OA
BRANCH  74  75
ATOM     75  C   UNL A   1      41.459  28.722  33.805  1.00  0.00     0.277 C 
BRANCH  75  76
ATOM     76  C   UNL A   1      42.043  27.894  34.922  1.00  0.00     0.056 A 
ATOM     77  S   UNL A   1      41.710  26.218  35.130  1.00  0.00    -0.144 S 
ATOM     78  C   UNL A   1      42.885  28.330  35.925  1.00  0.00     0.035 A 
ATOM     79  C   UNL A   1      42.783  26.088  36.454  1.00  0.00     0.066 A 
ATOM     80  C   UNL A   1      43.325  27.305  36.799  1.00  0.00     0.028 A 
ATOM     81  Br  UNL A   1      43.464  30.115  36.171  1.00  0.00    -0.049 Br
ENDBRANCH  75  76
ENDBRANCH  74  75
ENDBRANCH  73  74
ENDBRANCH  66  68
ENDBRANCH  65  66
ENDBRANCH  64  65
ENDBRANCH   1  64
TORSDOF 17
ENDMDL
MODEL 2
REMARK VINA RESULT:      -8.4      5.122     10.768
REMARK SMILES O=C(OCCOCCOC(=O)c1ccc(OCc2sccc2Br)cn1)c1ccc(-c2c3nc(c(-c4c(F)cccc4F)c4ccc([nH]4)c(-c4c(F)cccc4F)c4nc(c(-c5c(F)cccc5F)c5ccc2[nH]5)C=C4)C=C3)cc1
REMARK SMILES IDX 7 1 6 2 5 3 4 4 3 5 2 6 1 7 26 8 27 9 79 10 28 11 78 12
REMARK SMILES IDX 29 13 30 14 31 15 72 16 32 17 77 18 71 19 73 20 33 21 76 22
REMARK SMILES IDX 70 23 69 24 34 26 60 27 43 28 59 29 44 30 47 31 58 32 74 33
REMARK SMILES IDX 45 34 46 35 57 37 75 38 48 39 35 40 36 41 41 42 37 43 38 44
REMARK SMILES IDX 40 45 42 46 39 47 61 48 62 49 67 50 63 51 64 52 66 53 68 54
REMARK SMILES IDX 65 55 49 56 50 57 55 58 51 59 52 60 54 61 56 62 53 63 8 64
REMARK SMILES IDX 9 65 10 66 11 67 12 68 13 69 25 70 14 71 24 72 15 73 16 74
REMARK SMILES IDX 17 75 18 76 19 77 22 78 20 79 21 80 23 81
REMARK H PARENT 73 25 47 36
REMARK Flexibility Score: inf
ROOT
ATOM      1  C   UNL A   1      43.625  19.246  25.663  1.00  0.00     0.202 C 
ENDROOT
BRANCH   1   2
ATOM      2  O   UNL A   1      43.652  20.247  24.640  1.00  0.00    -0.374 OA
BRANCH   2   3
ATOM      3  C   UNL A   1      44.557  21.331  24.862  1.00  0.00     0.202 C 
BRANCH   3   4
ATOM      4  C   UNL A   1      44.316  22.525  23.934  1.00  0.00     0.261 C 
BRANCH   4   5
ATOM      5  O   UNL A   1      43.755  23.629  24.665  1.00  0.00    -0.460 OA
BRANCH   5   6
ATOM      6  C   UNL A   1      44.382  24.703  25.197  1.00  0.00     0.338 C 
ATOM      7  O   UNL A   1      45.464  25.037  24.714  1.00  0.00    -0.246 OA
BRANCH   6   8
ATOM      8  C   UNL A   1      43.856  25.517  26.341  1.00  0.00     0.060 A 
ATOM      9  C   UNL A   1      44.132  26.865  26.575  1.00  0.00     0.016 A 
ATOM     10  C   UNL A   1      42.931  24.884  27.195  1.00  0.00     0.016 A 
ATOM     11  C   UNL A   1      43.553  27.554  27.635  1.00  0.00     0.010 A 
ATOM     12  C   UNL A   1      42.313  25.579  28.241  1.00  0.00     0.010 A 
ATOM     13  C   UNL A   1      42.634  26.919  28.468  1.00  0.00    -0.014 A 
BRANCH  13  14
ATOM     14  C   UNL A   1      42.076  27.685  29.598  1.00  0.00     0.031 A 
ATOM     15  C   UNL A   1      42.820  27.709  30.895  1.00  0.00     0.074 A 
ATOM     16  C   UNL A   1      40.985  28.446  29.399  1.00  0.00     0.049 A 
ATOM     17  N   UNL A   1      42.534  28.343  32.000  1.00  0.00    -0.248 NA
ATOM     18  C   UNL A   1      44.066  26.927  30.949  1.00  0.00     0.031 C 
ATOM     19  C   UNL A   1      40.252  28.555  28.135  1.00  0.00     0.029 A 
ATOM     20  N   UNL A   1      40.325  29.301  30.243  1.00  0.00    -0.354 N 
ATOM     21  C   UNL A   1      43.560  28.036  32.882  1.00  0.00     0.074 A 
ATOM     22  C   UNL A   1      44.468  27.147  32.192  1.00  0.00     0.031 C 
ATOM     23  C   UNL A   1      39.260  29.450  28.280  1.00  0.00     0.029 A 
ATOM     24  C   UNL A   1      39.258  29.936  29.655  1.00  0.00     0.049 A 
ATOM     25  H   UNL A   1      40.590  29.446  31.179  1.00  0.00     0.167 HD
ATOM     26  C   UNL A   1      43.722  28.461  34.156  1.00  0.00     0.037 A 
ATOM     27  C   UNL A   1      38.372  30.802  30.182  1.00  0.00     0.037 A 
ATOM     28  C   UNL A   1      42.799  29.334  34.828  1.00  0.00     0.049 A 
ATOM     29  C   UNL A   1      38.530  31.188  31.628  1.00  0.00     0.074 A 
ATOM     30  C   UNL A   1      42.817  29.772  36.139  1.00  0.00     0.029 A 
ATOM     31  N   UNL A   1      41.683  29.901  34.228  1.00  0.00    -0.354 N 
ATOM     32  N   UNL A   1      39.474  30.850  32.475  1.00  0.00    -0.248 NA
ATOM     33  C   UNL A   1      37.494  32.061  32.196  1.00  0.00     0.031 C 
ATOM     34  C   UNL A   1      41.691  30.580  36.341  1.00  0.00     0.029 A 
ATOM     35  C   UNL A   1      40.994  30.675  35.146  1.00  0.00     0.049 A 
ATOM     36  H   UNL A   1      41.420  29.773  33.288  1.00  0.00     0.167 HD
ATOM     37  C   UNL A   1      39.152  31.472  33.672  1.00  0.00     0.074 A 
ATOM     38  C   UNL A   1      37.938  32.230  33.433  1.00  0.00     0.031 C 
ATOM     39  C   UNL A   1      39.790  31.415  34.867  1.00  0.00     0.037 A 
BRANCH  26  40
ATOM     40  C   UNL A   1      44.912  27.936  34.900  1.00  0.00     0.057 A 
ATOM     41  C   UNL A   1      46.141  28.606  34.900  1.00  0.00     0.134 A 
ATOM     42  C   UNL A   1      44.834  26.725  35.599  1.00  0.00     0.134 A 
ATOM     43  F   UNL A   1      46.288  29.756  34.226  1.00  0.00    -0.206 F 
ATOM     44  C   UNL A   1      47.257  28.081  35.555  1.00  0.00     0.040 A 
ATOM     45  C   UNL A   1      45.937  26.199  36.272  1.00  0.00     0.040 A 
ATOM     46  F   UNL A   1      43.687  26.030  35.630  1.00  0.00    -0.206 F 
ATOM     47  C   UNL A   1      47.156  26.874  36.245  1.00  0.00     0.006 A 
ENDBRANCH  26  40
BRANCH  27  48
ATOM     48  C   UNL A   1      37.250  31.326  29.363  1.00  0.00     0.057 A 
ATOM     49  C   UNL A   1      37.287  32.609  28.805  1.00  0.00     0.134 A 
ATOM     50  C   UNL A   1      36.099  30.560  29.134  1.00  0.00     0.134 A 
ATOM     51  F   UNL A   1      38.350  33.402  29.006  1.00  0.00    -0.206 F 
ATOM     52  C   UNL A   1      36.217  33.118  28.065  1.00  0.00     0.040 A 
ATOM     53  C   UNL A   1      35.032  31.046  28.374  1.00  0.00     0.040 A 
ATOM     54  F   UNL A   1      35.996  29.323  29.641  1.00  0.00    -0.206 F 
ATOM     55  C   UNL A   1      35.087  32.333  27.844  1.00  0.00     0.006 A 
ENDBRANCH  27  48
BRANCH  39  56
ATOM     56  C   UNL A   1      39.188  32.203  35.989  1.00  0.00     0.057 A 
ATOM     57  C   UNL A   1      38.218  31.649  36.833  1.00  0.00     0.134 A 
ATOM     58  C   UNL A   1      39.608  33.512  36.247  1.00  0.00     0.134 A 
ATOM     59  F   UNL A   1      37.766  30.403  36.625  1.00  0.00    -0.206 F 
ATOM     60  C   UNL A   1      37.673  32.379  37.889  1.00  0.00     0.040 A 
ATOM     61  C   UNL A   1      39.085  34.245  37.313  1.00  0.00     0.040 A 
ATOM     62  F   UNL A   1      40.538  34.095  35.477  1.00  0.00    -0.206 F 
ATOM     63  C   UNL A   1      38.111  33.679  38.134  1.00  0.00     0.006 A 
ENDBRANCH  39  56
ENDBRANCH  13  14
ENDBRANCH   6   8
ENDBRANCH   5   6
ENDBRANCH   4   5
ENDBRANCH   3   4
ENDBRANCH   2   3
ENDBRANCH   1   2
BRANCH   1  64
ATOM     64  C   UNL A   1      42.260  19.277  26.358  1.00  0.00     0.261 C 
BRANCH  64  65
ATOM     65  O   UNL A   1      41.531  20.422  25.883  1.00  0.00    -0.459 OA
BRANCH  65  66
ATOM     66  C   UNL A   1      41.027  21.228  26.860  1.00  0.00     0.357 C 
ATOM     67  O   UNL A   1      41.553  21.514  27.922  1.00  0.00    -0.244 OA
BRANCH  66  68
ATOM     68  C   UNL A   1      39.797  21.850  26.298  1.00  0.00     0.148 A 
ATOM     69  C   UNL A   1      39.430  23.137  26.671  1.00  0.00     0.040 A 
ATOM     70  N   UNL A   1      39.007  21.032  25.557  1.00  0.00    -0.245 NA
ATOM     71  C   UNL A   1      38.160  23.593  26.319  1.00  0.00     0.050 A 
ATOM     72  C   UNL A   1      37.774  21.497  25.259  1.00  0.00     0.158 A 
ATOM     73  C   UNL A   1      37.291  22.745  25.638  1.00  0.00     0.138 A 
BRANCH  73  74
ATOM     74  O   UNL A   1      35.971  22.969  25.374  1.00  0.00    -0.486 OA
BRANCH  74  75
ATOM     75  C   UNL A   1      35.469  24.309  25.426  1.00  0.00     0.277 C 
BRANCH  75  76
ATOM     76  C   UNL A   1      34.022  24.386  25.844  1.00  0.00     0.056 A 
ATOM     77  S   UNL A   1      33.189  23.087  26.605  1.00  0.00    -0.144 S 
ATOM     78  C   UNL A   1      33.165  25.454  25.672  1.00  0.00     0.035 A 
ATOM     79  C   UNL A   1      31.765  24.012  26.804  1.00  0.00     0.066 A 
ATOM     80  C   UNL A   1      31.876  25.257  26.228  1.00  0.00     0.028 A 
ATOM     81  Br  UNL A   1      33.598  27.078  24.803  1.00  0.00    -0.049 Br
ENDBRANCH  75  76
ENDBRANCH  74  75
ENDBRANCH  73  74
ENDBRANCH  66  68
ENDBRANCH  65  66
ENDBRANCH  64  65
ENDBRANCH   1  64
TORSDOF 17
ENDMDL
MODEL 3
REMARK VINA RESULT:      -8.2      5.263     11.358
REMARK SMILES O=C(OCCOCCOC(=O)c1ccc(OCc2sccc2Br)cn1)c1ccc(-c2c3nc(c(-c4c(F)cccc4F)c4ccc([nH]4)c(-c4c(F)cccc4F)c4nc(c(-c5c(F)cccc5F)c5ccc2[nH]5)C=C4)C=C3)cc1
REMARK SMILES IDX 7 1 6 2 5 3 4 4 3 5 2 6 1 7 26 8 27 9 79 10 28 11 78 12
REMARK SMILES IDX 29 13 30 14 31 15 72 16 32 17 77 18 71 19 73 20 33 21 76 22
REMARK SMILES IDX 70 23 69 24 34 26 60 27 43 28 59 29 44 30 47 31 58 32 74 33
REMARK SMILES IDX 45 34 46 35 57 37 75 38 48 39 35 40 36 41 41 42 37 43 38 44
REMARK SMILES IDX 40 45 42 46 39 47 61 48 62 49 67 50 63 51 64 52 66 53 68 54
REMARK SMILES IDX 65 55 49 56 50 57 55 58 51 59 52 60 54 61 56 62 53 63 8 64
REMARK SMILES IDX 9 65 10 66 11 67 12 68 13 69 25 70 14 71 24 72 15 73 16 74
REMARK SMILES IDX 17 75 18 76 19 77 22 78 20 79 21 80 23 81
REMARK H PARENT 73 25 47 36
REMARK Flexibility Score: inf
ROOT
ATOM      1  C   UNL A   1      43.229  19.210  25.880  1.00  0.00     0.202 C 
ENDROOT
BRANCH   1   2
ATOM      2  O   UNL A   1      43.362  20.191  24.846  1.00  0.00    -0.374 OA
BRANCH   2   3
ATOM      3  C   UNL A   1      44.271  21.258  25.123  1.00  0.00     0.202 C 
BRANCH   3   4
ATOM      4  C   UNL A   1      44.027  22.503  24.264  1.00  0.00     0.261 C 
BRANCH   4   5
ATOM      5  O   UNL A   1      43.464  23.563  25.058  1.00  0.00    -0.460 OA
BRANCH   5   6
ATOM      6  C   UNL A   1      43.986  24.775  25.352  1.00  0.00     0.338 C 
ATOM      7  O   UNL A   1      44.884  25.207  24.629  1.00  0.00    -0.246 OA
BRANCH   6   8
ATOM      8  C   UNL A   1      43.556  25.633  26.504  1.00  0.00     0.060 A 
ATOM      9  C   UNL A   1      43.940  26.956  26.722  1.00  0.00     0.016 A 
ATOM     10  C   UNL A   1      42.606  25.078  27.385  1.00  0.00     0.016 A 
ATOM     11  C   UNL A   1      43.444  27.694  27.791  1.00  0.00     0.010 A 
ATOM     12  C   UNL A   1      42.071  25.824  28.442  1.00  0.00     0.010 A 
ATOM     13  C   UNL A   1      42.501  27.135  28.652  1.00  0.00    -0.014 A 
BRANCH  13  14
ATOM     14  C   UNL A   1      42.032  27.948  29.789  1.00  0.00     0.031 A 
ATOM     15  C   UNL A   1      40.799  28.779  29.627  1.00  0.00     0.074 A 
ATOM     16  C   UNL A   1      42.645  27.825  30.981  1.00  0.00     0.049 A 
ATOM     17  N   UNL A   1      40.191  29.535  30.501  1.00  0.00    -0.248 NA
ATOM     18  C   UNL A   1      40.150  28.737  28.306  1.00  0.00     0.031 C 
ATOM     19  C   UNL A   1      43.798  26.962  31.250  1.00  0.00     0.029 A 
ATOM     20  N   UNL A   1      42.362  28.393  32.195  1.00  0.00    -0.354 N 
ATOM     21  C   UNL A   1      39.093  30.062  29.838  1.00  0.00     0.074 A 
ATOM     22  C   UNL A   1      39.123  29.554  28.484  1.00  0.00     0.031 C 
ATOM     23  C   UNL A   1      44.106  27.037  32.556  1.00  0.00     0.029 A 
ATOM     24  C   UNL A   1      43.207  27.989  33.199  1.00  0.00     0.049 A 
ATOM     25  H   UNL A   1      41.625  29.030  32.334  1.00  0.00     0.167 HD
ATOM     26  C   UNL A   1      38.146  30.898  30.322  1.00  0.00     0.037 A 
ATOM     27  C   UNL A   1      43.252  28.363  34.492  1.00  0.00     0.037 A 
ATOM     28  C   UNL A   1      38.143  31.404  31.668  1.00  0.00     0.049 A 
ATOM     29  C   UNL A   1      42.238  29.362  34.979  1.00  0.00     0.074 A 
ATOM     30  C   UNL A   1      37.281  32.315  32.250  1.00  0.00     0.029 A 
ATOM     31  N   UNL A   1      39.059  31.034  32.643  1.00  0.00    -0.354 N 
ATOM     32  N   UNL A   1      41.231  29.900  34.330  1.00  0.00    -0.248 NA
ATOM     33  C   UNL A   1      42.372  29.817  36.368  1.00  0.00     0.031 C 
ATOM     34  C   UNL A   1      37.697  32.520  33.572  1.00  0.00     0.029 A 
ATOM     35  C   UNL A   1      38.794  31.709  33.821  1.00  0.00     0.049 A 
ATOM     36  H   UNL A   1      39.789  30.386  32.516  1.00  0.00     0.167 HD
ATOM     37  C   UNL A   1      40.609  30.751  35.231  1.00  0.00     0.074 A 
ATOM     38  C   UNL A   1      41.336  30.636  36.481  1.00  0.00     0.031 C 
ATOM     39  C   UNL A   1      39.541  31.565  35.045  1.00  0.00     0.037 A 
BRANCH  26  40
ATOM     40  C   UNL A   1      37.084  31.348  29.365  1.00  0.00     0.057 A 
ATOM     41  C   UNL A   1      37.110  32.616  28.773  1.00  0.00     0.134 A 
ATOM     42  C   UNL A   1      36.004  30.511  29.059  1.00  0.00     0.134 A 
ATOM     43  F   UNL A   1      38.102  33.476  29.048  1.00  0.00    -0.206 F 
ATOM     44  C   UNL A   1      36.088  33.044  27.923  1.00  0.00     0.040 A 
ATOM     45  C   UNL A   1      34.987  30.921  28.197  1.00  0.00     0.040 A 
ATOM     46  F   UNL A   1      35.917  29.287  29.600  1.00  0.00    -0.206 F 
ATOM     47  C   UNL A   1      35.023  32.193  27.631  1.00  0.00     0.006 A 
ENDBRANCH  26  40
BRANCH  27  48
ATOM     48  C   UNL A   1      44.302  27.828  35.396  1.00  0.00     0.057 A 
ATOM     49  C   UNL A   1      45.547  28.455  35.525  1.00  0.00     0.134 A 
ATOM     50  C   UNL A   1      44.093  26.660  36.141  1.00  0.00     0.134 A 
ATOM     51  F   UNL A   1      45.819  29.565  34.821  1.00  0.00    -0.206 F 
ATOM     52  C   UNL A   1      46.549  27.933  36.346  1.00  0.00     0.040 A 
ATOM     53  C   UNL A   1      45.076  26.141  36.986  1.00  0.00     0.040 A 
ATOM     54  F   UNL A   1      42.924  26.007  36.064  1.00  0.00    -0.206 F 
ATOM     55  C   UNL A   1      46.313  26.775  37.083  1.00  0.00     0.006 A 
ENDBRANCH  27  48
BRANCH  39  56
ATOM     56  C   UNL A   1      39.101  32.377  36.223  1.00  0.00     0.057 A 
ATOM     57  C   UNL A   1      39.566  33.681  36.428  1.00  0.00     0.134 A 
ATOM     58  C   UNL A   1      38.177  31.862  37.139  1.00  0.00     0.134 A 
ATOM     59  F   UNL A   1      40.464  34.223  35.590  1.00  0.00    -0.206 F 
ATOM     60  C   UNL A   1      39.140  34.442  37.516  1.00  0.00     0.040 A 
ATOM     61  C   UNL A   1      37.727  32.621  38.220  1.00  0.00     0.040 A 
ATOM     62  F   UNL A   1      37.691  30.621  36.994  1.00  0.00    -0.206 F 
ATOM     63  C   UNL A   1      38.214  33.912  38.413  1.00  0.00     0.006 A 
ENDBRANCH  39  56
ENDBRANCH  13  14
ENDBRANCH   6   8
ENDBRANCH   5   6
ENDBRANCH   4   5
ENDBRANCH   3   4
ENDBRANCH   2   3
ENDBRANCH   1   2
BRANCH   1  64
ATOM     64  C   UNL A   1      41.927  19.465  26.647  1.00  0.00     0.261 C 
BRANCH  64  65
ATOM     65  O   UNL A   1      41.344  20.687  26.165  1.00  0.00    -0.459 OA
BRANCH  65  66
ATOM     66  C   UNL A   1      40.811  21.489  27.130  1.00  0.00     0.357 C 
ATOM     67  O   UNL A   1      41.269  21.712  28.238  1.00  0.00    -0.244 OA
BRANCH  66  68
ATOM     68  C   UNL A   1      39.662  22.195  26.501  1.00  0.00     0.148 A 
ATOM     69  C   UNL A   1      39.350  23.497  26.875  1.00  0.00     0.040 A 
ATOM     70  N   UNL A   1      38.874  21.440  25.693  1.00  0.00    -0.245 NA
ATOM     71  C   UNL A   1      38.137  24.037  26.450  1.00  0.00     0.050 A 
ATOM     72  C   UNL A   1      37.695  21.986  25.324  1.00  0.00     0.158 A 
ATOM     73  C   UNL A   1      37.265  23.256  25.696  1.00  0.00     0.138 A 
BRANCH  73  74
ATOM     74  O   UNL A   1      35.982  23.567  25.350  1.00  0.00    -0.486 OA
BRANCH  74  75
ATOM     75  C   UNL A   1      35.211  22.615  24.609  1.00  0.00     0.277 C 
BRANCH  75  76
ATOM     76  C   UNL A   1      33.933  23.190  24.051  1.00  0.00     0.056 A 
ATOM     77  S   UNL A   1      33.694  24.872  23.779  1.00  0.00    -0.144 S 
ATOM     78  C   UNL A   1      32.792  22.494  23.704  1.00  0.00     0.035 A 
ATOM     79  C   UNL A   1      32.149  24.623  23.092  1.00  0.00     0.066 A 
ATOM     80  C   UNL A   1      31.770  23.300  23.143  1.00  0.00     0.028 A 
ATOM     81  Br  UNL A   1      32.542  20.629  23.908  1.00  0.00    -0.049 Br
ENDBRANCH  75  76
ENDBRANCH  74  75
ENDBRANCH  73  74
ENDBRANCH  66  68
ENDBRANCH  65  66
ENDBRANCH  64  65
ENDBRANCH   1  64
TORSDOF 17
ENDMDL
