MODEL 1
REMARK VINA RESULT:     -10.5      0.000      0.000
REMARK SMILES C[C@@H](C#N)CN(C)C(=O)N1CCC(CC(=O)OCCOCCOC(=O)c2ccc(-c3c4nc(c(-c5c(F)cccc5F)c5ccc([nH]5)c(-c5c(F)cccc5F)c5nc(c(-c6c(F)cccc6F)c6ccc3[nH]6)C=C5)C=C4)cc2)CC1
REMARK SMILES IDX 18 1 17 2 15 3 16 4 14 5 13 6 8 7 9 8 10 9 11 10 81 11 12 12
REMARK SMILES IDX 80 13 6 14 7 15 5 16 2 17 1 18 3 19 4 20 19 21 20 22 21 23
REMARK SMILES IDX 22 24 23 25 24 26 25 27 26 28 27 29 79 30 28 31 78 32 29 33
REMARK SMILES IDX 30 34 31 35 72 36 32 37 77 38 71 39 73 40 33 41 76 42 70 43
REMARK SMILES IDX 69 44 34 46 60 47 43 48 59 49 44 50 47 51 58 52 74 53 45 54
REMARK SMILES IDX 46 55 57 57 75 58 48 59 35 60 36 61 41 62 37 63 38 64 40 65
REMARK SMILES IDX 42 66 39 67 61 68 62 69 67 70 63 71 64 72 66 73 68 74 65 75
REMARK SMILES IDX 49 76 50 77 55 78 51 79 52 80 54 81 56 82 53 83
REMARK H PARENT 73 45 47 56
REMARK Flexibility Score: inf
ROOT
ATOM      1  C   UNL A   1      40.400  20.705  26.492  1.00  0.00     0.261 C 
ENDROOT
BRANCH   1   2
ATOM      2  O   UNL A   1      39.980  22.065  26.266  1.00  0.00    -0.463 OA
BRANCH   2   3
ATOM      3  C   UNL A   1      38.673  22.247  25.956  1.00  0.00     0.306 C 
ATOM      4  O   UNL A   1      37.985  23.183  26.346  1.00  0.00    -0.252 OA
BRANCH   3   5
ATOM      5  C   UNL A   1      38.101  21.125  25.114  1.00  0.00     0.126 C 
BRANCH   5   6
ATOM      6  C   UNL A   1      36.698  21.307  24.498  1.00  0.00     0.003 C 
ATOM      7  C   UNL A   1      34.003  23.988  25.270  1.00  0.00     0.319 C 
ATOM      8  O   UNL A   1      34.340  23.963  26.454  1.00  0.00    -0.248 OA
ATOM      9  N   UNL A   1      34.271  22.925  24.429  1.00  0.00    -0.325 N 
ATOM     10  C   UNL A   1      34.223  21.589  24.999  1.00  0.00     0.121 C 
ATOM     11  C   UNL A   1      35.227  23.078  23.345  1.00  0.00     0.121 C 
ATOM     12  C   UNL A   1      35.582  21.164  25.549  1.00  0.00     0.026 C 
ATOM     13  C   UNL A   1      36.632  22.699  23.821  1.00  0.00     0.026 C 
BRANCH   7  14
ATOM     14  N   UNL A   1      33.224  25.013  24.750  1.00  0.00    -0.326 N 
ATOM     15  C   UNL A   1      31.768  25.046  24.805  1.00  0.00     0.148 C 
BRANCH  14  16
ATOM     16  C   UNL A   1      33.908  26.227  24.269  1.00  0.00     0.139 C 
BRANCH  16  17
ATOM     17  C   UNL A   1      33.127  26.933  23.148  1.00  0.00     0.109 C 
ATOM     18  C   UNL A   1      33.627  28.348  22.838  1.00  0.00     0.026 C 
BRANCH  17  19
ATOM     19  C   UNL A   1      33.172  26.152  21.845  1.00  0.00     0.067 C 
ATOM     20  N   UNL A   1      33.209  25.502  20.765  1.00  0.00    -0.198 NA
ENDBRANCH  17  19
ENDBRANCH  16  17
ENDBRANCH  14  16
ENDBRANCH   7  14
ENDBRANCH   5   6
ENDBRANCH   3   5
ENDBRANCH   2   3
ENDBRANCH   1   2
BRANCH   1  21
ATOM     21  C   UNL A   1      41.925  20.603  26.578  1.00  0.00     0.202 C 
BRANCH  21  22
ATOM     22  O   UNL A   1      42.588  20.200  25.380  1.00  0.00    -0.374 OA
BRANCH  22  23
ATOM     23  C   UNL A   1      43.963  20.556  25.252  1.00  0.00     0.202 C 
BRANCH  23  24
ATOM     24  C   UNL A   1      44.339  21.949  25.769  1.00  0.00     0.261 C 
BRANCH  24  25
ATOM     25  O   UNL A   1      43.638  22.995  25.070  1.00  0.00    -0.460 OA
BRANCH  25  26
ATOM     26  C   UNL A   1      44.215  24.215  25.158  1.00  0.00     0.338 C 
ATOM     27  O   UNL A   1      45.171  24.632  24.513  1.00  0.00    -0.246 OA
BRANCH  26  28
ATOM     28  C   UNL A   1      43.434  25.094  26.047  1.00  0.00     0.060 A 
ATOM     29  C   UNL A   1      43.887  26.409  26.212  1.00  0.00     0.016 A 
ATOM     30  C   UNL A   1      42.331  24.629  26.769  1.00  0.00     0.016 A 
ATOM     31  C   UNL A   1      43.275  27.249  27.140  1.00  0.00     0.010 A 
ATOM     32  C   UNL A   1      41.722  25.472  27.706  1.00  0.00     0.010 A 
ATOM     33  C   UNL A   1      42.215  26.773  27.922  1.00  0.00    -0.014 A 
BRANCH  33  34
ATOM     34  C   UNL A   1      41.728  27.591  29.060  1.00  0.00     0.031 A 
ATOM     35  C   UNL A   1      42.443  27.506  30.381  1.00  0.00     0.074 A 
ATOM     36  C   UNL A   1      40.688  28.430  28.912  1.00  0.00     0.049 A 
ATOM     37  N   UNL A   1      42.184  28.121  31.507  1.00  0.00    -0.248 NA
ATOM     38  C   UNL A   1      43.606  26.606  30.442  1.00  0.00     0.031 C 
ATOM     39  C   UNL A   1      39.932  28.629  27.677  1.00  0.00     0.029 A 
ATOM     40  N   UNL A   1      40.085  29.270  29.816  1.00  0.00    -0.354 N 
ATOM     41  C   UNL A   1      43.143  27.679  32.409  1.00  0.00     0.074 A 
ATOM     42  C   UNL A   1      43.975  26.723  31.709  1.00  0.00     0.031 C 
ATOM     43  C   UNL A   1      38.957  29.527  27.904  1.00  0.00     0.029 A 
ATOM     44  C   UNL A   1      39.004  29.944  29.305  1.00  0.00     0.049 A 
ATOM     45  H   UNL A   1      40.399  29.377  30.743  1.00  0.00     0.167 HD
ATOM     46  C   UNL A   1      43.322  28.042  33.701  1.00  0.00     0.037 A 
ATOM     47  C   UNL A   1      38.141  30.786  29.905  1.00  0.00     0.037 A 
ATOM     48  C   UNL A   1      42.505  29.001  34.397  1.00  0.00     0.049 A 
ATOM     49  C   UNL A   1      38.327  31.131  31.359  1.00  0.00     0.074 A 
ATOM     50  C   UNL A   1      42.632  29.459  35.696  1.00  0.00     0.029 A 
ATOM     51  N   UNL A   1      41.404  29.642  33.852  1.00  0.00    -0.354 N 
ATOM     52  N   UNL A   1      39.261  30.736  32.190  1.00  0.00    -0.248 NA
ATOM     53  C   UNL A   1      37.340  32.041  31.956  1.00  0.00     0.031 C 
ATOM     54  C   UNL A   1      41.579  30.345  35.953  1.00  0.00     0.029 A 
ATOM     55  C   UNL A   1      40.825  30.471  34.799  1.00  0.00     0.049 A 
ATOM     56  H   UNL A   1      41.081  29.526  32.929  1.00  0.00     0.167 HD
ATOM     57  C   UNL A   1      38.989  31.369  33.397  1.00  0.00     0.074 A 
ATOM     58  C   UNL A   1      37.810  32.183  33.187  1.00  0.00     0.031 C 
ATOM     59  C   UNL A   1      39.657  31.284  34.574  1.00  0.00     0.037 A 
BRANCH  46  60
ATOM     60  C   UNL A   1      44.435  27.381  34.459  1.00  0.00     0.057 A 
ATOM     61  C   UNL A   1      45.705  27.961  34.565  1.00  0.00     0.134 A 
ATOM     62  C   UNL A   1      44.219  26.168  35.124  1.00  0.00     0.134 A 
ATOM     63  F   UNL A   1      45.979  29.116  33.940  1.00  0.00    -0.206 F 
ATOM     64  C   UNL A   1      46.728  27.349  35.293  1.00  0.00     0.040 A 
ATOM     65  C   UNL A   1      45.226  25.557  35.873  1.00  0.00     0.040 A 
ATOM     66  F   UNL A   1      43.024  25.561  35.064  1.00  0.00    -0.206 F 
ATOM     67  C   UNL A   1      46.487  26.146  35.956  1.00  0.00     0.006 A 
ENDBRANCH  46  60
BRANCH  47  68
ATOM     68  C   UNL A   1      37.004  31.353  29.138  1.00  0.00     0.057 A 
ATOM     69  C   UNL A   1      37.019  32.677  28.685  1.00  0.00     0.134 A 
ATOM     70  C   UNL A   1      35.860  30.592  28.868  1.00  0.00     0.134 A 
ATOM     71  F   UNL A   1      38.075  33.464  28.935  1.00  0.00    -0.206 F 
ATOM     72  C   UNL A   1      35.930  33.230  28.006  1.00  0.00     0.040 A 
ATOM     73  C   UNL A   1      34.775  31.124  28.170  1.00  0.00     0.040 A 
ATOM     74  F   UNL A   1      35.783  29.317  29.278  1.00  0.00    -0.206 F 
ATOM     75  C   UNL A   1      34.806  32.449  27.744  1.00  0.00     0.006 A 
ENDBRANCH  47  68
BRANCH  59  76
ATOM     76  C   UNL A   1      39.151  32.116  35.715  1.00  0.00     0.057 A 
ATOM     77  C   UNL A   1      39.506  33.462  35.864  1.00  0.00     0.134 A 
ATOM     78  C   UNL A   1      38.263  31.573  36.654  1.00  0.00     0.134 A 
ATOM     79  F   UNL A   1      40.362  34.037  35.005  1.00  0.00    -0.206 F 
ATOM     80  C   UNL A   1      39.013  34.234  36.917  1.00  0.00     0.040 A 
ATOM     81  C   UNL A   1      37.745  32.342  37.697  1.00  0.00     0.040 A 
ATOM     82  F   UNL A   1      37.875  30.293  36.565  1.00  0.00    -0.206 F 
ATOM     83  C   UNL A   1      38.125  33.676  37.833  1.00  0.00     0.006 A 
ENDBRANCH  59  76
ENDBRANCH  33  34
ENDBRANCH  26  28
ENDBRANCH  25  26
ENDBRANCH  24  25
ENDBRANCH  23  24
ENDBRANCH  22  23
ENDBRANCH  21  22
ENDBRANCH   1  21
TORSDOF 19
ENDMDL
MODEL 2
REMARK VINA RESULT:     -10.1      1.258      2.356
REMARK SMILES C[C@@H](C#N)CN(C)C(=O)N1CCC(CC(=O)OCCOCCOC(=O)c2ccc(-c3c4nc(c(-c5c(F)cccc5F)c5ccc([nH]5)c(-c5c(F)cccc5F)c5nc(c(-c6c(F)cccc6F)c6ccc3[nH]6)C=C5)C=C4)cc2)CC1
REMARK SMILES IDX 18 1 17 2 15 3 16 4 14 5 13 6 8 7 9 8 10 9 11 10 81 11 12 12
REMARK SMILES IDX 80 13 6 14 7 15 5 16 2 17 1 18 3 19 4 20 19 21 20 22 21 23
REMARK SMILES IDX 22 24 23 25 24 26 25 27 26 28 27 29 79 30 28 31 78 32 29 33
REMARK SMILES IDX 30 34 31 35 72 36 32 37 77 38 71 39 73 40 33 41 76 42 70 43
REMARK SMILES IDX 69 44 34 46 60 47 43 48 59 49 44 50 47 51 58 52 74 53 45 54
REMARK SMILES IDX 46 55 57 57 75 58 48 59 35 60 36 61 41 62 37 63 38 64 40 65
REMARK SMILES IDX 42 66 39 67 61 68 62 69 67 70 63 71 64 72 66 73 68 74 65 75
REMARK SMILES IDX 49 76 50 77 55 78 51 79 52 80 54 81 56 82 53 83
REMARK H PARENT 73 45 47 56
REMARK Flexibility Score: inf
ROOT
ATOM      1  C   UNL A   1      40.699  21.725  26.064  1.00  0.00     0.261 C 
ENDROOT
BRANCH   1   2
ATOM      2  O   UNL A   1      40.033  22.428  27.132  1.00  0.00    -0.463 OA
BRANCH   2   3
ATOM      3  C   UNL A   1      39.082  23.321  26.762  1.00  0.00     0.306 C 
ATOM      4  O   UNL A   1      39.085  24.509  27.059  1.00  0.00    -0.252 OA
BRANCH   3   5
ATOM      5  C   UNL A   1      37.948  22.689  25.981  1.00  0.00     0.126 C 
BRANCH   5   6
ATOM      6  C   UNL A   1      36.537  23.305  26.102  1.00  0.00     0.003 C 
ATOM      7  C   UNL A   1      33.394  22.703  23.910  1.00  0.00     0.319 C 
ATOM      8  O   UNL A   1      34.122  22.604  22.922  1.00  0.00    -0.248 OA
ATOM      9  N   UNL A   1      33.818  23.367  25.045  1.00  0.00    -0.325 N 
ATOM     10  C   UNL A   1      34.682  24.522  24.863  1.00  0.00     0.121 C 
ATOM     11  C   UNL A   1      34.059  22.628  26.273  1.00  0.00     0.121 C 
ATOM     12  C   UNL A   1      36.156  24.126  24.856  1.00  0.00     0.026 C 
ATOM     13  C   UNL A   1      35.516  22.164  26.335  1.00  0.00     0.026 C 
BRANCH   7  14
ATOM     14  N   UNL A   1      32.072  22.279  23.894  1.00  0.00    -0.326 N 
ATOM     15  C   UNL A   1      30.982  23.014  23.266  1.00  0.00     0.148 C 
BRANCH  14  16
ATOM     16  C   UNL A   1      31.775  20.921  24.384  1.00  0.00     0.139 C 
BRANCH  16  17
ATOM     17  C   UNL A   1      32.919  19.933  24.097  1.00  0.00     0.109 C 
ATOM     18  C   UNL A   1      33.370  19.131  25.322  1.00  0.00     0.026 C 
BRANCH  17  19
ATOM     19  C   UNL A   1      32.543  18.926  23.021  1.00  0.00     0.067 C 
ATOM     20  N   UNL A   1      32.231  18.093  22.128  1.00  0.00    -0.198 NA
ENDBRANCH  17  19
ENDBRANCH  16  17
ENDBRANCH  14  16
ENDBRANCH   7  14
ENDBRANCH   5   6
ENDBRANCH   3   5
ENDBRANCH   2   3
ENDBRANCH   1   2
BRANCH   1  21
ATOM     21  C   UNL A   1      41.972  21.038  26.563  1.00  0.00     0.202 C 
BRANCH  21  22
ATOM     22  O   UNL A   1      42.934  20.709  25.561  1.00  0.00    -0.374 OA
BRANCH  22  23
ATOM     23  C   UNL A   1      44.195  21.370  25.633  1.00  0.00     0.202 C 
BRANCH  23  24
ATOM     24  C   UNL A   1      44.522  22.306  24.463  1.00  0.00     0.261 C 
BRANCH  24  25
ATOM     25  O   UNL A   1      43.777  23.536  24.528  1.00  0.00    -0.460 OA
BRANCH  25  26
ATOM     26  C   UNL A   1      44.470  24.587  25.024  1.00  0.00     0.338 C 
ATOM     27  O   UNL A   1      45.587  24.965  24.688  1.00  0.00    -0.246 OA
BRANCH  26  28
ATOM     28  C   UNL A   1      43.631  25.369  25.952  1.00  0.00     0.060 A 
ATOM     29  C   UNL A   1      43.831  26.754  25.987  1.00  0.00     0.016 A 
ATOM     30  C   UNL A   1      42.729  24.760  26.828  1.00  0.00     0.016 A 
ATOM     31  C   UNL A   1      43.170  27.533  26.935  1.00  0.00     0.010 A 
ATOM     32  C   UNL A   1      42.071  25.543  27.784  1.00  0.00     0.010 A 
ATOM     33  C   UNL A   1      42.316  26.926  27.866  1.00  0.00    -0.014 A 
BRANCH  33  34
ATOM     34  C   UNL A   1      41.804  27.723  29.008  1.00  0.00     0.031 A 
ATOM     35  C   UNL A   1      42.522  27.655  30.328  1.00  0.00     0.074 A 
ATOM     36  C   UNL A   1      40.738  28.530  28.864  1.00  0.00     0.049 A 
ATOM     37  N   UNL A   1      42.244  28.257  31.457  1.00  0.00    -0.248 NA
ATOM     38  C   UNL A   1      43.713  26.792  30.384  1.00  0.00     0.031 C 
ATOM     39  C   UNL A   1      39.975  28.710  27.630  1.00  0.00     0.029 A 
ATOM     40  N   UNL A   1      40.109  29.345  29.772  1.00  0.00    -0.354 N 
ATOM     41  C   UNL A   1      43.218  27.841  32.357  1.00  0.00     0.074 A 
ATOM     42  C   UNL A   1      44.079  26.915  31.652  1.00  0.00     0.031 C 
ATOM     43  C   UNL A   1      38.973  29.575  27.862  1.00  0.00     0.029 A 
ATOM     44  C   UNL A   1      39.007  29.987  29.264  1.00  0.00     0.049 A 
ATOM     45  H   UNL A   1      40.420  29.458  30.699  1.00  0.00     0.167 HD
ATOM     46  C   UNL A   1      43.385  28.203  33.650  1.00  0.00     0.037 A 
ATOM     47  C   UNL A   1      38.118  30.799  29.868  1.00  0.00     0.037 A 
ATOM     48  C   UNL A   1      42.538  29.133  34.351  1.00  0.00     0.049 A 
ATOM     49  C   UNL A   1      38.294  31.142  31.324  1.00  0.00     0.074 A 
ATOM     50  C   UNL A   1      42.652  29.589  35.652  1.00  0.00     0.029 A 
ATOM     51  N   UNL A   1      41.417  29.741  33.809  1.00  0.00    -0.354 N 
ATOM     52  N   UNL A   1      39.240  30.773  32.153  1.00  0.00    -0.248 NA
ATOM     53  C   UNL A   1      37.278  32.018  31.926  1.00  0.00     0.031 C 
ATOM     54  C   UNL A   1      41.571  30.439  35.913  1.00  0.00     0.029 A 
ATOM     55  C   UNL A   1      40.812  30.547  34.760  1.00  0.00     0.049 A 
ATOM     56  H   UNL A   1      41.098  29.619  32.886  1.00  0.00     0.167 HD
ATOM     57  C   UNL A   1      38.949  31.392  33.363  1.00  0.00     0.074 A 
ATOM     58  C   UNL A   1      37.744  32.169  33.157  1.00  0.00     0.031 C 
ATOM     59  C   UNL A   1      39.619  31.323  34.539  1.00  0.00     0.037 A 
BRANCH  46  60
ATOM     60  C   UNL A   1      44.519  27.574  34.405  1.00  0.00     0.057 A 
ATOM     61  C   UNL A   1      45.777  28.183  34.494  1.00  0.00     0.134 A 
ATOM     62  C   UNL A   1      44.336  26.364  35.084  1.00  0.00     0.134 A 
ATOM     63  F   UNL A   1      46.020  29.338  33.855  1.00  0.00    -0.206 F 
ATOM     64  C   UNL A   1      46.819  27.601  35.218  1.00  0.00     0.040 A 
ATOM     65  C   UNL A   1      45.363  25.783  35.830  1.00  0.00     0.040 A 
ATOM     66  F   UNL A   1      43.154  25.731  35.041  1.00  0.00    -0.206 F 
ATOM     67  C   UNL A   1      46.610  26.401  35.895  1.00  0.00     0.006 A 
ENDBRANCH  46  60
BRANCH  47  68
ATOM     68  C   UNL A   1      36.963  31.333  29.105  1.00  0.00     0.057 A 
ATOM     69  C   UNL A   1      36.931  32.662  28.667  1.00  0.00     0.134 A 
ATOM     70  C   UNL A   1      35.848  30.533  28.823  1.00  0.00     0.134 A 
ATOM     71  F   UNL A   1      37.957  33.484  28.929  1.00  0.00    -0.206 F 
ATOM     72  C   UNL A   1      35.825  33.182  27.991  1.00  0.00     0.040 A 
ATOM     73  C   UNL A   1      34.746  31.034  28.127  1.00  0.00     0.040 A 
ATOM     74  F   UNL A   1      35.817  29.252  29.217  1.00  0.00    -0.206 F 
ATOM     75  C   UNL A   1      34.730  32.364  27.716  1.00  0.00     0.006 A 
ENDBRANCH  47  68
BRANCH  59  76
ATOM     76  C   UNL A   1      39.088  32.133  35.685  1.00  0.00     0.057 A 
ATOM     77  C   UNL A   1      38.245  31.580  36.655  1.00  0.00     0.134 A 
ATOM     78  C   UNL A   1      39.461  33.476  35.841  1.00  0.00     0.134 A 
ATOM     79  F   UNL A   1      37.842  30.304  36.556  1.00  0.00    -0.206 F 
ATOM     80  C   UNL A   1      37.773  32.336  37.729  1.00  0.00     0.040 A 
ATOM     81  C   UNL A   1      39.016  34.235  36.924  1.00  0.00     0.040 A 
ATOM     82  F   UNL A   1      40.274  34.065  34.953  1.00  0.00    -0.206 F 
ATOM     83  C   UNL A   1      38.165  33.666  37.869  1.00  0.00     0.006 A 
ENDBRANCH  59  76
ENDBRANCH  33  34
ENDBRANCH  26  28
ENDBRANCH  25  26
ENDBRANCH  24  25
ENDBRANCH  23  24
ENDBRANCH  22  23
ENDBRANCH  21  22
ENDBRANCH   1  21
TORSDOF 19
ENDMDL
MODEL 3
REMARK VINA RESULT:     -10.1      4.527      9.973
REMARK SMILES C[C@@H](C#N)CN(C)C(=O)N1CCC(CC(=O)OCCOCCOC(=O)c2ccc(-c3c4nc(c(-c5c(F)cccc5F)c5ccc([nH]5)c(-c5c(F)cccc5F)c5nc(c(-c6c(F)cccc6F)c6ccc3[nH]6)C=C5)C=C4)cc2)CC1
REMARK SMILES IDX 18 1 17 2 15 3 16 4 14 5 13 6 8 7 9 8 10 9 11 10 81 11 12 12
REMARK SMILES IDX 80 13 6 14 7 15 5 16 2 17 1 18 3 19 4 20 19 21 20 22 21 23
REMARK SMILES IDX 22 24 23 25 24 26 25 27 26 28 27 29 79 30 28 31 78 32 29 33
REMARK SMILES IDX 30 34 31 35 72 36 32 37 77 38 71 39 73 40 33 41 76 42 70 43
REMARK SMILES IDX 69 44 34 46 60 47 43 48 59 49 44 50 47 51 58 52 74 53 45 54
REMARK SMILES IDX 46 55 57 57 75 58 48 59 35 60 36 61 41 62 37 63 38 64 40 65
REMARK SMILES IDX 42 66 39 67 61 68 62 69 67 70 63 71 64 72 66 73 68 74 65 75
REMARK SMILES IDX 49 76 50 77 55 78 51 79 52 80 54 81 56 82 53 83
REMARK H PARENT 73 45 47 56
REMARK Flexibility Score: inf
ROOT
ATOM      1  C   UNL A   1      34.770  31.933  28.109  1.00  0.00     0.261 C 
ENDROOT
BRANCH   1   2
ATOM      2  O   UNL A   1      33.620  31.083  27.925  1.00  0.00    -0.463 OA
BRANCH   2   3
ATOM      3  C   UNL A   1      33.690  30.189  26.909  1.00  0.00     0.306 C 
ATOM      4  O   UNL A   1      34.616  29.408  26.726  1.00  0.00    -0.252 OA
BRANCH   3   5
ATOM      5  C   UNL A   1      32.519  30.286  25.952  1.00  0.00     0.126 C 
BRANCH   5   6
ATOM      6  C   UNL A   1      31.596  29.060  25.790  1.00  0.00     0.003 C 
ATOM      7  C   UNL A   1      32.477  25.450  24.673  1.00  0.00     0.319 C 
ATOM      8  O   UNL A   1      33.309  25.912  23.892  1.00  0.00    -0.248 OA
ATOM      9  N   UNL A   1      31.427  26.221  25.136  1.00  0.00    -0.325 N 
ATOM     10  C   UNL A   1      30.860  27.200  24.224  1.00  0.00     0.121 C 
ATOM     11  C   UNL A   1      31.369  26.606  26.537  1.00  0.00     0.121 C 
ATOM     12  C   UNL A   1      31.564  28.549  24.337  1.00  0.00     0.026 C 
ATOM     13  C   UNL A   1      32.083  27.944  26.748  1.00  0.00     0.026 C 
BRANCH   7  14
ATOM     14  N   UNL A   1      32.466  24.107  25.025  1.00  0.00    -0.326 N 
ATOM     15  C   UNL A   1      31.570  23.115  24.446  1.00  0.00     0.148 C 
BRANCH  14  16
ATOM     16  C   UNL A   1      33.539  23.614  25.907  1.00  0.00     0.139 C 
BRANCH  16  17
ATOM     17  C   UNL A   1      34.805  23.223  25.124  1.00  0.00     0.109 C 
ATOM     18  C   UNL A   1      36.103  23.761  25.735  1.00  0.00     0.026 C 
BRANCH  17  19
ATOM     19  C   UNL A   1      34.959  21.715  25.010  1.00  0.00     0.067 C 
ATOM     20  N   UNL A   1      35.086  20.464  24.915  1.00  0.00    -0.198 NA
ENDBRANCH  17  19
ENDBRANCH  16  17
ENDBRANCH  14  16
ENDBRANCH   7  14
ENDBRANCH   5   6
ENDBRANCH   3   5
ENDBRANCH   2   3
ENDBRANCH   1   2
BRANCH   1  21
ATOM     21  C   UNL A   1      34.368  33.409  28.139  1.00  0.00     0.202 C 
BRANCH  21  22
ATOM     22  O   UNL A   1      34.876  34.169  29.236  1.00  0.00    -0.374 OA
BRANCH  22  23
ATOM     23  C   UNL A   1      34.075  34.218  30.415  1.00  0.00     0.202 C 
BRANCH  23  24
ATOM     24  C   UNL A   1      34.816  33.962  31.732  1.00  0.00     0.261 C 
BRANCH  24  25
ATOM     25  O   UNL A   1      34.930  32.557  32.026  1.00  0.00    -0.460 OA
BRANCH  25  26
ATOM     26  C   UNL A   1      35.993  32.227  32.795  1.00  0.00     0.338 C 
ATOM     27  O   UNL A   1      36.121  32.408  34.001  1.00  0.00    -0.246 OA
BRANCH  26  28
ATOM     28  C   UNL A   1      36.972  31.444  32.018  1.00  0.00     0.060 A 
ATOM     29  C   UNL A   1      38.017  30.837  32.726  1.00  0.00     0.016 A 
ATOM     30  C   UNL A   1      36.923  31.369  30.624  1.00  0.00     0.016 A 
ATOM     31  C   UNL A   1      39.047  30.198  32.041  1.00  0.00     0.010 A 
ATOM     32  C   UNL A   1      37.962  30.732  29.936  1.00  0.00     0.010 A 
ATOM     33  C   UNL A   1      39.048  30.176  30.640  1.00  0.00    -0.014 A 
BRANCH  33  34
ATOM     34  C   UNL A   1      40.257  29.703  29.922  1.00  0.00     0.031 A 
ATOM     35  C   UNL A   1      41.402  30.655  29.710  1.00  0.00     0.074 A 
ATOM     36  C   UNL A   1      40.354  28.430  29.497  1.00  0.00     0.049 A 
ATOM     37  N   UNL A   1      42.545  30.458  29.103  1.00  0.00    -0.248 NA
ATOM     38  C   UNL A   1      41.237  32.012  30.255  1.00  0.00     0.031 C 
ATOM     39  C   UNL A   1      39.330  27.402  29.669  1.00  0.00     0.029 A 
ATOM     40  N   UNL A   1      41.367  27.790  28.827  1.00  0.00    -0.354 N 
ATOM     41  C   UNL A   1      43.231  31.664  29.186  1.00  0.00     0.074 A 
ATOM     42  C   UNL A   1      42.366  32.595  29.879  1.00  0.00     0.031 C 
ATOM     43  C   UNL A   1      39.763  26.259  29.108  1.00  0.00     0.029 A 
ATOM     44  C   UNL A   1      41.080  26.484  28.515  1.00  0.00     0.049 A 
ATOM     45  H   UNL A   1      42.217  28.227  28.593  1.00  0.00     0.167 HD
ATOM     46  C   UNL A   1      44.471  31.965  28.735  1.00  0.00     0.037 A 
ATOM     47  C   UNL A   1      41.793  25.580  27.815  1.00  0.00     0.037 A 
ATOM     48  C   UNL A   1      45.338  31.038  28.057  1.00  0.00     0.049 A 
ATOM     49  C   UNL A   1      43.146  25.958  27.274  1.00  0.00     0.074 A 
ATOM     50  C   UNL A   1      46.626  31.243  27.595  1.00  0.00     0.029 A 
ATOM     51  N   UNL A   1      45.000  29.733  27.737  1.00  0.00    -0.354 N 
ATOM     52  N   UNL A   1      43.799  27.089  27.393  1.00  0.00    -0.248 NA
ATOM     53  C   UNL A   1      43.863  24.931  26.503  1.00  0.00     0.031 C 
ATOM     54  C   UNL A   1      47.052  30.074  26.954  1.00  0.00     0.029 A 
ATOM     55  C   UNL A   1      46.046  29.128  27.058  1.00  0.00     0.049 A 
ATOM     56  H   UNL A   1      44.145  29.298  27.959  1.00  0.00     0.167 HD
ATOM     57  C   UNL A   1      45.010  26.901  26.737  1.00  0.00     0.074 A 
ATOM     58  C   UNL A   1      45.007  25.543  26.233  1.00  0.00     0.031 C 
ATOM     59  C   UNL A   1      46.033  27.774  26.569  1.00  0.00     0.037 A 
BRANCH  46  60
ATOM     60  C   UNL A   1      44.960  33.368  28.940  1.00  0.00     0.057 A 
ATOM     61  C   UNL A   1      45.712  33.734  30.064  1.00  0.00     0.134 A 
ATOM     62  C   UNL A   1      44.710  34.356  27.980  1.00  0.00     0.134 A 
ATOM     63  F   UNL A   1      45.975  32.837  31.027  1.00  0.00    -0.206 F 
ATOM     64  C   UNL A   1      46.183  35.037  30.234  1.00  0.00     0.040 A 
ATOM     65  C   UNL A   1      45.194  35.656  28.127  1.00  0.00     0.040 A 
ATOM     66  F   UNL A   1      43.998  34.070  26.879  1.00  0.00    -0.206 F 
ATOM     67  C   UNL A   1      45.930  36.001  29.259  1.00  0.00     0.006 A 
ENDBRANCH  46  60
BRANCH  47  68
ATOM     68  C   UNL A   1      41.234  24.229  27.564  1.00  0.00     0.057 A 
ATOM     69  C   UNL A   1      40.201  24.027  26.642  1.00  0.00     0.134 A 
ATOM     70  C   UNL A   1      41.700  23.110  28.266  1.00  0.00     0.134 A 
ATOM     71  F   UNL A   1      39.694  25.064  25.958  1.00  0.00    -0.206 F 
ATOM     72  C   UNL A   1      39.638  22.765  26.439  1.00  0.00     0.040 A 
ATOM     73  C   UNL A   1      41.164  21.839  28.055  1.00  0.00     0.040 A 
ATOM     74  F   UNL A   1      42.687  23.238  29.164  1.00  0.00    -0.206 F 
ATOM     75  C   UNL A   1      40.125  21.666  27.145  1.00  0.00     0.006 A 
ENDBRANCH  47  68
BRANCH  59  76
ATOM     76  C   UNL A   1      47.248  27.280  25.840  1.00  0.00     0.057 A 
ATOM     77  C   UNL A   1      47.409  27.462  24.462  1.00  0.00     0.134 A 
ATOM     78  C   UNL A   1      48.291  26.652  26.536  1.00  0.00     0.134 A 
ATOM     79  F   UNL A   1      46.442  28.045  23.737  1.00  0.00    -0.206 F 
ATOM     80  C   UNL A   1      48.552  27.018  23.795  1.00  0.00     0.040 A 
ATOM     81  C   UNL A   1      49.450  26.227  25.885  1.00  0.00     0.040 A 
ATOM     82  F   UNL A   1      48.205  26.455  27.859  1.00  0.00    -0.206 F 
ATOM     83  C   UNL A   1      49.580  26.405  24.509  1.00  0.00     0.006 A 
ENDBRANCH  59  76
ENDBRANCH  33  34
ENDBRANCH  26  28
ENDBRANCH  25  26
ENDBRANCH  24  25
ENDBRANCH  23  24
ENDBRANCH  22  23
ENDBRANCH  21  22
ENDBRANCH   1  21
TORSDOF 19
ENDMDL
