MODEL 1
REMARK VINA RESULT:      -8.6      0.000      0.000
REMARK SMILES O=C(OCCOCCOC(=O)c1cnc(OCC2CC2)c(Cl)c1)c1ccc(-c2c3nc(c(-c4c(F)cccc4F)c4ccc([nH]4)c(-c4c(F)cccc4F)c4nc(c(-c5c(F)cccc5F)c5ccc2[nH]5)C=C4)C=C3)cc1
REMARK SMILES IDX 7 1 6 2 5 3 4 4 3 5 2 6 1 7 24 8 25 9 77 10 26 11 76 12
REMARK SMILES IDX 27 13 28 14 29 15 70 16 30 17 75 18 69 19 71 20 31 21 74 22
REMARK SMILES IDX 68 23 67 24 32 26 58 27 41 28 57 29 42 30 45 31 56 32 72 33
REMARK SMILES IDX 43 34 44 35 55 37 73 38 46 39 33 40 34 41 39 42 35 43 36 44
REMARK SMILES IDX 38 45 40 46 37 47 59 48 60 49 65 50 61 51 62 52 64 53 66 54
REMARK SMILES IDX 63 55 47 56 48 57 53 58 49 59 50 60 52 61 54 62 51 63 8 64
REMARK SMILES IDX 9 65 10 66 11 67 12 68 13 69 23 70 14 71 21 72 15 73 22 74
REMARK SMILES IDX 16 75 17 76 18 77 19 78 20 79
REMARK H PARENT 71 25 45 36
REMARK Flexibility Score: inf
ROOT
ATOM      1  C   UNL A   1      46.100  19.284  25.327  1.00  0.00     0.202 C 
ENDROOT
BRANCH   1   2
ATOM      2  O   UNL A   1      45.092  18.462  24.730  1.00  0.00    -0.374 OA
BRANCH   2   3
ATOM      3  C   UNL A   1      43.736  18.837  24.972  1.00  0.00     0.202 C 
BRANCH   3   4
ATOM      4  C   UNL A   1      42.982  17.955  25.974  1.00  0.00     0.261 C 
BRANCH   4   5
ATOM      5  O   UNL A   1      41.990  18.716  26.686  1.00  0.00    -0.460 OA
BRANCH   5   6
ATOM      6  C   UNL A   1      41.366  19.854  26.287  1.00  0.00     0.338 C 
ATOM      7  O   UNL A   1      40.454  19.778  25.467  1.00  0.00    -0.246 OA
BRANCH   6   8
ATOM      8  C   UNL A   1      41.743  21.207  26.792  1.00  0.00     0.060 A 
ATOM      9  C   UNL A   1      41.980  22.301  25.967  1.00  0.00     0.016 A 
ATOM     10  C   UNL A   1      41.775  21.414  28.180  1.00  0.00     0.016 A 
ATOM     11  C   UNL A   1      42.315  23.538  26.468  1.00  0.00     0.010 A 
ATOM     12  C   UNL A   1      42.044  22.685  28.706  1.00  0.00     0.010 A 
ATOM     13  C   UNL A   1      42.319  23.748  27.839  1.00  0.00    -0.014 A 
BRANCH  13  14
ATOM     14  C   UNL A   1      42.710  25.096  28.270  1.00  0.00     0.031 A 
ATOM     15  C   UNL A   1      41.633  26.102  28.508  1.00  0.00     0.074 A 
ATOM     16  C   UNL A   1      43.983  25.299  28.664  1.00  0.00     0.049 A 
ATOM     17  N   UNL A   1      41.735  27.331  28.930  1.00  0.00    -0.248 NA
ATOM     18  C   UNL A   1      40.250  25.658  28.261  1.00  0.00     0.031 C 
ATOM     19  C   UNL A   1      45.053  24.293  28.612  1.00  0.00     0.029 A 
ATOM     20  N   UNL A   1      44.579  26.384  29.243  1.00  0.00    -0.354 N 
ATOM     21  C   UNL A   1      40.435  27.813  28.982  1.00  0.00     0.074 A 
ATOM     22  C   UNL A   1      39.560  26.753  28.535  1.00  0.00     0.031 C 
ATOM     23  C   UNL A   1      46.163  24.801  29.169  1.00  0.00     0.029 A 
ATOM     24  C   UNL A   1      45.909  26.188  29.531  1.00  0.00     0.049 A 
ATOM     25  H   UNL A   1      44.104  27.224  29.435  1.00  0.00     0.167 HD
ATOM     26  C   UNL A   1      40.022  29.040  29.370  1.00  0.00     0.037 A 
ATOM     27  C   UNL A   1      46.823  27.057  29.996  1.00  0.00     0.037 A 
ATOM     28  C   UNL A   1      40.928  30.067  29.806  1.00  0.00     0.049 A 
ATOM     29  C   UNL A   1      46.353  28.455  30.293  1.00  0.00     0.074 A 
ATOM     30  C   UNL A   1      40.658  31.382  30.130  1.00  0.00     0.029 A 
ATOM     31  N   UNL A   1      42.294  29.879  29.980  1.00  0.00    -0.354 N 
ATOM     32  N   UNL A   1      45.136  28.945  30.243  1.00  0.00    -0.248 NA
ATOM     33  C   UNL A   1      47.378  29.424  30.693  1.00  0.00     0.031 C 
ATOM     34  C   UNL A   1      41.869  32.002  30.457  1.00  0.00     0.029 A 
ATOM     35  C   UNL A   1      42.885  31.059  30.394  1.00  0.00     0.049 A 
ATOM     36  H   UNL A   1      42.771  29.031  29.831  1.00  0.00     0.167 HD
ATOM     37  C   UNL A   1      45.244  30.274  30.619  1.00  0.00     0.074 A 
ATOM     38  C   UNL A   1      46.644  30.501  30.928  1.00  0.00     0.031 C 
ATOM     39  C   UNL A   1      44.285  31.232  30.693  1.00  0.00     0.037 A 
BRANCH  26  40
ATOM     40  C   UNL A   1      38.557  29.333  29.262  1.00  0.00     0.057 A 
ATOM     41  C   UNL A   1      37.948  29.661  28.043  1.00  0.00     0.134 A 
ATOM     42  C   UNL A   1      37.748  29.317  30.404  1.00  0.00     0.134 A 
ATOM     43  F   UNL A   1      38.674  29.730  26.917  1.00  0.00    -0.206 F 
ATOM     44  C   UNL A   1      36.592  29.985  27.970  1.00  0.00     0.040 A 
ATOM     45  C   UNL A   1      36.386  29.615  30.340  1.00  0.00     0.040 A 
ATOM     46  F   UNL A   1      38.271  29.026  31.604  1.00  0.00    -0.206 F 
ATOM     47  C   UNL A   1      35.805  29.956  29.121  1.00  0.00     0.006 A 
ENDBRANCH  26  40
BRANCH  27  48
ATOM     48  C   UNL A   1      48.256  26.675  30.112  1.00  0.00     0.057 A 
ATOM     49  C   UNL A   1      48.741  25.938  31.198  1.00  0.00     0.134 A 
ATOM     50  C   UNL A   1      49.195  27.094  29.157  1.00  0.00     0.134 A 
ATOM     51  F   UNL A   1      47.903  25.519  32.157  1.00  0.00    -0.206 F 
ATOM     52  C   UNL A   1      50.103  25.664  31.350  1.00  0.00     0.040 A 
ATOM     53  C   UNL A   1      50.553  26.797  29.277  1.00  0.00     0.040 A 
ATOM     54  F   UNL A   1      48.806  27.804  28.087  1.00  0.00    -0.206 F 
ATOM     55  C   UNL A   1      51.014  26.093  30.385  1.00  0.00     0.006 A 
ENDBRANCH  27  48
BRANCH  39  56
ATOM     56  C   UNL A   1      44.730  32.585  31.157  1.00  0.00     0.057 A 
ATOM     57  C   UNL A   1      45.105  33.588  30.255  1.00  0.00     0.134 A 
ATOM     58  C   UNL A   1      44.763  32.889  32.523  1.00  0.00     0.134 A 
ATOM     59  F   UNL A   1      45.109  33.352  28.935  1.00  0.00    -0.206 F 
ATOM     60  C   UNL A   1      45.533  34.839  30.700  1.00  0.00     0.040 A 
ATOM     61  C   UNL A   1      45.155  34.147  32.977  1.00  0.00     0.040 A 
ATOM     62  F   UNL A   1      44.404  31.974  33.435  1.00  0.00    -0.206 F 
ATOM     63  C   UNL A   1      45.551  35.122  32.064  1.00  0.00     0.006 A 
ENDBRANCH  39  56
ENDBRANCH  13  14
ENDBRANCH   6   8
ENDBRANCH   5   6
ENDBRANCH   4   5
ENDBRANCH   3   4
ENDBRANCH   2   3
ENDBRANCH   1   2
BRANCH   1  64
ATOM     64  C   UNL A   1      46.519  20.370  24.333  1.00  0.00     0.261 C 
BRANCH  64  65
ATOM     65  O   UNL A   1      46.390  21.648  24.975  1.00  0.00    -0.460 OA
BRANCH  65  66
ATOM     66  C   UNL A   1      45.540  22.505  24.356  1.00  0.00     0.339 C 
ATOM     67  O   UNL A   1      44.576  22.242  23.656  1.00  0.00    -0.246 OA
BRANCH  66  68
ATOM     68  C   UNL A   1      45.867  23.852  24.821  1.00  0.00     0.080 A 
ATOM     69  C   UNL A   1      44.882  24.814  24.881  1.00  0.00     0.131 A 
ATOM     70  C   UNL A   1      47.151  24.194  25.213  1.00  0.00     0.043 A 
ATOM     71  N   UNL A   1      45.100  26.057  25.365  1.00  0.00    -0.220 NA
ATOM     72  C   UNL A   1      47.427  25.502  25.619  1.00  0.00     0.104 A 
ATOM     73  C   UNL A   1      46.366  26.408  25.735  1.00  0.00     0.232 A 
ATOM     74  Cl  UNL A   1      49.107  25.830  25.820  1.00  0.00    -0.078 Cl
BRANCH  73  75
ATOM     75  O   UNL A   1      46.356  27.686  26.178  1.00  0.00    -0.476 OA
BRANCH  75  76
ATOM     76  C   UNL A   1      45.186  28.486  26.258  1.00  0.00     0.235 C 
BRANCH  76  77
ATOM     77  C   UNL A   1      45.412  29.750  27.038  1.00  0.00     0.027 C 
ATOM     78  C   UNL A   1      45.803  31.026  26.336  1.00  0.00     0.007 C 
ATOM     79  C   UNL A   1      44.442  30.901  26.964  1.00  0.00     0.007 C 
ENDBRANCH  76  77
ENDBRANCH  75  76
ENDBRANCH  73  75
ENDBRANCH  66  68
ENDBRANCH  65  66
ENDBRANCH  64  65
ENDBRANCH   1  64
TORSDOF 17
ENDMDL
MODEL 2
REMARK VINA RESULT:      -8.6      1.143      6.640
REMARK SMILES O=C(OCCOCCOC(=O)c1cnc(OCC2CC2)c(Cl)c1)c1ccc(-c2c3nc(c(-c4c(F)cccc4F)c4ccc([nH]4)c(-c4c(F)cccc4F)c4nc(c(-c5c(F)cccc5F)c5ccc2[nH]5)C=C4)C=C3)cc1
REMARK SMILES IDX 7 1 6 2 5 3 4 4 3 5 2 6 1 7 24 8 25 9 77 10 26 11 76 12
REMARK SMILES IDX 27 13 28 14 29 15 70 16 30 17 75 18 69 19 71 20 31 21 74 22
REMARK SMILES IDX 68 23 67 24 32 26 58 27 41 28 57 29 42 30 45 31 56 32 72 33
REMARK SMILES IDX 43 34 44 35 55 37 73 38 46 39 33 40 34 41 39 42 35 43 36 44
REMARK SMILES IDX 38 45 40 46 37 47 59 48 60 49 65 50 61 51 62 52 64 53 66 54
REMARK SMILES IDX 63 55 47 56 48 57 53 58 49 59 50 60 52 61 54 62 51 63 8 64
REMARK SMILES IDX 9 65 10 66 11 67 12 68 13 69 23 70 14 71 21 72 15 73 22 74
REMARK SMILES IDX 16 75 17 76 18 77 19 78 20 79
REMARK H PARENT 71 25 45 36
REMARK Flexibility Score: inf
ROOT
ATOM      1  C   UNL A   1      46.189  20.296  25.367  1.00  0.00     0.202 C 
ENDROOT
BRANCH   1   2
ATOM      2  O   UNL A   1      45.341  19.245  24.894  1.00  0.00    -0.374 OA
BRANCH   2   3
ATOM      3  C   UNL A   1      43.937  19.424  25.082  1.00  0.00     0.202 C 
BRANCH   3   4
ATOM      4  C   UNL A   1      43.172  18.176  25.537  1.00  0.00     0.261 C 
BRANCH   4   5
ATOM      5  O   UNL A   1      42.005  18.535  26.298  1.00  0.00    -0.460 OA
BRANCH   5   6
ATOM      6  C   UNL A   1      41.217  19.630  26.149  1.00  0.00     0.338 C 
ATOM      7  O   UNL A   1      40.192  19.541  25.478  1.00  0.00    -0.246 OA
BRANCH   6   8
ATOM      8  C   UNL A   1      41.542  20.954  26.758  1.00  0.00     0.060 A 
ATOM      9  C   UNL A   1      41.100  22.169  26.247  1.00  0.00     0.016 A 
ATOM     10  C   UNL A   1      42.259  20.972  27.966  1.00  0.00     0.016 A 
ATOM     11  C   UNL A   1      41.411  23.370  26.841  1.00  0.00     0.010 A 
ATOM     12  C   UNL A   1      42.521  22.183  28.621  1.00  0.00     0.010 A 
ATOM     13  C   UNL A   1      42.095  23.386  28.048  1.00  0.00    -0.014 A 
BRANCH  13  14
ATOM     14  C   UNL A   1      42.394  24.719  28.587  1.00  0.00     0.031 A 
ATOM     15  C   UNL A   1      43.822  25.078  28.835  1.00  0.00     0.074 A 
ATOM     16  C   UNL A   1      41.408  25.637  28.607  1.00  0.00     0.049 A 
ATOM     17  N   UNL A   1      44.325  26.201  29.264  1.00  0.00    -0.248 NA
ATOM     18  C   UNL A   1      44.823  24.038  28.537  1.00  0.00     0.031 C 
ATOM     19  C   UNL A   1      40.015  25.389  28.212  1.00  0.00     0.029 A 
ATOM     20  N   UNL A   1      41.432  26.971  28.905  1.00  0.00    -0.354 N 
ATOM     21  C   UNL A   1      45.697  26.000  29.305  1.00  0.00     0.074 A 
ATOM     22  C   UNL A   1      45.951  24.644  28.873  1.00  0.00     0.031 C 
ATOM     23  C   UNL A   1      39.330  26.541  28.263  1.00  0.00     0.029 A 
ATOM     24  C   UNL A   1      40.208  27.583  28.776  1.00  0.00     0.049 A 
ATOM     25  H   UNL A   1      42.247  27.448  29.185  1.00  0.00     0.167 HD
ATOM     26  C   UNL A   1      46.652  26.881  29.675  1.00  0.00     0.037 A 
ATOM     27  C   UNL A   1      39.840  28.838  29.084  1.00  0.00     0.037 A 
ATOM     28  C   UNL A   1      46.354  28.222  30.101  1.00  0.00     0.049 A 
ATOM     29  C   UNL A   1      40.905  29.755  29.620  1.00  0.00     0.074 A 
ATOM     30  C   UNL A   1      47.210  29.184  30.597  1.00  0.00     0.029 A 
ATOM     31  N   UNL A   1      45.084  28.786  30.071  1.00  0.00    -0.354 N 
ATOM     32  N   UNL A   1      42.192  29.533  29.759  1.00  0.00    -0.248 NA
ATOM     33  C   UNL A   1      40.472  31.085  30.058  1.00  0.00     0.031 C 
ATOM     34  C   UNL A   1      46.449  30.316  30.911  1.00  0.00     0.029 A 
ATOM     35  C   UNL A   1      45.129  30.080  30.555  1.00  0.00     0.049 A 
ATOM     36  H   UNL A   1      44.271  28.330  29.752  1.00  0.00     0.167 HD
ATOM     37  C   UNL A   1      42.726  30.699  30.285  1.00  0.00     0.074 A 
ATOM     38  C   UNL A   1      41.625  31.636  30.406  1.00  0.00     0.031 C 
ATOM     39  C   UNL A   1      44.003  30.976  30.651  1.00  0.00     0.037 A 
BRANCH  26  40
ATOM     40  C   UNL A   1      48.065  26.386  29.701  1.00  0.00     0.057 A 
ATOM     41  C   UNL A   1      48.645  25.840  30.854  1.00  0.00     0.134 A 
ATOM     42  C   UNL A   1      48.869  26.488  28.560  1.00  0.00     0.134 A 
ATOM     43  F   UNL A   1      47.940  25.748  31.992  1.00  0.00    -0.206 F 
ATOM     44  C   UNL A   1      49.981  25.434  30.876  1.00  0.00     0.040 A 
ATOM     45  C   UNL A   1      50.199  26.063  28.562  1.00  0.00     0.040 A 
ATOM     46  F   UNL A   1      48.380  27.015  27.428  1.00  0.00    -0.206 F 
ATOM     47  C   UNL A   1      50.760  25.538  29.724  1.00  0.00     0.006 A 
ENDBRANCH  26  40
BRANCH  27  48
ATOM     48  C   UNL A   1      38.417  29.265  28.994  1.00  0.00     0.057 A 
ATOM     49  C   UNL A   1      37.860  29.737  27.800  1.00  0.00     0.134 A 
ATOM     50  C   UNL A   1      37.590  29.266  30.127  1.00  0.00     0.134 A 
ATOM     51  F   UNL A   1      38.598  29.780  26.681  1.00  0.00    -0.206 F 
ATOM     52  C   UNL A   1      36.552  30.226  27.744  1.00  0.00     0.040 A 
ATOM     53  C   UNL A   1      36.270  29.717  30.077  1.00  0.00     0.040 A 
ATOM     54  F   UNL A   1      38.053  28.827  31.307  1.00  0.00    -0.206 F 
ATOM     55  C   UNL A   1      35.752  30.214  28.886  1.00  0.00     0.006 A 
ENDBRANCH  27  48
BRANCH  39  56
ATOM     56  C   UNL A   1      44.260  32.355  31.177  1.00  0.00     0.057 A 
ATOM     57  C   UNL A   1      44.289  32.628  32.550  1.00  0.00     0.134 A 
ATOM     58  C   UNL A   1      44.502  33.414  30.295  1.00  0.00     0.134 A 
ATOM     59  F   UNL A   1      44.051  31.657  33.443  1.00  0.00    -0.206 F 
ATOM     60  C   UNL A   1      44.514  33.919  33.027  1.00  0.00     0.040 A 
ATOM     61  C   UNL A   1      44.762  34.702  30.761  1.00  0.00     0.040 A 
ATOM     62  F   UNL A   1      44.499  33.213  28.969  1.00  0.00    -0.206 F 
ATOM     63  C   UNL A   1      44.759  34.958  32.130  1.00  0.00     0.006 A 
ENDBRANCH  39  56
ENDBRANCH  13  14
ENDBRANCH   6   8
ENDBRANCH   5   6
ENDBRANCH   4   5
ENDBRANCH   3   4
ENDBRANCH   2   3
ENDBRANCH   1   2
BRANCH   1  64
ATOM     64  C   UNL A   1      46.056  21.508  24.442  1.00  0.00     0.261 C 
BRANCH  64  65
ATOM     65  O   UNL A   1      45.483  22.591  25.191  1.00  0.00    -0.460 OA
BRANCH  65  66
ATOM     66  C   UNL A   1      44.416  23.182  24.599  1.00  0.00     0.339 C 
ATOM     67  O   UNL A   1      43.481  22.652  24.021  1.00  0.00    -0.246 OA
BRANCH  66  68
ATOM     68  C   UNL A   1      44.469  24.605  24.929  1.00  0.00     0.080 A 
ATOM     69  C   UNL A   1      45.681  25.197  25.216  1.00  0.00     0.131 A 
ATOM     70  C   UNL A   1      43.327  25.388  24.958  1.00  0.00     0.043 A 
ATOM     71  N   UNL A   1      45.810  26.520  25.460  1.00  0.00    -0.220 NA
ATOM     72  C   UNL A   1      43.419  26.737  25.310  1.00  0.00     0.104 A 
ATOM     73  C   UNL A   1      44.688  27.294  25.509  1.00  0.00     0.232 A 
ATOM     74  Cl  UNL A   1      41.893  27.500  25.553  1.00  0.00    -0.078 Cl
BRANCH  73  75
ATOM     75  O   UNL A   1      45.047  28.572  25.774  1.00  0.00    -0.476 OA
BRANCH  75  76
ATOM     76  C   UNL A   1      46.390  28.996  25.945  1.00  0.00     0.235 C 
BRANCH  76  77
ATOM     77  C   UNL A   1      46.522  30.056  27.003  1.00  0.00     0.027 C 
ATOM     78  C   UNL A   1      46.941  31.457  26.638  1.00  0.00     0.007 C 
ATOM     79  C   UNL A   1      45.536  31.190  27.103  1.00  0.00     0.007 C 
ENDBRANCH  76  77
ENDBRANCH  75  76
ENDBRANCH  73  75
ENDBRANCH  66  68
ENDBRANCH  65  66
ENDBRANCH  64  65
ENDBRANCH   1  64
TORSDOF 17
ENDMDL
MODEL 3
REMARK VINA RESULT:      -8.2      5.044      9.498
REMARK SMILES O=C(OCCOCCOC(=O)c1cnc(OCC2CC2)c(Cl)c1)c1ccc(-c2c3nc(c(-c4c(F)cccc4F)c4ccc([nH]4)c(-c4c(F)cccc4F)c4nc(c(-c5c(F)cccc5F)c5ccc2[nH]5)C=C4)C=C3)cc1
REMARK SMILES IDX 7 1 6 2 5 3 4 4 3 5 2 6 1 7 24 8 25 9 77 10 26 11 76 12
REMARK SMILES IDX 27 13 28 14 29 15 70 16 30 17 75 18 69 19 71 20 31 21 74 22
REMARK SMILES IDX 68 23 67 24 32 26 58 27 41 28 57 29 42 30 45 31 56 32 72 33
REMARK SMILES IDX 43 34 44 35 55 37 73 38 46 39 33 40 34 41 39 42 35 43 36 44
REMARK SMILES IDX 38 45 40 46 37 47 59 48 60 49 65 50 61 51 62 52 64 53 66 54
REMARK SMILES IDX 63 55 47 56 48 57 53 58 49 59 50 60 52 61 54 62 51 63 8 64
REMARK SMILES IDX 9 65 10 66 11 67 12 68 13 69 23 70 14 71 21 72 15 73 22 74
REMARK SMILES IDX 16 75 17 76 18 77 19 78 20 79
REMARK H PARENT 71 25 45 36
REMARK Flexibility Score: inf
ROOT
ATOM      1  C   UNL A   1      40.420  20.037  26.141  1.00  0.00     0.202 C 
ENDROOT
BRANCH   1   2
ATOM      2  O   UNL A   1      41.816  19.982  25.829  1.00  0.00    -0.374 OA
BRANCH   2   3
ATOM      3  C   UNL A   1      42.629  21.031  26.355  1.00  0.00     0.202 C 
BRANCH   3   4
ATOM      4  C   UNL A   1      43.574  21.695  25.347  1.00  0.00     0.261 C 
BRANCH   4   5
ATOM      5  O   UNL A   1      43.035  22.946  24.881  1.00  0.00    -0.460 OA
BRANCH   5   6
ATOM      6  C   UNL A   1      43.503  24.197  25.121  1.00  0.00     0.338 C 
ATOM      7  O   UNL A   1      44.365  24.664  24.381  1.00  0.00    -0.246 OA
BRANCH   6   8
ATOM      8  C   UNL A   1      43.025  25.039  26.257  1.00  0.00     0.060 A 
ATOM      9  C   UNL A   1      42.054  24.631  27.166  1.00  0.00     0.016 A 
ATOM     10  C   UNL A   1      43.650  26.276  26.477  1.00  0.00     0.016 A 
ATOM     11  C   UNL A   1      41.645  25.430  28.209  1.00  0.00     0.010 A 
ATOM     12  C   UNL A   1      43.294  27.070  27.577  1.00  0.00     0.010 A 
ATOM     13  C   UNL A   1      42.282  26.639  28.441  1.00  0.00    -0.014 A 
BRANCH  13  14
ATOM     14  C   UNL A   1      41.757  27.424  29.566  1.00  0.00     0.031 A 
ATOM     15  C   UNL A   1      42.543  27.457  30.835  1.00  0.00     0.074 A 
ATOM     16  C   UNL A   1      40.731  28.267  29.334  1.00  0.00     0.049 A 
ATOM     17  N   UNL A   1      42.301  28.109  31.936  1.00  0.00    -0.248 NA
ATOM     18  C   UNL A   1      43.786  26.665  30.859  1.00  0.00     0.031 C 
ATOM     19  C   UNL A   1      40.023  28.404  28.054  1.00  0.00     0.029 A 
ATOM     20  N   UNL A   1      40.149  29.210  30.134  1.00  0.00    -0.354 N 
ATOM     21  C   UNL A   1      43.347  27.795  32.791  1.00  0.00     0.074 A 
ATOM     22  C   UNL A   1      44.221  26.882  32.090  1.00  0.00     0.031 C 
ATOM     23  C   UNL A   1      39.125  29.396  28.150  1.00  0.00     0.029 A 
ATOM     24  C   UNL A   1      39.134  29.901  29.516  1.00  0.00     0.049 A 
ATOM     25  H   UNL A   1      40.428  29.378  31.063  1.00  0.00     0.167 HD
ATOM     26  C   UNL A   1      43.548  28.238  34.051  1.00  0.00     0.037 A 
ATOM     27  C   UNL A   1      38.282  30.809  30.022  1.00  0.00     0.037 A 
ATOM     28  C   UNL A   1      42.650  29.146  34.712  1.00  0.00     0.049 A 
ATOM     29  C   UNL A   1      38.453  31.180  31.470  1.00  0.00     0.074 A 
ATOM     30  C   UNL A   1      42.677  29.596  36.017  1.00  0.00     0.029 A 
ATOM     31  N   UNL A   1      41.557  29.747  34.098  1.00  0.00    -0.354 N 
ATOM     32  N   UNL A   1      39.385  30.802  32.314  1.00  0.00    -0.248 NA
ATOM     33  C   UNL A   1      37.451  32.085  32.042  1.00  0.00     0.031 C 
ATOM     34  C   UNL A   1      41.572  30.434  36.205  1.00  0.00     0.029 A 
ATOM     35  C   UNL A   1      40.890  30.553  35.002  1.00  0.00     0.049 A 
ATOM     36  H   UNL A   1      41.295  29.617  33.158  1.00  0.00     0.167 HD
ATOM     37  C   UNL A   1      39.093  31.434  33.512  1.00  0.00     0.074 A 
ATOM     38  C   UNL A   1      37.915  32.248  33.271  1.00  0.00     0.031 C 
ATOM     39  C   UNL A   1      39.724  31.348  34.711  1.00  0.00     0.037 A 
BRANCH  26  40
ATOM     40  C   UNL A   1      44.726  27.683  34.790  1.00  0.00     0.057 A 
ATOM     41  C   UNL A   1      44.613  26.605  35.677  1.00  0.00     0.134 A 
ATOM     42  C   UNL A   1      45.992  28.261  34.635  1.00  0.00     0.134 A 
ATOM     43  F   UNL A   1      43.422  26.029  35.900  1.00  0.00    -0.206 F 
ATOM     44  C   UNL A   1      45.713  26.136  36.399  1.00  0.00     0.040 A 
ATOM     45  C   UNL A   1      47.104  27.786  35.332  1.00  0.00     0.040 A 
ATOM     46  F   UNL A   1      46.167  29.306  33.813  1.00  0.00    -0.206 F 
ATOM     47  C   UNL A   1      46.965  26.723  36.222  1.00  0.00     0.006 A 
ENDBRANCH  26  40
BRANCH  27  48
ATOM     48  C   UNL A   1      37.156  31.343  29.208  1.00  0.00     0.057 A 
ATOM     49  C   UNL A   1      37.171  32.640  28.684  1.00  0.00     0.134 A 
ATOM     50  C   UNL A   1      36.002  30.578  28.982  1.00  0.00     0.134 A 
ATOM     51  F   UNL A   1      38.236  33.433  28.875  1.00  0.00    -0.206 F 
ATOM     52  C   UNL A   1      36.072  33.169  28.002  1.00  0.00     0.040 A 
ATOM     53  C   UNL A   1      34.911  31.081  28.272  1.00  0.00     0.040 A 
ATOM     54  F   UNL A   1      35.913  29.325  29.453  1.00  0.00    -0.206 F 
ATOM     55  C   UNL A   1      34.938  32.386  27.792  1.00  0.00     0.006 A 
ENDBRANCH  27  48
BRANCH  39  56
ATOM     56  C   UNL A   1      39.161  32.182  35.820  1.00  0.00     0.057 A 
ATOM     57  C   UNL A   1      38.227  31.670  36.729  1.00  0.00     0.134 A 
ATOM     58  C   UNL A   1      39.578  33.507  35.990  1.00  0.00     0.134 A 
ATOM     59  F   UNL A   1      37.778  30.412  36.609  1.00  0.00    -0.206 F 
ATOM     60  C   UNL A   1      37.699  32.462  37.749  1.00  0.00     0.040 A 
ATOM     61  C   UNL A   1      39.083  34.297  37.027  1.00  0.00     0.040 A 
ATOM     62  F   UNL A   1      40.480  34.051  35.159  1.00  0.00    -0.206 F 
ATOM     63  C   UNL A   1      38.133  33.777  37.903  1.00  0.00     0.006 A 
ENDBRANCH  39  56
ENDBRANCH  13  14
ENDBRANCH   6   8
ENDBRANCH   5   6
ENDBRANCH   4   5
ENDBRANCH   3   4
ENDBRANCH   2   3
ENDBRANCH   1   2
BRANCH   1  64
ATOM     64  C   UNL A   1      40.014  21.492  26.384  1.00  0.00     0.261 C 
BRANCH  64  65
ATOM     65  O   UNL A   1      38.730  21.713  25.782  1.00  0.00    -0.460 OA
BRANCH  65  66
ATOM     66  C   UNL A   1      38.216  22.950  25.989  1.00  0.00     0.339 C 
ATOM     67  O   UNL A   1      38.813  24.007  26.113  1.00  0.00    -0.246 OA
BRANCH  66  68
ATOM     68  C   UNL A   1      36.764  22.845  25.858  1.00  0.00     0.080 A 
ATOM     69  C   UNL A   1      36.167  21.602  25.825  1.00  0.00     0.131 A 
ATOM     70  C   UNL A   1      35.958  23.969  25.771  1.00  0.00     0.043 A 
ATOM     71  N   UNL A   1      34.826  21.435  25.776  1.00  0.00    -0.220 NA
ATOM     72  C   UNL A   1      34.577  23.822  25.614  1.00  0.00     0.104 A 
ATOM     73  C   UNL A   1      34.028  22.536  25.671  1.00  0.00     0.232 A 
ATOM     74  Cl  UNL A   1      33.756  25.295  25.261  1.00  0.00    -0.078 Cl
BRANCH  73  75
ATOM     75  O   UNL A   1      32.735  22.138  25.629  1.00  0.00    -0.476 OA
BRANCH  75  76
ATOM     76  C   UNL A   1      31.935  22.173  24.457  1.00  0.00     0.235 C 
BRANCH  76  77
ATOM     77  C   UNL A   1      32.573  21.442  23.309  1.00  0.00     0.027 C 
ATOM     78  C   UNL A   1      32.195  20.015  23.003  1.00  0.00     0.007 C 
ATOM     79  C   UNL A   1      31.797  21.116  22.059  1.00  0.00     0.007 C 
ENDBRANCH  76  77
ENDBRANCH  75  76
ENDBRANCH  73  75
ENDBRANCH  66  68
ENDBRANCH  65  66
ENDBRANCH  64  65
ENDBRANCH   1  64
TORSDOF 17
ENDMDL
