MODEL 1
REMARK VINA RESULT:     -11.0      0.000      0.000
REMARK SMILES CCc1cc(Oc2cncc(C(=O)OCCOCCOC(=O)c3ccc(-c4c5nc(c(-c6c(F)cccc6F)c6ccc([nH]6)c(-c6c(F)cccc6F)c6nc(c(-c7c(F)cccc7F)c7ccc4[nH]7)C=C6)C=C5)cc3)n2)ccc1Cl
REMARK SMILES IDX 16 1 15 2 14 3 12 4 13 5 11 6 7 7 8 8 77 9 9 10 10 11 6 12
REMARK SMILES IDX 5 13 3 14 4 15 80 16 79 17 81 18 78 19 2 20 1 21 17 22 18 23
REMARK SMILES IDX 19 24 20 25 21 26 22 27 23 28 24 29 76 30 25 31 75 32 26 33
REMARK SMILES IDX 27 34 28 35 69 36 29 37 74 38 68 39 70 40 30 41 73 42 67 43
REMARK SMILES IDX 66 44 31 46 57 47 40 48 56 49 41 50 44 51 55 52 71 53 42 54
REMARK SMILES IDX 43 55 54 57 72 58 45 59 32 60 33 61 38 62 34 63 35 64 37 65
REMARK SMILES IDX 39 66 36 67 58 68 59 69 64 70 60 71 61 72 63 73 65 74 62 75
REMARK SMILES IDX 46 76 47 77 52 78 48 79 49 80 51 81 53 82 50 83
REMARK H PARENT 70 45 44 56
REMARK Flexibility Score: inf
ROOT
ATOM      1  C   UNL A   1      43.681  19.481  25.409  1.00  0.00     0.202 C 
ENDROOT
BRANCH   1   2
ATOM      2  C   UNL A   1      42.204  19.335  25.787  1.00  0.00     0.261 C 
BRANCH   2   3
ATOM      3  O   UNL A   1      41.542  20.611  25.766  1.00  0.00    -0.458 OA
BRANCH   3   4
ATOM      4  C   UNL A   1      40.663  20.828  26.776  1.00  0.00     0.358 C 
ATOM      5  O   UNL A   1      40.788  20.463  27.936  1.00  0.00    -0.244 OA
BRANCH   4   6
ATOM      6  C   UNL A   1      39.551  21.708  26.336  1.00  0.00     0.170 A 
ATOM      7  C   UNL A   1      37.663  22.137  25.095  1.00  0.00     0.238 A 
ATOM      8  C   UNL A   1      37.609  23.414  25.651  1.00  0.00     0.179 A 
ATOM      9  N   UNL A   1      38.635  21.254  25.438  1.00  0.00    -0.203 NA
ATOM     10  N   UNL A   1      38.550  23.886  26.508  1.00  0.00    -0.257 NA
ATOM     11  C   UNL A   1      39.518  22.999  26.842  1.00  0.00     0.147 A 
BRANCH   7  12
ATOM     12  O   UNL A   1      36.691  21.624  24.270  1.00  0.00    -0.437 OA
BRANCH  12  13
ATOM     13  C   UNL A   1      35.361  21.674  24.629  1.00  0.00     0.129 A 
ATOM     14  C   UNL A   1      33.208  22.767  24.165  1.00  0.00    -0.026 A 
ATOM     15  C   UNL A   1      34.572  22.559  23.876  1.00  0.00     0.052 A 
ATOM     16  C   UNL A   1      32.660  22.062  25.252  1.00  0.00     0.044 A 
ATOM     17  C   UNL A   1      33.447  21.185  26.010  1.00  0.00     0.024 A 
ATOM     18  Cl  UNL A   1      31.014  22.257  25.745  1.00  0.00    -0.084 Cl
ATOM     19  C   UNL A   1      34.799  21.006  25.714  1.00  0.00     0.049 A 
BRANCH  14  20
ATOM     20  C   UNL A   1      32.396  23.798  23.402  1.00  0.00     0.034 C 
ATOM     21  C   UNL A   1      33.185  24.794  22.559  1.00  0.00     0.009 C 
ENDBRANCH  14  20
ENDBRANCH  12  13
ENDBRANCH   7  12
ENDBRANCH   4   6
ENDBRANCH   3   4
ENDBRANCH   2   3
ENDBRANCH   1   2
BRANCH   1  22
ATOM     22  O   UNL A   1      44.180  20.820  25.408  1.00  0.00    -0.374 OA
BRANCH  22  23
ATOM     23  C   UNL A   1      44.925  21.223  24.256  1.00  0.00     0.202 C 
BRANCH  23  24
ATOM     24  C   UNL A   1      44.511  22.560  23.632  1.00  0.00     0.261 C 
BRANCH  24  25
ATOM     25  O   UNL A   1      43.819  23.391  24.581  1.00  0.00    -0.460 OA
BRANCH  25  26
ATOM     26  C   UNL A   1      44.515  24.465  25.017  1.00  0.00     0.338 C 
ATOM     27  O   UNL A   1      45.615  24.839  24.633  1.00  0.00    -0.246 OA
BRANCH  26  28
ATOM     28  C   UNL A   1      43.685  25.269  25.933  1.00  0.00     0.060 A 
ATOM     29  C   UNL A   1      43.976  26.636  26.033  1.00  0.00     0.016 A 
ATOM     30  C   UNL A   1      42.688  24.697  26.727  1.00  0.00     0.016 A 
ATOM     31  C   UNL A   1      43.312  27.425  26.970  1.00  0.00     0.010 A 
ATOM     32  C   UNL A   1      42.026  25.490  27.672  1.00  0.00     0.010 A 
ATOM     33  C   UNL A   1      42.362  26.848  27.823  1.00  0.00    -0.014 A 
BRANCH  33  34
ATOM     34  C   UNL A   1      41.843  27.630  28.971  1.00  0.00     0.031 A 
ATOM     35  C   UNL A   1      42.558  27.544  30.293  1.00  0.00     0.074 A 
ATOM     36  C   UNL A   1      40.780  28.442  28.830  1.00  0.00     0.049 A 
ATOM     37  N   UNL A   1      42.271  28.120  31.431  1.00  0.00    -0.248 NA
ATOM     38  C   UNL A   1      43.760  26.695  30.332  1.00  0.00     0.031 C 
ATOM     39  C   UNL A   1      40.032  28.650  27.592  1.00  0.00     0.029 A 
ATOM     40  N   UNL A   1      40.148  29.245  29.746  1.00  0.00    -0.354 N 
ATOM     41  C   UNL A   1      43.257  27.710  32.321  1.00  0.00     0.074 A 
ATOM     42  C   UNL A   1      44.127  26.806  31.601  1.00  0.00     0.031 C 
ATOM     43  C   UNL A   1      39.036  29.522  27.827  1.00  0.00     0.029 A 
ATOM     44  C   UNL A   1      39.060  29.909  29.236  1.00  0.00     0.049 A 
ATOM     45  H   UNL A   1      40.445  29.336  30.680  1.00  0.00     0.167 HD
ATOM     46  C   UNL A   1      43.430  28.064  33.616  1.00  0.00     0.037 A 
ATOM     47  C   UNL A   1      38.175  30.723  29.844  1.00  0.00     0.037 A 
ATOM     48  C   UNL A   1      42.562  28.956  34.336  1.00  0.00     0.049 A 
ATOM     49  C   UNL A   1      38.339  31.029  31.311  1.00  0.00     0.074 A 
ATOM     50  C   UNL A   1      42.646  29.367  35.656  1.00  0.00     0.029 A 
ATOM     51  N   UNL A   1      41.448  29.579  33.795  1.00  0.00    -0.354 N 
ATOM     52  N   UNL A   1      39.277  30.641  32.139  1.00  0.00    -0.248 NA
ATOM     53  C   UNL A   1      37.317  31.892  31.925  1.00  0.00     0.031 C 
ATOM     54  C   UNL A   1      41.561  30.207  35.923  1.00  0.00     0.029 A 
ATOM     55  C   UNL A   1      40.827  30.356  34.758  1.00  0.00     0.049 A 
ATOM     56  H   UNL A   1      41.143  29.481  32.863  1.00  0.00     0.167 HD
ATOM     57  C   UNL A   1      38.980  31.237  33.359  1.00  0.00     0.074 A 
ATOM     58  C   UNL A   1      37.779  32.021  33.160  1.00  0.00     0.031 C 
ATOM     59  C   UNL A   1      39.643  31.146  34.538  1.00  0.00     0.037 A 
BRANCH  46  60
ATOM     60  C   UNL A   1      44.603  27.472  34.341  1.00  0.00     0.057 A 
ATOM     61  C   UNL A   1      44.560  26.178  34.876  1.00  0.00     0.134 A 
ATOM     62  C   UNL A   1      45.798  28.189  34.475  1.00  0.00     0.134 A 
ATOM     63  F   UNL A   1      43.439  25.445  34.794  1.00  0.00    -0.206 F 
ATOM     64  C   UNL A   1      45.658  25.626  35.536  1.00  0.00     0.040 A 
ATOM     65  C   UNL A   1      46.911  27.638  35.113  1.00  0.00     0.040 A 
ATOM     66  F   UNL A   1      45.907  29.432  33.981  1.00  0.00    -0.206 F 
ATOM     67  C   UNL A   1      46.841  26.354  35.650  1.00  0.00     0.006 A 
ENDBRANCH  46  60
BRANCH  47  68
ATOM     68  C   UNL A   1      37.043  31.305  29.081  1.00  0.00     0.057 A 
ATOM     69  C   UNL A   1      37.062  32.641  28.661  1.00  0.00     0.134 A 
ATOM     70  C   UNL A   1      35.896  30.555  28.793  1.00  0.00     0.134 A 
ATOM     71  F   UNL A   1      38.122  33.417  28.931  1.00  0.00    -0.206 F 
ATOM     72  C   UNL A   1      35.973  33.216  28.005  1.00  0.00     0.040 A 
ATOM     73  C   UNL A   1      34.811  31.111  28.114  1.00  0.00     0.040 A 
ATOM     74  F   UNL A   1      35.814  29.271  29.170  1.00  0.00    -0.206 F 
ATOM     75  C   UNL A   1      34.844  32.448  27.727  1.00  0.00     0.006 A 
ENDBRANCH  47  68
BRANCH  59  76
ATOM     76  C   UNL A   1      39.116  31.953  35.688  1.00  0.00     0.057 A 
ATOM     77  C   UNL A   1      38.224  31.415  36.624  1.00  0.00     0.134 A 
ATOM     78  C   UNL A   1      39.537  33.275  35.881  1.00  0.00     0.134 A 
ATOM     79  F   UNL A   1      37.772  30.160  36.489  1.00  0.00    -0.206 F 
ATOM     80  C   UNL A   1      37.751  32.171  37.698  1.00  0.00     0.040 A 
ATOM     81  C   UNL A   1      39.092  34.033  36.965  1.00  0.00     0.040 A 
ATOM     82  F   UNL A   1      40.399  33.847  35.026  1.00  0.00    -0.206 F 
ATOM     83  C   UNL A   1      38.190  33.484  37.873  1.00  0.00     0.006 A 
ENDBRANCH  59  76
ENDBRANCH  33  34
ENDBRANCH  26  28
ENDBRANCH  25  26
ENDBRANCH  24  25
ENDBRANCH  23  24
ENDBRANCH  22  23
ENDBRANCH   1  22
TORSDOF 17
ENDMDL
MODEL 2
REMARK VINA RESULT:     -10.8      5.103     10.217
REMARK SMILES CCc1cc(Oc2cncc(C(=O)OCCOCCOC(=O)c3ccc(-c4c5nc(c(-c6c(F)cccc6F)c6ccc([nH]6)c(-c6c(F)cccc6F)c6nc(c(-c7c(F)cccc7F)c7ccc4[nH]7)C=C6)C=C5)cc3)n2)ccc1Cl
REMARK SMILES IDX 16 1 15 2 14 3 12 4 13 5 11 6 7 7 8 8 77 9 9 10 10 11 6 12
REMARK SMILES IDX 5 13 3 14 4 15 80 16 79 17 81 18 78 19 2 20 1 21 17 22 18 23
REMARK SMILES IDX 19 24 20 25 21 26 22 27 23 28 24 29 76 30 25 31 75 32 26 33
REMARK SMILES IDX 27 34 28 35 69 36 29 37 74 38 68 39 70 40 30 41 73 42 67 43
REMARK SMILES IDX 66 44 31 46 57 47 40 48 56 49 41 50 44 51 55 52 71 53 42 54
REMARK SMILES IDX 43 55 54 57 72 58 45 59 32 60 33 61 38 62 34 63 35 64 37 65
REMARK SMILES IDX 39 66 36 67 58 68 59 69 64 70 60 71 61 72 63 73 65 74 62 75
REMARK SMILES IDX 46 76 47 77 52 78 48 79 49 80 51 81 53 82 50 83
REMARK H PARENT 70 45 44 56
REMARK Flexibility Score: inf
ROOT
ATOM      1  C   UNL A   1      34.105  33.429  28.571  1.00  0.00     0.202 C 
ENDROOT
BRANCH   1   2
ATOM      2  C   UNL A   1      34.623  32.262  27.725  1.00  0.00     0.261 C 
BRANCH   2   3
ATOM      3  O   UNL A   1      33.620  31.240  27.594  1.00  0.00    -0.458 OA
BRANCH   3   4
ATOM      4  C   UNL A   1      34.087  30.000  27.304  1.00  0.00     0.358 C 
ATOM      5  O   UNL A   1      35.152  29.524  27.667  1.00  0.00    -0.244 OA
BRANCH   4   6
ATOM      6  C   UNL A   1      33.065  29.201  26.582  1.00  0.00     0.170 A 
ATOM      7  C   UNL A   1      31.753  27.329  26.323  1.00  0.00     0.238 A 
ATOM      8  C   UNL A   1      31.212  27.890  25.168  1.00  0.00     0.179 A 
ATOM      9  N   UNL A   1      32.687  27.983  27.059  1.00  0.00    -0.203 NA
ATOM     10  N   UNL A   1      31.625  29.081  24.662  1.00  0.00    -0.257 NA
ATOM     11  C   UNL A   1      32.559  29.725  25.402  1.00  0.00     0.147 A 
BRANCH   7  12
ATOM     12  O   UNL A   1      31.309  26.153  26.878  1.00  0.00    -0.437 OA
BRANCH  12  13
ATOM     13  C   UNL A   1      31.774  24.938  26.425  1.00  0.00     0.129 A 
ATOM     14  C   UNL A   1      33.705  23.783  25.433  1.00  0.00    -0.026 A 
ATOM     15  C   UNL A   1      33.107  24.935  25.983  1.00  0.00     0.052 A 
ATOM     16  C   UNL A   1      32.910  22.628  25.326  1.00  0.00     0.044 A 
ATOM     17  C   UNL A   1      31.578  22.629  25.758  1.00  0.00     0.024 A 
ATOM     18  Cl  UNL A   1      33.502  21.159  24.629  1.00  0.00    -0.084 Cl
ATOM     19  C   UNL A   1      31.003  23.786  26.287  1.00  0.00     0.049 A 
BRANCH  14  20
ATOM     20  C   UNL A   1      35.115  23.827  24.873  1.00  0.00     0.034 C 
ATOM     21  C   UNL A   1      36.230  23.368  25.807  1.00  0.00     0.009 C 
ENDBRANCH  14  20
ENDBRANCH  12  13
ENDBRANCH   7  12
ENDBRANCH   4   6
ENDBRANCH   3   4
ENDBRANCH   2   3
ENDBRANCH   1   2
BRANCH   1  22
ATOM     22  O   UNL A   1      34.028  33.176  29.975  1.00  0.00    -0.374 OA
BRANCH  22  23
ATOM     23  C   UNL A   1      34.320  34.277  30.840  1.00  0.00     0.202 C 
BRANCH  23  24
ATOM     24  C   UNL A   1      34.713  33.908  32.275  1.00  0.00     0.261 C 
BRANCH  24  25
ATOM     25  O   UNL A   1      35.037  32.511  32.388  1.00  0.00    -0.460 OA
BRANCH  25  26
ATOM     26  C   UNL A   1      36.174  32.240  33.067  1.00  0.00     0.338 C 
ATOM     27  O   UNL A   1      36.396  32.449  34.253  1.00  0.00    -0.246 OA
BRANCH  26  28
ATOM     28  C   UNL A   1      37.104  31.475  32.215  1.00  0.00     0.060 A 
ATOM     29  C   UNL A   1      38.087  30.713  32.859  1.00  0.00     0.016 A 
ATOM     30  C   UNL A   1      37.064  31.548  30.821  1.00  0.00     0.016 A 
ATOM     31  C   UNL A   1      39.070  30.067  32.112  1.00  0.00     0.010 A 
ATOM     32  C   UNL A   1      38.055  30.904  30.073  1.00  0.00     0.010 A 
ATOM     33  C   UNL A   1      39.084  30.192  30.717  1.00  0.00    -0.014 A 
BRANCH  33  34
ATOM     34  C   UNL A   1      40.261  29.712  29.954  1.00  0.00     0.031 A 
ATOM     35  C   UNL A   1      41.401  30.663  29.701  1.00  0.00     0.074 A 
ATOM     36  C   UNL A   1      40.339  28.438  29.532  1.00  0.00     0.049 A 
ATOM     37  N   UNL A   1      42.515  30.468  29.043  1.00  0.00    -0.248 NA
ATOM     38  C   UNL A   1      41.265  32.013  30.271  1.00  0.00     0.031 C 
ATOM     39  C   UNL A   1      39.326  27.409  29.756  1.00  0.00     0.029 A 
ATOM     40  N   UNL A   1      41.324  27.795  28.824  1.00  0.00    -0.354 N 
ATOM     41  C   UNL A   1      43.215  31.666  29.124  1.00  0.00     0.074 A 
ATOM     42  C   UNL A   1      42.384  32.593  29.861  1.00  0.00     0.031 C 
ATOM     43  C   UNL A   1      39.740  26.261  29.190  1.00  0.00     0.029 A 
ATOM     44  C   UNL A   1      41.031  26.484  28.542  1.00  0.00     0.049 A 
ATOM     45  H   UNL A   1      42.161  28.232  28.545  1.00  0.00     0.167 HD
ATOM     46  C   UNL A   1      44.444  31.964  28.640  1.00  0.00     0.037 A 
ATOM     47  C   UNL A   1      41.720  25.574  27.826  1.00  0.00     0.037 A 
ATOM     48  C   UNL A   1      45.268  31.046  27.900  1.00  0.00     0.049 A 
ATOM     49  C   UNL A   1      43.045  25.959  27.220  1.00  0.00     0.074 A 
ATOM     50  C   UNL A   1      46.523  31.258  27.355  1.00  0.00     0.029 A 
ATOM     51  N   UNL A   1      44.919  29.738  27.601  1.00  0.00    -0.354 N 
ATOM     52  N   UNL A   1      43.699  27.091  27.307  1.00  0.00    -0.248 NA
ATOM     53  C   UNL A   1      43.728  24.933  26.416  1.00  0.00     0.031 C 
ATOM     54  C   UNL A   1      46.916  30.090  26.694  1.00  0.00     0.029 A 
ATOM     55  C   UNL A   1      45.926  29.137  26.865  1.00  0.00     0.049 A 
ATOM     56  H   UNL A   1      44.077  29.303  27.871  1.00  0.00     0.167 HD
ATOM     57  C   UNL A   1      44.882  26.904  26.603  1.00  0.00     0.074 A 
ATOM     58  C   UNL A   1      44.860  25.546  26.102  1.00  0.00     0.031 C 
ATOM     59  C   UNL A   1      45.897  27.777  26.391  1.00  0.00     0.037 A 
BRANCH  46  60
ATOM     60  C   UNL A   1      44.965  33.348  28.888  1.00  0.00     0.057 A 
ATOM     61  C   UNL A   1      45.757  33.646  30.004  1.00  0.00     0.134 A 
ATOM     62  C   UNL A   1      44.702  34.386  27.985  1.00  0.00     0.134 A 
ATOM     63  F   UNL A   1      46.033  32.700  30.915  1.00  0.00    -0.206 F 
ATOM     64  C   UNL A   1      46.253  34.932  30.223  1.00  0.00     0.040 A 
ATOM     65  C   UNL A   1      45.211  35.670  28.181  1.00  0.00     0.040 A 
ATOM     66  F   UNL A   1      43.952  34.166  26.894  1.00  0.00    -0.206 F 
ATOM     67  C   UNL A   1      45.986  35.947  29.306  1.00  0.00     0.006 A 
ENDBRANCH  46  60
BRANCH  47  68
ATOM     68  C   UNL A   1      41.175  24.207  27.626  1.00  0.00     0.057 A 
ATOM     69  C   UNL A   1      41.709  23.107  28.307  1.00  0.00     0.134 A 
ATOM     70  C   UNL A   1      40.140  23.962  26.715  1.00  0.00     0.134 A 
ATOM     71  F   UNL A   1      42.719  23.276  29.172  1.00  0.00    -0.206 F 
ATOM     72  C   UNL A   1      41.251  21.810  28.074  1.00  0.00     0.040 A 
ATOM     73  C   UNL A   1      39.655  22.673  26.491  1.00  0.00     0.040 A 
ATOM     74  F   UNL A   1      39.587  24.972  26.029  1.00  0.00    -0.206 F 
ATOM     75  C   UNL A   1      40.217  21.591  27.164  1.00  0.00     0.006 A 
ENDBRANCH  47  68
BRANCH  59  76
ATOM     76  C   UNL A   1      47.089  27.275  25.630  1.00  0.00     0.057 A 
ATOM     77  C   UNL A   1      47.257  27.532  24.263  1.00  0.00     0.134 A 
ATOM     78  C   UNL A   1      48.100  26.558  26.283  1.00  0.00     0.134 A 
ATOM     79  F   UNL A   1      46.320  28.202  23.577  1.00  0.00    -0.206 F 
ATOM     80  C   UNL A   1      48.377  27.072  23.568  1.00  0.00     0.040 A 
ATOM     81  C   UNL A   1      49.236  26.115  25.605  1.00  0.00     0.040 A 
ATOM     82  F   UNL A   1      48.004  26.287  27.594  1.00  0.00    -0.206 F 
ATOM     83  C   UNL A   1      49.374  26.366  24.242  1.00  0.00     0.006 A 
ENDBRANCH  59  76
ENDBRANCH  33  34
ENDBRANCH  26  28
ENDBRANCH  25  26
ENDBRANCH  24  25
ENDBRANCH  23  24
ENDBRANCH  22  23
ENDBRANCH   1  22
TORSDOF 17
ENDMDL
MODEL 3
REMARK VINA RESULT:     -10.5      4.402      7.054
REMARK SMILES CCc1cc(Oc2cncc(C(=O)OCCOCCOC(=O)c3ccc(-c4c5nc(c(-c6c(F)cccc6F)c6ccc([nH]6)c(-c6c(F)cccc6F)c6nc(c(-c7c(F)cccc7F)c7ccc4[nH]7)C=C6)C=C5)cc3)n2)ccc1Cl
REMARK SMILES IDX 16 1 15 2 14 3 12 4 13 5 11 6 7 7 8 8 77 9 9 10 10 11 6 12
REMARK SMILES IDX 5 13 3 14 4 15 80 16 79 17 81 18 78 19 2 20 1 21 17 22 18 23
REMARK SMILES IDX 19 24 20 25 21 26 22 27 23 28 24 29 76 30 25 31 75 32 26 33
REMARK SMILES IDX 27 34 28 35 69 36 29 37 74 38 68 39 70 40 30 41 73 42 67 43
REMARK SMILES IDX 66 44 31 46 57 47 40 48 56 49 41 50 44 51 55 52 71 53 42 54
REMARK SMILES IDX 43 55 54 57 72 58 45 59 32 60 33 61 38 62 34 63 35 64 37 65
REMARK SMILES IDX 39 66 36 67 58 68 59 69 64 70 60 71 61 72 63 73 65 74 62 75
REMARK SMILES IDX 46 76 47 77 52 78 48 79 49 80 51 81 53 82 50 83
REMARK H PARENT 70 45 44 56
REMARK Flexibility Score: inf
ROOT
ATOM      1  C   UNL A   1      42.758  19.486  26.502  1.00  0.00     0.202 C 
ENDROOT
BRANCH   1   2
ATOM      2  C   UNL A   1      43.366  18.135  26.115  1.00  0.00     0.261 C 
BRANCH   2   3
ATOM      3  O   UNL A   1      44.175  18.257  24.933  1.00  0.00    -0.458 OA
BRANCH   3   4
ATOM      4  C   UNL A   1      45.399  18.812  25.119  1.00  0.00     0.358 C 
ATOM      5  O   UNL A   1      46.427  18.219  25.411  1.00  0.00    -0.244 OA
BRANCH   4   6
ATOM      6  C   UNL A   1      45.385  20.259  24.787  1.00  0.00     0.170 A 
ATOM      7  C   UNL A   1      45.944  22.450  25.207  1.00  0.00     0.238 A 
ATOM      8  C   UNL A   1      45.270  22.826  24.047  1.00  0.00     0.179 A 
ATOM      9  N   UNL A   1      46.021  21.151  25.594  1.00  0.00    -0.203 NA
ATOM     10  N   UNL A   1      44.590  21.944  23.269  1.00  0.00    -0.257 NA
ATOM     11  C   UNL A   1      44.671  20.651  23.664  1.00  0.00     0.147 A 
BRANCH   7  12
ATOM     12  O   UNL A   1      46.681  23.320  25.975  1.00  0.00    -0.437 OA
BRANCH  12  13
ATOM     13  C   UNL A   1      46.172  23.833  27.148  1.00  0.00     0.129 A 
ATOM     14  C   UNL A   1      46.700  25.193  29.127  1.00  0.00    -0.026 A 
ATOM     15  C   UNL A   1      47.054  24.647  27.877  1.00  0.00     0.052 A 
ATOM     16  C   UNL A   1      45.425  24.880  29.634  1.00  0.00     0.044 A 
ATOM     17  C   UNL A   1      44.546  24.062  28.914  1.00  0.00     0.024 A 
ATOM     18  Cl  UNL A   1      44.879  25.445  31.175  1.00  0.00    -0.084 Cl
ATOM     19  C   UNL A   1      44.924  23.521  27.683  1.00  0.00     0.049 A 
BRANCH  14  20
ATOM     20  C   UNL A   1      47.700  25.991  29.943  1.00  0.00     0.034 C 
ATOM     21  C   UNL A   1      49.174  25.745  29.638  1.00  0.00     0.009 C 
ENDBRANCH  14  20
ENDBRANCH  12  13
ENDBRANCH   7  12
ENDBRANCH   4   6
ENDBRANCH   3   4
ENDBRANCH   2   3
ENDBRANCH   1   2
BRANCH   1  22
ATOM     22  O   UNL A   1      41.418  19.432  26.997  1.00  0.00    -0.374 OA
BRANCH  22  23
ATOM     23  C   UNL A   1      40.374  19.636  26.041  1.00  0.00     0.202 C 
BRANCH  23  24
ATOM     24  C   UNL A   1      39.744  21.033  26.035  1.00  0.00     0.261 C 
BRANCH  24  25
ATOM     25  O   UNL A   1      40.457  21.934  26.901  1.00  0.00    -0.460 OA
BRANCH  25  26
ATOM     26  C   UNL A   1      41.316  22.770  26.274  1.00  0.00     0.338 C 
ATOM     27  O   UNL A   1      41.996  22.527  25.287  1.00  0.00    -0.246 OA
BRANCH  26  28
ATOM     28  C   UNL A   1      41.211  24.126  26.845  1.00  0.00     0.060 A 
ATOM     29  C   UNL A   1      41.360  25.206  25.966  1.00  0.00     0.016 A 
ATOM     30  C   UNL A   1      41.037  24.344  28.213  1.00  0.00     0.016 A 
ATOM     31  C   UNL A   1      41.394  26.508  26.460  1.00  0.00     0.010 A 
ATOM     32  C   UNL A   1      41.078  25.652  28.709  1.00  0.00     0.010 A 
ATOM     33  C   UNL A   1      41.295  26.737  27.839  1.00  0.00    -0.014 A 
BRANCH  33  34
ATOM     34  C   UNL A   1      41.576  28.090  28.376  1.00  0.00     0.031 A 
ATOM     35  C   UNL A   1      43.004  28.562  28.446  1.00  0.00     0.074 A 
ATOM     36  C   UNL A   1      40.576  28.906  28.752  1.00  0.00     0.049 A 
ATOM     37  N   UNL A   1      43.484  29.693  28.896  1.00  0.00    -0.248 NA
ATOM     38  C   UNL A   1      44.026  27.634  27.935  1.00  0.00     0.031 C 
ATOM     39  C   UNL A   1      39.152  28.586  28.687  1.00  0.00     0.029 A 
ATOM     40  N   UNL A   1      40.613  30.179  29.265  1.00  0.00    -0.354 N 
ATOM     41  C   UNL A   1      44.860  29.615  28.719  1.00  0.00     0.074 A 
ATOM     42  C   UNL A   1      45.142  28.312  28.157  1.00  0.00     0.031 C 
ATOM     43  C   UNL A   1      38.448  29.635  29.149  1.00  0.00     0.029 A 
ATOM     44  C   UNL A   1      39.374  30.686  29.568  1.00  0.00     0.049 A 
ATOM     45  H   UNL A   1      41.449  30.681  29.403  1.00  0.00     0.167 HD
ATOM     46  C   UNL A   1      45.803  30.549  28.989  1.00  0.00     0.037 A 
ATOM     47  C   UNL A   1      39.029  31.858  30.135  1.00  0.00     0.037 A 
ATOM     48  C   UNL A   1      45.526  31.842  29.555  1.00  0.00     0.049 A 
ATOM     49  C   UNL A   1      40.106  32.844  30.509  1.00  0.00     0.074 A 
ATOM     50  C   UNL A   1      46.415  32.853  29.877  1.00  0.00     0.029 A 
ATOM     51  N   UNL A   1      44.260  32.303  29.884  1.00  0.00    -0.354 N 
ATOM     52  N   UNL A   1      41.402  32.763  30.332  1.00  0.00    -0.248 NA
ATOM     53  C   UNL A   1      39.668  34.088  31.160  1.00  0.00     0.031 C 
ATOM     54  C   UNL A   1      45.691  33.910  30.437  1.00  0.00     0.029 A 
ATOM     55  C   UNL A   1      44.347  33.576  30.421  1.00  0.00     0.049 A 
ATOM     56  H   UNL A   1      43.424  31.798  29.756  1.00  0.00     0.167 HD
ATOM     57  C   UNL A   1      41.929  33.954  30.816  1.00  0.00     0.074 A 
ATOM     58  C   UNL A   1      40.812  34.745  31.286  1.00  0.00     0.031 C 
ATOM     59  C   UNL A   1      43.222  34.358  30.866  1.00  0.00     0.037 A 
BRANCH  46  60
ATOM     60  C   UNL A   1      47.228  30.197  28.681  1.00  0.00     0.057 A 
ATOM     61  C   UNL A   1      48.083  29.671  29.659  1.00  0.00     0.134 A 
ATOM     62  C   UNL A   1      47.742  30.352  27.388  1.00  0.00     0.134 A 
ATOM     63  F   UNL A   1      47.657  29.513  30.921  1.00  0.00    -0.206 F 
ATOM     64  C   UNL A   1      49.404  29.331  29.364  1.00  0.00     0.040 A 
ATOM     65  C   UNL A   1      49.054  29.993  27.076  1.00  0.00     0.040 A 
ATOM     66  F   UNL A   1      46.973  30.846  26.404  1.00  0.00    -0.206 F 
ATOM     67  C   UNL A   1      49.891  29.485  28.067  1.00  0.00     0.006 A 
ENDBRANCH  46  60
BRANCH  47  68
ATOM     68  C   UNL A   1      37.603  32.174  30.399  1.00  0.00     0.057 A 
ATOM     69  C   UNL A   1      36.965  31.727  31.562  1.00  0.00     0.134 A 
ATOM     70  C   UNL A   1      36.831  32.888  29.473  1.00  0.00     0.134 A 
ATOM     71  F   UNL A   1      37.644  31.015  32.472  1.00  0.00    -0.206 F 
ATOM     72  C   UNL A   1      35.606  31.958  31.785  1.00  0.00     0.040 A 
ATOM     73  C   UNL A   1      35.479  33.149  29.697  1.00  0.00     0.040 A 
ATOM     74  F   UNL A   1      37.383  33.341  28.338  1.00  0.00    -0.206 F 
ATOM     75  C   UNL A   1      34.860  32.675  30.851  1.00  0.00     0.006 A 
ENDBRANCH  47  68
BRANCH  59  76
ATOM     76  C   UNL A   1      43.493  35.735  31.398  1.00  0.00     0.057 A 
ATOM     77  C   UNL A   1      43.672  36.835  30.551  1.00  0.00     0.134 A 
ATOM     78  C   UNL A   1      43.537  35.967  32.779  1.00  0.00     0.134 A 
ATOM     79  F   UNL A   1      43.654  36.678  29.219  1.00  0.00    -0.206 F 
ATOM     80  C   UNL A   1      43.910  38.114  31.058  1.00  0.00     0.040 A 
ATOM     81  C   UNL A   1      43.748  37.245  33.298  1.00  0.00     0.040 A 
ATOM     82  F   UNL A   1      43.363  34.957  33.645  1.00  0.00    -0.206 F 
ATOM     83  C   UNL A   1      43.942  38.322  32.437  1.00  0.00     0.006 A 
ENDBRANCH  59  76
ENDBRANCH  33  34
ENDBRANCH  26  28
ENDBRANCH  25  26
ENDBRANCH  24  25
ENDBRANCH  23  24
ENDBRANCH  22  23
ENDBRANCH   1  22
TORSDOF 17
ENDMDL
