MODEL 1
REMARK VINA RESULT:     -11.3      0.000      0.000
REMARK SMILES O=C(OCCOCCOC(=O)c1ccc2c(c1)[C@@H](C1CCOCC1)C(=O)N2)c1ccc(-c2c3nc(c(-c4c(F)cccc4F)c4ccc([nH]4)c(-c4c(F)cccc4F)c4nc(c(-c5c(F)cccc5F)c5ccc2[nH]5)C=C4)C=C3)cc1
REMARK SMILES IDX 5 1 4 2 3 3 2 4 1 5 28 6 29 7 81 8 30 9 80 10 31 11 32 12
REMARK SMILES IDX 33 13 74 14 34 15 79 16 73 17 75 18 35 19 78 20 72 21 71 22
REMARK SMILES IDX 36 24 62 25 45 26 61 27 46 28 49 29 60 30 76 31 47 32 48 33
REMARK SMILES IDX 59 35 77 36 50 37 37 38 38 39 43 40 39 41 40 42 42 43 44 44
REMARK SMILES IDX 41 45 63 46 64 47 69 48 65 49 66 50 68 51 70 52 67 53 51 54
REMARK SMILES IDX 52 55 57 56 53 57 54 58 56 59 58 60 55 61 6 62 7 63 8 64
REMARK SMILES IDX 9 65 10 66 11 67 12 68 13 69 17 70 14 71 16 72 15 73 18 74
REMARK SMILES IDX 27 75 25 76 26 78 19 79 20 80 24 81 21 82 23 83 22 84
REMARK H PARENT 75 23 49 34 27 77
REMARK Flexibility Score: inf
ROOT
ATOM      1  C   UNL A   1      38.155  19.972  24.696  1.00  0.00     0.202 C 
ENDROOT
BRANCH   1   2
ATOM      2  C   UNL A   1      38.921  19.292  25.832  1.00  0.00     0.261 C 
BRANCH   2   3
ATOM      3  O   UNL A   1      40.256  18.968  25.411  1.00  0.00    -0.460 OA
BRANCH   3   4
ATOM      4  C   UNL A   1      41.421  19.233  26.047  1.00  0.00     0.338 C 
ATOM      5  O   UNL A   1      42.209  18.311  26.248  1.00  0.00    -0.246 OA
BRANCH   4   6
ATOM      6  C   UNL A   1      41.814  20.598  26.512  1.00  0.00     0.060 A 
ATOM      7  C   UNL A   1      42.055  20.940  27.841  1.00  0.00     0.016 A 
ATOM      8  C   UNL A   1      42.041  21.579  25.531  1.00  0.00     0.016 A 
ATOM      9  C   UNL A   1      42.439  22.216  28.207  1.00  0.00     0.010 A 
ATOM     10  C   UNL A   1      42.483  22.859  25.884  1.00  0.00     0.010 A 
ATOM     11  C   UNL A   1      42.673  23.178  27.232  1.00  0.00    -0.014 A 
BRANCH  11  12
ATOM     12  C   UNL A   1      43.032  24.523  27.711  1.00  0.00     0.031 A 
ATOM     13  C   UNL A   1      44.460  24.953  27.622  1.00  0.00     0.074 A 
ATOM     14  C   UNL A   1      42.045  25.387  28.013  1.00  0.00     0.049 A 
ATOM     15  N   UNL A   1      44.997  26.101  27.934  1.00  0.00    -0.248 NA
ATOM     16  C   UNL A   1      45.412  23.965  27.085  1.00  0.00     0.031 C 
ATOM     17  C   UNL A   1      40.612  25.071  27.986  1.00  0.00     0.029 A 
ATOM     18  N   UNL A   1      42.085  26.713  28.343  1.00  0.00    -0.354 N 
ATOM     19  C   UNL A   1      46.348  25.970  27.643  1.00  0.00     0.074 A 
ATOM     20  C   UNL A   1      46.555  24.630  27.144  1.00  0.00     0.031 C 
ATOM     21  C   UNL A   1      39.912  26.184  28.253  1.00  0.00     0.029 A 
ATOM     22  C   UNL A   1      40.843  27.267  28.541  1.00  0.00     0.049 A 
ATOM     23  H   UNL A   1      42.923  27.222  28.431  1.00  0.00     0.167 HD
ATOM     24  C   UNL A   1      47.322  26.898  27.783  1.00  0.00     0.037 A 
ATOM     25  C   UNL A   1      40.508  28.506  28.945  1.00  0.00     0.037 A 
ATOM     26  C   UNL A   1      47.080  28.219  28.294  1.00  0.00     0.049 A 
ATOM     27  C   UNL A   1      41.625  29.481  29.198  1.00  0.00     0.074 A 
ATOM     28  C   UNL A   1      47.990  29.217  28.589  1.00  0.00     0.029 A 
ATOM     29  N   UNL A   1      45.818  28.725  28.580  1.00  0.00    -0.354 N 
ATOM     30  N   UNL A   1      42.916  29.324  29.015  1.00  0.00    -0.248 NA
ATOM     31  C   UNL A   1      41.247  30.795  29.730  1.00  0.00     0.031 C 
ATOM     32  C   UNL A   1      47.279  30.314  29.088  1.00  0.00     0.029 A 
ATOM     33  C   UNL A   1      45.924  30.019  29.058  1.00  0.00     0.049 A 
ATOM     34  H   UNL A   1      44.973  28.235  28.461  1.00  0.00     0.167 HD
ATOM     35  C   UNL A   1      43.504  30.520  29.397  1.00  0.00     0.074 A 
ATOM     36  C   UNL A   1      42.423  31.403  29.793  1.00  0.00     0.031 C 
ATOM     37  C   UNL A   1      44.815  30.861  29.434  1.00  0.00     0.037 A 
BRANCH  24  38
ATOM     38  C   UNL A   1      48.718  26.472  27.441  1.00  0.00     0.057 A 
ATOM     39  C   UNL A   1      49.270  26.684  26.171  1.00  0.00     0.134 A 
ATOM     40  C   UNL A   1      49.505  25.800  28.385  1.00  0.00     0.134 A 
ATOM     41  F   UNL A   1      48.556  27.291  25.211  1.00  0.00    -0.206 F 
ATOM     42  C   UNL A   1      50.547  26.219  25.844  1.00  0.00     0.040 A 
ATOM     43  C   UNL A   1      50.790  25.351  28.077  1.00  0.00     0.040 A 
ATOM     44  F   UNL A   1      49.032  25.556  29.615  1.00  0.00    -0.206 F 
ATOM     45  C   UNL A   1      51.311  25.553  26.800  1.00  0.00     0.006 A 
ENDBRANCH  24  38
BRANCH  25  46
ATOM     46  C   UNL A   1      39.088  28.863  29.200  1.00  0.00     0.057 A 
ATOM     47  C   UNL A   1      38.284  29.449  28.215  1.00  0.00     0.134 A 
ATOM     48  C   UNL A   1      38.507  28.657  30.459  1.00  0.00     0.134 A 
ATOM     49  F   UNL A   1      38.780  29.692  26.994  1.00  0.00    -0.206 F 
ATOM     50  C   UNL A   1      36.968  29.838  28.480  1.00  0.00     0.040 A 
ATOM     51  C   UNL A   1      37.184  29.012  30.728  1.00  0.00     0.040 A 
ATOM     52  F   UNL A   1      39.217  28.100  31.451  1.00  0.00    -0.206 F 
ATOM     53  C   UNL A   1      36.413  29.616  29.739  1.00  0.00     0.006 A 
ENDBRANCH  25  46
BRANCH  37  54
ATOM     54  C   UNL A   1      45.131  32.252  29.891  1.00  0.00     0.057 A 
ATOM     55  C   UNL A   1      45.411  32.540  31.233  1.00  0.00     0.134 A 
ATOM     56  C   UNL A   1      45.183  33.307  28.972  1.00  0.00     0.134 A 
ATOM     57  F   UNL A   1      45.362  31.573  32.162  1.00  0.00    -0.206 F 
ATOM     58  C   UNL A   1      45.706  33.838  31.649  1.00  0.00     0.040 A 
ATOM     59  C   UNL A   1      45.505  34.602  29.372  1.00  0.00     0.040 A 
ATOM     60  F   UNL A   1      44.933  33.090  27.671  1.00  0.00    -0.206 F 
ATOM     61  C   UNL A   1      45.760  34.872  30.716  1.00  0.00     0.006 A 
ENDBRANCH  37  54
ENDBRANCH  11  12
ENDBRANCH   4   6
ENDBRANCH   3   4
ENDBRANCH   2   3
ENDBRANCH   1   2
BRANCH   1  62
ATOM     62  O   UNL A   1      36.781  20.229  24.985  1.00  0.00    -0.374 OA
BRANCH  62  63
ATOM     63  C   UNL A   1      36.507  21.413  25.741  1.00  0.00     0.202 C 
BRANCH  63  64
ATOM     64  C   UNL A   1      37.425  22.539  25.262  1.00  0.00     0.261 C 
BRANCH  64  65
ATOM     65  O   UNL A   1      36.607  23.632  24.815  1.00  0.00    -0.460 OA
BRANCH  65  66
ATOM     66  C   UNL A   1      35.968  23.431  23.631  1.00  0.00     0.338 C 
ATOM     67  O   UNL A   1      36.425  22.993  22.599  1.00  0.00    -0.246 OA
BRANCH  66  68
ATOM     68  C   UNL A   1      34.522  23.641  23.881  1.00  0.00     0.060 A 
ATOM     69  C   UNL A   1      33.572  23.124  22.978  1.00  0.00     0.018 A 
ATOM     70  C   UNL A   1      34.132  24.408  24.997  1.00  0.00     0.022 A 
ATOM     71  C   UNL A   1      32.213  23.332  23.198  1.00  0.00     0.027 A 
ATOM     72  C   UNL A   1      32.783  24.665  25.169  1.00  0.00    -0.011 A 
ATOM     73  C   UNL A   1      31.858  24.082  24.300  1.00  0.00     0.045 A 
ATOM     74  C   UNL A   1      32.042  25.450  26.234  1.00  0.00     0.114 C 
ATOM     75  N   UNL A   1      30.576  24.303  24.761  1.00  0.00    -0.325 N 
ATOM     76  C   UNL A   1      30.582  25.002  25.958  1.00  0.00     0.232 C 
ATOM     77  H   UNL A   1      29.761  24.001  24.300  1.00  0.00     0.169 HD
ATOM     78  O   UNL A   1      29.600  25.204  26.650  1.00  0.00    -0.274 OA
BRANCH  74  79
ATOM     79  C   UNL A   1      32.202  27.000  26.162  1.00  0.00     0.010 C 
ATOM     80  C   UNL A   1      31.489  27.584  24.922  1.00  0.00     0.033 C 
ATOM     81  C   UNL A   1      33.665  27.489  26.196  1.00  0.00     0.033 C 
ATOM     82  C   UNL A   1      31.745  29.075  24.738  1.00  0.00     0.160 C 
ATOM     83  C   UNL A   1      33.768  28.992  25.951  1.00  0.00     0.160 C 
ATOM     84  O   UNL A   1      33.143  29.350  24.724  1.00  0.00    -0.381 OA
ENDBRANCH  74  79
ENDBRANCH  66  68
ENDBRANCH  65  66
ENDBRANCH  64  65
ENDBRANCH  63  64
ENDBRANCH  62  63
ENDBRANCH   1  62
TORSDOF 15
ENDMDL
MODEL 2
REMARK VINA RESULT:     -11.2      4.523      9.920
REMARK SMILES O=C(OCCOCCOC(=O)c1ccc2c(c1)[C@@H](C1CCOCC1)C(=O)N2)c1ccc(-c2c3nc(c(-c4c(F)cccc4F)c4ccc([nH]4)c(-c4c(F)cccc4F)c4nc(c(-c5c(F)cccc5F)c5ccc2[nH]5)C=C4)C=C3)cc1
REMARK SMILES IDX 5 1 4 2 3 3 2 4 1 5 28 6 29 7 81 8 30 9 80 10 31 11 32 12
REMARK SMILES IDX 33 13 74 14 34 15 79 16 73 17 75 18 35 19 78 20 72 21 71 22
REMARK SMILES IDX 36 24 62 25 45 26 61 27 46 28 49 29 60 30 76 31 47 32 48 33
REMARK SMILES IDX 59 35 77 36 50 37 37 38 38 39 43 40 39 41 40 42 42 43 44 44
REMARK SMILES IDX 41 45 63 46 64 47 69 48 65 49 66 50 68 51 70 52 67 53 51 54
REMARK SMILES IDX 52 55 57 56 53 57 54 58 56 59 58 60 55 61 6 62 7 63 8 64
REMARK SMILES IDX 9 65 10 66 11 67 12 68 13 69 17 70 14 71 16 72 15 73 18 74
REMARK SMILES IDX 27 75 25 76 26 78 19 79 20 80 24 81 21 82 23 83 22 84
REMARK H PARENT 75 23 49 34 27 77
REMARK Flexibility Score: inf
ROOT
ATOM      1  C   UNL A   1      31.375  32.147  26.882  1.00  0.00     0.202 C 
ENDROOT
BRANCH   1   2
ATOM      2  C   UNL A   1      32.547  33.129  26.907  1.00  0.00     0.261 C 
BRANCH   2   3
ATOM      3  O   UNL A   1      32.287  34.196  27.834  1.00  0.00    -0.460 OA
BRANCH   3   4
ATOM      4  C   UNL A   1      33.149  34.781  28.699  1.00  0.00     0.338 C 
ATOM      5  O   UNL A   1      32.928  35.932  29.066  1.00  0.00    -0.246 OA
BRANCH   4   6
ATOM      6  C   UNL A   1      34.359  34.095  29.247  1.00  0.00     0.060 A 
ATOM      7  C   UNL A   1      35.670  34.511  29.027  1.00  0.00     0.016 A 
ATOM      8  C   UNL A   1      34.153  33.009  30.116  1.00  0.00     0.016 A 
ATOM      9  C   UNL A   1      36.748  33.849  29.581  1.00  0.00     0.010 A 
ATOM     10  C   UNL A   1      35.234  32.364  30.727  1.00  0.00     0.010 A 
ATOM     11  C   UNL A   1      36.538  32.784  30.448  1.00  0.00    -0.014 A 
BRANCH  11  12
ATOM     12  C   UNL A   1      37.741  32.105  30.955  1.00  0.00     0.031 A 
ATOM     13  C   UNL A   1      38.151  32.345  32.373  1.00  0.00     0.074 A 
ATOM     14  C   UNL A   1      38.305  31.139  30.206  1.00  0.00     0.049 A 
ATOM     15  N   UNL A   1      39.139  31.822  33.046  1.00  0.00    -0.248 NA
ATOM     16  C   UNL A   1      37.322  33.287  33.146  1.00  0.00     0.031 C 
ATOM     17  C   UNL A   1      37.864  30.755  28.859  1.00  0.00     0.029 A 
ATOM     18  N   UNL A   1      39.323  30.270  30.481  1.00  0.00    -0.354 N 
ATOM     19  C   UNL A   1      39.057  32.376  34.316  1.00  0.00     0.074 A 
ATOM     20  C   UNL A   1      37.936  33.287  34.319  1.00  0.00     0.031 C 
ATOM     21  C   UNL A   1      38.587  29.704  28.444  1.00  0.00     0.029 A 
ATOM     22  C   UNL A   1      39.585  29.390  29.458  1.00  0.00     0.049 A 
ATOM     23  H   UNL A   1      39.821  30.274  31.330  1.00  0.00     0.167 HD
ATOM     24  C   UNL A   1      39.855  32.136  35.381  1.00  0.00     0.037 A 
ATOM     25  C   UNL A   1      40.551  28.460  29.350  1.00  0.00     0.037 A 
ATOM     26  C   UNL A   1      40.971  31.230  35.338  1.00  0.00     0.049 A 
ATOM     27  C   UNL A   1      41.492  28.295  30.512  1.00  0.00     0.074 A 
ATOM     28  C   UNL A   1      41.923  30.976  36.306  1.00  0.00     0.029 A 
ATOM     29  N   UNL A   1      41.274  30.418  34.251  1.00  0.00    -0.354 N 
ATOM     30  N   UNL A   1      41.473  28.893  31.681  1.00  0.00    -0.248 NA
ATOM     31  C   UNL A   1      42.596  27.345  30.338  1.00  0.00     0.031 C 
ATOM     32  C   UNL A   1      42.823  30.038  35.791  1.00  0.00     0.029 A 
ATOM     33  C   UNL A   1      42.404  29.669  34.520  1.00  0.00     0.049 A 
ATOM     34  H   UNL A   1      40.760  30.382  33.412  1.00  0.00     0.167 HD
ATOM     35  C   UNL A   1      42.553  28.385  32.387  1.00  0.00     0.074 A 
ATOM     36  C   UNL A   1      43.187  27.407  31.523  1.00  0.00     0.031 C 
ATOM     37  C   UNL A   1      42.995  28.702  33.628  1.00  0.00     0.037 A 
BRANCH  24  38
ATOM     38  C   UNL A   1      39.575  32.917  36.629  1.00  0.00     0.057 A 
ATOM     39  C   UNL A   1      40.273  34.090  36.944  1.00  0.00     0.134 A 
ATOM     40  C   UNL A   1      38.624  32.463  37.550  1.00  0.00     0.134 A 
ATOM     41  F   UNL A   1      41.221  34.560  36.120  1.00  0.00    -0.206 F 
ATOM     42  C   UNL A   1      40.051  34.770  38.145  1.00  0.00     0.040 A 
ATOM     43  C   UNL A   1      38.379  33.145  38.743  1.00  0.00     0.040 A 
ATOM     44  F   UNL A   1      37.929  31.340  37.315  1.00  0.00    -0.206 F 
ATOM     45  C   UNL A   1      39.099  34.299  39.046  1.00  0.00     0.006 A 
ENDBRANCH  24  38
BRANCH  25  46
ATOM     46  C   UNL A   1      40.719  27.682  28.094  1.00  0.00     0.057 A 
ATOM     47  C   UNL A   1      40.130  26.425  27.918  1.00  0.00     0.134 A 
ATOM     48  C   UNL A   1      41.511  28.169  27.044  1.00  0.00     0.134 A 
ATOM     49  F   UNL A   1      39.375  25.890  28.888  1.00  0.00    -0.206 F 
ATOM     50  C   UNL A   1      40.341  25.672  26.759  1.00  0.00     0.040 A 
ATOM     51  C   UNL A   1      41.705  27.442  25.868  1.00  0.00     0.040 A 
ATOM     52  F   UNL A   1      42.106  29.367  27.142  1.00  0.00    -0.206 F 
ATOM     53  C   UNL A   1      41.128  26.183  25.728  1.00  0.00     0.006 A 
ENDBRANCH  25  46
BRANCH  37  54
ATOM     54  C   UNL A   1      44.200  27.958  34.119  1.00  0.00     0.057 A 
ATOM     55  C   UNL A   1      45.495  28.463  33.950  1.00  0.00     0.134 A 
ATOM     56  C   UNL A   1      44.056  26.739  34.791  1.00  0.00     0.134 A 
ATOM     57  F   UNL A   1      45.697  29.620  33.300  1.00  0.00    -0.206 F 
ATOM     58  C   UNL A   1      46.611  27.764  34.411  1.00  0.00     0.040 A 
ATOM     59  C   UNL A   1      45.161  26.047  35.282  1.00  0.00     0.040 A 
ATOM     60  F   UNL A   1      42.839  26.210  34.991  1.00  0.00    -0.206 F 
ATOM     61  C   UNL A   1      46.444  26.556  35.085  1.00  0.00     0.006 A 
ENDBRANCH  37  54
ENDBRANCH  11  12
ENDBRANCH   4   6
ENDBRANCH   3   4
ENDBRANCH   2   3
ENDBRANCH   1   2
BRANCH   1  62
ATOM     62  O   UNL A   1      31.745  30.798  26.601  1.00  0.00    -0.374 OA
BRANCH  62  63
ATOM     63  C   UNL A   1      33.008  30.369  27.119  1.00  0.00     0.202 C 
BRANCH  63  64
ATOM     64  C   UNL A   1      33.544  29.226  26.254  1.00  0.00     0.261 C 
BRANCH  64  65
ATOM     65  O   UNL A   1      33.283  27.985  26.929  1.00  0.00    -0.460 OA
BRANCH  65  66
ATOM     66  C   UNL A   1      32.020  27.502  26.783  1.00  0.00     0.338 C 
ATOM     67  O   UNL A   1      31.128  27.477  27.602  1.00  0.00    -0.246 OA
BRANCH  66  68
ATOM     68  C   UNL A   1      31.839  27.195  25.344  1.00  0.00     0.060 A 
ATOM     69  C   UNL A   1      30.659  27.591  24.685  1.00  0.00     0.018 A 
ATOM     70  C   UNL A   1      32.840  26.458  24.678  1.00  0.00     0.022 A 
ATOM     71  C   UNL A   1      30.476  27.292  23.338  1.00  0.00     0.027 A 
ATOM     72  C   UNL A   1      32.617  26.109  23.358  1.00  0.00    -0.011 A 
ATOM     73  C   UNL A   1      31.472  26.575  22.709  1.00  0.00     0.045 A 
ATOM     74  C   UNL A   1      33.465  25.325  22.374  1.00  0.00     0.114 C 
ATOM     75  N   UNL A   1      31.543  26.281  21.362  1.00  0.00    -0.325 N 
ATOM     76  C   UNL A   1      32.733  25.646  21.044  1.00  0.00     0.232 C 
ATOM     77  H   UNL A   1      30.838  26.496  20.709  1.00  0.00     0.169 HD
ATOM     78  O   UNL A   1      33.112  25.405  19.911  1.00  0.00    -0.274 OA
BRANCH  74  79
ATOM     79  C   UNL A   1      33.556  23.791  22.636  1.00  0.00     0.010 C 
ATOM     80  C   UNL A   1      32.182  23.202  23.026  1.00  0.00     0.033 C 
ATOM     81  C   UNL A   1      34.608  23.388  23.691  1.00  0.00     0.033 C 
ATOM     82  C   UNL A   1      32.258  21.735  23.431  1.00  0.00     0.160 C 
ATOM     83  C   UNL A   1      34.534  21.902  24.031  1.00  0.00     0.160 C 
ATOM     84  O   UNL A   1      33.225  21.544  24.459  1.00  0.00    -0.381 OA
ENDBRANCH  74  79
ENDBRANCH  66  68
ENDBRANCH  65  66
ENDBRANCH  64  65
ENDBRANCH  63  64
ENDBRANCH  62  63
ENDBRANCH   1  62
TORSDOF 15
ENDMDL
MODEL 3
REMARK VINA RESULT:     -11.2      1.353      2.107
REMARK SMILES O=C(OCCOCCOC(=O)c1ccc2c(c1)[C@@H](C1CCOCC1)C(=O)N2)c1ccc(-c2c3nc(c(-c4c(F)cccc4F)c4ccc([nH]4)c(-c4c(F)cccc4F)c4nc(c(-c5c(F)cccc5F)c5ccc2[nH]5)C=C4)C=C3)cc1
REMARK SMILES IDX 5 1 4 2 3 3 2 4 1 5 28 6 29 7 81 8 30 9 80 10 31 11 32 12
REMARK SMILES IDX 33 13 74 14 34 15 79 16 73 17 75 18 35 19 78 20 72 21 71 22
REMARK SMILES IDX 36 24 62 25 45 26 61 27 46 28 49 29 60 30 76 31 47 32 48 33
REMARK SMILES IDX 59 35 77 36 50 37 37 38 38 39 43 40 39 41 40 42 42 43 44 44
REMARK SMILES IDX 41 45 63 46 64 47 69 48 65 49 66 50 68 51 70 52 67 53 51 54
REMARK SMILES IDX 52 55 57 56 53 57 54 58 56 59 58 60 55 61 6 62 7 63 8 64
REMARK SMILES IDX 9 65 10 66 11 67 12 68 13 69 17 70 14 71 16 72 15 73 18 74
REMARK SMILES IDX 27 75 25 76 26 78 19 79 20 80 24 81 21 82 23 83 22 84
REMARK H PARENT 75 23 49 34 27 77
REMARK Flexibility Score: inf
ROOT
ATOM      1  C   UNL A   1      37.243  19.345  24.958  1.00  0.00     0.202 C 
ENDROOT
BRANCH   1   2
ATOM      2  C   UNL A   1      38.502  20.144  25.299  1.00  0.00     0.261 C 
BRANCH   2   3
ATOM      3  O   UNL A   1      39.585  19.257  25.623  1.00  0.00    -0.460 OA
BRANCH   3   4
ATOM      4  C   UNL A   1      40.855  19.578  25.967  1.00  0.00     0.338 C 
ATOM      5  O   UNL A   1      41.744  18.750  25.786  1.00  0.00    -0.246 OA
BRANCH   4   6
ATOM      6  C   UNL A   1      41.242  20.901  26.546  1.00  0.00     0.060 A 
ATOM      7  C   UNL A   1      41.198  21.211  27.904  1.00  0.00     0.016 A 
ATOM      8  C   UNL A   1      41.770  21.865  25.670  1.00  0.00     0.016 A 
ATOM      9  C   UNL A   1      41.593  22.445  28.383  1.00  0.00     0.010 A 
ATOM     10  C   UNL A   1      42.223  23.100  26.150  1.00  0.00     0.010 A 
ATOM     11  C   UNL A   1      42.124  23.390  27.514  1.00  0.00    -0.014 A 
BRANCH  11  12
ATOM     12  C   UNL A   1      42.473  24.695  28.099  1.00  0.00     0.031 A 
ATOM     13  C   UNL A   1      43.919  25.037  28.265  1.00  0.00     0.074 A 
ATOM     14  C   UNL A   1      41.501  25.611  28.266  1.00  0.00     0.049 A 
ATOM     15  N   UNL A   1      44.460  26.139  28.707  1.00  0.00    -0.248 NA
ATOM     16  C   UNL A   1      44.889  24.007  27.856  1.00  0.00     0.031 C 
ATOM     17  C   UNL A   1      40.077  25.386  27.989  1.00  0.00     0.029 A 
ATOM     18  N   UNL A   1      41.561  26.921  28.651  1.00  0.00    -0.354 N 
ATOM     19  C   UNL A   1      45.830  25.932  28.640  1.00  0.00     0.074 A 
ATOM     20  C   UNL A   1      46.042  24.597  28.130  1.00  0.00     0.031 C 
ATOM     21  C   UNL A   1      39.406  26.533  28.180  1.00  0.00     0.029 A 
ATOM     22  C   UNL A   1      40.337  27.546  28.661  1.00  0.00     0.049 A 
ATOM     23  H   UNL A   1      42.400  27.374  28.897  1.00  0.00     0.167 HD
ATOM     24  C   UNL A   1      46.819  26.792  28.977  1.00  0.00     0.037 A 
ATOM     25  C   UNL A   1      40.010  28.791  29.052  1.00  0.00     0.037 A 
ATOM     26  C   UNL A   1      46.570  28.111  29.493  1.00  0.00     0.049 A 
ATOM     27  C   UNL A   1      41.122  29.686  29.527  1.00  0.00     0.074 A 
ATOM     28  C   UNL A   1      47.473  29.040  29.974  1.00  0.00     0.029 A 
ATOM     29  N   UNL A   1      45.309  28.686  29.585  1.00  0.00    -0.354 N 
ATOM     30  N   UNL A   1      42.414  29.453  29.554  1.00  0.00    -0.248 NA
ATOM     31  C   UNL A   1      40.735  31.005  30.039  1.00  0.00     0.031 C 
ATOM     32  C   UNL A   1      46.752  30.164  30.391  1.00  0.00     0.029 A 
ATOM     33  C   UNL A   1      45.407  29.956  30.124  1.00  0.00     0.049 A 
ATOM     34  H   UNL A   1      44.469  28.254  29.308  1.00  0.00     0.167 HD
ATOM     35  C   UNL A   1      42.997  30.598  30.076  1.00  0.00     0.074 A 
ATOM     36  C   UNL A   1      41.917  31.536  30.321  1.00  0.00     0.031 C 
ATOM     37  C   UNL A   1      44.300  30.855  30.344  1.00  0.00     0.037 A 
BRANCH  24  38
ATOM     38  C   UNL A   1      48.226  26.290  28.855  1.00  0.00     0.057 A 
ATOM     39  C   UNL A   1      48.884  25.657  29.918  1.00  0.00     0.134 A 
ATOM     40  C   UNL A   1      48.947  26.483  27.671  1.00  0.00     0.134 A 
ATOM     41  F   UNL A   1      48.260  25.472  31.091  1.00  0.00    -0.206 F 
ATOM     42  C   UNL A   1      50.219  25.257  29.815  1.00  0.00     0.040 A 
ATOM     43  C   UNL A   1      50.274  26.069  27.549  1.00  0.00     0.040 A 
ATOM     44  F   UNL A   1      48.380  27.093  26.620  1.00  0.00    -0.206 F 
ATOM     45  C   UNL A   1      50.917  25.460  28.626  1.00  0.00     0.006 A 
ENDBRANCH  24  38
BRANCH  25  46
ATOM     46  C   UNL A   1      38.590  29.229  29.081  1.00  0.00     0.057 A 
ATOM     47  C   UNL A   1      37.811  29.139  30.241  1.00  0.00     0.134 A 
ATOM     48  C   UNL A   1      37.962  29.720  27.927  1.00  0.00     0.134 A 
ATOM     49  F   UNL A   1      38.341  28.661  31.375  1.00  0.00    -0.206 F 
ATOM     50  C   UNL A   1      36.459  29.496  30.246  1.00  0.00     0.040 A 
ATOM     51  C   UNL A   1      36.621  30.110  27.926  1.00  0.00     0.040 A 
ATOM     52  F   UNL A   1      38.646  29.835  26.779  1.00  0.00    -0.206 F 
ATOM     53  C   UNL A   1      35.862  29.987  29.085  1.00  0.00     0.006 A 
ENDBRANCH  25  46
BRANCH  37  54
ATOM     54  C   UNL A   1      44.614  32.209  30.902  1.00  0.00     0.057 A 
ATOM     55  C   UNL A   1      44.663  32.443  32.282  1.00  0.00     0.134 A 
ATOM     56  C   UNL A   1      44.897  33.281  30.047  1.00  0.00     0.134 A 
ATOM     57  F   UNL A   1      44.387  31.458  33.150  1.00  0.00    -0.206 F 
ATOM     58  C   UNL A   1      44.957  33.707  32.792  1.00  0.00     0.040 A 
ATOM     59  C   UNL A   1      45.221  34.541  30.546  1.00  0.00     0.040 A 
ATOM     60  F   UNL A   1      44.875  33.115  28.716  1.00  0.00    -0.206 F 
ATOM     61  C   UNL A   1      45.244  34.758  31.923  1.00  0.00     0.006 A 
ENDBRANCH  37  54
ENDBRANCH  11  12
ENDBRANCH   4   6
ENDBRANCH   3   4
ENDBRANCH   2   3
ENDBRANCH   1   2
BRANCH   1  62
ATOM     62  O   UNL A   1      36.044  20.118  24.942  1.00  0.00    -0.374 OA
BRANCH  62  63
ATOM     63  C   UNL A   1      36.187  21.511  25.236  1.00  0.00     0.202 C 
BRANCH  63  64
ATOM     64  C   UNL A   1      35.422  21.834  26.522  1.00  0.00     0.261 C 
BRANCH  64  65
ATOM     65  O   UNL A   1      34.069  21.375  26.372  1.00  0.00    -0.460 OA
BRANCH  65  66
ATOM     66  C   UNL A   1      33.140  22.072  27.082  1.00  0.00     0.338 C 
ATOM     67  O   UNL A   1      33.073  22.221  28.282  1.00  0.00    -0.246 OA
BRANCH  66  68
ATOM     68  C   UNL A   1      32.320  22.821  26.100  1.00  0.00     0.060 A 
ATOM     69  C   UNL A   1      32.167  22.324  24.790  1.00  0.00     0.018 A 
ATOM     70  C   UNL A   1      31.754  24.052  26.489  1.00  0.00     0.022 A 
ATOM     71  C   UNL A   1      31.412  23.030  23.858  1.00  0.00     0.027 A 
ATOM     72  C   UNL A   1      31.062  24.777  25.535  1.00  0.00    -0.011 A 
ATOM     73  C   UNL A   1      30.866  24.229  24.266  1.00  0.00     0.045 A 
ATOM     74  C   UNL A   1      30.356  26.117  25.616  1.00  0.00     0.114 C 
ATOM     75  N   UNL A   1      29.994  25.019  23.543  1.00  0.00    -0.325 N 
ATOM     76  C   UNL A   1      29.546  26.095  24.292  1.00  0.00     0.232 C 
ATOM     77  H   UNL A   1      29.723  24.839  22.614  1.00  0.00     0.169 HD
ATOM     78  O   UNL A   1      28.665  26.864  23.948  1.00  0.00    -0.274 OA
BRANCH  74  79
ATOM     79  C   UNL A   1      31.286  27.365  25.712  1.00  0.00     0.010 C 
ATOM     80  C   UNL A   1      32.565  27.182  24.865  1.00  0.00     0.033 C 
ATOM     81  C   UNL A   1      31.673  27.758  27.153  1.00  0.00     0.033 C 
ATOM     82  C   UNL A   1      33.565  28.317  25.048  1.00  0.00     0.160 C 
ATOM     83  C   UNL A   1      32.716  28.873  27.179  1.00  0.00     0.160 C 
ATOM     84  O   UNL A   1      33.867  28.507  26.427  1.00  0.00    -0.381 OA
ENDBRANCH  74  79
ENDBRANCH  66  68
ENDBRANCH  65  66
ENDBRANCH  64  65
ENDBRANCH  63  64
ENDBRANCH  62  63
ENDBRANCH   1  62
TORSDOF 15
ENDMDL
