MODEL 1
REMARK VINA RESULT:     -11.6      0.000      0.000
REMARK SMILES Cc1ccc(C)c(S(=O)(=O)N[C@H](CC2=c3ccccc3=NC2)C(=O)OCCOCCOC(=O)c2ccc(-c3c4nc(c(-c5c(F)cccc5F)c5ccc([nH]5)c(-c5c(F)cccc5F)c5nc(c(-c6c(F)cccc6F)c6ccc3[nH]6)C=C5)C=C4)cc2)c1
REMARK SMILES IDX 27 1 26 2 25 3 23 4 24 5 12 6 11 7 8 9 9 10 10 11 7 12 1 13
REMARK SMILES IDX 2 14 3 15 88 16 4 17 5 18 6 19 13 20 14 21 15 22 22 23 16 24
REMARK SMILES IDX 20 25 21 26 17 27 19 28 18 29 28 30 29 31 30 32 31 33 32 34
REMARK SMILES IDX 33 35 34 36 35 37 87 38 36 39 86 40 37 41 38 42 39 43 80 44
REMARK SMILES IDX 40 45 85 46 79 47 81 48 41 49 84 50 78 51 77 52 42 54 68 55
REMARK SMILES IDX 51 56 67 57 52 58 55 59 66 60 82 61 53 62 54 63 65 65 83 66
REMARK SMILES IDX 56 67 43 68 44 69 49 70 45 71 46 72 48 73 50 74 47 75 69 76
REMARK SMILES IDX 70 77 75 78 71 79 72 80 74 81 76 82 73 83 57 84 58 85 63 86
REMARK SMILES IDX 59 87 60 88 62 89 64 90 61 91
REMARK H PARENT 11 8 81 53 55 64
REMARK Flexibility Score: inf
ROOT
ATOM      1  C   UNL A   1      33.291  30.069  26.491  1.00  0.00     0.202 C 
ENDROOT
BRANCH   1   2
ATOM      2  C   UNL A   1      31.794  29.816  26.229  1.00  0.00     0.261 C 
BRANCH   2   3
ATOM      3  O   UNL A   1      31.597  28.496  25.666  1.00  0.00    -0.462 OA
BRANCH   3   4
ATOM      4  C   UNL A   1      31.512  27.496  26.577  1.00  0.00     0.324 C 
ATOM      5  O   UNL A   1      31.029  27.628  27.692  1.00  0.00    -0.250 OA
BRANCH   4   6
ATOM      6  C   UNL A   1      32.120  26.186  26.089  1.00  0.00     0.183 C 
BRANCH   6   7
ATOM      7  N   UNL A   1      31.787  25.068  27.024  1.00  0.00    -0.197 NA
ATOM      8  H   UNL A   1      32.666  24.693  27.379  1.00  0.00     0.142 HD
BRANCH   7   9
ATOM      9  S   UNL A   1      30.903  23.782  26.388  1.00  0.00     0.241 S 
ATOM     10  O   UNL A   1      30.185  24.309  25.238  1.00  0.00    -0.207 OA
ATOM     11  O   UNL A   1      30.286  23.137  27.501  1.00  0.00    -0.207 OA
BRANCH   9  12
ATOM     12  C   UNL A   1      32.053  22.661  25.659  1.00  0.00     0.085 A 
ATOM     13  C   UNL A   1      32.170  20.552  22.533  1.00  0.00     0.044 C 
ATOM     14  C   UNL A   1      32.537  21.135  23.861  1.00  0.00    -0.050 A 
ATOM     15  C   UNL A   1      33.546  20.558  24.637  1.00  0.00     0.004 A 
ATOM     16  C   UNL A   1      31.841  22.240  24.349  1.00  0.00     0.025 A 
ATOM     17  C   UNL A   1      33.792  21.012  25.930  1.00  0.00     0.005 A 
ATOM     18  C   UNL A   1      33.009  22.031  26.480  1.00  0.00    -0.031 A 
ATOM     19  C   UNL A   1      33.202  22.362  27.931  1.00  0.00     0.046 C 
ENDBRANCH   9  12
ENDBRANCH   7   9
ENDBRANCH   6   7
BRANCH   6  20
ATOM     20  C   UNL A   1      33.639  26.115  25.795  1.00  0.00     0.065 C 
BRANCH  20  21
ATOM     21  C   UNL A   1      34.196  25.196  24.752  1.00  0.00    -0.037 C 
ATOM     22  C   UNL A   1      35.234  24.364  24.832  1.00  0.00     0.001 A 
ATOM     23  C   UNL A   1      33.679  25.239  23.338  1.00  0.00     0.174 C 
ATOM     24  C   UNL A   1      36.168  23.982  25.845  1.00  0.00     0.010 A 
ATOM     25  C   UNL A   1      35.258  23.744  23.494  1.00  0.00     0.065 A 
ATOM     26  N   UNL A   1      34.421  24.186  22.608  1.00  0.00    -0.280 NA
ATOM     27  C   UNL A   1      37.035  22.990  25.581  1.00  0.00     0.001 A 
ATOM     28  C   UNL A   1      36.208  22.629  23.297  1.00  0.00     0.028 A 
ATOM     29  C   UNL A   1      37.029  22.292  24.304  1.00  0.00     0.002 A 
ENDBRANCH  20  21
ENDBRANCH   6  20
ENDBRANCH   4   6
ENDBRANCH   3   4
ENDBRANCH   2   3
ENDBRANCH   1   2
BRANCH   1  30
ATOM     30  O   UNL A   1      33.404  30.936  27.605  1.00  0.00    -0.374 OA
BRANCH  30  31
ATOM     31  C   UNL A   1      32.780  32.204  27.586  1.00  0.00     0.202 C 
BRANCH  31  32
ATOM     32  C   UNL A   1      33.696  33.377  27.933  1.00  0.00     0.261 C 
BRANCH  32  33
ATOM     33  O   UNL A   1      35.089  33.097  27.680  1.00  0.00    -0.460 OA
BRANCH  33  34
ATOM     34  C   UNL A   1      35.899  33.248  28.766  1.00  0.00     0.338 C 
ATOM     35  O   UNL A   1      35.847  34.190  29.537  1.00  0.00    -0.246 OA
BRANCH  34  36
ATOM     36  C   UNL A   1      36.971  32.211  28.741  1.00  0.00     0.060 A 
ATOM     37  C   UNL A   1      36.640  30.899  28.368  1.00  0.00     0.016 A 
ATOM     38  C   UNL A   1      38.173  32.474  29.408  1.00  0.00     0.016 A 
ATOM     39  C   UNL A   1      37.467  29.839  28.766  1.00  0.00     0.010 A 
ATOM     40  C   UNL A   1      38.914  31.416  29.908  1.00  0.00     0.010 A 
ATOM     41  C   UNL A   1      38.581  30.092  29.581  1.00  0.00    -0.014 A 
BRANCH  41  42
ATOM     42  C   UNL A   1      39.740  29.191  29.624  1.00  0.00     0.031 A 
ATOM     43  C   UNL A   1      40.116  29.036  31.027  1.00  0.00     0.074 A 
ATOM     44  C   UNL A   1      40.532  28.603  28.707  1.00  0.00     0.049 A 
ATOM     45  N   UNL A   1      40.982  29.826  31.570  1.00  0.00    -0.248 NA
ATOM     46  C   UNL A   1      39.342  28.226  31.968  1.00  0.00     0.031 C 
ATOM     47  C   UNL A   1      40.661  28.952  27.307  1.00  0.00     0.029 A 
ATOM     48  N   UNL A   1      41.412  27.539  28.847  1.00  0.00    -0.354 N 
ATOM     49  C   UNL A   1      41.107  29.355  32.848  1.00  0.00     0.074 A 
ATOM     50  C   UNL A   1      39.905  28.605  33.120  1.00  0.00     0.031 C 
ATOM     51  C   UNL A   1      41.467  28.060  26.692  1.00  0.00     0.029 A 
ATOM     52  C   UNL A   1      41.853  27.016  27.635  1.00  0.00     0.049 A 
ATOM     53  H   UNL A   1      41.697  27.188  29.722  1.00  0.00     0.167 HD
ATOM     54  C   UNL A   1      42.358  29.249  33.354  1.00  0.00     0.037 A 
ATOM     55  C   UNL A   1      42.913  26.218  27.353  1.00  0.00     0.037 A 
ATOM     56  C   UNL A   1      43.332  29.999  32.583  1.00  0.00     0.049 A 
ATOM     57  C   UNL A   1      44.061  26.688  28.136  1.00  0.00     0.074 A 
ATOM     58  C   UNL A   1      43.653  31.327  32.378  1.00  0.00     0.029 A 
ATOM     59  N   UNL A   1      43.884  29.304  31.539  1.00  0.00    -0.354 N 
ATOM     60  N   UNL A   1      44.699  27.791  27.869  1.00  0.00    -0.248 NA
ATOM     61  C   UNL A   1      44.328  26.098  29.444  1.00  0.00     0.031 C 
ATOM     62  C   UNL A   1      44.416  31.400  31.170  1.00  0.00     0.029 A 
ATOM     63  C   UNL A   1      44.548  30.119  30.656  1.00  0.00     0.049 A 
ATOM     64  H   UNL A   1      43.814  28.327  31.434  1.00  0.00     0.167 HD
ATOM     65  C   UNL A   1      45.039  28.263  29.119  1.00  0.00     0.074 A 
ATOM     66  C   UNL A   1      44.969  27.119  30.014  1.00  0.00     0.031 C 
ATOM     67  C   UNL A   1      44.976  29.596  29.385  1.00  0.00     0.037 A 
BRANCH  54  68
ATOM     68  C   UNL A   1      42.761  28.077  34.197  1.00  0.00     0.057 A 
ATOM     69  C   UNL A   1      43.082  26.798  33.690  1.00  0.00     0.134 A 
ATOM     70  C   UNL A   1      43.091  28.297  35.537  1.00  0.00     0.134 A 
ATOM     71  F   UNL A   1      42.990  26.491  32.389  1.00  0.00    -0.206 F 
ATOM     72  C   UNL A   1      43.626  25.786  34.476  1.00  0.00     0.040 A 
ATOM     73  C   UNL A   1      43.702  27.311  36.317  1.00  0.00     0.040 A 
ATOM     74  F   UNL A   1      42.887  29.494  36.105  1.00  0.00    -0.206 F 
ATOM     75  C   UNL A   1      43.960  26.049  35.793  1.00  0.00     0.006 A 
ENDBRANCH  54  68
BRANCH  55  76
ATOM     76  C   UNL A   1      42.837  24.858  26.786  1.00  0.00     0.057 A 
ATOM     77  C   UNL A   1      43.305  24.545  25.503  1.00  0.00     0.134 A 
ATOM     78  C   UNL A   1      42.234  23.816  27.502  1.00  0.00     0.134 A 
ATOM     79  F   UNL A   1      43.864  25.489  24.731  1.00  0.00    -0.206 F 
ATOM     80  C   UNL A   1      43.224  23.249  24.977  1.00  0.00     0.040 A 
ATOM     81  C   UNL A   1      42.142  22.517  26.988  1.00  0.00     0.040 A 
ATOM     82  F   UNL A   1      41.724  24.038  28.722  1.00  0.00    -0.206 F 
ATOM     83  C   UNL A   1      42.648  22.227  25.724  1.00  0.00     0.006 A 
ENDBRANCH  55  76
BRANCH  67  84
ATOM     84  C   UNL A   1      45.203  30.481  28.207  1.00  0.00     0.057 A 
ATOM     85  C   UNL A   1      44.103  31.123  27.634  1.00  0.00     0.134 A 
ATOM     86  C   UNL A   1      46.465  30.766  27.676  1.00  0.00     0.134 A 
ATOM     87  F   UNL A   1      42.863  30.873  28.087  1.00  0.00    -0.206 F 
ATOM     88  C   UNL A   1      44.247  32.029  26.583  1.00  0.00     0.040 A 
ATOM     89  C   UNL A   1      46.627  31.693  26.640  1.00  0.00     0.040 A 
ATOM     90  F   UNL A   1      47.559  30.145  28.131  1.00  0.00    -0.206 F 
ATOM     91  C   UNL A   1      45.515  32.330  26.092  1.00  0.00     0.006 A 
ENDBRANCH  67  84
ENDBRANCH  41  42
ENDBRANCH  34  36
ENDBRANCH  33  34
ENDBRANCH  32  33
ENDBRANCH  31  32
ENDBRANCH  30  31
ENDBRANCH   1  30
TORSDOF 19
ENDMDL
MODEL 2
REMARK VINA RESULT:     -10.9      1.198      1.608
REMARK SMILES Cc1ccc(C)c(S(=O)(=O)N[C@H](CC2=c3ccccc3=NC2)C(=O)OCCOCCOC(=O)c2ccc(-c3c4nc(c(-c5c(F)cccc5F)c5ccc([nH]5)c(-c5c(F)cccc5F)c5nc(c(-c6c(F)cccc6F)c6ccc3[nH]6)C=C5)C=C4)cc2)c1
REMARK SMILES IDX 27 1 26 2 25 3 23 4 24 5 12 6 11 7 8 9 9 10 10 11 7 12 1 13
REMARK SMILES IDX 2 14 3 15 88 16 4 17 5 18 6 19 13 20 14 21 15 22 22 23 16 24
REMARK SMILES IDX 20 25 21 26 17 27 19 28 18 29 28 30 29 31 30 32 31 33 32 34
REMARK SMILES IDX 33 35 34 36 35 37 87 38 36 39 86 40 37 41 38 42 39 43 80 44
REMARK SMILES IDX 40 45 85 46 79 47 81 48 41 49 84 50 78 51 77 52 42 54 68 55
REMARK SMILES IDX 51 56 67 57 52 58 55 59 66 60 82 61 53 62 54 63 65 65 83 66
REMARK SMILES IDX 56 67 43 68 44 69 49 70 45 71 46 72 48 73 50 74 47 75 69 76
REMARK SMILES IDX 70 77 75 78 71 79 72 80 74 81 76 82 73 83 57 84 58 85 63 86
REMARK SMILES IDX 59 87 60 88 62 89 64 90 61 91
REMARK H PARENT 11 8 81 53 55 64
REMARK Flexibility Score: inf
ROOT
ATOM      1  C   UNL A   1      32.281  29.026  26.483  1.00  0.00     0.202 C 
ENDROOT
BRANCH   1   2
ATOM      2  C   UNL A   1      31.886  29.205  25.004  1.00  0.00     0.261 C 
BRANCH   2   3
ATOM      3  O   UNL A   1      32.226  28.020  24.245  1.00  0.00    -0.462 OA
BRANCH   3   4
ATOM      4  C   UNL A   1      31.446  26.940  24.496  1.00  0.00     0.324 C 
ATOM      5  O   UNL A   1      30.225  26.974  24.532  1.00  0.00    -0.250 OA
BRANCH   4   6
ATOM      6  C   UNL A   1      32.247  25.673  24.774  1.00  0.00     0.183 C 
BRANCH   6   7
ATOM      7  N   UNL A   1      31.866  25.086  26.095  1.00  0.00    -0.197 NA
ATOM      8  H   UNL A   1      32.719  24.984  26.644  1.00  0.00     0.142 HD
BRANCH   7   9
ATOM      9  S   UNL A   1      31.094  23.588  26.068  1.00  0.00     0.241 S 
ATOM     10  O   UNL A   1      30.243  23.588  24.889  1.00  0.00    -0.207 OA
ATOM     11  O   UNL A   1      30.634  23.356  27.398  1.00  0.00    -0.207 OA
BRANCH   9  12
ATOM     12  C   UNL A   1      32.313  22.374  25.679  1.00  0.00     0.085 A 
ATOM     13  C   UNL A   1      32.522  19.381  23.392  1.00  0.00     0.044 C 
ATOM     14  C   UNL A   1      32.875  20.386  24.442  1.00  0.00    -0.050 A 
ATOM     15  C   UNL A   1      33.948  20.163  25.308  1.00  0.00     0.004 A 
ATOM     16  C   UNL A   1      32.103  21.538  24.585  1.00  0.00     0.025 A 
ATOM     17  C   UNL A   1      34.189  21.027  26.374  1.00  0.00     0.005 A 
ATOM     18  C   UNL A   1      33.339  22.112  26.607  1.00  0.00    -0.031 A 
ATOM     19  C   UNL A   1      33.543  22.907  27.864  1.00  0.00     0.046 C 
ENDBRANCH   9  12
ENDBRANCH   7   9
ENDBRANCH   6   7
BRANCH   6  20
ATOM     20  C   UNL A   1      33.794  25.721  24.711  1.00  0.00     0.065 C 
BRANCH  20  21
ATOM     21  C   UNL A   1      34.594  24.579  24.164  1.00  0.00    -0.037 C 
ATOM     22  C   UNL A   1      35.670  23.985  24.678  1.00  0.00     0.001 A 
ATOM     23  C   UNL A   1      34.320  24.043  22.784  1.00  0.00     0.174 C 
ATOM     24  C   UNL A   1      36.450  24.124  25.869  1.00  0.00     0.010 A 
ATOM     25  C   UNL A   1      35.972  22.939  23.683  1.00  0.00     0.065 A 
ATOM     26  N   UNL A   1      35.261  22.915  22.598  1.00  0.00    -0.280 NA
ATOM     27  C   UNL A   1      37.430  23.235  26.105  1.00  0.00     0.001 A 
ATOM     28  C   UNL A   1      37.032  21.973  24.036  1.00  0.00     0.028 A 
ATOM     29  C   UNL A   1      37.698  22.135  25.190  1.00  0.00     0.002 A 
ENDBRANCH  20  21
ENDBRANCH   6  20
ENDBRANCH   4   6
ENDBRANCH   3   4
ENDBRANCH   2   3
ENDBRANCH   1   2
BRANCH   1  30
ATOM     30  O   UNL A   1      31.902  30.196  27.186  1.00  0.00    -0.374 OA
BRANCH  30  31
ATOM     31  C   UNL A   1      31.776  31.427  26.503  1.00  0.00     0.202 C 
BRANCH  31  32
ATOM     32  C   UNL A   1      32.460  32.612  27.182  1.00  0.00     0.261 C 
BRANCH  32  33
ATOM     33  O   UNL A   1      33.453  32.211  28.149  1.00  0.00    -0.460 OA
BRANCH  33  34
ATOM     34  C   UNL A   1      34.621  32.909  28.078  1.00  0.00     0.338 C 
ATOM     35  O   UNL A   1      34.739  33.999  27.547  1.00  0.00    -0.246 OA
BRANCH  34  36
ATOM     36  C   UNL A   1      35.747  32.054  28.555  1.00  0.00     0.060 A 
ATOM     37  C   UNL A   1      36.884  32.670  29.102  1.00  0.00     0.016 A 
ATOM     38  C   UNL A   1      35.797  30.720  28.138  1.00  0.00     0.016 A 
ATOM     39  C   UNL A   1      38.100  31.974  29.125  1.00  0.00     0.010 A 
ATOM     40  C   UNL A   1      37.025  30.087  28.044  1.00  0.00     0.010 A 
ATOM     41  C   UNL A   1      38.184  30.696  28.550  1.00  0.00    -0.014 A 
BRANCH  41  42
ATOM     42  C   UNL A   1      39.206  29.721  28.954  1.00  0.00     0.031 A 
ATOM     43  C   UNL A   1      39.318  29.791  30.409  1.00  0.00     0.074 A 
ATOM     44  C   UNL A   1      40.067  28.911  28.309  1.00  0.00     0.049 A 
ATOM     45  N   UNL A   1      40.167  30.588  30.969  1.00  0.00    -0.248 NA
ATOM     46  C   UNL A   1      38.307  29.233  31.307  1.00  0.00     0.031 C 
ATOM     47  C   UNL A   1      40.470  28.989  26.919  1.00  0.00     0.029 A 
ATOM     48  N   UNL A   1      40.779  27.819  28.781  1.00  0.00    -0.354 N 
ATOM     49  C   UNL A   1      40.019  30.347  32.306  1.00  0.00     0.074 A 
ATOM     50  C   UNL A   1      38.708  29.765  32.467  1.00  0.00     0.031 C 
ATOM     51  C   UNL A   1      41.259  27.935  26.619  1.00  0.00     0.029 A 
ATOM     52  C   UNL A   1      41.355  27.049  27.774  1.00  0.00     0.049 A 
ATOM     53  H   UNL A   1      40.870  27.608  29.739  1.00  0.00     0.167 HD
ATOM     54  C   UNL A   1      41.145  30.227  33.047  1.00  0.00     0.037 A 
ATOM     55  C   UNL A   1      42.346  26.126  27.828  1.00  0.00     0.037 A 
ATOM     56  C   UNL A   1      42.316  30.739  32.360  1.00  0.00     0.049 A 
ATOM     57  C   UNL A   1      43.392  26.628  28.725  1.00  0.00     0.074 A 
ATOM     58  C   UNL A   1      42.820  31.976  32.006  1.00  0.00     0.029 A 
ATOM     59  N   UNL A   1      42.952  29.822  31.565  1.00  0.00    -0.354 N 
ATOM     60  N   UNL A   1      44.191  27.606  28.406  1.00  0.00    -0.248 NA
ATOM     61  C   UNL A   1      43.364  26.263  30.137  1.00  0.00     0.031 C 
ATOM     62  C   UNL A   1      43.779  31.763  30.965  1.00  0.00     0.029 A 
ATOM     63  C   UNL A   1      43.845  30.403  30.700  1.00  0.00     0.049 A 
ATOM     64  H   UNL A   1      42.786  28.852  31.608  1.00  0.00     0.167 HD
ATOM     65  C   UNL A   1      44.368  28.265  29.604  1.00  0.00     0.074 A 
ATOM     66  C   UNL A   1      44.014  27.312  30.644  1.00  0.00     0.031 C 
ATOM     67  C   UNL A   1      44.418  29.624  29.634  1.00  0.00     0.037 A 
BRANCH  54  68
ATOM     68  C   UNL A   1      41.259  29.196  34.129  1.00  0.00     0.057 A 
ATOM     69  C   UNL A   1      41.277  27.801  33.908  1.00  0.00     0.134 A 
ATOM     70  C   UNL A   1      41.625  29.610  35.414  1.00  0.00     0.134 A 
ATOM     71  F   UNL A   1      41.123  27.259  32.693  1.00  0.00    -0.206 F 
ATOM     72  C   UNL A   1      41.567  26.879  34.910  1.00  0.00     0.040 A 
ATOM     73  C   UNL A   1      41.986  28.697  36.408  1.00  0.00     0.040 A 
ATOM     74  F   UNL A   1      41.701  30.913  35.717  1.00  0.00    -0.206 F 
ATOM     75  C   UNL A   1      41.946  27.327  36.163  1.00  0.00     0.006 A 
ENDBRANCH  54  68
BRANCH  55  76
ATOM     76  C   UNL A   1      42.208  24.697  27.486  1.00  0.00     0.057 A 
ATOM     77  C   UNL A   1      41.025  23.977  27.702  1.00  0.00     0.134 A 
ATOM     78  C   UNL A   1      43.292  23.976  26.969  1.00  0.00     0.134 A 
ATOM     79  F   UNL A   1      39.948  24.577  28.228  1.00  0.00    -0.206 F 
ATOM     80  C   UNL A   1      40.910  22.619  27.375  1.00  0.00     0.040 A 
ATOM     81  C   UNL A   1      43.193  22.618  26.641  1.00  0.00     0.040 A 
ATOM     82  F   UNL A   1      44.473  24.579  26.768  1.00  0.00    -0.206 F 
ATOM     83  C   UNL A   1      41.995  21.937  26.834  1.00  0.00     0.006 A 
ENDBRANCH  55  76
BRANCH  67  84
ATOM     84  C   UNL A   1      44.942  30.259  28.391  1.00  0.00     0.057 A 
ATOM     85  C   UNL A   1      44.050  30.951  27.568  1.00  0.00     0.134 A 
ATOM     86  C   UNL A   1      46.292  30.265  28.027  1.00  0.00     0.134 A 
ATOM     87  F   UNL A   1      42.738  30.962  27.853  1.00  0.00    -0.206 F 
ATOM     88  C   UNL A   1      44.481  31.639  26.433  1.00  0.00     0.040 A 
ATOM     89  C   UNL A   1      46.742  30.975  26.907  1.00  0.00     0.040 A 
ATOM     90  F   UNL A   1      47.198  29.576  28.732  1.00  0.00    -0.206 F 
ATOM     91  C   UNL A   1      45.834  31.666  26.107  1.00  0.00     0.006 A 
ENDBRANCH  67  84
ENDBRANCH  41  42
ENDBRANCH  34  36
ENDBRANCH  33  34
ENDBRANCH  32  33
ENDBRANCH  31  32
ENDBRANCH  30  31
ENDBRANCH   1  30
TORSDOF 19
ENDMDL
MODEL 3
REMARK VINA RESULT:     -10.7      2.565      6.909
REMARK SMILES Cc1ccc(C)c(S(=O)(=O)N[C@H](CC2=c3ccccc3=NC2)C(=O)OCCOCCOC(=O)c2ccc(-c3c4nc(c(-c5c(F)cccc5F)c5ccc([nH]5)c(-c5c(F)cccc5F)c5nc(c(-c6c(F)cccc6F)c6ccc3[nH]6)C=C5)C=C4)cc2)c1
REMARK SMILES IDX 27 1 26 2 25 3 23 4 24 5 12 6 11 7 8 9 9 10 10 11 7 12 1 13
REMARK SMILES IDX 2 14 3 15 88 16 4 17 5 18 6 19 13 20 14 21 15 22 22 23 16 24
REMARK SMILES IDX 20 25 21 26 17 27 19 28 18 29 28 30 29 31 30 32 31 33 32 34
REMARK SMILES IDX 33 35 34 36 35 37 87 38 36 39 86 40 37 41 38 42 39 43 80 44
REMARK SMILES IDX 40 45 85 46 79 47 81 48 41 49 84 50 78 51 77 52 42 54 68 55
REMARK SMILES IDX 51 56 67 57 52 58 55 59 66 60 82 61 53 62 54 63 65 65 83 66
REMARK SMILES IDX 56 67 43 68 44 69 49 70 45 71 46 72 48 73 50 74 47 75 69 76
REMARK SMILES IDX 70 77 75 78 71 79 72 80 74 81 76 82 73 83 57 84 58 85 63 86
REMARK SMILES IDX 59 87 60 88 62 89 64 90 61 91
REMARK H PARENT 11 8 81 53 55 64
REMARK Flexibility Score: inf
ROOT
ATOM      1  C   UNL A   1      32.181  30.341  26.223  1.00  0.00     0.202 C 
ENDROOT
BRANCH   1   2
ATOM      2  C   UNL A   1      32.411  29.131  25.297  1.00  0.00     0.261 C 
BRANCH   2   3
ATOM      3  O   UNL A   1      33.569  29.353  24.456  1.00  0.00    -0.462 OA
BRANCH   3   4
ATOM      4  C   UNL A   1      33.693  28.490  23.419  1.00  0.00     0.324 C 
ATOM      5  O   UNL A   1      34.356  28.717  22.417  1.00  0.00    -0.250 OA
BRANCH   4   6
ATOM      6  C   UNL A   1      32.885  27.210  23.603  1.00  0.00     0.183 C 
BRANCH   6   7
ATOM      7  N   UNL A   1      33.786  26.018  23.643  1.00  0.00    -0.197 NA
ATOM      8  H   UNL A   1      33.557  25.433  22.839  1.00  0.00     0.142 HD
BRANCH   7   9
ATOM      9  S   UNL A   1      33.704  25.048  25.018  1.00  0.00     0.241 S 
ATOM     10  O   UNL A   1      32.582  24.146  24.816  1.00  0.00    -0.207 OA
ATOM     11  O   UNL A   1      33.845  25.928  26.132  1.00  0.00    -0.207 OA
BRANCH   9  12
ATOM     12  C   UNL A   1      35.096  23.966  24.983  1.00  0.00     0.085 A 
ATOM     13  C   UNL A   1      38.515  23.895  26.579  1.00  0.00     0.044 C 
ATOM     14  C   UNL A   1      37.352  23.536  25.709  1.00  0.00    -0.050 A 
ATOM     15  C   UNL A   1      37.497  22.609  24.674  1.00  0.00     0.004 A 
ATOM     16  C   UNL A   1      36.120  24.158  25.908  1.00  0.00     0.025 A 
ATOM     17  C   UNL A   1      36.456  22.380  23.777  1.00  0.00     0.005 A 
ATOM     18  C   UNL A   1      35.261  23.098  23.886  1.00  0.00    -0.031 A 
ATOM     19  C   UNL A   1      34.242  22.937  22.796  1.00  0.00     0.046 C 
ENDBRANCH   9  12
ENDBRANCH   7   9
ENDBRANCH   6   7
BRANCH   6  20
ATOM     20  C   UNL A   1      31.729  26.892  22.621  1.00  0.00     0.065 C 
BRANCH  20  21
ATOM     21  C   UNL A   1      30.307  27.226  22.948  1.00  0.00    -0.037 C 
ATOM     22  C   UNL A   1      29.652  28.374  22.779  1.00  0.00     0.001 A 
ATOM     23  C   UNL A   1      29.445  26.249  23.703  1.00  0.00     0.174 C 
ATOM     24  C   UNL A   1      29.961  29.662  22.239  1.00  0.00     0.010 A 
ATOM     25  C   UNL A   1      28.302  28.056  23.277  1.00  0.00     0.065 A 
ATOM     26  N   UNL A   1      28.113  26.889  23.811  1.00  0.00    -0.280 NA
ATOM     27  C   UNL A   1      28.974  30.567  22.127  1.00  0.00     0.001 A 
ATOM     28  C   UNL A   1      27.261  29.085  23.077  1.00  0.00     0.028 A 
ATOM     29  C   UNL A   1      27.608  30.259  22.524  1.00  0.00     0.002 A 
ENDBRANCH  20  21
ENDBRANCH   6  20
ENDBRANCH   4   6
ENDBRANCH   3   4
ENDBRANCH   2   3
ENDBRANCH   1   2
BRANCH   1  30
ATOM     30  O   UNL A   1      33.087  30.246  27.307  1.00  0.00    -0.374 OA
BRANCH  30  31
ATOM     31  C   UNL A   1      34.135  31.185  27.443  1.00  0.00     0.202 C 
BRANCH  31  32
ATOM     32  C   UNL A   1      35.053  30.955  28.643  1.00  0.00     0.261 C 
BRANCH  32  33
ATOM     33  O   UNL A   1      35.915  29.810  28.481  1.00  0.00    -0.460 OA
BRANCH  33  34
ATOM     34  C   UNL A   1      36.563  29.429  29.618  1.00  0.00     0.338 C 
ATOM     35  O   UNL A   1      36.048  29.387  30.722  1.00  0.00    -0.246 OA
BRANCH  34  36
ATOM     36  C   UNL A   1      38.021  29.278  29.339  1.00  0.00     0.060 A 
ATOM     37  C   UNL A   1      38.519  29.678  28.089  1.00  0.00     0.016 A 
ATOM     38  C   UNL A   1      38.778  28.442  30.167  1.00  0.00     0.016 A 
ATOM     39  C   UNL A   1      39.731  29.146  27.628  1.00  0.00     0.010 A 
ATOM     40  C   UNL A   1      39.904  27.822  29.653  1.00  0.00     0.010 A 
ATOM     41  C   UNL A   1      40.402  28.176  28.389  1.00  0.00    -0.014 A 
BRANCH  41  42
ATOM     42  C   UNL A   1      41.848  27.947  28.266  1.00  0.00     0.031 A 
ATOM     43  C   UNL A   1      42.027  26.751  27.447  1.00  0.00     0.074 A 
ATOM     44  C   UNL A   1      42.955  28.505  28.792  1.00  0.00     0.049 A 
ATOM     45  N   UNL A   1      42.108  25.583  27.993  1.00  0.00    -0.248 NA
ATOM     46  C   UNL A   1      41.816  26.745  26.000  1.00  0.00     0.031 C 
ATOM     47  C   UNL A   1      43.035  29.371  29.951  1.00  0.00     0.029 A 
ATOM     48  N   UNL A   1      44.277  28.406  28.383  1.00  0.00    -0.354 N 
ATOM     49  C   UNL A   1      42.315  24.736  26.940  1.00  0.00     0.074 A 
ATOM     50  C   UNL A   1      41.837  25.428  25.767  1.00  0.00     0.031 C 
ATOM     51  C   UNL A   1      44.302  29.815  30.095  1.00  0.00     0.029 A 
ATOM     52  C   UNL A   1      45.120  29.335  28.987  1.00  0.00     0.049 A 
ATOM     53  H   UNL A   1      44.590  27.740  27.728  1.00  0.00     0.167 HD
ATOM     54  C   UNL A   1      43.260  23.778  27.086  1.00  0.00     0.037 A 
ATOM     55  C   UNL A   1      46.471  29.361  29.093  1.00  0.00     0.037 A 
ATOM     56  C   UNL A   1      43.636  23.581  28.473  1.00  0.00     0.049 A 
ATOM     57  C   UNL A   1      46.933  28.002  29.399  1.00  0.00     0.074 A 
ATOM     58  C   UNL A   1      43.069  23.031  29.607  1.00  0.00     0.029 A 
ATOM     59  N   UNL A   1      44.648  24.397  28.906  1.00  0.00    -0.354 N 
ATOM     60  N   UNL A   1      46.758  27.437  30.558  1.00  0.00    -0.248 NA
ATOM     61  C   UNL A   1      47.320  27.113  28.308  1.00  0.00     0.031 C 
ATOM     62  C   UNL A   1      43.778  23.553  30.734  1.00  0.00     0.029 A 
ATOM     63  C   UNL A   1      44.765  24.412  30.274  1.00  0.00     0.049 A 
ATOM     64  H   UNL A   1      45.228  24.917  28.303  1.00  0.00     0.167 HD
ATOM     65  C   UNL A   1      46.536  26.117  30.230  1.00  0.00     0.074 A 
ATOM     66  C   UNL A   1      47.078  25.938  28.892  1.00  0.00     0.031 C 
ATOM     67  C   UNL A   1      45.606  25.392  30.909  1.00  0.00     0.037 A 
BRANCH  54  68
ATOM     68  C   UNL A   1      44.186  23.419  25.963  1.00  0.00     0.057 A 
ATOM     69  C   UNL A   1      45.210  24.257  25.471  1.00  0.00     0.134 A 
ATOM     70  C   UNL A   1      44.230  22.091  25.528  1.00  0.00     0.134 A 
ATOM     71  F   UNL A   1      45.409  25.501  25.926  1.00  0.00    -0.206 F 
ATOM     72  C   UNL A   1      46.167  23.826  24.556  1.00  0.00     0.040 A 
ATOM     73  C   UNL A   1      45.227  21.630  24.665  1.00  0.00     0.040 A 
ATOM     74  F   UNL A   1      43.342  21.193  25.980  1.00  0.00    -0.206 F 
ATOM     75  C   UNL A   1      46.192  22.500  24.166  1.00  0.00     0.006 A 
ENDBRANCH  54  68
BRANCH  55  76
ATOM     76  C   UNL A   1      47.357  30.395  28.525  1.00  0.00     0.057 A 
ATOM     77  C   UNL A   1      48.541  30.806  29.153  1.00  0.00     0.134 A 
ATOM     78  C   UNL A   1      47.018  31.057  27.339  1.00  0.00     0.134 A 
ATOM     79  F   UNL A   1      48.926  30.253  30.313  1.00  0.00    -0.206 F 
ATOM     80  C   UNL A   1      49.371  31.792  28.604  1.00  0.00     0.040 A 
ATOM     81  C   UNL A   1      47.836  32.047  26.780  1.00  0.00     0.040 A 
ATOM     82  F   UNL A   1      45.883  30.753  26.694  1.00  0.00    -0.206 F 
ATOM     83  C   UNL A   1      49.024  32.410  27.407  1.00  0.00     0.006 A 
ENDBRANCH  55  76
BRANCH  67  84
ATOM     84  C   UNL A   1      45.389  25.818  32.321  1.00  0.00     0.057 A 
ATOM     85  C   UNL A   1      46.367  25.507  33.270  1.00  0.00     0.134 A 
ATOM     86  C   UNL A   1      44.292  26.572  32.750  1.00  0.00     0.134 A 
ATOM     87  F   UNL A   1      47.432  24.766  32.923  1.00  0.00    -0.206 F 
ATOM     88  C   UNL A   1      46.272  25.942  34.592  1.00  0.00     0.040 A 
ATOM     89  C   UNL A   1      44.198  27.039  34.066  1.00  0.00     0.040 A 
ATOM     90  F   UNL A   1      43.286  26.857  31.915  1.00  0.00    -0.206 F 
ATOM     91  C   UNL A   1      45.192  26.725  34.991  1.00  0.00     0.006 A 
ENDBRANCH  67  84
ENDBRANCH  41  42
ENDBRANCH  34  36
ENDBRANCH  33  34
ENDBRANCH  32  33
ENDBRANCH  31  32
ENDBRANCH  30  31
ENDBRANCH   1  30
TORSDOF 19
ENDMDL
