MODEL 1
REMARK VINA RESULT:     -10.6      0.000      0.000
REMARK SMILES C[C@@H](C(=O)OCCOCCOC(=O)c1ccc(-c2c3nc(c(-c4c(F)cccc4F)c4ccc([nH]4)c(-c4c(F)cccc4F)c4nc(c(-c5c(F)cccc5F)c5ccc2[nH]5)C=C4)C=C3)cc1)[C@@H](C)C(=O)c1ccc(Br)cc1
REMARK SMILES IDX 7 1 6 2 5 3 3 4 4 5 2 6 1 7 68 8 69 9 70 10 71 11 72 12
REMARK SMILES IDX 73 13 78 14 74 15 77 16 75 17 76 18 8 19 9 20 10 21 11 22
REMARK SMILES IDX 12 23 13 24 14 25 15 26 67 27 16 28 66 29 17 30 18 31 19 32
REMARK SMILES IDX 60 33 20 34 65 35 59 36 61 37 21 38 64 39 58 40 57 41 22 43
REMARK SMILES IDX 48 44 31 45 47 46 32 47 35 48 46 49 62 50 33 51 34 52 45 54
REMARK SMILES IDX 63 55 36 56 23 57 24 58 29 59 25 60 26 61 28 62 30 63 27 64
REMARK SMILES IDX 49 65 50 66 55 67 51 68 52 69 54 70 56 71 53 72 37 73 38 74
REMARK SMILES IDX 43 75 39 76 40 77 42 78 44 79 41 80
REMARK H PARENT 61 42 35 53
REMARK Flexibility Score: inf
ROOT
ATOM      1  C   UNL A   1      32.736  36.047  30.941  1.00  0.00     0.202 C 
ENDROOT
BRANCH   1   2
ATOM      2  C   UNL A   1      33.294  35.970  29.516  1.00  0.00     0.261 C 
BRANCH   2   3
ATOM      3  O   UNL A   1      32.761  34.881  28.747  1.00  0.00    -0.463 OA
BRANCH   3   4
ATOM      4  C   UNL A   1      33.701  34.091  28.162  1.00  0.00     0.309 C 
ATOM      5  O   UNL A   1      34.512  34.501  27.342  1.00  0.00    -0.252 OA
BRANCH   4   6
ATOM      6  C   UNL A   1      33.612  32.621  28.583  1.00  0.00     0.106 C 
ATOM      7  C   UNL A   1      34.746  32.176  29.526  1.00  0.00     0.021 C 
BRANCH   6   8
ATOM      8  C   UNL A   1      33.528  31.700  27.337  1.00  0.00     0.072 C 
ATOM      9  C   UNL A   1      34.485  30.507  27.384  1.00  0.00     0.017 C 
BRANCH   8  10
ATOM     10  C   UNL A   1      32.169  31.183  26.824  1.00  0.00     0.166 C 
ATOM     11  O   UNL A   1      31.280  32.015  26.608  1.00  0.00    -0.294 OA
BRANCH  10  12
ATOM     12  C   UNL A   1      31.888  29.753  26.436  1.00  0.00     0.018 A 
ATOM     13  C   UNL A   1      31.731  29.483  25.065  1.00  0.00     0.013 A 
ATOM     14  C   UNL A   1      31.714  28.697  27.334  1.00  0.00     0.013 A 
ATOM     15  C   UNL A   1      31.391  28.203  24.610  1.00  0.00     0.016 A 
ATOM     16  C   UNL A   1      31.348  27.421  26.886  1.00  0.00     0.016 A 
ATOM     17  C   UNL A   1      31.188  27.180  25.527  1.00  0.00     0.018 A 
ATOM     18  Br  UNL A   1      30.680  25.460  24.933  1.00  0.00    -0.051 Br
ENDBRANCH  10  12
ENDBRANCH   8  10
ENDBRANCH   6   8
ENDBRANCH   4   6
ENDBRANCH   3   4
ENDBRANCH   2   3
ENDBRANCH   1   2
BRANCH   1  19
ATOM     19  O   UNL A   1      32.928  34.932  31.802  1.00  0.00    -0.374 OA
BRANCH  19  20
ATOM     20  C   UNL A   1      34.203  34.757  32.421  1.00  0.00     0.202 C 
BRANCH  20  21
ATOM     21  C   UNL A   1      34.413  33.521  33.306  1.00  0.00     0.261 C 
BRANCH  21  22
ATOM     22  O   UNL A   1      35.221  32.512  32.668  1.00  0.00    -0.460 OA
BRANCH  22  23
ATOM     23  C   UNL A   1      36.370  32.217  33.322  1.00  0.00     0.338 C 
ATOM     24  O   UNL A   1      36.631  32.429  34.498  1.00  0.00    -0.246 OA
BRANCH  23  25
ATOM     25  C   UNL A   1      37.256  31.408  32.469  1.00  0.00     0.060 A 
ATOM     26  C   UNL A   1      38.271  30.675  33.098  1.00  0.00     0.016 A 
ATOM     27  C   UNL A   1      37.180  31.468  31.076  1.00  0.00     0.016 A 
ATOM     28  C   UNL A   1      39.246  30.037  32.337  1.00  0.00     0.010 A 
ATOM     29  C   UNL A   1      38.169  30.837  30.313  1.00  0.00     0.010 A 
ATOM     30  C   UNL A   1      39.226  30.153  30.941  1.00  0.00    -0.014 A 
BRANCH  30  31
ATOM     31  C   UNL A   1      40.402  29.698  30.161  1.00  0.00     0.031 A 
ATOM     32  C   UNL A   1      41.544  30.653  29.941  1.00  0.00     0.074 A 
ATOM     33  C   UNL A   1      40.476  28.439  29.697  1.00  0.00     0.049 A 
ATOM     34  N   UNL A   1      42.661  30.473  29.284  1.00  0.00    -0.248 NA
ATOM     35  C   UNL A   1      41.408  31.987  30.546  1.00  0.00     0.031 C 
ATOM     36  C   UNL A   1      39.456  27.408  29.883  1.00  0.00     0.029 A 
ATOM     37  N   UNL A   1      41.457  27.817  28.968  1.00  0.00    -0.354 N 
ATOM     38  C   UNL A   1      43.359  31.669  29.396  1.00  0.00     0.074 A 
ATOM     39  C   UNL A   1      42.529  32.576  30.157  1.00  0.00     0.031 C 
ATOM     40  C   UNL A   1      39.861  26.282  29.272  1.00  0.00     0.029 A 
ATOM     41  C   UNL A   1      41.154  26.521  28.632  1.00  0.00     0.049 A 
ATOM     42  H   UNL A   1      42.300  28.256  28.710  1.00  0.00     0.167 HD
ATOM     43  C   UNL A   1      44.588  31.980  28.916  1.00  0.00     0.037 A 
ATOM     44  C   UNL A   1      41.835  25.636  27.878  1.00  0.00     0.037 A 
ATOM     45  C   UNL A   1      45.414  31.080  28.158  1.00  0.00     0.049 A 
ATOM     46  C   UNL A   1      43.166  26.028  27.297  1.00  0.00     0.074 A 
ATOM     47  C   UNL A   1      46.676  31.300  27.634  1.00  0.00     0.029 A 
ATOM     48  N   UNL A   1      45.056  29.786  27.809  1.00  0.00    -0.354 N 
ATOM     49  N   UNL A   1      43.824  27.155  27.421  1.00  0.00    -0.248 NA
ATOM     50  C   UNL A   1      43.851  25.022  26.471  1.00  0.00     0.031 C 
ATOM     51  C   UNL A   1      47.065  30.152  26.933  1.00  0.00     0.029 A 
ATOM     52  C   UNL A   1      46.064  29.203  27.058  1.00  0.00     0.049 A 
ATOM     53  H   UNL A   1      44.211  29.347  28.058  1.00  0.00     0.167 HD
ATOM     54  C   UNL A   1      45.008  26.987  26.713  1.00  0.00     0.074 A 
ATOM     55  C   UNL A   1      44.983  25.644  26.171  1.00  0.00     0.031 C 
ATOM     56  C   UNL A   1      46.025  27.864  26.530  1.00  0.00     0.037 A 
BRANCH  43  57
ATOM     57  C   UNL A   1      45.101  33.363  29.185  1.00  0.00     0.057 A 
ATOM     58  C   UNL A   1      44.824  34.433  28.324  1.00  0.00     0.134 A 
ATOM     59  C   UNL A   1      45.859  33.633  30.331  1.00  0.00     0.134 A 
ATOM     60  F   UNL A   1      44.116  34.237  27.201  1.00  0.00    -0.206 F 
ATOM     61  C   UNL A   1      45.301  35.720  28.583  1.00  0.00     0.040 A 
ATOM     62  C   UNL A   1      46.322  34.919  30.613  1.00  0.00     0.040 A 
ATOM     63  F   UNL A   1      46.157  32.653  31.197  1.00  0.00    -0.206 F 
ATOM     64  C   UNL A   1      46.047  35.966  29.735  1.00  0.00     0.006 A 
ENDBRANCH  43  57
BRANCH  44  65
ATOM     65  C   UNL A   1      41.261  24.293  27.615  1.00  0.00     0.057 A 
ATOM     66  C   UNL A   1      40.215  24.114  26.703  1.00  0.00     0.134 A 
ATOM     67  C   UNL A   1      41.734  23.158  28.285  1.00  0.00     0.134 A 
ATOM     68  F   UNL A   1      39.704  25.167  26.048  1.00  0.00    -0.206 F 
ATOM     69  C   UNL A   1      39.651  22.858  26.477  1.00  0.00     0.040 A 
ATOM     70  C   UNL A   1      41.194  21.893  28.053  1.00  0.00     0.040 A 
ATOM     71  F   UNL A   1      42.735  23.264  29.172  1.00  0.00    -0.206 F 
ATOM     72  C   UNL A   1      40.144  21.742  27.151  1.00  0.00     0.006 A 
ENDBRANCH  44  65
BRANCH  56  73
ATOM     73  C   UNL A   1      47.206  27.391  25.735  1.00  0.00     0.057 A 
ATOM     74  C   UNL A   1      48.263  26.692  26.328  1.00  0.00     0.134 A 
ATOM     75  C   UNL A   1      47.263  27.602  24.351  1.00  0.00     0.134 A 
ATOM     76  F   UNL A   1      48.272  26.469  27.652  1.00  0.00    -0.206 F 
ATOM     77  C   UNL A   1      49.347  26.235  25.577  1.00  0.00     0.040 A 
ATOM     78  C   UNL A   1      48.330  27.129  23.586  1.00  0.00     0.040 A 
ATOM     79  F   UNL A   1      46.277  28.256  23.719  1.00  0.00    -0.206 F 
ATOM     80  C   UNL A   1      49.379  26.448  24.200  1.00  0.00     0.006 A 
ENDBRANCH  56  73
ENDBRANCH  30  31
ENDBRANCH  23  25
ENDBRANCH  22  23
ENDBRANCH  21  22
ENDBRANCH  20  21
ENDBRANCH  19  20
ENDBRANCH   1  19
TORSDOF 17
ENDMDL
MODEL 2
REMARK VINA RESULT:     -10.5      5.162      9.800
REMARK SMILES C[C@@H](C(=O)OCCOCCOC(=O)c1ccc(-c2c3nc(c(-c4c(F)cccc4F)c4ccc([nH]4)c(-c4c(F)cccc4F)c4nc(c(-c5c(F)cccc5F)c5ccc2[nH]5)C=C4)C=C3)cc1)[C@@H](C)C(=O)c1ccc(Br)cc1
REMARK SMILES IDX 7 1 6 2 5 3 3 4 4 5 2 6 1 7 68 8 69 9 70 10 71 11 72 12
REMARK SMILES IDX 73 13 78 14 74 15 77 16 75 17 76 18 8 19 9 20 10 21 11 22
REMARK SMILES IDX 12 23 13 24 14 25 15 26 67 27 16 28 66 29 17 30 18 31 19 32
REMARK SMILES IDX 60 33 20 34 65 35 59 36 61 37 21 38 64 39 58 40 57 41 22 43
REMARK SMILES IDX 48 44 31 45 47 46 32 47 35 48 46 49 62 50 33 51 34 52 45 54
REMARK SMILES IDX 63 55 36 56 23 57 24 58 29 59 25 60 26 61 28 62 30 63 27 64
REMARK SMILES IDX 49 65 50 66 55 67 51 68 52 69 54 70 56 71 53 72 37 73 38 74
REMARK SMILES IDX 43 75 39 76 40 77 42 78 44 79 41 80
REMARK H PARENT 61 42 35 53
REMARK Flexibility Score: inf
ROOT
ATOM      1  C   UNL A   1      36.326  20.641  25.090  1.00  0.00     0.202 C 
ENDROOT
BRANCH   1   2
ATOM      2  C   UNL A   1      36.706  22.112  25.289  1.00  0.00     0.261 C 
BRANCH   2   3
ATOM      3  O   UNL A   1      35.709  23.033  24.823  1.00  0.00    -0.463 OA
BRANCH   3   4
ATOM      4  C   UNL A   1      35.571  23.079  23.471  1.00  0.00     0.309 C 
ATOM      5  O   UNL A   1      36.515  23.016  22.693  1.00  0.00    -0.252 OA
BRANCH   4   6
ATOM      6  C   UNL A   1      34.124  23.277  23.009  1.00  0.00     0.106 C 
ATOM      7  C   UNL A   1      33.666  24.747  23.014  1.00  0.00     0.021 C 
BRANCH   6   8
ATOM      8  C   UNL A   1      33.160  22.388  23.837  1.00  0.00     0.072 C 
ATOM      9  C   UNL A   1      32.129  23.179  24.645  1.00  0.00     0.017 C 
BRANCH   8  10
ATOM     10  C   UNL A   1      32.424  21.198  23.189  1.00  0.00     0.166 C 
ATOM     11  O   UNL A   1      31.791  21.409  22.147  1.00  0.00    -0.294 OA
BRANCH  10  12
ATOM     12  C   UNL A   1      32.532  19.768  23.655  1.00  0.00     0.018 A 
ATOM     13  C   UNL A   1      32.700  19.557  25.035  1.00  0.00     0.013 A 
ATOM     14  C   UNL A   1      32.537  18.649  22.818  1.00  0.00     0.013 A 
ATOM     15  C   UNL A   1      32.888  18.271  25.557  1.00  0.00     0.016 A 
ATOM     16  C   UNL A   1      32.751  17.363  23.332  1.00  0.00     0.016 A 
ATOM     17  C   UNL A   1      32.925  17.180  24.698  1.00  0.00     0.018 A 
ATOM     18  Br  UNL A   1      33.228  15.445  25.380  1.00  0.00    -0.051 Br
ENDBRANCH  10  12
ENDBRANCH   8  10
ENDBRANCH   6   8
ENDBRANCH   4   6
ENDBRANCH   3   4
ENDBRANCH   2   3
ENDBRANCH   1   2
BRANCH   1  19
ATOM     19  O   UNL A   1      37.371  19.682  24.985  1.00  0.00    -0.374 OA
BRANCH  19  20
ATOM     20  C   UNL A   1      38.715  20.105  25.214  1.00  0.00     0.202 C 
BRANCH  20  21
ATOM     21  C   UNL A   1      39.634  19.186  26.029  1.00  0.00     0.261 C 
BRANCH  21  22
ATOM     22  O   UNL A   1      40.894  18.939  25.375  1.00  0.00    -0.460 OA
BRANCH  22  23
ATOM     23  C   UNL A   1      41.982  19.162  26.149  1.00  0.00     0.338 C 
ATOM     24  O   UNL A   1      42.890  18.380  26.400  1.00  0.00    -0.246 OA
BRANCH  23  25
ATOM     25  C   UNL A   1      42.058  20.581  26.538  1.00  0.00     0.060 A 
ATOM     26  C   UNL A   1      42.175  21.528  25.512  1.00  0.00     0.016 A 
ATOM     27  C   UNL A   1      42.145  20.965  27.876  1.00  0.00     0.016 A 
ATOM     28  C   UNL A   1      42.429  22.862  25.821  1.00  0.00     0.010 A 
ATOM     29  C   UNL A   1      42.413  22.304  28.184  1.00  0.00     0.010 A 
ATOM     30  C   UNL A   1      42.594  23.248  27.157  1.00  0.00    -0.014 A 
BRANCH  30  31
ATOM     31  C   UNL A   1      43.120  24.602  27.458  1.00  0.00     0.031 A 
ATOM     32  C   UNL A   1      42.159  25.678  27.886  1.00  0.00     0.074 A 
ATOM     33  C   UNL A   1      44.438  24.858  27.398  1.00  0.00     0.049 A 
ATOM     34  N   UNL A   1      42.396  26.930  28.186  1.00  0.00    -0.248 NA
ATOM     35  C   UNL A   1      40.744  25.289  27.993  1.00  0.00     0.031 C 
ATOM     36  C   UNL A   1      45.472  23.888  27.040  1.00  0.00     0.029 A 
ATOM     37  N   UNL A   1      45.129  26.019  27.636  1.00  0.00    -0.354 N 
ATOM     38  C   UNL A   1      41.162  27.476  28.516  1.00  0.00     0.074 A 
ATOM     39  C   UNL A   1      40.176  26.431  28.352  1.00  0.00     0.031 C 
ATOM     40  C   UNL A   1      46.668  24.499  27.070  1.00  0.00     0.029 A 
ATOM     41  C   UNL A   1      46.481  25.905  27.425  1.00  0.00     0.049 A 
ATOM     42  H   UNL A   1      44.699  26.853  27.931  1.00  0.00     0.167 HD
ATOM     43  C   UNL A   1      40.877  28.734  28.931  1.00  0.00     0.037 A 
ATOM     44  C   UNL A   1      47.452  26.837  27.492  1.00  0.00     0.037 A 
ATOM     45  C   UNL A   1      41.856  29.776  29.094  1.00  0.00     0.049 A 
ATOM     46  C   UNL A   1      47.101  28.246  27.886  1.00  0.00     0.074 A 
ATOM     47  C   UNL A   1      41.666  31.080  29.515  1.00  0.00     0.029 A 
ATOM     48  N   UNL A   1      43.211  29.630  28.837  1.00  0.00    -0.354 N 
ATOM     49  N   UNL A   1      45.935  28.748  28.211  1.00  0.00    -0.248 NA
ATOM     50  C   UNL A   1      48.205  29.218  27.926  1.00  0.00     0.031 C 
ATOM     51  C   UNL A   1      42.902  31.737  29.474  1.00  0.00     0.029 A 
ATOM     52  C   UNL A   1      43.866  30.829  29.069  1.00  0.00     0.049 A 
ATOM     53  H   UNL A   1      43.643  28.800  28.534  1.00  0.00     0.167 HD
ATOM     54  C   UNL A   1      46.166  30.084  28.517  1.00  0.00     0.074 A 
ATOM     55  C   UNL A   1      47.586  30.311  28.350  1.00  0.00     0.031 C 
ATOM     56  C   UNL A   1      45.282  31.037  28.903  1.00  0.00     0.037 A 
BRANCH  43  57
ATOM     57  C   UNL A   1      39.441  29.056  29.217  1.00  0.00     0.057 A 
ATOM     58  C   UNL A   1      38.897  28.923  30.501  1.00  0.00     0.134 A 
ATOM     59  C   UNL A   1      38.599  29.528  28.203  1.00  0.00     0.134 A 
ATOM     60  F   UNL A   1      39.646  28.461  31.513  1.00  0.00    -0.206 F 
ATOM     61  C   UNL A   1      37.559  29.230  30.761  1.00  0.00     0.040 A 
ATOM     62  C   UNL A   1      37.267  29.860  28.455  1.00  0.00     0.040 A 
ATOM     63  F   UNL A   1      39.059  29.680  26.952  1.00  0.00    -0.206 F 
ATOM     64  C   UNL A   1      36.742  29.706  29.737  1.00  0.00     0.006 A 
ENDBRANCH  43  57
BRANCH  44  65
ATOM     65  C   UNL A   1      48.852  26.471  27.162  1.00  0.00     0.057 A 
ATOM     66  C   UNL A   1      49.752  26.067  28.154  1.00  0.00     0.134 A 
ATOM     67  C   UNL A   1      49.326  26.535  25.846  1.00  0.00     0.134 A 
ATOM     68  F   UNL A   1      49.362  26.009  29.435  1.00  0.00    -0.206 F 
ATOM     69  C   UNL A   1      51.078  25.754  27.851  1.00  0.00     0.040 A 
ATOM     70  C   UNL A   1      50.643  26.204  25.526  1.00  0.00     0.040 A 
ATOM     71  F   UNL A   1      48.512  26.916  24.850  1.00  0.00    -0.206 F 
ATOM     72  C   UNL A   1      51.526  25.818  26.532  1.00  0.00     0.006 A 
ENDBRANCH  44  65
BRANCH  56  73
ATOM     73  C   UNL A   1      45.828  32.402  29.198  1.00  0.00     0.057 A 
ATOM     74  C   UNL A   1      46.322  32.741  30.463  1.00  0.00     0.134 A 
ATOM     75  C   UNL A   1      45.899  33.374  28.192  1.00  0.00     0.134 A 
ATOM     76  F   UNL A   1      46.270  31.858  31.472  1.00  0.00    -0.206 F 
ATOM     77  C   UNL A   1      46.850  34.007  30.724  1.00  0.00     0.040 A 
ATOM     78  C   UNL A   1      46.446  34.634  28.434  1.00  0.00     0.040 A 
ATOM     79  F   UNL A   1      45.452  33.109  26.955  1.00  0.00    -0.206 F 
ATOM     80  C   UNL A   1      46.918  34.956  29.705  1.00  0.00     0.006 A 
ENDBRANCH  56  73
ENDBRANCH  30  31
ENDBRANCH  23  25
ENDBRANCH  22  23
ENDBRANCH  21  22
ENDBRANCH  20  21
ENDBRANCH  19  20
ENDBRANCH   1  19
TORSDOF 17
ENDMDL
MODEL 3
REMARK VINA RESULT:     -10.5      4.086      8.731
REMARK SMILES C[C@@H](C(=O)OCCOCCOC(=O)c1ccc(-c2c3nc(c(-c4c(F)cccc4F)c4ccc([nH]4)c(-c4c(F)cccc4F)c4nc(c(-c5c(F)cccc5F)c5ccc2[nH]5)C=C4)C=C3)cc1)[C@@H](C)C(=O)c1ccc(Br)cc1
REMARK SMILES IDX 7 1 6 2 5 3 3 4 4 5 2 6 1 7 68 8 69 9 70 10 71 11 72 12
REMARK SMILES IDX 73 13 78 14 74 15 77 16 75 17 76 18 8 19 9 20 10 21 11 22
REMARK SMILES IDX 12 23 13 24 14 25 15 26 67 27 16 28 66 29 17 30 18 31 19 32
REMARK SMILES IDX 60 33 20 34 65 35 59 36 61 37 21 38 64 39 58 40 57 41 22 43
REMARK SMILES IDX 48 44 31 45 47 46 32 47 35 48 46 49 62 50 33 51 34 52 45 54
REMARK SMILES IDX 63 55 36 56 23 57 24 58 29 59 25 60 26 61 28 62 30 63 27 64
REMARK SMILES IDX 49 65 50 66 55 67 51 68 52 69 54 70 56 71 53 72 37 73 38 74
REMARK SMILES IDX 43 75 39 76 40 77 42 78 44 79 41 80
REMARK H PARENT 61 42 35 53
REMARK Flexibility Score: inf
ROOT
ATOM      1  C   UNL A   1      35.440  22.206  24.384  1.00  0.00     0.202 C 
ENDROOT
BRANCH   1   2
ATOM      2  C   UNL A   1      35.957  23.648  24.443  1.00  0.00     0.261 C 
BRANCH   2   3
ATOM      3  O   UNL A   1      34.990  24.586  24.939  1.00  0.00    -0.463 OA
BRANCH   3   4
ATOM      4  C   UNL A   1      34.166  25.102  23.989  1.00  0.00     0.309 C 
ATOM      5  O   UNL A   1      34.307  24.899  22.790  1.00  0.00    -0.252 OA
BRANCH   4   6
ATOM      6  C   UNL A   1      33.071  26.011  24.556  1.00  0.00     0.106 C 
ATOM      7  C   UNL A   1      33.582  27.019  25.602  1.00  0.00     0.021 C 
BRANCH   6   8
ATOM      8  C   UNL A   1      31.898  25.167  25.120  1.00  0.00     0.072 C 
ATOM      9  C   UNL A   1      30.771  26.004  25.729  1.00  0.00     0.017 C 
BRANCH   8  10
ATOM     10  C   UNL A   1      31.243  24.055  24.276  1.00  0.00     0.166 C 
ATOM     11  O   UNL A   1      30.330  24.378  23.506  1.00  0.00    -0.294 OA
BRANCH  10  12
ATOM     12  C   UNL A   1      31.726  22.628  24.218  1.00  0.00     0.018 A 
ATOM     13  C   UNL A   1      31.909  22.067  22.942  1.00  0.00     0.013 A 
ATOM     14  C   UNL A   1      31.946  21.810  25.329  1.00  0.00     0.013 A 
ATOM     15  C   UNL A   1      32.278  20.725  22.783  1.00  0.00     0.016 A 
ATOM     16  C   UNL A   1      32.291  20.460  25.176  1.00  0.00     0.016 A 
ATOM     17  C   UNL A   1      32.455  19.925  23.904  1.00  0.00     0.018 A 
ATOM     18  Br  UNL A   1      32.905  18.101  23.706  1.00  0.00    -0.051 Br
ENDBRANCH  10  12
ENDBRANCH   8  10
ENDBRANCH   6   8
ENDBRANCH   4   6
ENDBRANCH   3   4
ENDBRANCH   2   3
ENDBRANCH   1   2
BRANCH   1  19
ATOM     19  O   UNL A   1      35.860  21.296  25.392  1.00  0.00    -0.374 OA
BRANCH  19  20
ATOM     20  C   UNL A   1      36.307  19.998  25.001  1.00  0.00     0.202 C 
BRANCH  20  21
ATOM     21  C   UNL A   1      37.815  19.718  25.012  1.00  0.00     0.261 C 
BRANCH  21  22
ATOM     22  O   UNL A   1      38.598  20.904  25.255  1.00  0.00    -0.460 OA
BRANCH  22  23
ATOM     23  C   UNL A   1      39.629  20.729  26.116  1.00  0.00     0.338 C 
ATOM     24  O   UNL A   1      40.312  19.724  26.264  1.00  0.00    -0.246 OA
BRANCH  23  25
ATOM     25  C   UNL A   1      39.977  22.002  26.769  1.00  0.00     0.060 A 
ATOM     26  C   UNL A   1      39.264  23.145  26.384  1.00  0.00     0.016 A 
ATOM     27  C   UNL A   1      41.064  22.100  27.639  1.00  0.00     0.016 A 
ATOM     28  C   UNL A   1      39.666  24.401  26.831  1.00  0.00     0.010 A 
ATOM     29  C   UNL A   1      41.474  23.364  28.077  1.00  0.00     0.010 A 
ATOM     30  C   UNL A   1      40.800  24.521  27.644  1.00  0.00    -0.014 A 
BRANCH  30  31
ATOM     31  C   UNL A   1      41.369  25.867  27.896  1.00  0.00     0.031 A 
ATOM     32  C   UNL A   1      42.755  26.176  27.399  1.00  0.00     0.074 A 
ATOM     33  C   UNL A   1      40.646  26.817  28.514  1.00  0.00     0.049 A 
ATOM     34  N   UNL A   1      43.452  27.278  27.517  1.00  0.00    -0.248 NA
ATOM     35  C   UNL A   1      43.446  25.100  26.671  1.00  0.00     0.031 C 
ATOM     36  C   UNL A   1      39.277  26.652  29.001  1.00  0.00     0.029 A 
ATOM     37  N   UNL A   1      40.969  28.109  28.839  1.00  0.00    -0.354 N 
ATOM     38  C   UNL A   1      44.661  27.028  26.879  1.00  0.00     0.074 A 
ATOM     39  C   UNL A   1      44.615  25.663  26.403  1.00  0.00     0.031 C 
ATOM     40  C   UNL A   1      38.881  27.801  29.575  1.00  0.00     0.029 A 
ATOM     41  C   UNL A   1      39.975  28.769  29.518  1.00  0.00     0.049 A 
ATOM     42  H   UNL A   1      41.831  28.525  28.608  1.00  0.00     0.167 HD
ATOM     43  C   UNL A   1      45.711  27.864  26.697  1.00  0.00     0.037 A 
ATOM     44  C   UNL A   1      39.960  30.007  30.050  1.00  0.00     0.037 A 
ATOM     45  C   UNL A   1      45.758  29.222  27.170  1.00  0.00     0.049 A 
ATOM     46  C   UNL A   1      41.165  30.894  29.895  1.00  0.00     0.074 A 
ATOM     47  C   UNL A   1      46.775  30.150  27.029  1.00  0.00     0.029 A 
ATOM     48  N   UNL A   1      44.744  29.843  27.885  1.00  0.00    -0.354 N 
ATOM     49  N   UNL A   1      42.297  30.654  29.278  1.00  0.00    -0.248 NA
ATOM     50  C   UNL A   1      41.090  32.228  30.511  1.00  0.00     0.031 C 
ATOM     51  C   UNL A   1      46.392  31.322  27.694  1.00  0.00     0.029 A 
ATOM     52  C   UNL A   1      45.120  31.136  28.210  1.00  0.00     0.049 A 
ATOM     53  H   UNL A   1      43.885  29.427  28.124  1.00  0.00     0.167 HD
ATOM     54  C   UNL A   1      43.057  31.810  29.408  1.00  0.00     0.074 A 
ATOM     55  C   UNL A   1      42.253  32.756  30.154  1.00  0.00     0.031 C 
ATOM     56  C   UNL A   1      44.306  32.066  28.950  1.00  0.00     0.037 A 
BRANCH  43  57
ATOM     57  C   UNL A   1      46.903  27.323  25.967  1.00  0.00     0.057 A 
ATOM     58  C   UNL A   1      47.056  27.480  24.583  1.00  0.00     0.134 A 
ATOM     59  C   UNL A   1      47.924  26.660  26.660  1.00  0.00     0.134 A 
ATOM     60  F   UNL A   1      46.108  28.093  23.859  1.00  0.00    -0.206 F 
ATOM     61  C   UNL A   1      48.173  26.977  23.912  1.00  0.00     0.040 A 
ATOM     62  C   UNL A   1      49.055  26.173  26.003  1.00  0.00     0.040 A 
ATOM     63  F   UNL A   1      47.839  26.479  27.986  1.00  0.00    -0.206 F 
ATOM     64  C   UNL A   1      49.180  26.328  24.624  1.00  0.00     0.006 A 
ENDBRANCH  43  57
BRANCH  44  65
ATOM     65  C   UNL A   1      38.765  30.477  30.794  1.00  0.00     0.057 A 
ATOM     66  C   UNL A   1      37.755  31.209  30.161  1.00  0.00     0.134 A 
ATOM     67  C   UNL A   1      38.617  30.222  32.163  1.00  0.00     0.134 A 
ATOM     68  F   UNL A   1      37.853  31.505  28.857  1.00  0.00    -0.206 F 
ATOM     69  C   UNL A   1      36.646  31.682  30.865  1.00  0.00     0.040 A 
ATOM     70  C   UNL A   1      37.504  30.669  32.874  1.00  0.00     0.040 A 
ATOM     71  F   UNL A   1      39.553  29.526  32.827  1.00  0.00    -0.206 F 
ATOM     72  C   UNL A   1      36.517  31.408  32.225  1.00  0.00     0.006 A 
ENDBRANCH  44  65
BRANCH  56  73
ATOM     73  C   UNL A   1      44.870  33.430  29.216  1.00  0.00     0.057 A 
ATOM     74  C   UNL A   1      45.670  33.692  30.335  1.00  0.00     0.134 A 
ATOM     75  C   UNL A   1      44.645  34.482  28.319  1.00  0.00     0.134 A 
ATOM     76  F   UNL A   1      45.913  32.729  31.237  1.00  0.00    -0.206 F 
ATOM     77  C   UNL A   1      46.211  34.959  30.564  1.00  0.00     0.040 A 
ATOM     78  C   UNL A   1      45.199  35.746  28.525  1.00  0.00     0.040 A 
ATOM     79  F   UNL A   1      43.895  34.295  27.223  1.00  0.00    -0.206 F 
ATOM     80  C   UNL A   1      45.980  35.989  29.653  1.00  0.00     0.006 A 
ENDBRANCH  56  73
ENDBRANCH  30  31
ENDBRANCH  23  25
ENDBRANCH  22  23
ENDBRANCH  21  22
ENDBRANCH  20  21
ENDBRANCH  19  20
ENDBRANCH   1  19
TORSDOF 17
ENDMDL
