MODEL 1
REMARK VINA RESULT:     -13.2      0.000      0.000
REMARK SMILES O=C(OCCOCCOC(=O)c1ccc(-c2c3nc(c(-c4c(F)cccc4F)c4ccc([nH]4)c(-c4c(F)cccc4F)c4nc(c(-c5c(F)cccc5F)c5ccc2[nH]5)C=C4)C=C3)cc1)C1=Cc2cc(Cl)cc(C#Cc3ccccc3)c2O[C@@H]1C(F)(F)F
REMARK SMILES IDX 6 1 5 2 4 3 3 4 2 5 1 6 66 7 67 8 84 9 68 10 83 11 69 12
REMARK SMILES IDX 82 13 70 14 73 15 71 16 72 17 85 18 86 19 87 20 88 21 74 22
REMARK SMILES IDX 75 23 76 24 77 25 81 26 78 27 80 28 79 29 7 30 8 31 9 32
REMARK SMILES IDX 10 33 11 34 12 35 13 36 65 37 14 38 64 39 15 40 16 41 17 42
REMARK SMILES IDX 58 43 18 44 63 45 57 46 59 47 19 48 62 49 56 50 55 51 20 53
REMARK SMILES IDX 46 54 29 55 45 56 30 57 33 58 44 59 60 60 31 61 32 62 43 64
REMARK SMILES IDX 61 65 34 66 21 67 22 68 27 69 23 70 24 71 26 72 28 73 25 74
REMARK SMILES IDX 47 75 48 76 53 77 49 78 50 79 52 80 54 81 51 82 35 83 36 84
REMARK SMILES IDX 41 85 37 86 38 87 40 88 42 89 39 90
REMARK H PARENT 59 52 33 63
REMARK Flexibility Score: inf
ROOT
ATOM      1  O   UNL A   1      30.313  29.508  23.893  1.00  0.00    -0.374 OA
ENDROOT
BRANCH   1   2
ATOM      2  C   UNL A   1      30.124  28.479  22.752  1.00  0.00     0.202 C 
BRANCH   2   3
ATOM      3  C   UNL A   1      31.418  26.899  22.003  1.00  0.00     0.261 C 
BRANCH   3   4
ATOM      4  O   UNL A   1      31.380  25.400  22.390  1.00  0.00    -0.460 OA
BRANCH   4   5
ATOM      5  C   UNL A   1      32.593  24.846  22.469  1.00  0.00     0.338 C 
ATOM      6  O   UNL A   1      33.385  24.572  21.606  1.00  0.00    -0.246 OA
BRANCH   5   7
ATOM      7  C   UNL A   1      32.474  24.462  23.854  1.00  0.00     0.087 C 
ATOM      8  C   UNL A   1      32.163  22.996  23.921  1.00  0.00     0.027 C 
ATOM      9  C   UNL A   1      34.122  25.268  24.480  1.00  0.00     0.316 C 
ATOM     10  C   UNL A   1      33.367  21.751  24.501  1.00  0.00     0.020 A 
ATOM     11  O   UNL A   1      35.409  23.960  25.051  1.00  0.00    -0.474 OA
ATOM     12  C   UNL A   1      33.036  20.431  24.407  1.00  0.00     0.032 A 
ATOM     13  C   UNL A   1      35.010  22.192  24.943  1.00  0.00     0.143 A 
ATOM     14  C   UNL A   1      34.106  19.564  24.642  1.00  0.00     0.043 A 
ATOM     15  C   UNL A   1      36.004  21.271  25.097  1.00  0.00     0.069 A 
ATOM     16  Cl  UNL A   1      33.769  17.861  24.589  1.00  0.00    -0.084 Cl
ATOM     17  C   UNL A   1      35.482  19.964  24.928  1.00  0.00     0.041 A 
BRANCH   9  18
ATOM     18  C   UNL A   1      33.621  26.558  25.231  1.00  0.00     0.430 C 
ATOM     19  F   UNL A   1      34.434  27.007  26.203  1.00  0.00    -0.167 F 
ATOM     20  F   UNL A   1      33.565  27.563  24.307  1.00  0.00    -0.167 F 
ATOM     21  F   UNL A   1      32.355  26.472  25.706  1.00  0.00    -0.167 F 
ENDBRANCH   9  18
BRANCH  15  22
ATOM     22  C   UNL A   1      37.376  21.486  25.414  1.00  0.00    -0.058 C 
ATOM     23  C   UNL A   1      38.558  21.441  25.702  1.00  0.00    -0.062 C 
BRANCH  23  24
ATOM     24  C   UNL A   1      39.885  21.082  26.123  1.00  0.00     0.025 A 
ATOM     25  C   UNL A   1      40.872  22.066  26.262  1.00  0.00     0.017 A 
ATOM     26  C   UNL A   1      40.268  19.733  26.127  1.00  0.00     0.017 A 
ATOM     27  C   UNL A   1      42.226  21.709  26.325  1.00  0.00     0.001 A 
ATOM     28  C   UNL A   1      41.623  19.377  26.175  1.00  0.00     0.001 A 
ATOM     29  C   UNL A   1      42.602  20.367  26.258  1.00  0.00     0.000 A 
ENDBRANCH  23  24
ENDBRANCH  15  22
ENDBRANCH   5   7
ENDBRANCH   4   5
ENDBRANCH   3   4
ENDBRANCH   2   3
ENDBRANCH   1   2
BRANCH   1  30
ATOM     30  C   UNL A   1      31.391  29.704  24.813  1.00  0.00     0.202 C 
BRANCH  30  31
ATOM     31  C   UNL A   1      31.401  30.792  25.869  1.00  0.00     0.261 C 
BRANCH  31  32
ATOM     32  O   UNL A   1      32.435  30.705  26.829  1.00  0.00    -0.460 OA
BRANCH  32  33
ATOM     33  C   UNL A   1      32.948  31.879  27.274  1.00  0.00     0.338 C 
ATOM     34  O   UNL A   1      32.442  32.981  27.249  1.00  0.00    -0.246 OA
BRANCH  33  35
ATOM     35  C   UNL A   1      34.324  31.547  27.690  1.00  0.00     0.060 A 
ATOM     36  C   UNL A   1      35.285  32.510  27.998  1.00  0.00     0.016 A 
ATOM     37  C   UNL A   1      34.593  30.206  27.916  1.00  0.00     0.016 A 
ATOM     38  C   UNL A   1      36.477  32.128  28.659  1.00  0.00     0.010 A 
ATOM     39  C   UNL A   1      35.740  29.852  28.612  1.00  0.00     0.010 A 
ATOM     40  C   UNL A   1      36.699  30.790  29.019  1.00  0.00    -0.014 A 
BRANCH  40  41
ATOM     41  C   UNL A   1      37.942  30.265  29.679  1.00  0.00     0.031 A 
ATOM     42  C   UNL A   1      38.194  30.665  31.115  1.00  0.00     0.074 A 
ATOM     43  C   UNL A   1      38.933  29.608  29.032  1.00  0.00     0.049 A 
ATOM     44  N   UNL A   1      39.253  30.468  31.859  1.00  0.00    -0.248 NA
ATOM     45  C   UNL A   1      37.164  31.499  31.761  1.00  0.00     0.031 C 
ATOM     46  C   UNL A   1      38.991  29.326  27.606  1.00  0.00     0.029 A 
ATOM     47  N   UNL A   1      40.120  29.079  29.498  1.00  0.00    -0.354 N 
ATOM     48  C   UNL A   1      39.017  31.189  33.020  1.00  0.00     0.074 A 
ATOM     49  C   UNL A   1      37.822  31.966  32.806  1.00  0.00     0.031 C 
ATOM     50  C   UNL A   1      40.095  28.615  27.317  1.00  0.00     0.029 A 
ATOM     51  C   UNL A   1      40.862  28.418  28.540  1.00  0.00     0.049 A 
ATOM     52  H   UNL A   1      40.414  29.166  30.434  1.00  0.00     0.167 HD
ATOM     53  C   UNL A   1      39.661  31.138  34.207  1.00  0.00     0.037 A 
ATOM     54  C   UNL A   1      42.019  27.728  28.636  1.00  0.00     0.037 A 
ATOM     55  C   UNL A   1      40.793  30.301  34.467  1.00  0.00     0.049 A 
ATOM     56  C   UNL A   1      42.698  27.617  29.979  1.00  0.00     0.074 A 
ATOM     57  C   UNL A   1      41.438  30.074  35.667  1.00  0.00     0.029 A 
ATOM     58  N   UNL A   1      41.443  29.545  33.506  1.00  0.00    -0.354 N 
ATOM     59  N   UNL A   1      42.362  28.158  31.124  1.00  0.00    -0.248 NA
ATOM     60  C   UNL A   1      43.911  26.784  30.048  1.00  0.00     0.031 C 
ATOM     61  C   UNL A   1      42.511  29.212  35.424  1.00  0.00     0.029 A 
ATOM     62  C   UNL A   1      42.494  28.858  34.085  1.00  0.00     0.049 A 
ATOM     63  H   UNL A   1      41.194  29.502  32.554  1.00  0.00     0.167 HD
ATOM     64  C   UNL A   1      43.285  27.689  32.054  1.00  0.00     0.074 A 
ATOM     65  C   UNL A   1      44.192  26.817  31.343  1.00  0.00     0.031 C 
ATOM     66  C   UNL A   1      43.369  27.960  33.380  1.00  0.00     0.037 A 
BRANCH  53  67
ATOM     67  C   UNL A   1      39.084  31.957  35.326  1.00  0.00     0.057 A 
ATOM     68  C   UNL A   1      39.383  33.323  35.465  1.00  0.00     0.134 A 
ATOM     69  C   UNL A   1      38.245  31.379  36.283  1.00  0.00     0.134 A 
ATOM     70  F   UNL A   1      40.193  33.936  34.588  1.00  0.00    -0.206 F 
ATOM     71  C   UNL A   1      38.918  34.065  36.548  1.00  0.00     0.040 A 
ATOM     72  C   UNL A   1      37.735  32.125  37.346  1.00  0.00     0.040 A 
ATOM     73  F   UNL A   1      37.913  30.081  36.206  1.00  0.00    -0.206 F 
ATOM     74  C   UNL A   1      38.086  33.467  37.490  1.00  0.00     0.006 A 
ENDBRANCH  53  67
BRANCH  54  75
ATOM     75  C   UNL A   1      42.596  27.011  27.462  1.00  0.00     0.057 A 
ATOM     76  C   UNL A   1      43.527  27.646  26.625  1.00  0.00     0.134 A 
ATOM     77  C   UNL A   1      42.184  25.726  27.093  1.00  0.00     0.134 A 
ATOM     78  F   UNL A   1      43.945  28.889  26.906  1.00  0.00    -0.206 F 
ATOM     79  C   UNL A   1      43.990  27.052  25.448  1.00  0.00     0.040 A 
ATOM     80  C   UNL A   1      42.661  25.107  25.932  1.00  0.00     0.040 A 
ATOM     81  F   UNL A   1      41.301  25.056  27.847  1.00  0.00    -0.206 F 
ATOM     82  C   UNL A   1      43.556  25.776  25.098  1.00  0.00     0.006 A 
ENDBRANCH  54  75
BRANCH  66  83
ATOM     83  C   UNL A   1      44.427  27.256  34.179  1.00  0.00     0.057 A 
ATOM     84  C   UNL A   1      44.216  26.001  34.760  1.00  0.00     0.134 A 
ATOM     85  C   UNL A   1      45.707  27.817  34.299  1.00  0.00     0.134 A 
ATOM     86  F   UNL A   1      43.013  25.411  34.689  1.00  0.00    -0.206 F 
ATOM     87  C   UNL A   1      45.234  25.336  35.448  1.00  0.00     0.040 A 
ATOM     88  C   UNL A   1      46.741  27.148  34.953  1.00  0.00     0.040 A 
ATOM     89  F   UNL A   1      45.982  29.011  33.752  1.00  0.00    -0.206 F 
ATOM     90  C   UNL A   1      46.503  25.905  35.536  1.00  0.00     0.006 A 
ENDBRANCH  66  83
ENDBRANCH  40  41
ENDBRANCH  33  35
ENDBRANCH  32  33
ENDBRANCH  31  32
ENDBRANCH  30  31
ENDBRANCH   1  30
TORSDOF 17
ENDMDL
MODEL 2
REMARK VINA RESULT:     -13.0      4.643      8.741
REMARK SMILES O=C(OCCOCCOC(=O)c1ccc(-c2c3nc(c(-c4c(F)cccc4F)c4ccc([nH]4)c(-c4c(F)cccc4F)c4nc(c(-c5c(F)cccc5F)c5ccc2[nH]5)C=C4)C=C3)cc1)C1=Cc2cc(Cl)cc(C#Cc3ccccc3)c2O[C@@H]1C(F)(F)F
REMARK SMILES IDX 6 1 5 2 4 3 3 4 2 5 1 6 66 7 67 8 84 9 68 10 83 11 69 12
REMARK SMILES IDX 82 13 70 14 73 15 71 16 72 17 85 18 86 19 87 20 88 21 74 22
REMARK SMILES IDX 75 23 76 24 77 25 81 26 78 27 80 28 79 29 7 30 8 31 9 32
REMARK SMILES IDX 10 33 11 34 12 35 13 36 65 37 14 38 64 39 15 40 16 41 17 42
REMARK SMILES IDX 58 43 18 44 63 45 57 46 59 47 19 48 62 49 56 50 55 51 20 53
REMARK SMILES IDX 46 54 29 55 45 56 30 57 33 58 44 59 60 60 31 61 32 62 43 64
REMARK SMILES IDX 61 65 34 66 21 67 22 68 27 69 23 70 24 71 26 72 28 73 25 74
REMARK SMILES IDX 47 75 48 76 53 77 49 78 50 79 52 80 54 81 51 82 35 83 36 84
REMARK SMILES IDX 41 85 37 86 38 87 40 88 42 89 39 90
REMARK H PARENT 59 52 33 63
REMARK Flexibility Score: inf
ROOT
ATOM      1  O   UNL A   1      32.973  36.806  33.265  1.00  0.00    -0.374 OA
ENDROOT
BRANCH   1   2
ATOM      2  C   UNL A   1      34.281  36.163  33.786  1.00  0.00     0.202 C 
BRANCH   2   3
ATOM      3  C   UNL A   1      35.879  35.104  32.759  1.00  0.00     0.261 C 
BRANCH   3   4
ATOM      4  O   UNL A   1      36.737  33.942  33.318  1.00  0.00    -0.460 OA
BRANCH   4   5
ATOM      5  C   UNL A   1      37.497  34.301  34.356  1.00  0.00     0.338 C 
ATOM      6  O   UNL A   1      38.289  35.199  34.471  1.00  0.00    -0.246 OA
BRANCH   5   7
ATOM      7  C   UNL A   1      37.239  33.112  35.128  1.00  0.00     0.087 C 
ATOM      8  C   UNL A   1      36.979  31.974  34.184  1.00  0.00     0.027 C 
ATOM      9  C   UNL A   1      38.773  33.237  36.305  1.00  0.00     0.316 C 
ATOM     10  C   UNL A   1      38.158  30.601  33.937  1.00  0.00     0.020 A 
ATOM     11  O   UNL A   1      40.037  31.819  36.019  1.00  0.00    -0.474 OA
ATOM     12  C   UNL A   1      37.891  29.680  32.966  1.00  0.00     0.032 A 
ATOM     13  C   UNL A   1      39.723  30.572  34.737  1.00  0.00     0.143 A 
ATOM     14  C   UNL A   1      38.961  28.825  32.693  1.00  0.00     0.043 A 
ATOM     15  C   UNL A   1      40.728  29.732  34.360  1.00  0.00     0.069 A 
ATOM     16  Cl  UNL A   1      38.698  27.588  31.502  1.00  0.00    -0.084 Cl
ATOM     17  C   UNL A   1      40.279  28.878  33.320  1.00  0.00     0.041 A 
BRANCH   9  18
ATOM     18  C   UNL A   1      38.141  33.743  37.656  1.00  0.00     0.430 C 
ATOM     19  F   UNL A   1      36.810  33.586  37.761  1.00  0.00    -0.167 F 
ATOM     20  F   UNL A   1      38.680  32.986  38.658  1.00  0.00    -0.167 F 
ATOM     21  F   UNL A   1      38.472  35.015  37.985  1.00  0.00    -0.167 F 
ENDBRANCH   9  18
BRANCH  15  22
ATOM     22  C   UNL A   1      42.046  29.626  34.888  1.00  0.00    -0.058 C 
ATOM     23  C   UNL A   1      43.104  29.329  35.412  1.00  0.00    -0.062 C 
BRANCH  23  24
ATOM     24  C   UNL A   1      44.178  28.740  36.164  1.00  0.00     0.025 A 
ATOM     25  C   UNL A   1      45.472  29.273  36.083  1.00  0.00     0.017 A 
ATOM     26  C   UNL A   1      44.000  27.482  36.757  1.00  0.00     0.017 A 
ATOM     27  C   UNL A   1      46.576  28.525  36.516  1.00  0.00     0.001 A 
ATOM     28  C   UNL A   1      45.105  26.729  37.177  1.00  0.00     0.001 A 
ATOM     29  C   UNL A   1      46.394  27.245  37.040  1.00  0.00     0.000 A 
ENDBRANCH  23  24
ENDBRANCH  15  22
ENDBRANCH   5   7
ENDBRANCH   4   5
ENDBRANCH   3   4
ENDBRANCH   2   3
ENDBRANCH   1   2
BRANCH   1  30
ATOM     30  C   UNL A   1      32.224  36.576  32.068  1.00  0.00     0.202 C 
BRANCH  30  31
ATOM     31  C   UNL A   1      32.864  36.247  30.733  1.00  0.00     0.261 C 
BRANCH  31  32
ATOM     32  O   UNL A   1      33.166  34.883  30.517  1.00  0.00    -0.460 OA
BRANCH  32  33
ATOM     33  C   UNL A   1      33.240  34.477  29.225  1.00  0.00     0.338 C 
ATOM     34  O   UNL A   1      32.424  34.625  28.340  1.00  0.00    -0.246 OA
BRANCH  33  35
ATOM     35  C   UNL A   1      34.490  33.696  29.154  1.00  0.00     0.060 A 
ATOM     36  C   UNL A   1      35.517  33.974  28.252  1.00  0.00     0.016 A 
ATOM     37  C   UNL A   1      34.678  32.744  30.144  1.00  0.00     0.016 A 
ATOM     38  C   UNL A   1      36.789  33.379  28.430  1.00  0.00     0.010 A 
ATOM     39  C   UNL A   1      35.944  32.210  30.338  1.00  0.00     0.010 A 
ATOM     40  C   UNL A   1      37.033  32.520  29.511  1.00  0.00    -0.014 A 
BRANCH  40  41
ATOM     41  C   UNL A   1      38.325  31.799  29.771  1.00  0.00     0.031 A 
ATOM     42  C   UNL A   1      39.374  32.516  30.590  1.00  0.00     0.074 A 
ATOM     43  C   UNL A   1      38.683  30.634  29.183  1.00  0.00     0.049 A 
ATOM     44  N   UNL A   1      40.615  32.177  30.832  1.00  0.00    -0.248 NA
ATOM     45  C   UNL A   1      39.014  33.849  31.108  1.00  0.00     0.031 C 
ATOM     46  C   UNL A   1      37.915  29.899  28.189  1.00  0.00     0.029 A 
ATOM     47  N   UNL A   1      39.824  29.867  29.317  1.00  0.00    -0.354 N 
ATOM     48  C   UNL A   1      41.168  33.271  31.481  1.00  0.00     0.074 A 
ATOM     49  C   UNL A   1      40.198  34.336  31.426  1.00  0.00     0.031 C 
ATOM     50  C   UNL A   1      38.550  28.761  27.859  1.00  0.00     0.029 A 
ATOM     51  C   UNL A   1      39.808  28.694  28.591  1.00  0.00     0.049 A 
ATOM     52  H   UNL A   1      40.585  30.135  29.883  1.00  0.00     0.167 HD
ATOM     53  C   UNL A   1      42.330  33.366  32.165  1.00  0.00     0.037 A 
ATOM     54  C   UNL A   1      40.697  27.679  28.529  1.00  0.00     0.037 A 
ATOM     55  C   UNL A   1      43.262  32.288  32.310  1.00  0.00     0.049 A 
ATOM     56  C   UNL A   1      41.962  27.759  29.348  1.00  0.00     0.074 A 
ATOM     57  C   UNL A   1      44.402  32.235  33.088  1.00  0.00     0.029 A 
ATOM     58  N   UNL A   1      43.152  31.068  31.665  1.00  0.00    -0.354 N 
ATOM     59  N   UNL A   1      42.393  28.732  30.113  1.00  0.00    -0.248 NA
ATOM     60  C   UNL A   1      42.859  26.591  29.311  1.00  0.00     0.031 C 
ATOM     61  C   UNL A   1      45.010  30.995  32.879  1.00  0.00     0.029 A 
ATOM     62  C   UNL A   1      44.215  30.257  32.018  1.00  0.00     0.049 A 
ATOM     63  H   UNL A   1      42.427  30.816  31.048  1.00  0.00     0.167 HD
ATOM     64  C   UNL A   1      43.575  28.274  30.684  1.00  0.00     0.074 A 
ATOM     65  C   UNL A   1      43.793  26.936  30.185  1.00  0.00     0.031 C 
ATOM     66  C   UNL A   1      44.405  28.910  31.548  1.00  0.00     0.037 A 
BRANCH  53  67
ATOM     67  C   UNL A   1      42.596  34.663  32.872  1.00  0.00     0.057 A 
ATOM     68  C   UNL A   1      42.164  34.882  34.191  1.00  0.00     0.134 A 
ATOM     69  C   UNL A   1      43.266  35.709  32.230  1.00  0.00     0.134 A 
ATOM     70  F   UNL A   1      41.504  33.924  34.860  1.00  0.00    -0.206 F 
ATOM     71  C   UNL A   1      42.335  36.113  34.820  1.00  0.00     0.040 A 
ATOM     72  C   UNL A   1      43.483  36.931  32.868  1.00  0.00     0.040 A 
ATOM     73  F   UNL A   1      43.712  35.565  30.973  1.00  0.00    -0.206 F 
ATOM     74  C   UNL A   1      43.002  37.141  34.160  1.00  0.00     0.006 A 
ENDBRANCH  53  67
BRANCH  54  75
ATOM     75  C   UNL A   1      40.419  26.451  27.729  1.00  0.00     0.057 A 
ATOM     76  C   UNL A   1      39.593  25.438  28.241  1.00  0.00     0.134 A 
ATOM     77  C   UNL A   1      41.024  26.211  26.490  1.00  0.00     0.134 A 
ATOM     78  F   UNL A   1      39.002  25.591  29.436  1.00  0.00    -0.206 F 
ATOM     79  C   UNL A   1      39.414  24.222  27.576  1.00  0.00     0.040 A 
ATOM     80  C   UNL A   1      40.830  25.010  25.800  1.00  0.00     0.040 A 
ATOM     81  F   UNL A   1      41.822  27.135  25.937  1.00  0.00    -0.206 F 
ATOM     82  C   UNL A   1      40.035  24.005  26.349  1.00  0.00     0.006 A 
ENDBRANCH  54  75
BRANCH  66  83
ATOM     83  C   UNL A   1      45.589  28.154  32.078  1.00  0.00     0.057 A 
ATOM     84  C   UNL A   1      45.463  27.138  33.031  1.00  0.00     0.134 A 
ATOM     85  C   UNL A   1      46.868  28.400  31.560  1.00  0.00     0.134 A 
ATOM     86  F   UNL A   1      44.268  26.856  33.573  1.00  0.00    -0.206 F 
ATOM     87  C   UNL A   1      46.570  26.405  33.465  1.00  0.00     0.040 A 
ATOM     88  C   UNL A   1      47.976  27.652  31.960  1.00  0.00     0.040 A 
ATOM     89  F   UNL A   1      47.057  29.350  30.632  1.00  0.00    -0.206 F 
ATOM     90  C   UNL A   1      47.828  26.654  32.921  1.00  0.00     0.006 A 
ENDBRANCH  66  83
ENDBRANCH  40  41
ENDBRANCH  33  35
ENDBRANCH  32  33
ENDBRANCH  31  32
ENDBRANCH  30  31
ENDBRANCH   1  30
TORSDOF 17
ENDMDL
MODEL 3
REMARK VINA RESULT:     -12.6      4.219      7.850
REMARK SMILES O=C(OCCOCCOC(=O)c1ccc(-c2c3nc(c(-c4c(F)cccc4F)c4ccc([nH]4)c(-c4c(F)cccc4F)c4nc(c(-c5c(F)cccc5F)c5ccc2[nH]5)C=C4)C=C3)cc1)C1=Cc2cc(Cl)cc(C#Cc3ccccc3)c2O[C@@H]1C(F)(F)F
REMARK SMILES IDX 6 1 5 2 4 3 3 4 2 5 1 6 66 7 67 8 84 9 68 10 83 11 69 12
REMARK SMILES IDX 82 13 70 14 73 15 71 16 72 17 85 18 86 19 87 20 88 21 74 22
REMARK SMILES IDX 75 23 76 24 77 25 81 26 78 27 80 28 79 29 7 30 8 31 9 32
REMARK SMILES IDX 10 33 11 34 12 35 13 36 65 37 14 38 64 39 15 40 16 41 17 42
REMARK SMILES IDX 58 43 18 44 63 45 57 46 59 47 19 48 62 49 56 50 55 51 20 53
REMARK SMILES IDX 46 54 29 55 45 56 30 57 33 58 44 59 60 60 31 61 32 62 43 64
REMARK SMILES IDX 61 65 34 66 21 67 22 68 27 69 23 70 24 71 26 72 28 73 25 74
REMARK SMILES IDX 47 75 48 76 53 77 49 78 50 79 52 80 54 81 51 82 35 83 36 84
REMARK SMILES IDX 41 85 37 86 38 87 40 88 42 89 39 90
REMARK H PARENT 59 52 33 63
REMARK Flexibility Score: inf
ROOT
ATOM      1  O   UNL A   1      32.469  31.209  26.384  1.00  0.00    -0.374 OA
ENDROOT
BRANCH   1   2
ATOM      2  C   UNL A   1      32.388  29.811  25.726  1.00  0.00     0.202 C 
BRANCH   2   3
ATOM      3  C   UNL A   1      31.611  27.914  26.454  1.00  0.00     0.261 C 
BRANCH   3   4
ATOM      4  O   UNL A   1      32.433  26.687  26.920  1.00  0.00    -0.460 OA
BRANCH   4   5
ATOM      5  C   UNL A   1      31.915  25.523  26.518  1.00  0.00     0.338 C 
ATOM      6  O   UNL A   1      31.257  24.713  27.116  1.00  0.00    -0.246 OA
BRANCH   5   7
ATOM      7  C   UNL A   1      32.640  25.477  25.274  1.00  0.00     0.087 C 
ATOM      8  C   UNL A   1      34.111  25.472  25.575  1.00  0.00     0.027 C 
ATOM      9  C   UNL A   1      31.676  23.998  24.475  1.00  0.00     0.316 C 
ATOM     10  C   UNL A   1      35.169  24.003  25.332  1.00  0.00     0.020 A 
ATOM     11  O   UNL A   1      32.773  22.436  24.257  1.00  0.00    -0.474 OA
ATOM     12  C   UNL A   1      36.466  24.058  25.753  1.00  0.00     0.032 A 
ATOM     13  C   UNL A   1      34.505  22.464  24.803  1.00  0.00     0.143 A 
ATOM     14  C   UNL A   1      37.111  22.819  25.749  1.00  0.00     0.043 A 
ATOM     15  C   UNL A   1      35.198  21.293  24.891  1.00  0.00     0.069 A 
ATOM     16  Cl  UNL A   1      38.781  22.797  26.225  1.00  0.00    -0.084 Cl
ATOM     17  C   UNL A   1      36.505  21.542  25.379  1.00  0.00     0.041 A 
BRANCH   9  18
ATOM     18  C   UNL A   1      30.747  24.711  23.421  1.00  0.00     0.430 C 
ATOM     19  F   UNL A   1      31.383  25.242  22.362  1.00  0.00    -0.167 F 
ATOM     20  F   UNL A   1      29.917  23.754  22.908  1.00  0.00    -0.167 F 
ATOM     21  F   UNL A   1      29.906  25.632  23.951  1.00  0.00    -0.167 F 
ENDBRANCH   9  18
BRANCH  15  22
ATOM     22  C   UNL A   1      34.776  19.979  24.538  1.00  0.00    -0.058 C 
ATOM     23  C   UNL A   1      34.325  18.852  24.446  1.00  0.00    -0.062 C 
BRANCH  23  24
ATOM     24  C   UNL A   1      33.756  17.550  24.659  1.00  0.00     0.025 A 
ATOM     25  C   UNL A   1      32.480  17.421  25.225  1.00  0.00     0.017 A 
ATOM     26  C   UNL A   1      34.571  16.413  24.561  1.00  0.00     0.017 A 
ATOM     27  C   UNL A   1      32.061  16.193  25.755  1.00  0.00     0.001 A 
ATOM     28  C   UNL A   1      34.157  15.190  25.104  1.00  0.00     0.001 A 
ATOM     29  C   UNL A   1      32.908  15.085  25.716  1.00  0.00     0.000 A 
ENDBRANCH  23  24
ENDBRANCH  15  22
ENDBRANCH   5   7
ENDBRANCH   4   5
ENDBRANCH   3   4
ENDBRANCH   2   3
ENDBRANCH   1   2
BRANCH   1  30
ATOM     30  C   UNL A   1      33.037  31.632  27.627  1.00  0.00     0.202 C 
BRANCH  30  31
ATOM     31  C   UNL A   1      34.521  31.871  27.829  1.00  0.00     0.261 C 
BRANCH  31  32
ATOM     32  O   UNL A   1      35.156  31.026  28.767  1.00  0.00    -0.460 OA
BRANCH  32  33
ATOM     33  C   UNL A   1      35.426  29.762  28.357  1.00  0.00     0.338 C 
ATOM     34  O   UNL A   1      34.645  28.881  28.065  1.00  0.00    -0.246 OA
BRANCH  33  35
ATOM     35  C   UNL A   1      36.893  29.645  28.459  1.00  0.00     0.060 A 
ATOM     36  C   UNL A   1      37.551  29.251  29.624  1.00  0.00     0.016 A 
ATOM     37  C   UNL A   1      37.607  29.799  27.281  1.00  0.00     0.016 A 
ATOM     38  C   UNL A   1      38.918  28.885  29.571  1.00  0.00     0.010 A 
ATOM     39  C   UNL A   1      38.931  29.385  27.232  1.00  0.00     0.010 A 
ATOM     40  C   UNL A   1      39.617  28.903  28.355  1.00  0.00    -0.014 A 
BRANCH  40  41
ATOM     41  C   UNL A   1      41.074  28.580  28.188  1.00  0.00     0.031 A 
ATOM     42  C   UNL A   1      41.443  27.147  27.876  1.00  0.00     0.074 A 
ATOM     43  C   UNL A   1      42.085  29.436  28.468  1.00  0.00     0.049 A 
ATOM     44  N   UNL A   1      42.624  26.584  27.828  1.00  0.00    -0.248 NA
ATOM     45  C   UNL A   1      40.328  26.197  27.712  1.00  0.00     0.031 C 
ATOM     46  C   UNL A   1      41.949  30.784  29.000  1.00  0.00     0.029 A 
ATOM     47  N   UNL A   1      43.453  29.281  28.371  1.00  0.00    -0.354 N 
ATOM     48  C   UNL A   1      42.371  25.229  27.675  1.00  0.00     0.074 A 
ATOM     49  C   UNL A   1      40.950  25.039  27.826  1.00  0.00     0.031 C 
ATOM     50  C   UNL A   1      43.157  31.364  29.110  1.00  0.00     0.029 A 
ATOM     51  C   UNL A   1      44.177  30.411  28.692  1.00  0.00     0.049 A 
ATOM     52  H   UNL A   1      43.877  28.436  28.096  1.00  0.00     0.167 HD
ATOM     53  C   UNL A   1      43.216  24.233  27.328  1.00  0.00     0.037 A 
ATOM     54  C   UNL A   1      45.504  30.655  28.648  1.00  0.00     0.037 A 
ATOM     55  C   UNL A   1      44.614  24.420  27.083  1.00  0.00     0.049 A 
ATOM     56  C   UNL A   1      46.438  29.559  28.194  1.00  0.00     0.074 A 
ATOM     57  C   UNL A   1      45.532  23.508  26.599  1.00  0.00     0.029 A 
ATOM     58  N   UNL A   1      45.292  25.608  27.294  1.00  0.00    -0.354 N 
ATOM     59  N   UNL A   1      46.164  28.319  27.870  1.00  0.00    -0.248 NA
ATOM     60  C   UNL A   1      47.866  29.900  28.082  1.00  0.00     0.031 C 
ATOM     61  C   UNL A   1      46.781  24.133  26.560  1.00  0.00     0.029 A 
ATOM     62  C   UNL A   1      46.625  25.449  26.963  1.00  0.00     0.049 A 
ATOM     63  H   UNL A   1      44.887  26.440  27.629  1.00  0.00     0.167 HD
ATOM     64  C   UNL A   1      47.369  27.754  27.468  1.00  0.00     0.074 A 
ATOM     65  C   UNL A   1      48.376  28.784  27.583  1.00  0.00     0.031 C 
ATOM     66  C   UNL A   1      47.615  26.491  27.041  1.00  0.00     0.037 A 
BRANCH  53  67
ATOM     67  C   UNL A   1      42.611  22.875  27.117  1.00  0.00     0.057 A 
ATOM     68  C   UNL A   1      42.279  22.043  28.200  1.00  0.00     0.134 A 
ATOM     69  C   UNL A   1      42.377  22.383  25.829  1.00  0.00     0.134 A 
ATOM     70  F   UNL A   1      42.490  22.449  29.461  1.00  0.00    -0.206 F 
ATOM     71  C   UNL A   1      41.796  20.751  28.006  1.00  0.00     0.040 A 
ATOM     72  C   UNL A   1      41.850  21.107  25.625  1.00  0.00     0.040 A 
ATOM     73  F   UNL A   1      42.664  23.128  24.751  1.00  0.00    -0.206 F 
ATOM     74  C   UNL A   1      41.574  20.281  26.714  1.00  0.00     0.006 A 
ENDBRANCH  53  67
BRANCH  54  75
ATOM     75  C   UNL A   1      46.058  32.004  28.963  1.00  0.00     0.057 A 
ATOM     76  C   UNL A   1      46.504  32.308  30.259  1.00  0.00     0.134 A 
ATOM     77  C   UNL A   1      46.082  33.041  28.024  1.00  0.00     0.134 A 
ATOM     78  F   UNL A   1      46.483  31.367  31.215  1.00  0.00    -0.206 F 
ATOM     79  C   UNL A   1      46.908  33.596  30.619  1.00  0.00     0.040 A 
ATOM     80  C   UNL A   1      46.511  34.329  28.364  1.00  0.00     0.040 A 
ATOM     81  F   UNL A   1      45.676  32.824  26.765  1.00  0.00    -0.206 F 
ATOM     82  C   UNL A   1      46.912  34.613  29.668  1.00  0.00     0.006 A 
ENDBRANCH  54  75
BRANCH  66  83
ATOM     83  C   UNL A   1      49.007  26.156  26.590  1.00  0.00     0.057 A 
ATOM     84  C   UNL A   1      49.521  26.589  25.362  1.00  0.00     0.134 A 
ATOM     85  C   UNL A   1      49.872  25.453  27.440  1.00  0.00     0.134 A 
ATOM     86  F   UNL A   1      48.745  27.260  24.497  1.00  0.00    -0.206 F 
ATOM     87  C   UNL A   1      50.839  26.318  24.988  1.00  0.00     0.040 A 
ATOM     88  C   UNL A   1      51.200  25.207  27.093  1.00  0.00     0.040 A 
ATOM     89  F   UNL A   1      49.449  25.022  28.639  1.00  0.00    -0.206 F 
ATOM     90  C   UNL A   1      51.685  25.635  25.859  1.00  0.00     0.006 A 
ENDBRANCH  66  83
ENDBRANCH  40  41
ENDBRANCH  33  35
ENDBRANCH  32  33
ENDBRANCH  31  32
ENDBRANCH  30  31
ENDBRANCH   1  30
TORSDOF 17
ENDMDL
