MODEL 1
REMARK VINA RESULT:     -12.2      0.000      0.000
REMARK SMILES O=C(OCCOCCOC(=O)c1ccc(-c2c3nc(c(-c4c(F)cccc4F)c4ccc([nH]4)c(-c4c(F)cccc4F)c4nc(c(-c5c(F)cccc5F)c5ccc2[nH]5)C=C4)C=C3)cc1)c1ccc(/C=C/c2ccc3cccc(O)c3n2)cc1
REMARK SMILES IDX 5 1 4 2 3 3 2 4 1 5 66 6 67 7 84 8 68 9 83 10 69 11 70 12
REMARK SMILES IDX 71 13 72 14 73 15 82 16 74 17 81 18 75 19 79 20 76 21 78 22
REMARK SMILES IDX 77 23 80 24 6 26 7 27 8 28 9 29 10 30 11 31 12 32 13 33
REMARK SMILES IDX 65 34 14 35 64 36 15 37 16 38 17 39 58 40 18 41 63 42 57 43
REMARK SMILES IDX 59 44 19 45 62 46 56 47 55 48 20 50 46 51 29 52 45 53 30 54
REMARK SMILES IDX 33 55 44 56 60 57 31 58 32 59 43 61 61 62 34 63 21 64 22 65
REMARK SMILES IDX 27 66 23 67 24 68 26 69 28 70 25 71 47 72 48 73 53 74 49 75
REMARK SMILES IDX 50 76 52 77 54 78 51 79 35 80 36 81 41 82 37 83 38 84 40 85
REMARK SMILES IDX 42 86 39 87
REMARK H PARENT 80 25 59 49 33 60
REMARK Flexibility Score: inf
ROOT
ATOM      1  C   UNL A   1      41.183  20.864  26.247  1.00  0.00     0.202 C 
ENDROOT
BRANCH   1   2
ATOM      2  C   UNL A   1      40.048  21.647  26.906  1.00  0.00     0.261 C 
BRANCH   2   3
ATOM      3  O   UNL A   1      39.184  22.189  25.901  1.00  0.00    -0.460 OA
BRANCH   3   4
ATOM      4  C   UNL A   1      37.999  21.686  25.498  1.00  0.00     0.338 C 
ATOM      5  O   UNL A   1      37.980  20.577  24.965  1.00  0.00    -0.246 OA
BRANCH   4   6
ATOM      6  C   UNL A   1      36.687  22.372  25.691  1.00  0.00     0.060 A 
ATOM      7  C   UNL A   1      36.391  23.700  25.356  1.00  0.00     0.016 A 
ATOM      8  C   UNL A   1      35.628  21.538  26.055  1.00  0.00     0.016 A 
ATOM      9  C   UNL A   1      35.071  24.169  25.312  1.00  0.00     0.009 A 
ATOM     10  C   UNL A   1      34.314  22.004  26.016  1.00  0.00     0.009 A 
ATOM     11  C   UNL A   1      34.016  23.315  25.606  1.00  0.00    -0.026 A 
BRANCH  11  12
ATOM     12  C   UNL A   1      32.604  23.709  25.591  1.00  0.00     0.010 C 
ATOM     13  C   UNL A   1      31.939  24.461  24.687  1.00  0.00     0.029 C 
BRANCH  13  14
ATOM     14  C   UNL A   1      30.859  25.319  25.274  1.00  0.00     0.064 A 
ATOM     15  C   UNL A   1      30.111  25.865  24.237  1.00  0.00     0.029 A 
ATOM     16  N   UNL A   1      31.210  26.048  26.363  1.00  0.00    -0.245 NA
ATOM     17  C   UNL A   1      30.267  27.229  24.025  1.00  0.00     0.013 A 
ATOM     18  C   UNL A   1      31.231  27.393  26.213  1.00  0.00     0.113 A 
ATOM     19  C   UNL A   1      30.924  28.005  24.986  1.00  0.00     0.004 A 
ATOM     20  C   UNL A   1      31.644  28.219  27.254  1.00  0.00     0.141 A 
ATOM     21  C   UNL A   1      31.291  29.340  24.753  1.00  0.00     0.010 A 
ATOM     22  C   UNL A   1      31.928  29.569  27.063  1.00  0.00     0.048 A 
ATOM     23  C   UNL A   1      31.816  30.113  25.786  1.00  0.00     0.005 A 
BRANCH  20  24
ATOM     24  O   UNL A   1      31.788  27.700  28.517  1.00  0.00    -0.506 OA
ATOM     25  H   UNL A   1      31.267  26.968  28.784  1.00  0.00     0.293 HD
ENDBRANCH  20  24
ENDBRANCH  13  14
ENDBRANCH  11  12
ENDBRANCH   4   6
ENDBRANCH   3   4
ENDBRANCH   2   3
ENDBRANCH   1   2
BRANCH   1  26
ATOM     26  O   UNL A   1      42.057  21.682  25.471  1.00  0.00    -0.374 OA
BRANCH  26  27
ATOM     27  C   UNL A   1      43.462  21.479  25.678  1.00  0.00     0.202 C 
BRANCH  27  28
ATOM     28  C   UNL A   1      44.246  22.333  24.680  1.00  0.00     0.261 C 
BRANCH  28  29
ATOM     29  O   UNL A   1      43.636  23.629  24.634  1.00  0.00    -0.460 OA
BRANCH  29  30
ATOM     30  C   UNL A   1      44.430  24.630  25.096  1.00  0.00     0.338 C 
ATOM     31  O   UNL A   1      45.536  24.940  24.705  1.00  0.00    -0.246 OA
BRANCH  30  32
ATOM     32  C   UNL A   1      43.632  25.439  26.043  1.00  0.00     0.060 A 
ATOM     33  C   UNL A   1      43.980  26.786  26.201  1.00  0.00     0.016 A 
ATOM     34  C   UNL A   1      42.546  24.898  26.738  1.00  0.00     0.016 A 
ATOM     35  C   UNL A   1      43.282  27.579  27.106  1.00  0.00     0.010 A 
ATOM     36  C   UNL A   1      41.843  25.692  27.640  1.00  0.00     0.010 A 
ATOM     37  C   UNL A   1      42.243  27.018  27.862  1.00  0.00    -0.014 A 
BRANCH  37  38
ATOM     38  C   UNL A   1      41.715  27.764  29.021  1.00  0.00     0.031 A 
ATOM     39  C   UNL A   1      42.426  27.623  30.338  1.00  0.00     0.074 A 
ATOM     40  C   UNL A   1      40.659  28.580  28.883  1.00  0.00     0.049 A 
ATOM     41  N   UNL A   1      42.169  28.192  31.485  1.00  0.00    -0.248 NA
ATOM     42  C   UNL A   1      43.583  26.710  30.366  1.00  0.00     0.031 C 
ATOM     43  C   UNL A   1      39.908  28.791  27.646  1.00  0.00     0.029 A 
ATOM     44  N   UNL A   1      40.036  29.385  29.799  1.00  0.00    -0.354 N 
ATOM     45  C   UNL A   1      43.135  27.719  32.364  1.00  0.00     0.074 A 
ATOM     46  C   UNL A   1      43.949  26.772  31.636  1.00  0.00     0.031 C 
ATOM     47  C   UNL A   1      38.920  29.669  27.882  1.00  0.00     0.029 A 
ATOM     48  C   UNL A   1      38.956  30.062  29.289  1.00  0.00     0.049 A 
ATOM     49  H   UNL A   1      40.334  29.471  30.733  1.00  0.00     0.167 HD
ATOM     50  C   UNL A   1      43.337  28.062  33.657  1.00  0.00     0.037 A 
ATOM     51  C   UNL A   1      38.094  30.893  29.901  1.00  0.00     0.037 A 
ATOM     52  C   UNL A   1      42.509  28.994  34.373  1.00  0.00     0.049 A 
ATOM     53  C   UNL A   1      38.310  31.218  31.355  1.00  0.00     0.074 A 
ATOM     54  C   UNL A   1      42.617  29.414  35.685  1.00  0.00     0.029 A 
ATOM     55  N   UNL A   1      41.413  29.649  33.830  1.00  0.00    -0.354 N 
ATOM     56  N   UNL A   1      39.245  30.791  32.170  1.00  0.00    -0.248 NA
ATOM     57  C   UNL A   1      37.359  32.153  31.971  1.00  0.00     0.031 C 
ATOM     58  C   UNL A   1      41.555  30.286  35.951  1.00  0.00     0.029 A 
ATOM     59  C   UNL A   1      40.822  30.456  34.786  1.00  0.00     0.049 A 
ATOM     60  H   UNL A   1      41.100  29.552  32.901  1.00  0.00     0.167 HD
ATOM     61  C   UNL A   1      39.009  31.420  33.387  1.00  0.00     0.074 A 
ATOM     62  C   UNL A   1      37.860  32.282  33.190  1.00  0.00     0.031 C 
ATOM     63  C   UNL A   1      39.673  31.297  34.563  1.00  0.00     0.037 A 
BRANCH  50  64
ATOM     64  C   UNL A   1      44.489  27.415  34.371  1.00  0.00     0.057 A 
ATOM     65  C   UNL A   1      45.726  28.060  34.513  1.00  0.00     0.134 A 
ATOM     66  C   UNL A   1      44.357  26.145  34.944  1.00  0.00     0.134 A 
ATOM     67  F   UNL A   1      45.928  29.271  33.970  1.00  0.00    -0.206 F 
ATOM     68  C   UNL A   1      46.793  27.458  35.182  1.00  0.00     0.040 A 
ATOM     69  C   UNL A   1      45.408  25.543  35.639  1.00  0.00     0.040 A 
ATOM     70  F   UNL A   1      43.202  25.469  34.843  1.00  0.00    -0.206 F 
ATOM     71  C   UNL A   1      46.632  26.198  35.755  1.00  0.00     0.006 A 
ENDBRANCH  50  64
BRANCH  51  72
ATOM     72  C   UNL A   1      36.950  31.469  29.148  1.00  0.00     0.057 A 
ATOM     73  C   UNL A   1      36.966  32.791  28.689  1.00  0.00     0.134 A 
ATOM     74  C   UNL A   1      35.799  30.713  28.890  1.00  0.00     0.134 A 
ATOM     75  F   UNL A   1      38.030  33.574  28.919  1.00  0.00    -0.206 F 
ATOM     76  C   UNL A   1      35.869  33.349  28.027  1.00  0.00     0.040 A 
ATOM     77  C   UNL A   1      34.709  31.249  28.202  1.00  0.00     0.040 A 
ATOM     78  F   UNL A   1      35.722  29.438  29.296  1.00  0.00    -0.206 F 
ATOM     79  C   UNL A   1      34.739  32.575  27.778  1.00  0.00     0.006 A 
ENDBRANCH  51  72
BRANCH  63  80
ATOM     80  C   UNL A   1      39.180  32.134  35.710  1.00  0.00     0.057 A 
ATOM     81  C   UNL A   1      38.277  31.633  36.657  1.00  0.00     0.134 A 
ATOM     82  C   UNL A   1      39.617  33.455  35.867  1.00  0.00     0.134 A 
ATOM     83  F   UNL A   1      37.813  30.378  36.559  1.00  0.00    -0.206 F 
ATOM     84  C   UNL A   1      37.791  32.432  37.693  1.00  0.00     0.040 A 
ATOM     85  C   UNL A   1      39.164  34.253  36.918  1.00  0.00     0.040 A 
ATOM     86  F   UNL A   1      40.491  33.993  35.004  1.00  0.00    -0.206 F 
ATOM     87  C   UNL A   1      38.238  33.745  37.827  1.00  0.00     0.006 A 
ENDBRANCH  63  80
ENDBRANCH  37  38
ENDBRANCH  30  32
ENDBRANCH  29  30
ENDBRANCH  28  29
ENDBRANCH  27  28
ENDBRANCH  26  27
ENDBRANCH   1  26
TORSDOF 17
ENDMDL
MODEL 2
REMARK VINA RESULT:     -12.2      4.258      9.950
REMARK SMILES O=C(OCCOCCOC(=O)c1ccc(-c2c3nc(c(-c4c(F)cccc4F)c4ccc([nH]4)c(-c4c(F)cccc4F)c4nc(c(-c5c(F)cccc5F)c5ccc2[nH]5)C=C4)C=C3)cc1)c1ccc(/C=C/c2ccc3cccc(O)c3n2)cc1
REMARK SMILES IDX 5 1 4 2 3 3 2 4 1 5 66 6 67 7 84 8 68 9 83 10 69 11 70 12
REMARK SMILES IDX 71 13 72 14 73 15 82 16 74 17 81 18 75 19 79 20 76 21 78 22
REMARK SMILES IDX 77 23 80 24 6 26 7 27 8 28 9 29 10 30 11 31 12 32 13 33
REMARK SMILES IDX 65 34 14 35 64 36 15 37 16 38 17 39 58 40 18 41 63 42 57 43
REMARK SMILES IDX 59 44 19 45 62 46 56 47 55 48 20 50 46 51 29 52 45 53 30 54
REMARK SMILES IDX 33 55 44 56 60 57 31 58 32 59 43 61 61 62 34 63 21 64 22 65
REMARK SMILES IDX 27 66 23 67 24 68 26 69 28 70 25 71 47 72 48 73 53 74 49 75
REMARK SMILES IDX 50 76 52 77 54 78 51 79 35 80 36 81 41 82 37 83 38 84 40 85
REMARK SMILES IDX 42 86 39 87
REMARK H PARENT 80 25 59 49 33 60
REMARK Flexibility Score: inf
ROOT
ATOM      1  C   UNL A   1      33.632  34.648  29.742  1.00  0.00     0.202 C 
ENDROOT
BRANCH   1   2
ATOM      2  C   UNL A   1      34.657  33.607  29.295  1.00  0.00     0.261 C 
BRANCH   2   3
ATOM      3  O   UNL A   1      34.068  32.730  28.328  1.00  0.00    -0.460 OA
BRANCH   3   4
ATOM      4  C   UNL A   1      34.633  31.634  27.782  1.00  0.00     0.338 C 
ATOM      5  O   UNL A   1      35.847  31.636  27.577  1.00  0.00    -0.246 OA
BRANCH   4   6
ATOM      6  C   UNL A   1      33.887  30.386  27.442  1.00  0.00     0.060 A 
ATOM      7  C   UNL A   1      32.504  30.275  27.250  1.00  0.00     0.016 A 
ATOM      8  C   UNL A   1      34.685  29.292  27.098  1.00  0.00     0.016 A 
ATOM      9  C   UNL A   1      31.932  29.138  26.664  1.00  0.00     0.009 A 
ATOM     10  C   UNL A   1      34.117  28.157  26.519  1.00  0.00     0.009 A 
ATOM     11  C   UNL A   1      32.738  28.082  26.259  1.00  0.00    -0.026 A 
BRANCH  11  12
ATOM     12  C   UNL A   1      32.238  26.850  25.639  1.00  0.00     0.010 C 
ATOM     13  C   UNL A   1      31.401  25.920  26.148  1.00  0.00     0.029 C 
BRANCH  13  14
ATOM     14  C   UNL A   1      31.695  24.519  25.704  1.00  0.00     0.064 A 
ATOM     15  C   UNL A   1      31.987  23.749  26.825  1.00  0.00     0.029 A 
ATOM     16  N   UNL A   1      32.402  24.399  24.552  1.00  0.00    -0.245 NA
ATOM     17  C   UNL A   1      33.310  23.355  26.967  1.00  0.00     0.013 A 
ATOM     18  C   UNL A   1      33.649  23.884  24.654  1.00  0.00     0.113 A 
ATOM     19  C   UNL A   1      34.195  23.509  25.894  1.00  0.00     0.004 A 
ATOM     20  C   UNL A   1      34.474  23.787  23.537  1.00  0.00     0.141 A 
ATOM     21  C   UNL A   1      35.579  23.321  26.027  1.00  0.00     0.010 A 
ATOM     22  C   UNL A   1      35.835  23.512  23.640  1.00  0.00     0.048 A 
ATOM     23  C   UNL A   1      36.401  23.347  24.902  1.00  0.00     0.005 A 
BRANCH  20  24
ATOM     24  O   UNL A   1      33.943  23.972  22.285  1.00  0.00    -0.506 OA
ATOM     25  H   UNL A   1      33.178  23.498  22.025  1.00  0.00     0.293 HD
ENDBRANCH  20  24
ENDBRANCH  13  14
ENDBRANCH  11  12
ENDBRANCH   4   6
ENDBRANCH   3   4
ENDBRANCH   2   3
ENDBRANCH   1   2
BRANCH   1  26
ATOM     26  O   UNL A   1      33.319  34.571  31.132  1.00  0.00    -0.374 OA
BRANCH  26  27
ATOM     27  C   UNL A   1      34.436  34.560  32.032  1.00  0.00     0.202 C 
BRANCH  27  28
ATOM     28  C   UNL A   1      34.285  33.392  33.008  1.00  0.00     0.261 C 
BRANCH  28  29
ATOM     29  O   UNL A   1      35.124  32.324  32.550  1.00  0.00    -0.460 OA
BRANCH  29  30
ATOM     30  C   UNL A   1      36.298  32.216  33.225  1.00  0.00     0.338 C 
ATOM     31  O   UNL A   1      36.516  32.495  34.386  1.00  0.00    -0.246 OA
BRANCH  30  32
ATOM     32  C   UNL A   1      37.253  31.492  32.357  1.00  0.00     0.060 A 
ATOM     33  C   UNL A   1      38.257  30.739  32.979  1.00  0.00     0.016 A 
ATOM     34  C   UNL A   1      37.150  31.525  30.963  1.00  0.00     0.016 A 
ATOM     35  C   UNL A   1      39.199  30.070  32.206  1.00  0.00     0.010 A 
ATOM     36  C   UNL A   1      38.089  30.851  30.188  1.00  0.00     0.010 A 
ATOM     37  C   UNL A   1      39.144  30.165  30.809  1.00  0.00    -0.014 A 
BRANCH  37  38
ATOM     38  C   UNL A   1      40.302  29.716  30.013  1.00  0.00     0.031 A 
ATOM     39  C   UNL A   1      41.417  30.695  29.770  1.00  0.00     0.074 A 
ATOM     40  C   UNL A   1      40.372  28.454  29.562  1.00  0.00     0.049 A 
ATOM     41  N   UNL A   1      42.542  30.528  29.126  1.00  0.00    -0.248 NA
ATOM     42  C   UNL A   1      41.237  32.047  30.326  1.00  0.00     0.031 C 
ATOM     43  C   UNL A   1      39.346  27.429  29.753  1.00  0.00     0.029 A 
ATOM     44  N   UNL A   1      41.355  27.821  28.849  1.00  0.00    -0.354 N 
ATOM     45  C   UNL A   1      43.206  31.746  29.210  1.00  0.00     0.074 A 
ATOM     46  C   UNL A   1      42.337  32.660  29.916  1.00  0.00     0.031 C 
ATOM     47  C   UNL A   1      39.754  26.292  29.166  1.00  0.00     0.029 A 
ATOM     48  C   UNL A   1      41.055  26.517  28.541  1.00  0.00     0.049 A 
ATOM     49  H   UNL A   1      42.195  28.258  28.582  1.00  0.00     0.167 HD
ATOM     50  C   UNL A   1      44.440  32.064  28.758  1.00  0.00     0.037 A 
ATOM     51  C   UNL A   1      41.754  25.619  27.825  1.00  0.00     0.037 A 
ATOM     52  C   UNL A   1      45.288  31.148  28.043  1.00  0.00     0.049 A 
ATOM     53  C   UNL A   1      43.104  26.015  27.287  1.00  0.00     0.074 A 
ATOM     54  C   UNL A   1      46.555  31.362  27.534  1.00  0.00     0.029 A 
ATOM     55  N   UNL A   1      44.946  29.840  27.734  1.00  0.00    -0.354 N 
ATOM     56  N   UNL A   1      43.738  27.159  27.398  1.00  0.00    -0.248 NA
ATOM     57  C   UNL A   1      43.842  24.991  26.535  1.00  0.00     0.031 C 
ATOM     58  C   UNL A   1      46.960  30.197  26.872  1.00  0.00     0.029 A 
ATOM     59  C   UNL A   1      45.970  29.238  27.023  1.00  0.00     0.049 A 
ATOM     60  H   UNL A   1      44.098  29.404  27.982  1.00  0.00     0.167 HD
ATOM     61  C   UNL A   1      44.956  26.985  26.751  1.00  0.00     0.074 A 
ATOM     62  C   UNL A   1      44.981  25.615  26.279  1.00  0.00     0.031 C 
ATOM     63  C   UNL A   1      45.963  27.874  26.558  1.00  0.00     0.037 A 
BRANCH  50  64
ATOM     64  C   UNL A   1      44.932  33.459  29.017  1.00  0.00     0.057 A 
ATOM     65  C   UNL A   1      45.646  33.787  30.178  1.00  0.00     0.134 A 
ATOM     66  C   UNL A   1      44.713  34.482  28.086  1.00  0.00     0.134 A 
ATOM     67  F   UNL A   1      45.874  32.860  31.121  1.00  0.00    -0.206 F 
ATOM     68  C   UNL A   1      46.106  35.084  30.412  1.00  0.00     0.040 A 
ATOM     69  C   UNL A   1      45.192  35.776  28.296  1.00  0.00     0.040 A 
ATOM     70  F   UNL A   1      44.034  34.239  26.954  1.00  0.00    -0.206 F 
ATOM     71  C   UNL A   1      45.886  36.082  29.464  1.00  0.00     0.006 A 
ENDBRANCH  50  64
BRANCH  51  72
ATOM     72  C   UNL A   1      41.194  24.267  27.570  1.00  0.00     0.057 A 
ATOM     73  C   UNL A   1      40.167  24.062  26.642  1.00  0.00     0.134 A 
ATOM     74  C   UNL A   1      41.662  23.147  28.269  1.00  0.00     0.134 A 
ATOM     75  F   UNL A   1      39.663  25.096  25.952  1.00  0.00    -0.206 F 
ATOM     76  C   UNL A   1      39.605  22.799  26.439  1.00  0.00     0.040 A 
ATOM     77  C   UNL A   1      41.130  21.875  28.054  1.00  0.00     0.040 A 
ATOM     78  F   UNL A   1      42.650  23.272  29.167  1.00  0.00    -0.206 F 
ATOM     79  C   UNL A   1      40.090  21.700  27.144  1.00  0.00     0.006 A 
ENDBRANCH  51  72
BRANCH  63  80
ATOM     80  C   UNL A   1      47.176  27.374  25.825  1.00  0.00     0.057 A 
ATOM     81  C   UNL A   1      48.225  26.724  26.489  1.00  0.00     0.134 A 
ATOM     82  C   UNL A   1      47.292  27.543  24.440  1.00  0.00     0.134 A 
ATOM     83  F   UNL A   1      48.179  26.537  27.816  1.00  0.00    -0.206 F 
ATOM     84  C   UNL A   1      49.367  26.301  25.806  1.00  0.00     0.040 A 
ATOM     85  C   UNL A   1      48.413  27.095  23.742  1.00  0.00     0.040 A 
ATOM     86  F   UNL A   1      46.317  28.145  23.741  1.00  0.00    -0.206 F 
ATOM     87  C   UNL A   1      49.461  26.484  24.428  1.00  0.00     0.006 A 
ENDBRANCH  63  80
ENDBRANCH  37  38
ENDBRANCH  30  32
ENDBRANCH  29  30
ENDBRANCH  28  29
ENDBRANCH  27  28
ENDBRANCH  26  27
ENDBRANCH   1  26
TORSDOF 17
ENDMDL
MODEL 3
REMARK VINA RESULT:     -12.1      5.077     11.195
REMARK SMILES O=C(OCCOCCOC(=O)c1ccc(-c2c3nc(c(-c4c(F)cccc4F)c4ccc([nH]4)c(-c4c(F)cccc4F)c4nc(c(-c5c(F)cccc5F)c5ccc2[nH]5)C=C4)C=C3)cc1)c1ccc(/C=C/c2ccc3cccc(O)c3n2)cc1
REMARK SMILES IDX 5 1 4 2 3 3 2 4 1 5 66 6 67 7 84 8 68 9 83 10 69 11 70 12
REMARK SMILES IDX 71 13 72 14 73 15 82 16 74 17 81 18 75 19 79 20 76 21 78 22
REMARK SMILES IDX 77 23 80 24 6 26 7 27 8 28 9 29 10 30 11 31 12 32 13 33
REMARK SMILES IDX 65 34 14 35 64 36 15 37 16 38 17 39 58 40 18 41 63 42 57 43
REMARK SMILES IDX 59 44 19 45 62 46 56 47 55 48 20 50 46 51 29 52 45 53 30 54
REMARK SMILES IDX 33 55 44 56 60 57 31 58 32 59 43 61 61 62 34 63 21 64 22 65
REMARK SMILES IDX 27 66 23 67 24 68 26 69 28 70 25 71 47 72 48 73 53 74 49 75
REMARK SMILES IDX 50 76 52 77 54 78 51 79 35 80 36 81 41 82 37 83 38 84 40 85
REMARK SMILES IDX 42 86 39 87
REMARK H PARENT 80 25 59 49 33 60
REMARK Flexibility Score: inf
ROOT
ATOM      1  C   UNL A   1      32.799  35.970  32.504  1.00  0.00     0.202 C 
ENDROOT
BRANCH   1   2
ATOM      2  C   UNL A   1      34.322  35.998  32.617  1.00  0.00     0.261 C 
BRANCH   2   3
ATOM      3  O   UNL A   1      34.741  35.212  33.738  1.00  0.00    -0.460 OA
BRANCH   3   4
ATOM      4  C   UNL A   1      34.886  33.872  33.775  1.00  0.00     0.338 C 
ATOM      5  O   UNL A   1      33.896  33.166  33.586  1.00  0.00    -0.246 OA
BRANCH   4   6
ATOM      6  C   UNL A   1      36.188  33.174  33.993  1.00  0.00     0.060 A 
ATOM      7  C   UNL A   1      37.168  33.524  34.931  1.00  0.00     0.016 A 
ATOM      8  C   UNL A   1      36.327  31.954  33.327  1.00  0.00     0.016 A 
ATOM      9  C   UNL A   1      38.219  32.655  35.255  1.00  0.00     0.009 A 
ATOM     10  C   UNL A   1      37.375  31.090  33.644  1.00  0.00     0.009 A 
ATOM     11  C   UNL A   1      38.313  31.414  34.641  1.00  0.00    -0.026 A 
BRANCH  11  12
ATOM     12  C   UNL A   1      39.373  30.436  34.907  1.00  0.00     0.010 C 
ATOM     13  C   UNL A   1      40.489  30.574  35.655  1.00  0.00     0.029 C 
BRANCH  13  14
ATOM     14  C   UNL A   1      41.677  29.822  35.133  1.00  0.00     0.064 A 
ATOM     15  C   UNL A   1      41.305  29.157  33.969  1.00  0.00     0.029 A 
ATOM     16  N   UNL A   1      42.465  29.237  36.069  1.00  0.00    -0.245 NA
ATOM     17  C   UNL A   1      41.210  27.775  34.060  1.00  0.00     0.013 A 
ATOM     18  C   UNL A   1      42.493  27.884  36.082  1.00  0.00     0.113 A 
ATOM     19  C   UNL A   1      41.729  27.121  35.183  1.00  0.00     0.004 A 
ATOM     20  C   UNL A   1      43.219  27.195  37.049  1.00  0.00     0.141 A 
ATOM     21  C   UNL A   1      41.494  25.760  35.436  1.00  0.00     0.010 A 
ATOM     22  C   UNL A   1      43.068  25.827  37.257  1.00  0.00     0.048 A 
ATOM     23  C   UNL A   1      42.146  25.120  36.489  1.00  0.00     0.005 A 
BRANCH  20  24
ATOM     24  O   UNL A   1      44.115  27.875  37.837  1.00  0.00    -0.506 OA
ATOM     25  H   UNL A   1      43.867  28.151  38.697  1.00  0.00     0.293 HD
ENDBRANCH  20  24
ENDBRANCH  13  14
ENDBRANCH  11  12
ENDBRANCH   4   6
ENDBRANCH   3   4
ENDBRANCH   2   3
ENDBRANCH   1   2
BRANCH   1  26
ATOM     26  O   UNL A   1      32.312  36.536  31.288  1.00  0.00    -0.374 OA
BRANCH  26  27
ATOM     27  C   UNL A   1      33.297  36.830  30.289  1.00  0.00     0.202 C 
BRANCH  27  28
ATOM     28  C   UNL A   1      32.897  36.157  28.975  1.00  0.00     0.261 C 
BRANCH  28  29
ATOM     29  O   UNL A   1      32.528  34.804  29.266  1.00  0.00    -0.460 OA
BRANCH  29  30
ATOM     30  C   UNL A   1      33.062  33.889  28.416  1.00  0.00     0.338 C 
ATOM     31  O   UNL A   1      32.644  33.554  27.328  1.00  0.00    -0.246 OA
BRANCH  30  32
ATOM     32  C   UNL A   1      34.387  33.499  28.947  1.00  0.00     0.060 A 
ATOM     33  C   UNL A   1      35.522  34.012  28.307  1.00  0.00     0.016 A 
ATOM     34  C   UNL A   1      34.515  32.672  30.067  1.00  0.00     0.016 A 
ATOM     35  C   UNL A   1      36.789  33.647  28.747  1.00  0.00     0.010 A 
ATOM     36  C   UNL A   1      35.783  32.309  30.513  1.00  0.00     0.010 A 
ATOM     37  C   UNL A   1      36.920  32.756  29.821  1.00  0.00    -0.014 A 
BRANCH  37  38
ATOM     38  C   UNL A   1      38.234  32.139  30.086  1.00  0.00     0.031 A 
ATOM     39  C   UNL A   1      39.186  32.863  30.997  1.00  0.00     0.074 A 
ATOM     40  C   UNL A   1      38.544  30.941  29.564  1.00  0.00     0.049 A 
ATOM     41  N   UNL A   1      40.379  32.512  31.398  1.00  0.00    -0.248 NA
ATOM     42  C   UNL A   1      38.732  34.162  31.523  1.00  0.00     0.031 C 
ATOM     43  C   UNL A   1      37.684  30.158  28.677  1.00  0.00     0.029 A 
ATOM     44  N   UNL A   1      39.671  30.177  29.708  1.00  0.00    -0.354 N 
ATOM     45  C   UNL A   1      40.810  33.538  32.230  1.00  0.00     0.074 A 
ATOM     46  C   UNL A   1      39.779  34.551  32.233  1.00  0.00     0.031 C 
ATOM     47  C   UNL A   1      38.319  29.020  28.352  1.00  0.00     0.029 A 
ATOM     48  C   UNL A   1      39.634  29.009  28.988  1.00  0.00     0.049 A 
ATOM     49  H   UNL A   1      40.433  30.440  30.272  1.00  0.00     0.167 HD
ATOM     50  C   UNL A   1      41.956  33.615  32.946  1.00  0.00     0.037 A 
ATOM     51  C   UNL A   1      40.569  28.050  28.856  1.00  0.00     0.037 A 
ATOM     52  C   UNL A   1      42.980  32.606  32.921  1.00  0.00     0.049 A 
ATOM     53  C   UNL A   1      41.858  28.186  29.622  1.00  0.00     0.074 A 
ATOM     54  C   UNL A   1      44.184  32.581  33.601  1.00  0.00     0.029 A 
ATOM     55  N   UNL A   1      42.919  31.443  32.168  1.00  0.00    -0.354 N 
ATOM     56  N   UNL A   1      42.245  29.143  30.432  1.00  0.00    -0.248 NA
ATOM     57  C   UNL A   1      42.835  27.099  29.468  1.00  0.00     0.031 C 
ATOM     58  C   UNL A   1      44.873  31.424  33.221  1.00  0.00     0.029 A 
ATOM     59  C   UNL A   1      44.072  30.700  32.351  1.00  0.00     0.049 A 
ATOM     60  H   UNL A   1      42.167  31.185  31.588  1.00  0.00     0.167 HD
ATOM     61  C   UNL A   1      43.498  28.766  30.899  1.00  0.00     0.074 A 
ATOM     62  C   UNL A   1      43.789  27.476  30.305  1.00  0.00     0.031 C 
ATOM     63  C   UNL A   1      44.338  29.422  31.739  1.00  0.00     0.037 A 
BRANCH  50  64
ATOM     64  C   UNL A   1      42.156  34.834  33.800  1.00  0.00     0.057 A 
ATOM     65  C   UNL A   1      41.761  34.867  35.144  1.00  0.00     0.134 A 
ATOM     66  C   UNL A   1      42.771  35.981  33.281  1.00  0.00     0.134 A 
ATOM     67  F   UNL A   1      41.147  33.811  35.699  1.00  0.00    -0.206 F 
ATOM     68  C   UNL A   1      41.954  36.001  35.936  1.00  0.00     0.040 A 
ATOM     69  C   UNL A   1      42.994  37.110  34.071  1.00  0.00     0.040 A 
ATOM     70  F   UNL A   1      43.171  36.020  32.001  1.00  0.00    -0.206 F 
ATOM     71  C   UNL A   1      42.580  37.124  35.401  1.00  0.00     0.006 A 
ENDBRANCH  50  64
BRANCH  51  72
ATOM     72  C   UNL A   1      40.326  26.887  27.964  1.00  0.00     0.057 A 
ATOM     73  C   UNL A   1      39.546  25.799  28.373  1.00  0.00     0.134 A 
ATOM     74  C   UNL A   1      40.891  26.828  26.683  1.00  0.00     0.134 A 
ATOM     75  F   UNL A   1      38.992  25.787  29.594  1.00  0.00    -0.206 F 
ATOM     76  C   UNL A   1      39.360  24.683  27.554  1.00  0.00     0.040 A 
ATOM     77  C   UNL A   1      40.687  25.732  25.843  1.00  0.00     0.040 A 
ATOM     78  F   UNL A   1      41.642  27.840  26.226  1.00  0.00    -0.206 F 
ATOM     79  C   UNL A   1      39.929  24.650  26.282  1.00  0.00     0.006 A 
ENDBRANCH  51  72
BRANCH  63  80
ATOM     80  C   UNL A   1      45.633  28.737  32.073  1.00  0.00     0.057 A 
ATOM     81  C   UNL A   1      45.742  27.844  33.147  1.00  0.00     0.134 A 
ATOM     82  C   UNL A   1      46.783  28.973  31.308  1.00  0.00     0.134 A 
ATOM     83  F   UNL A   1      44.680  27.580  33.924  1.00  0.00    -0.206 F 
ATOM     84  C   UNL A   1      46.959  27.246  33.476  1.00  0.00     0.040 A 
ATOM     85  C   UNL A   1      47.997  28.356  31.607  1.00  0.00     0.040 A 
ATOM     86  F   UNL A   1      46.745  29.806  30.258  1.00  0.00    -0.206 F 
ATOM     87  C   UNL A   1      48.090  27.499  32.703  1.00  0.00     0.006 A 
ENDBRANCH  63  80
ENDBRANCH  37  38
ENDBRANCH  30  32
ENDBRANCH  29  30
ENDBRANCH  28  29
ENDBRANCH  27  28
ENDBRANCH  26  27
ENDBRANCH   1  26
TORSDOF 17
ENDMDL
