MODEL 1
REMARK VINA RESULT:     -10.9      0.000      0.000
REMARK SMILES CCc1c(C)nc(Nc2cc(Cl)ccc2C)nc1OCC(=O)OCCOCCOC(=O)c1ccc(-c2c3nc(c(-c4c(F)cccc4F)c4ccc([nH]4)c(-c4c(F)cccc4F)c4nc(c(-c5c(F)cccc5F)c5ccc2[nH]5)C=C4)C=C3)cc1
REMARK SMILES IDX 25 1 24 2 23 3 21 4 22 5 20 6 19 7 18 8 3 9 4 10 5 11 6 12
REMARK SMILES IDX 17 13 7 14 2 15 1 16 8 17 9 19 10 20 15 21 11 22 14 23 16 24
REMARK SMILES IDX 12 25 13 26 26 27 27 28 28 29 29 30 30 31 31 32 32 33 33 34
REMARK SMILES IDX 85 35 34 36 84 37 35 38 36 39 37 40 78 41 38 42 83 43 77 44
REMARK SMILES IDX 79 45 39 46 82 47 76 48 75 49 40 51 66 52 49 53 65 54 50 55
REMARK SMILES IDX 53 56 64 57 80 58 51 59 52 60 63 62 81 63 54 64 41 65 42 66
REMARK SMILES IDX 47 67 43 68 44 69 46 70 48 71 45 72 67 73 68 74 73 75 69 76
REMARK SMILES IDX 70 77 72 78 74 79 71 80 55 81 56 82 61 83 57 84 58 85 60 86
REMARK SMILES IDX 62 87 59 88
REMARK H PARENT 8 18 79 50 53 61
REMARK Flexibility Score: inf
ROOT
ATOM      1  C   UNL A   1      46.143  19.833  25.091  1.00  0.00     0.202 C 
ENDROOT
BRANCH   1   2
ATOM      2  C   UNL A   1      45.450  18.506  25.423  1.00  0.00     0.261 C 
BRANCH   2   3
ATOM      3  O   UNL A   1      44.058  18.524  25.027  1.00  0.00    -0.461 OA
BRANCH   3   4
ATOM      4  C   UNL A   1      43.150  18.310  26.019  1.00  0.00     0.344 C 
ATOM      5  O   UNL A   1      43.305  17.523  26.947  1.00  0.00    -0.248 OA
BRANCH   4   6
ATOM      6  C   UNL A   1      41.880  19.155  25.868  1.00  0.00     0.353 C 
BRANCH   6   7
ATOM      7  O   UNL A   1      41.558  20.118  26.838  1.00  0.00    -0.465 OA
BRANCH   7   8
ATOM      8  C   UNL A   1      40.537  21.012  26.842  1.00  0.00     0.222 A 
ATOM      9  C   UNL A   1      40.417  22.248  27.510  1.00  0.00     0.035 A 
ATOM     10  C   UNL A   1      39.355  23.030  27.039  1.00  0.00     0.050 A 
ATOM     11  C   UNL A   1      39.111  24.494  27.252  1.00  0.00     0.067 C 
ATOM     12  N   UNL A   1      38.496  22.587  26.096  1.00  0.00    -0.218 NA
ATOM     13  N   UNL A   1      39.637  20.575  25.927  1.00  0.00    -0.177 NA
ATOM     14  C   UNL A   1      38.644  21.377  25.572  1.00  0.00     0.230 A 
BRANCH   9  15
ATOM     15  C   UNL A   1      41.344  22.639  28.635  1.00  0.00     0.040 C 
ATOM     16  C   UNL A   1      42.861  22.649  28.514  1.00  0.00     0.009 C 
ENDBRANCH   9  15
BRANCH  14  17
ATOM     17  N   UNL A   1      37.758  20.955  24.582  1.00  0.00    -0.324 N 
ATOM     18  H   UNL A   1      38.128  20.398  23.860  1.00  0.00     0.170 HD
BRANCH  17  19
ATOM     19  C   UNL A   1      36.389  21.251  24.523  1.00  0.00     0.045 A 
ATOM     20  C   UNL A   1      35.474  20.375  25.124  1.00  0.00     0.047 A 
ATOM     21  C   UNL A   1      35.913  22.451  23.946  1.00  0.00    -0.027 A 
ATOM     22  C   UNL A   1      34.124  20.716  25.209  1.00  0.00     0.043 A 
ATOM     23  C   UNL A   1      34.550  22.777  24.043  1.00  0.00     0.007 A 
ATOM     24  C   UNL A   1      36.833  23.395  23.218  1.00  0.00     0.046 C 
ATOM     25  Cl  UNL A   1      33.023  19.657  26.004  1.00  0.00    -0.084 Cl
ATOM     26  C   UNL A   1      33.659  21.917  24.682  1.00  0.00     0.021 A 
ENDBRANCH  17  19
ENDBRANCH  14  17
ENDBRANCH   7   8
ENDBRANCH   6   7
ENDBRANCH   4   6
ENDBRANCH   3   4
ENDBRANCH   2   3
ENDBRANCH   1   2
BRANCH   1  27
ATOM     27  O   UNL A   1      45.437  20.725  24.221  1.00  0.00    -0.374 OA
BRANCH  27  28
ATOM     28  C   UNL A   1      45.767  22.105  24.310  1.00  0.00     0.202 C 
BRANCH  28  29
ATOM     29  C   UNL A   1      44.612  23.104  24.279  1.00  0.00     0.261 C 
BRANCH  29  30
ATOM     30  O   UNL A   1      44.466  23.814  25.497  1.00  0.00    -0.460 OA
BRANCH  30  31
ATOM     31  C   UNL A   1      44.900  25.084  25.419  1.00  0.00     0.338 C 
ATOM     32  O   UNL A   1      45.748  25.561  24.680  1.00  0.00    -0.246 OA
BRANCH  31  33
ATOM     33  C   UNL A   1      44.026  25.885  26.268  1.00  0.00     0.060 A 
ATOM     34  C   UNL A   1      44.489  27.155  26.620  1.00  0.00     0.016 A 
ATOM     35  C   UNL A   1      42.791  25.394  26.702  1.00  0.00     0.016 A 
ATOM     36  C   UNL A   1      43.741  27.922  27.491  1.00  0.00     0.010 A 
ATOM     37  C   UNL A   1      42.041  26.166  27.577  1.00  0.00     0.010 A 
ATOM     38  C   UNL A   1      42.547  27.403  28.009  1.00  0.00    -0.014 A 
BRANCH  38  39
ATOM     39  C   UNL A   1      41.953  28.079  29.171  1.00  0.00     0.031 A 
ATOM     40  C   UNL A   1      42.683  28.000  30.477  1.00  0.00     0.074 A 
ATOM     41  C   UNL A   1      40.839  28.809  29.015  1.00  0.00     0.049 A 
ATOM     42  N   UNL A   1      42.387  28.545  31.625  1.00  0.00    -0.248 NA
ATOM     43  C   UNL A   1      43.918  27.193  30.493  1.00  0.00     0.031 C 
ATOM     44  C   UNL A   1      40.102  28.966  27.761  1.00  0.00     0.029 A 
ATOM     45  N   UNL A   1      40.143  29.565  29.916  1.00  0.00    -0.354 N 
ATOM     46  C   UNL A   1      43.395  28.149  32.496  1.00  0.00     0.074 A 
ATOM     47  C   UNL A   1      44.287  27.283  31.760  1.00  0.00     0.031 C 
ATOM     48  C   UNL A   1      39.053  29.777  27.973  1.00  0.00     0.029 A 
ATOM     49  C   UNL A   1      39.033  30.166  29.380  1.00  0.00     0.049 A 
ATOM     50  H   UNL A   1      40.412  29.667  30.858  1.00  0.00     0.167 HD
ATOM     51  C   UNL A   1      43.560  28.493  33.793  1.00  0.00     0.037 A 
ATOM     52  C   UNL A   1      38.105  30.933  29.979  1.00  0.00     0.037 A 
ATOM     53  C   UNL A   1      42.649  29.354  34.498  1.00  0.00     0.049 A 
ATOM     54  C   UNL A   1      38.277  31.249  31.439  1.00  0.00     0.074 A 
ATOM     55  C   UNL A   1      42.704  29.780  35.811  1.00  0.00     0.029 A 
ATOM     56  N   UNL A   1      41.508  29.914  33.938  1.00  0.00    -0.354 N 
ATOM     57  N   UNL A   1      39.240  30.888  32.256  1.00  0.00    -0.248 NA
ATOM     58  C   UNL A   1      37.242  32.083  32.059  1.00  0.00     0.031 C 
ATOM     59  C   UNL A   1      41.566  30.553  36.061  1.00  0.00     0.029 A 
ATOM     60  C   UNL A   1      40.836  30.663  34.886  1.00  0.00     0.049 A 
ATOM     61  H   UNL A   1      41.222  29.797  33.003  1.00  0.00     0.167 HD
ATOM     62  C   UNL A   1      38.943  31.472  33.480  1.00  0.00     0.074 A 
ATOM     63  C   UNL A   1      37.718  32.223  33.290  1.00  0.00     0.031 C 
ATOM     64  C   UNL A   1      39.618  31.401  34.654  1.00  0.00     0.037 A 
BRANCH  51  65
ATOM     65  C   UNL A   1      44.734  27.907  34.522  1.00  0.00     0.057 A 
ATOM     66  C   UNL A   1      44.682  26.642  35.123  1.00  0.00     0.134 A 
ATOM     67  C   UNL A   1      45.935  28.619  34.625  1.00  0.00     0.134 A 
ATOM     68  F   UNL A   1      43.556  25.914  35.083  1.00  0.00    -0.206 F 
ATOM     69  C   UNL A   1      45.773  26.119  35.821  1.00  0.00     0.040 A 
ATOM     70  C   UNL A   1      47.041  28.096  35.295  1.00  0.00     0.040 A 
ATOM     71  F   UNL A   1      46.052  29.838  34.076  1.00  0.00    -0.206 F 
ATOM     72  C   UNL A   1      46.960  26.844  35.902  1.00  0.00     0.006 A 
ENDBRANCH  51  65
BRANCH  52  73
ATOM     73  C   UNL A   1      36.949  31.442  29.200  1.00  0.00     0.057 A 
ATOM     74  C   UNL A   1      36.916  32.753  28.715  1.00  0.00     0.134 A 
ATOM     75  C   UNL A   1      35.848  30.623  28.916  1.00  0.00     0.134 A 
ATOM     76  F   UNL A   1      37.934  33.590  28.962  1.00  0.00    -0.206 F 
ATOM     77  C   UNL A   1      35.825  33.237  27.991  1.00  0.00     0.040 A 
ATOM     78  C   UNL A   1      34.763  31.085  28.172  1.00  0.00     0.040 A 
ATOM     79  F   UNL A   1      35.820  29.351  29.344  1.00  0.00    -0.206 F 
ATOM     80  C   UNL A   1      34.746  32.399  27.713  1.00  0.00     0.006 A 
ENDBRANCH  52  73
BRANCH  64  81
ATOM     81  C   UNL A   1      39.062  32.187  35.805  1.00  0.00     0.057 A 
ATOM     82  C   UNL A   1      38.231  31.602  36.768  1.00  0.00     0.134 A 
ATOM     83  C   UNL A   1      39.398  33.536  35.969  1.00  0.00     0.134 A 
ATOM     84  F   UNL A   1      37.863  30.316  36.662  1.00  0.00    -0.206 F 
ATOM     85  C   UNL A   1      37.731  32.342  37.841  1.00  0.00     0.040 A 
ATOM     86  C   UNL A   1      38.931  34.277  37.054  1.00  0.00     0.040 A 
ATOM     87  F   UNL A   1      40.201  34.151  35.086  1.00  0.00    -0.206 F 
ATOM     88  C   UNL A   1      38.088  33.681  37.989  1.00  0.00     0.006 A 
ENDBRANCH  64  81
ENDBRANCH  38  39
ENDBRANCH  31  33
ENDBRANCH  30  31
ENDBRANCH  29  30
ENDBRANCH  28  29
ENDBRANCH  27  28
ENDBRANCH   1  27
TORSDOF 19
ENDMDL
MODEL 2
REMARK VINA RESULT:     -10.9      2.258      3.721
REMARK SMILES CCc1c(C)nc(Nc2cc(Cl)ccc2C)nc1OCC(=O)OCCOCCOC(=O)c1ccc(-c2c3nc(c(-c4c(F)cccc4F)c4ccc([nH]4)c(-c4c(F)cccc4F)c4nc(c(-c5c(F)cccc5F)c5ccc2[nH]5)C=C4)C=C3)cc1
REMARK SMILES IDX 25 1 24 2 23 3 21 4 22 5 20 6 19 7 18 8 3 9 4 10 5 11 6 12
REMARK SMILES IDX 17 13 7 14 2 15 1 16 8 17 9 19 10 20 15 21 11 22 14 23 16 24
REMARK SMILES IDX 12 25 13 26 26 27 27 28 28 29 29 30 30 31 31 32 32 33 33 34
REMARK SMILES IDX 85 35 34 36 84 37 35 38 36 39 37 40 78 41 38 42 83 43 77 44
REMARK SMILES IDX 79 45 39 46 82 47 76 48 75 49 40 51 66 52 49 53 65 54 50 55
REMARK SMILES IDX 53 56 64 57 80 58 51 59 52 60 63 62 81 63 54 64 41 65 42 66
REMARK SMILES IDX 47 67 43 68 44 69 46 70 48 71 45 72 67 73 68 74 73 75 69 76
REMARK SMILES IDX 70 77 72 78 74 79 71 80 55 81 56 82 61 83 57 84 58 85 60 86
REMARK SMILES IDX 62 87 59 88
REMARK H PARENT 8 18 79 50 53 61
REMARK Flexibility Score: inf
ROOT
ATOM      1  C   UNL A   1      41.783  19.972  26.488  1.00  0.00     0.202 C 
ENDROOT
BRANCH   1   2
ATOM      2  C   UNL A   1      40.492  20.728  26.829  1.00  0.00     0.261 C 
BRANCH   2   3
ATOM      3  O   UNL A   1      39.544  20.672  25.737  1.00  0.00    -0.461 OA
BRANCH   3   4
ATOM      4  C   UNL A   1      38.552  21.606  25.757  1.00  0.00     0.344 C 
ATOM      5  O   UNL A   1      38.708  22.781  26.071  1.00  0.00    -0.248 OA
BRANCH   4   6
ATOM      6  C   UNL A   1      37.185  21.043  25.349  1.00  0.00     0.353 C 
BRANCH   6   7
ATOM      7  O   UNL A   1      36.445  21.666  24.331  1.00  0.00    -0.465 OA
BRANCH   7   8
ATOM      8  C   UNL A   1      35.184  22.164  24.380  1.00  0.00     0.222 A 
ATOM      9  C   UNL A   1      33.965  21.518  24.668  1.00  0.00     0.035 A 
ATOM     10  C   UNL A   1      32.913  22.408  24.922  1.00  0.00     0.050 A 
ATOM     11  C   UNL A   1      31.592  22.126  25.571  1.00  0.00     0.067 C 
ATOM     12  N   UNL A   1      33.060  23.746  24.816  1.00  0.00    -0.218 NA
ATOM     13  N   UNL A   1      35.294  23.508  24.239  1.00  0.00    -0.177 NA
ATOM     14  C   UNL A   1      34.230  24.265  24.469  1.00  0.00     0.230 A 
BRANCH   9  15
ATOM     15  C   UNL A   1      33.840  20.014  24.663  1.00  0.00     0.040 C 
ATOM     16  C   UNL A   1      32.825  19.254  23.821  1.00  0.00     0.009 C 
ENDBRANCH   9  15
BRANCH  14  17
ATOM     17  N   UNL A   1      34.360  25.651  24.391  1.00  0.00    -0.324 N 
ATOM     18  H   UNL A   1      35.258  26.005  24.198  1.00  0.00     0.170 HD
BRANCH  17  19
ATOM     19  C   UNL A   1      33.327  26.585  24.560  1.00  0.00     0.045 A 
ATOM     20  C   UNL A   1      33.012  27.028  25.852  1.00  0.00     0.047 A 
ATOM     21  C   UNL A   1      32.652  27.152  23.456  1.00  0.00    -0.027 A 
ATOM     22  C   UNL A   1      32.093  28.062  26.038  1.00  0.00     0.043 A 
ATOM     23  C   UNL A   1      31.731  28.193  23.663  1.00  0.00     0.007 A 
ATOM     24  C   UNL A   1      32.889  26.664  22.051  1.00  0.00     0.046 C 
ATOM     25  Cl  UNL A   1      31.761  28.636  27.627  1.00  0.00    -0.084 Cl
ATOM     26  C   UNL A   1      31.460  28.653  24.949  1.00  0.00     0.021 A 
ENDBRANCH  17  19
ENDBRANCH  14  17
ENDBRANCH   7   8
ENDBRANCH   6   7
ENDBRANCH   4   6
ENDBRANCH   3   4
ENDBRANCH   2   3
ENDBRANCH   1   2
BRANCH   1  27
ATOM     27  O   UNL A   1      42.589  20.522  25.440  1.00  0.00    -0.374 OA
BRANCH  27  28
ATOM     28  C   UNL A   1      43.498  21.553  25.804  1.00  0.00     0.202 C 
BRANCH  28  29
ATOM     29  C   UNL A   1      44.051  22.427  24.679  1.00  0.00     0.261 C 
BRANCH  29  30
ATOM     30  O   UNL A   1      43.397  23.681  24.585  1.00  0.00    -0.460 OA
BRANCH  30  31
ATOM     31  C   UNL A   1      44.161  24.704  25.006  1.00  0.00     0.338 C 
ATOM     32  O   UNL A   1      45.274  25.036  24.627  1.00  0.00    -0.246 OA
BRANCH  31  33
ATOM     33  C   UNL A   1      43.338  25.509  25.900  1.00  0.00     0.060 A 
ATOM     34  C   UNL A   1      43.780  26.809  26.157  1.00  0.00     0.016 A 
ATOM     35  C   UNL A   1      42.168  24.994  26.467  1.00  0.00     0.016 A 
ATOM     36  C   UNL A   1      43.086  27.586  27.062  1.00  0.00     0.010 A 
ATOM     37  C   UNL A   1      41.471  25.776  27.376  1.00  0.00     0.010 A 
ATOM     38  C   UNL A   1      41.965  27.048  27.709  1.00  0.00    -0.014 A 
BRANCH  38  39
ATOM     39  C   UNL A   1      41.454  27.752  28.893  1.00  0.00     0.031 A 
ATOM     40  C   UNL A   1      42.209  27.600  30.180  1.00  0.00     0.074 A 
ATOM     41  C   UNL A   1      40.395  28.566  28.775  1.00  0.00     0.049 A 
ATOM     42  N   UNL A   1      41.985  28.152  31.341  1.00  0.00    -0.248 NA
ATOM     43  C   UNL A   1      43.379  26.703  30.154  1.00  0.00     0.031 C 
ATOM     44  C   UNL A   1      39.641  28.795  27.543  1.00  0.00     0.029 A 
ATOM     45  N   UNL A   1      39.782  29.360  29.702  1.00  0.00    -0.354 N 
ATOM     46  C   UNL A   1      42.980  27.669  32.180  1.00  0.00     0.074 A 
ATOM     47  C   UNL A   1      43.785  26.748  31.412  1.00  0.00     0.031 C 
ATOM     48  C   UNL A   1      38.662  29.680  27.791  1.00  0.00     0.029 A 
ATOM     49  C   UNL A   1      38.708  30.051  29.202  1.00  0.00     0.049 A 
ATOM     50  H   UNL A   1      40.082  29.430  30.638  1.00  0.00     0.167 HD
ATOM     51  C   UNL A   1      43.204  27.983  33.476  1.00  0.00     0.037 A 
ATOM     52  C   UNL A   1      37.856  30.878  29.833  1.00  0.00     0.037 A 
ATOM     53  C   UNL A   1      42.380  28.902  34.215  1.00  0.00     0.049 A 
ATOM     54  C   UNL A   1      38.089  31.161  31.292  1.00  0.00     0.074 A 
ATOM     55  C   UNL A   1      42.500  29.305  35.530  1.00  0.00     0.029 A 
ATOM     56  N   UNL A   1      41.271  29.554  33.690  1.00  0.00    -0.354 N 
ATOM     57  N   UNL A   1      39.041  30.718  32.079  1.00  0.00    -0.248 NA
ATOM     58  C   UNL A   1      37.136  32.063  31.948  1.00  0.00     0.031 C 
ATOM     59  C   UNL A   1      41.430  30.159  35.818  1.00  0.00     0.029 A 
ATOM     60  C   UNL A   1      40.682  30.340  34.664  1.00  0.00     0.049 A 
ATOM     61  H   UNL A   1      40.953  29.471  32.762  1.00  0.00     0.167 HD
ATOM     62  C   UNL A   1      38.821  31.308  33.317  1.00  0.00     0.074 A 
ATOM     63  C   UNL A   1      37.652  32.152  33.167  1.00  0.00     0.031 C 
ATOM     64  C   UNL A   1      39.518  31.170  34.472  1.00  0.00     0.037 A 
BRANCH  51  65
ATOM     65  C   UNL A   1      44.348  27.301  34.168  1.00  0.00     0.057 A 
ATOM     66  C   UNL A   1      44.206  26.052  34.790  1.00  0.00     0.134 A 
ATOM     67  C   UNL A   1      45.612  27.901  34.213  1.00  0.00     0.134 A 
ATOM     68  F   UNL A   1      43.017  25.431  34.804  1.00  0.00    -0.206 F 
ATOM     69  C   UNL A   1      45.272  25.440  35.452  1.00  0.00     0.040 A 
ATOM     70  C   UNL A   1      46.692  27.287  34.848  1.00  0.00     0.040 A 
ATOM     71  F   UNL A   1      45.818  29.098  33.643  1.00  0.00    -0.206 F 
ATOM     72  C   UNL A   1      46.522  26.055  35.476  1.00  0.00     0.006 A 
ENDBRANCH  51  65
BRANCH  52  73
ATOM     73  C   UNL A   1      36.723  31.483  29.091  1.00  0.00     0.057 A 
ATOM     74  C   UNL A   1      36.751  32.819  28.677  1.00  0.00     0.134 A 
ATOM     75  C   UNL A   1      35.583  30.734  28.770  1.00  0.00     0.134 A 
ATOM     76  F   UNL A   1      37.809  33.591  28.962  1.00  0.00    -0.206 F 
ATOM     77  C   UNL A   1      35.681  33.393  27.987  1.00  0.00     0.040 A 
ATOM     78  C   UNL A   1      34.518  31.287  28.059  1.00  0.00     0.040 A 
ATOM     79  F   UNL A   1      35.496  29.444  29.129  1.00  0.00    -0.206 F 
ATOM     80  C   UNL A   1      34.562  32.624  27.671  1.00  0.00     0.006 A 
ENDBRANCH  52  73
BRANCH  64  81
ATOM     81  C   UNL A   1      39.052  31.981  35.645  1.00  0.00     0.057 A 
ATOM     82  C   UNL A   1      38.221  31.442  36.635  1.00  0.00     0.134 A 
ATOM     83  C   UNL A   1      39.477  33.306  35.804  1.00  0.00     0.134 A 
ATOM     84  F   UNL A   1      37.771  30.183  36.535  1.00  0.00    -0.206 F 
ATOM     85  C   UNL A   1      37.806  32.205  37.728  1.00  0.00     0.040 A 
ATOM     86  C   UNL A   1      39.096  34.067  36.908  1.00  0.00     0.040 A 
ATOM     87  F   UNL A   1      40.286  33.876  34.896  1.00  0.00    -0.206 F 
ATOM     88  C   UNL A   1      38.251  33.518  37.870  1.00  0.00     0.006 A 
ENDBRANCH  64  81
ENDBRANCH  38  39
ENDBRANCH  31  33
ENDBRANCH  30  31
ENDBRANCH  29  30
ENDBRANCH  28  29
ENDBRANCH  27  28
ENDBRANCH   1  27
TORSDOF 19
ENDMDL
MODEL 3
REMARK VINA RESULT:     -10.8      2.048      3.807
REMARK SMILES CCc1c(C)nc(Nc2cc(Cl)ccc2C)nc1OCC(=O)OCCOCCOC(=O)c1ccc(-c2c3nc(c(-c4c(F)cccc4F)c4ccc([nH]4)c(-c4c(F)cccc4F)c4nc(c(-c5c(F)cccc5F)c5ccc2[nH]5)C=C4)C=C3)cc1
REMARK SMILES IDX 25 1 24 2 23 3 21 4 22 5 20 6 19 7 18 8 3 9 4 10 5 11 6 12
REMARK SMILES IDX 17 13 7 14 2 15 1 16 8 17 9 19 10 20 15 21 11 22 14 23 16 24
REMARK SMILES IDX 12 25 13 26 26 27 27 28 28 29 29 30 30 31 31 32 32 33 33 34
REMARK SMILES IDX 85 35 34 36 84 37 35 38 36 39 37 40 78 41 38 42 83 43 77 44
REMARK SMILES IDX 79 45 39 46 82 47 76 48 75 49 40 51 66 52 49 53 65 54 50 55
REMARK SMILES IDX 53 56 64 57 80 58 51 59 52 60 63 62 81 63 54 64 41 65 42 66
REMARK SMILES IDX 47 67 43 68 44 69 46 70 48 71 45 72 67 73 68 74 73 75 69 76
REMARK SMILES IDX 70 77 72 78 74 79 71 80 55 81 56 82 61 83 57 84 58 85 60 86
REMARK SMILES IDX 62 87 59 88
REMARK H PARENT 8 18 79 50 53 61
REMARK Flexibility Score: inf
ROOT
ATOM      1  C   UNL A   1      40.400  20.730  26.514  1.00  0.00     0.202 C 
ENDROOT
BRANCH   1   2
ATOM      2  C   UNL A   1      39.656  22.050  26.274  1.00  0.00     0.261 C 
BRANCH   2   3
ATOM      3  O   UNL A   1      38.315  21.818  25.782  1.00  0.00    -0.461 OA
BRANCH   3   4
ATOM      4  C   UNL A   1      37.549  22.927  25.587  1.00  0.00     0.344 C 
ATOM      5  O   UNL A   1      37.297  23.761  26.451  1.00  0.00    -0.248 OA
BRANCH   4   6
ATOM      6  C   UNL A   1      37.007  23.043  24.157  1.00  0.00     0.353 C 
BRANCH   6   7
ATOM      7  O   UNL A   1      35.637  22.857  23.909  1.00  0.00    -0.465 OA
BRANCH   7   8
ATOM      8  C   UNL A   1      34.613  22.799  24.796  1.00  0.00     0.222 A 
ATOM      9  C   UNL A   1      33.862  23.839  25.382  1.00  0.00     0.035 A 
ATOM     10  C   UNL A   1      32.694  23.390  26.013  1.00  0.00     0.050 A 
ATOM     11  C   UNL A   1      31.503  24.191  26.445  1.00  0.00     0.067 C 
ATOM     12  N   UNL A   1      32.384  22.079  26.106  1.00  0.00    -0.218 NA
ATOM     13  N   UNL A   1      34.299  21.488  24.941  1.00  0.00    -0.177 NA
ATOM     14  C   UNL A   1      33.189  21.163  25.585  1.00  0.00     0.230 A 
BRANCH   9  15
ATOM     15  C   UNL A   1      34.321  25.276  25.339  1.00  0.00     0.040 C 
ATOM     16  C   UNL A   1      33.747  26.316  24.388  1.00  0.00     0.009 C 
ENDBRANCH   9  15
BRANCH  14  17
ATOM     17  N   UNL A   1      32.831  19.818  25.674  1.00  0.00    -0.324 N 
ATOM     18  H   UNL A   1      32.187  19.573  26.377  1.00  0.00     0.170 HD
BRANCH  17  19
ATOM     19  C   UNL A   1      33.303  18.785  24.852  1.00  0.00     0.045 A 
ATOM     20  C   UNL A   1      34.157  17.815  25.395  1.00  0.00     0.047 A 
ATOM     21  C   UNL A   1      32.875  18.649  23.511  1.00  0.00    -0.027 A 
ATOM     22  C   UNL A   1      34.523  16.698  24.643  1.00  0.00     0.043 A 
ATOM     23  C   UNL A   1      33.253  17.516  22.771  1.00  0.00     0.007 A 
ATOM     24  C   UNL A   1      32.021  19.696  22.846  1.00  0.00     0.046 C 
ATOM     25  Cl  UNL A   1      35.524  15.485  25.346  1.00  0.00    -0.084 Cl
ATOM     26  C   UNL A   1      34.067  16.539  23.339  1.00  0.00     0.021 A 
ENDBRANCH  17  19
ENDBRANCH  14  17
ENDBRANCH   7   8
ENDBRANCH   6   7
ENDBRANCH   4   6
ENDBRANCH   3   4
ENDBRANCH   2   3
ENDBRANCH   1   2
BRANCH   1  27
ATOM     27  O   UNL A   1      41.520  20.462  25.663  1.00  0.00    -0.374 OA
BRANCH  27  28
ATOM     28  C   UNL A   1      42.801  20.835  26.152  1.00  0.00     0.202 C 
BRANCH  28  29
ATOM     29  C   UNL A   1      43.528  21.962  25.421  1.00  0.00     0.261 C 
BRANCH  29  30
ATOM     30  O   UNL A   1      44.001  22.971  26.296  1.00  0.00    -0.460 OA
BRANCH  30  31
ATOM     31  C   UNL A   1      44.059  24.184  25.718  1.00  0.00     0.338 C 
ATOM     32  O   UNL A   1      44.528  24.494  24.634  1.00  0.00    -0.246 OA
BRANCH  31  33
ATOM     33  C   UNL A   1      43.269  25.087  26.546  1.00  0.00     0.060 A 
ATOM     34  C   UNL A   1      43.765  26.383  26.705  1.00  0.00     0.016 A 
ATOM     35  C   UNL A   1      42.078  24.665  27.145  1.00  0.00     0.016 A 
ATOM     36  C   UNL A   1      43.102  27.254  27.546  1.00  0.00     0.010 A 
ATOM     37  C   UNL A   1      41.413  25.542  27.989  1.00  0.00     0.010 A 
ATOM     38  C   UNL A   1      41.960  26.814  28.228  1.00  0.00    -0.014 A 
BRANCH  38  39
ATOM     39  C   UNL A   1      41.477  27.626  29.353  1.00  0.00     0.031 A 
ATOM     40  C   UNL A   1      42.224  27.542  30.650  1.00  0.00     0.074 A 
ATOM     41  C   UNL A   1      40.452  28.471  29.170  1.00  0.00     0.049 A 
ATOM     42  N   UNL A   1      42.023  28.189  31.765  1.00  0.00    -0.248 NA
ATOM     43  C   UNL A   1      43.357  26.599  30.697  1.00  0.00     0.031 C 
ATOM     44  C   UNL A   1      39.709  28.636  27.921  1.00  0.00     0.029 A 
ATOM     45  N   UNL A   1      39.871  29.358  30.032  1.00  0.00    -0.354 N 
ATOM     46  C   UNL A   1      42.997  27.731  32.642  1.00  0.00     0.074 A 
ATOM     47  C   UNL A   1      43.765  26.723  31.949  1.00  0.00     0.031 C 
ATOM     48  C   UNL A   1      38.767  29.577  28.098  1.00  0.00     0.029 A 
ATOM     49  C   UNL A   1      38.827  30.052  29.477  1.00  0.00     0.049 A 
ATOM     50  H   UNL A   1      40.174  29.487  30.961  1.00  0.00     0.167 HD
ATOM     51  C   UNL A   1      43.233  28.133  33.911  1.00  0.00     0.037 A 
ATOM     52  C   UNL A   1      38.009  30.958  30.040  1.00  0.00     0.037 A 
ATOM     53  C   UNL A   1      42.447  29.139  34.575  1.00  0.00     0.049 A 
ATOM     54  C   UNL A   1      38.253  31.342  31.474  1.00  0.00     0.074 A 
ATOM     55  C   UNL A   1      42.582  29.635  35.857  1.00  0.00     0.029 A 
ATOM     56  N   UNL A   1      41.366  29.793  33.999  1.00  0.00    -0.354 N 
ATOM     57  N   UNL A   1      39.186  30.922  32.296  1.00  0.00    -0.248 NA
ATOM     58  C   UNL A   1      37.337  32.329  32.057  1.00  0.00     0.031 C 
ATOM     59  C   UNL A   1      41.549  30.552  36.075  1.00  0.00     0.029 A 
ATOM     60  C   UNL A   1      40.809  30.674  34.908  1.00  0.00     0.049 A 
ATOM     61  H   UNL A   1      41.045  29.653  33.079  1.00  0.00     0.167 HD
ATOM     62  C   UNL A   1      38.989  31.612  33.485  1.00  0.00     0.074 A 
ATOM     63  C   UNL A   1      37.856  32.489  33.267  1.00  0.00     0.031 C 
ATOM     64  C   UNL A   1      39.679  31.534  34.650  1.00  0.00     0.037 A 
BRANCH  51  65
ATOM     65  C   UNL A   1      44.348  27.459  34.657  1.00  0.00     0.057 A 
ATOM     66  C   UNL A   1      45.627  28.025  34.757  1.00  0.00     0.134 A 
ATOM     67  C   UNL A   1      44.141  26.225  35.284  1.00  0.00     0.134 A 
ATOM     68  F   UNL A   1      45.902  29.195  34.161  1.00  0.00    -0.206 F 
ATOM     69  C   UNL A   1      46.663  27.375  35.432  1.00  0.00     0.040 A 
ATOM     70  C   UNL A   1      45.160  25.579  35.985  1.00  0.00     0.040 A 
ATOM     71  F   UNL A   1      42.942  25.624  35.224  1.00  0.00    -0.206 F 
ATOM     72  C   UNL A   1      46.428  26.151  36.054  1.00  0.00     0.006 A 
ENDBRANCH  51  65
BRANCH  52  73
ATOM     73  C   UNL A   1      36.902  31.551  29.250  1.00  0.00     0.057 A 
ATOM     74  C   UNL A   1      35.733  30.833  28.980  1.00  0.00     0.134 A 
ATOM     75  C   UNL A   1      36.985  32.858  28.752  1.00  0.00     0.134 A 
ATOM     76  F   UNL A   1      35.597  29.574  29.419  1.00  0.00    -0.206 F 
ATOM     77  C   UNL A   1      34.694  31.385  28.227  1.00  0.00     0.040 A 
ATOM     78  C   UNL A   1      35.944  33.431  28.022  1.00  0.00     0.040 A 
ATOM     79  F   UNL A   1      38.075  33.605  28.984  1.00  0.00    -0.206 F 
ATOM     80  C   UNL A   1      34.796  32.691  27.751  1.00  0.00     0.006 A 
ENDBRANCH  52  73
BRANCH  64  81
ATOM     81  C   UNL A   1      39.247  32.450  35.756  1.00  0.00     0.057 A 
ATOM     82  C   UNL A   1      38.339  32.044  36.742  1.00  0.00     0.134 A 
ATOM     83  C   UNL A   1      39.780  33.741  35.856  1.00  0.00     0.134 A 
ATOM     84  F   UNL A   1      37.785  30.823  36.696  1.00  0.00    -0.206 F 
ATOM     85  C   UNL A   1      37.955  32.902  37.773  1.00  0.00     0.040 A 
ATOM     86  C   UNL A   1      39.429  34.596  36.900  1.00  0.00     0.040 A 
ATOM     87  F   UNL A   1      40.665  34.185  34.950  1.00  0.00    -0.206 F 
ATOM     88  C   UNL A   1      38.507  34.179  37.858  1.00  0.00     0.006 A 
ENDBRANCH  64  81
ENDBRANCH  38  39
ENDBRANCH  31  33
ENDBRANCH  30  31
ENDBRANCH  29  30
ENDBRANCH  28  29
ENDBRANCH  27  28
ENDBRANCH   1  27
TORSDOF 19
ENDMDL
