MODEL 1
REMARK VINA RESULT:     -10.3      0.000      0.000
REMARK SMILES CC(C)SCC(=O)N1Cc2ccccc2C[C@H]1C(=O)OCCOCCOC(=O)c1ccc(-c2c3nc(c(-c4c(F)cccc4F)c4ccc([nH]4)c(-c4c(F)cccc4F)c4nc(c(-c5c(F)cccc5F)c5ccc2[nH]5)C=C4)C=C3)cc1
REMARK SMILES IDX 22 1 21 2 20 3 18 4 19 5 17 6 8 7 9 8 10 9 16 10 11 11 15 12
REMARK SMILES IDX 12 13 14 14 13 15 6 16 7 17 5 18 4 19 2 20 1 21 3 22 23 23
REMARK SMILES IDX 24 24 25 25 26 26 27 27 28 28 29 29 30 30 82 31 31 32 81 33
REMARK SMILES IDX 32 34 33 35 34 36 75 37 35 38 80 39 74 40 76 41 36 42 79 43
REMARK SMILES IDX 73 44 72 45 37 47 63 48 46 49 62 50 47 51 50 52 61 53 77 54
REMARK SMILES IDX 48 55 49 56 60 58 78 59 51 60 38 61 39 62 44 63 40 64 41 65
REMARK SMILES IDX 43 66 45 67 42 68 64 69 65 70 70 71 66 72 67 73 69 74 71 75
REMARK SMILES IDX 68 76 52 77 53 78 58 79 54 80 55 81 57 82 59 83 56 84
REMARK H PARENT 76 46 50 57
REMARK Flexibility Score: inf
ROOT
ATOM      1  C   UNL A   1      33.186  28.866  25.062  1.00  0.00     0.202 C 
ENDROOT
BRANCH   1   2
ATOM      2  C   UNL A   1      32.630  27.462  25.367  1.00  0.00     0.261 C 
BRANCH   2   3
ATOM      3  O   UNL A   1      33.588  26.392  25.593  1.00  0.00    -0.462 OA
BRANCH   3   4
ATOM      4  C   UNL A   1      33.027  25.169  25.785  1.00  0.00     0.329 C 
ATOM      5  O   UNL A   1      31.891  25.018  26.238  1.00  0.00    -0.250 OA
BRANCH   4   6
ATOM      6  C   UNL A   1      33.945  23.950  25.578  1.00  0.00     0.199 C 
ATOM      7  N   UNL A   1      33.682  22.850  24.584  1.00  0.00    -0.323 N 
ATOM      8  C   UNL A   1      34.842  22.458  23.756  1.00  0.00     0.156 C 
ATOM      9  C   UNL A   1      36.136  22.455  24.550  1.00  0.00    -0.025 A 
ATOM     10  C   UNL A   1      35.327  24.624  25.390  1.00  0.00     0.073 C 
ATOM     11  C   UNL A   1      37.066  21.415  24.528  1.00  0.00     0.006 A 
ATOM     12  C   UNL A   1      36.390  23.574  25.356  1.00  0.00    -0.040 A 
ATOM     13  C   UNL A   1      38.232  21.504  25.299  1.00  0.00     0.000 A 
ATOM     14  C   UNL A   1      37.559  23.673  26.112  1.00  0.00     0.004 A 
ATOM     15  C   UNL A   1      38.480  22.632  26.084  1.00  0.00     0.000 A 
BRANCH   7  16
ATOM     16  C   UNL A   1      33.037  21.699  25.087  1.00  0.00     0.233 C 
ATOM     17  O   UNL A   1      32.699  21.642  26.267  1.00  0.00    -0.274 OA
BRANCH  16  18
ATOM     18  C   UNL A   1      33.016  20.507  24.144  1.00  0.00     0.169 C 
BRANCH  18  19
ATOM     19  S   UNL A   1      33.823  18.981  24.773  1.00  0.00    -0.149 SA
BRANCH  19  20
ATOM     20  C   UNL A   1      33.188  17.600  23.722  1.00  0.00     0.041 C 
ATOM     21  C   UNL A   1      32.307  18.194  22.618  1.00  0.00     0.019 C 
ATOM     22  C   UNL A   1      34.286  16.743  23.107  1.00  0.00     0.019 C 
ENDBRANCH  19  20
ENDBRANCH  18  19
ENDBRANCH  16  18
ENDBRANCH   7  16
ENDBRANCH   4   6
ENDBRANCH   3   4
ENDBRANCH   2   3
ENDBRANCH   1   2
BRANCH   1  23
ATOM     23  O   UNL A   1      32.618  30.004  25.697  1.00  0.00    -0.374 OA
BRANCH  23  24
ATOM     24  C   UNL A   1      32.870  30.195  27.076  1.00  0.00     0.202 C 
BRANCH  24  25
ATOM     25  C   UNL A   1      34.249  30.703  27.506  1.00  0.00     0.261 C 
BRANCH  25  26
ATOM     26  O   UNL A   1      34.967  29.853  28.401  1.00  0.00    -0.460 OA
BRANCH  26  27
ATOM     27  C   UNL A   1      35.841  30.461  29.225  1.00  0.00     0.338 C 
ATOM     28  O   UNL A   1      35.629  31.374  30.007  1.00  0.00    -0.246 OA
BRANCH  27  29
ATOM     29  C   UNL A   1      37.157  29.845  29.019  1.00  0.00     0.060 A 
ATOM     30  C   UNL A   1      37.863  29.347  30.118  1.00  0.00     0.016 A 
ATOM     31  C   UNL A   1      37.714  29.822  27.738  1.00  0.00     0.016 A 
ATOM     32  C   UNL A   1      39.153  28.852  29.939  1.00  0.00     0.010 A 
ATOM     33  C   UNL A   1      39.001  29.307  27.560  1.00  0.00     0.010 A 
ATOM     34  C   UNL A   1      39.739  28.849  28.664  1.00  0.00    -0.014 A 
BRANCH  34  35
ATOM     35  C   UNL A   1      41.159  28.448  28.516  1.00  0.00     0.031 A 
ATOM     36  C   UNL A   1      41.502  27.029  28.160  1.00  0.00     0.074 A 
ATOM     37  C   UNL A   1      42.136  29.363  28.653  1.00  0.00     0.049 A 
ATOM     38  N   UNL A   1      42.672  26.495  27.916  1.00  0.00    -0.248 NA
ATOM     39  C   UNL A   1      40.378  26.086  28.068  1.00  0.00     0.031 C 
ATOM     40  C   UNL A   1      41.928  30.773  28.976  1.00  0.00     0.029 A 
ATOM     41  N   UNL A   1      43.495  29.243  28.519  1.00  0.00    -0.354 N 
ATOM     42  C   UNL A   1      42.426  25.157  27.637  1.00  0.00     0.074 A 
ATOM     43  C   UNL A   1      41.001  24.951  27.786  1.00  0.00     0.031 C 
ATOM     44  C   UNL A   1      43.118  31.395  28.992  1.00  0.00     0.029 A 
ATOM     45  C   UNL A   1      44.171  30.422  28.708  1.00  0.00     0.049 A 
ATOM     46  H   UNL A   1      43.943  28.392  28.308  1.00  0.00     0.167 HD
ATOM     47  C   UNL A   1      43.304  24.190  27.276  1.00  0.00     0.037 A 
ATOM     48  C   UNL A   1      45.490  30.687  28.656  1.00  0.00     0.037 A 
ATOM     49  C   UNL A   1      44.723  24.396  27.137  1.00  0.00     0.049 A 
ATOM     50  C   UNL A   1      46.455  29.583  28.326  1.00  0.00     0.074 A 
ATOM     51  C   UNL A   1      45.693  23.489  26.745  1.00  0.00     0.029 A 
ATOM     52  N   UNL A   1      45.379  25.589  27.402  1.00  0.00    -0.354 N 
ATOM     53  N   UNL A   1      46.207  28.333  28.017  1.00  0.00    -0.248 NA
ATOM     54  C   UNL A   1      47.884  29.927  28.338  1.00  0.00     0.031 C 
ATOM     55  C   UNL A   1      46.940  24.118  26.829  1.00  0.00     0.029 A 
ATOM     56  C   UNL A   1      46.744  25.433  27.219  1.00  0.00     0.049 A 
ATOM     57  H   UNL A   1      44.939  26.425  27.680  1.00  0.00     0.167 HD
ATOM     58  C   UNL A   1      47.443  27.749  27.769  1.00  0.00     0.074 A 
ATOM     59  C   UNL A   1      48.439  28.785  27.957  1.00  0.00     0.031 C 
ATOM     60  C   UNL A   1      47.727  26.471  27.413  1.00  0.00     0.037 A 
BRANCH  47  61
ATOM     61  C   UNL A   1      42.749  22.815  27.040  1.00  0.00     0.057 A 
ATOM     62  C   UNL A   1      42.586  22.290  25.750  1.00  0.00     0.134 A 
ATOM     63  C   UNL A   1      42.368  22.005  28.117  1.00  0.00     0.134 A 
ATOM     64  F   UNL A   1      42.920  23.018  24.673  1.00  0.00    -0.206 F 
ATOM     65  C   UNL A   1      42.029  21.027  25.540  1.00  0.00     0.040 A 
ATOM     66  C   UNL A   1      41.837  20.729  27.921  1.00  0.00     0.040 A 
ATOM     67  F   UNL A   1      42.503  22.441  29.379  1.00  0.00    -0.206 F 
ATOM     68  C   UNL A   1      41.655  20.241  26.628  1.00  0.00     0.006 A 
ENDBRANCH  47  61
BRANCH  48  69
ATOM     69  C   UNL A   1      45.971  32.070  28.899  1.00  0.00     0.057 A 
ATOM     70  C   UNL A   1      46.271  32.512  30.193  1.00  0.00     0.134 A 
ATOM     71  C   UNL A   1      46.156  32.976  27.848  1.00  0.00     0.134 A 
ATOM     72  F   UNL A   1      46.096  31.696  31.243  1.00  0.00    -0.206 F 
ATOM     73  C   UNL A   1      46.734  33.806  30.433  1.00  0.00     0.040 A 
ATOM     74  C   UNL A   1      46.640  34.265  28.071  1.00  0.00     0.040 A 
ATOM     75  F   UNL A   1      45.888  32.610  26.586  1.00  0.00    -0.206 F 
ATOM     76  C   UNL A   1      46.927  34.684  29.368  1.00  0.00     0.006 A 
ENDBRANCH  48  69
BRANCH  60  77
ATOM     77  C   UNL A   1      49.170  26.127  27.178  1.00  0.00     0.057 A 
ATOM     78  C   UNL A   1      49.760  26.231  25.912  1.00  0.00     0.134 A 
ATOM     79  C   UNL A   1      49.988  25.718  28.240  1.00  0.00     0.134 A 
ATOM     80  F   UNL A   1      49.030  26.604  24.849  1.00  0.00    -0.206 F 
ATOM     81  C   UNL A   1      51.105  25.919  25.706  1.00  0.00     0.040 A 
ATOM     82  C   UNL A   1      51.340  25.429  28.052  1.00  0.00     0.040 A 
ATOM     83  F   UNL A   1      49.488  25.604  29.480  1.00  0.00    -0.206 F 
ATOM     84  C   UNL A   1      51.901  25.523  26.780  1.00  0.00     0.006 A 
ENDBRANCH  60  77
ENDBRANCH  34  35
ENDBRANCH  27  29
ENDBRANCH  26  27
ENDBRANCH  25  26
ENDBRANCH  24  25
ENDBRANCH  23  24
ENDBRANCH   1  23
TORSDOF 18
ENDMDL
MODEL 2
REMARK VINA RESULT:     -10.3      1.907      6.452
REMARK SMILES CC(C)SCC(=O)N1Cc2ccccc2C[C@H]1C(=O)OCCOCCOC(=O)c1ccc(-c2c3nc(c(-c4c(F)cccc4F)c4ccc([nH]4)c(-c4c(F)cccc4F)c4nc(c(-c5c(F)cccc5F)c5ccc2[nH]5)C=C4)C=C3)cc1
REMARK SMILES IDX 22 1 21 2 20 3 18 4 19 5 17 6 8 7 9 8 10 9 16 10 11 11 15 12
REMARK SMILES IDX 12 13 14 14 13 15 6 16 7 17 5 18 4 19 2 20 1 21 3 22 23 23
REMARK SMILES IDX 24 24 25 25 26 26 27 27 28 28 29 29 30 30 82 31 31 32 81 33
REMARK SMILES IDX 32 34 33 35 34 36 75 37 35 38 80 39 74 40 76 41 36 42 79 43
REMARK SMILES IDX 73 44 72 45 37 47 63 48 46 49 62 50 47 51 50 52 61 53 77 54
REMARK SMILES IDX 48 55 49 56 60 58 78 59 51 60 38 61 39 62 44 63 40 64 41 65
REMARK SMILES IDX 43 66 45 67 42 68 64 69 65 70 70 71 66 72 67 73 69 74 71 75
REMARK SMILES IDX 68 76 52 77 53 78 58 79 54 80 55 81 57 82 59 83 56 84
REMARK H PARENT 76 46 50 57
REMARK Flexibility Score: inf
ROOT
ATOM      1  C   UNL A   1      32.954  28.348  24.377  1.00  0.00     0.202 C 
ENDROOT
BRANCH   1   2
ATOM      2  C   UNL A   1      32.848  26.815  24.497  1.00  0.00     0.261 C 
BRANCH   2   3
ATOM      3  O   UNL A   1      33.633  26.163  25.532  1.00  0.00    -0.462 OA
BRANCH   3   4
ATOM      4  C   UNL A   1      33.136  24.967  25.943  1.00  0.00     0.329 C 
ATOM      5  O   UNL A   1      32.043  24.853  26.500  1.00  0.00    -0.250 OA
BRANCH   4   6
ATOM      6  C   UNL A   1      34.085  23.757  25.846  1.00  0.00     0.199 C 
ATOM      7  N   UNL A   1      33.781  22.502  25.073  1.00  0.00    -0.323 N 
ATOM      8  C   UNL A   1      34.876  22.013  24.209  1.00  0.00     0.156 C 
ATOM      9  C   UNL A   1      36.236  22.178  24.863  1.00  0.00    -0.025 A 
ATOM     10  C   UNL A   1      35.413  24.430  25.419  1.00  0.00     0.073 C 
ATOM     11  C   UNL A   1      37.206  21.175  24.918  1.00  0.00     0.006 A 
ATOM     12  C   UNL A   1      36.514  23.420  25.450  1.00  0.00    -0.040 A 
ATOM     13  C   UNL A   1      38.432  21.423  25.547  1.00  0.00     0.000 A 
ATOM     14  C   UNL A   1      37.741  23.676  26.063  1.00  0.00     0.004 A 
ATOM     15  C   UNL A   1      38.701  22.672  26.113  1.00  0.00     0.000 A 
BRANCH   7  16
ATOM     16  C   UNL A   1      33.236  21.432  25.815  1.00  0.00     0.233 C 
ATOM     17  O   UNL A   1      33.580  21.243  26.979  1.00  0.00    -0.274 OA
BRANCH  16  18
ATOM     18  C   UNL A   1      32.410  20.442  25.008  1.00  0.00     0.169 C 
BRANCH  18  19
ATOM     19  S   UNL A   1      32.838  18.671  25.244  1.00  0.00    -0.149 SA
BRANCH  19  20
ATOM     20  C   UNL A   1      33.408  18.061  23.595  1.00  0.00     0.041 C 
ATOM     21  C   UNL A   1      33.869  16.608  23.748  1.00  0.00     0.019 C 
ATOM     22  C   UNL A   1      32.349  18.159  22.506  1.00  0.00     0.019 C 
ENDBRANCH  19  20
ENDBRANCH  18  19
ENDBRANCH  16  18
ENDBRANCH   7  16
ENDBRANCH   4   6
ENDBRANCH   3   4
ENDBRANCH   2   3
ENDBRANCH   1   2
BRANCH   1  23
ATOM     23  O   UNL A   1      31.901  29.169  24.864  1.00  0.00    -0.374 OA
BRANCH  23  24
ATOM     24  C   UNL A   1      31.865  29.456  26.249  1.00  0.00     0.202 C 
BRANCH  24  25
ATOM     25  C   UNL A   1      32.889  30.439  26.822  1.00  0.00     0.261 C 
BRANCH  25  26
ATOM     26  O   UNL A   1      33.896  29.865  27.656  1.00  0.00    -0.460 OA
BRANCH  26  27
ATOM     27  C   UNL A   1      34.674  30.732  28.331  1.00  0.00     0.338 C 
ATOM     28  O   UNL A   1      34.372  31.829  28.773  1.00  0.00    -0.246 OA
BRANCH  27  29
ATOM     29  C   UNL A   1      36.012  30.140  28.445  1.00  0.00     0.060 A 
ATOM     30  C   UNL A   1      36.427  29.611  29.670  1.00  0.00     0.016 A 
ATOM     31  C   UNL A   1      36.876  30.173  27.348  1.00  0.00     0.016 A 
ATOM     32  C   UNL A   1      37.731  29.138  29.809  1.00  0.00     0.010 A 
ATOM     33  C   UNL A   1      38.176  29.681  27.485  1.00  0.00     0.010 A 
ATOM     34  C   UNL A   1      38.620  29.191  28.724  1.00  0.00    -0.014 A 
BRANCH  34  35
ATOM     35  C   UNL A   1      40.041  28.813  28.929  1.00  0.00     0.031 A 
ATOM     36  C   UNL A   1      40.964  29.747  29.659  1.00  0.00     0.074 A 
ATOM     37  C   UNL A   1      40.488  27.618  28.505  1.00  0.00     0.049 A 
ATOM     38  N   UNL A   1      42.216  29.574  30.002  1.00  0.00    -0.248 NA
ATOM     39  C   UNL A   1      40.405  31.047  30.054  1.00  0.00     0.031 C 
ATOM     40  C   UNL A   1      39.683  26.619  27.803  1.00  0.00     0.029 A 
ATOM     41  N   UNL A   1      41.725  27.037  28.618  1.00  0.00    -0.354 N 
ATOM     42  C   UNL A   1      42.592  30.740  30.656  1.00  0.00     0.074 A 
ATOM     43  C   UNL A   1      41.451  31.629  30.622  1.00  0.00     0.031 C 
ATOM     44  C   UNL A   1      40.442  25.535  27.570  1.00  0.00     0.029 A 
ATOM     45  C   UNL A   1      41.791  25.776  28.079  1.00  0.00     0.049 A 
ATOM     46  H   UNL A   1      42.492  27.482  29.045  1.00  0.00     0.167 HD
ATOM     47  C   UNL A   1      43.777  31.038  31.244  1.00  0.00     0.037 A 
ATOM     48  C   UNL A   1      42.822  24.914  28.007  1.00  0.00     0.037 A 
ATOM     49  C   UNL A   1      44.914  30.154  31.268  1.00  0.00     0.049 A 
ATOM     50  C   UNL A   1      44.149  25.294  28.601  1.00  0.00     0.074 A 
ATOM     51  C   UNL A   1      46.147  30.351  31.866  1.00  0.00     0.029 A 
ATOM     52  N   UNL A   1      44.963  28.912  30.653  1.00  0.00    -0.354 N 
ATOM     53  N   UNL A   1      44.480  26.379  29.259  1.00  0.00    -0.248 NA
ATOM     54  C   UNL A   1      45.247  24.330  28.442  1.00  0.00     0.031 C 
ATOM     55  C   UNL A   1      46.960  29.252  31.563  1.00  0.00     0.029 A 
ATOM     56  C   UNL A   1      46.217  28.346  30.824  1.00  0.00     0.049 A 
ATOM     57  H   UNL A   1      44.216  28.493  30.167  1.00  0.00     0.167 HD
ATOM     58  C   UNL A   1      45.813  26.216  29.617  1.00  0.00     0.074 A 
ATOM     59  C   UNL A   1      46.226  24.923  29.109  1.00  0.00     0.031 C 
ATOM     60  C   UNL A   1      46.619  27.060  30.310  1.00  0.00     0.037 A 
BRANCH  47  61
ATOM     61  C   UNL A   1      43.903  32.393  31.879  1.00  0.00     0.057 A 
ATOM     62  C   UNL A   1      44.337  33.514  31.158  1.00  0.00     0.134 A 
ATOM     63  C   UNL A   1      43.589  32.579  33.231  1.00  0.00     0.134 A 
ATOM     64  F   UNL A   1      44.665  33.404  29.862  1.00  0.00    -0.206 F 
ATOM     65  C   UNL A   1      44.491  34.760  31.769  1.00  0.00     0.040 A 
ATOM     66  C   UNL A   1      43.711  33.826  33.846  1.00  0.00     0.040 A 
ATOM     67  F   UNL A   1      43.160  31.551  33.979  1.00  0.00    -0.206 F 
ATOM     68  C   UNL A   1      44.175  34.920  33.117  1.00  0.00     0.006 A 
ENDBRANCH  47  61
BRANCH  48  69
ATOM     69  C   UNL A   1      42.627  23.590  27.366  1.00  0.00     0.057 A 
ATOM     70  C   UNL A   1      42.799  23.424  25.987  1.00  0.00     0.134 A 
ATOM     71  C   UNL A   1      42.281  22.458  28.114  1.00  0.00     0.134 A 
ATOM     72  F   UNL A   1      43.112  24.474  25.214  1.00  0.00    -0.206 F 
ATOM     73  C   UNL A   1      42.629  22.182  25.374  1.00  0.00     0.040 A 
ATOM     74  C   UNL A   1      42.130  21.206  27.518  1.00  0.00     0.040 A 
ATOM     75  F   UNL A   1      42.105  22.553  29.441  1.00  0.00    -0.206 F 
ATOM     76  C   UNL A   1      42.301  21.066  26.143  1.00  0.00     0.006 A 
ENDBRANCH  48  69
BRANCH  60  77
ATOM     77  C   UNL A   1      48.023  26.600  30.581  1.00  0.00     0.057 A 
ATOM     78  C   UNL A   1      48.348  25.833  31.707  1.00  0.00     0.134 A 
ATOM     79  C   UNL A   1      49.057  26.902  29.685  1.00  0.00     0.134 A 
ATOM     80  F   UNL A   1      47.407  25.520  32.612  1.00  0.00    -0.206 F 
ATOM     81  C   UNL A   1      49.654  25.402  31.944  1.00  0.00     0.040 A 
ATOM     82  C   UNL A   1      50.362  26.454  29.897  1.00  0.00     0.040 A 
ATOM     83  F   UNL A   1      48.814  27.627  28.583  1.00  0.00    -0.206 F 
ATOM     84  C   UNL A   1      50.665  25.707  31.034  1.00  0.00     0.006 A 
ENDBRANCH  60  77
ENDBRANCH  34  35
ENDBRANCH  27  29
ENDBRANCH  26  27
ENDBRANCH  25  26
ENDBRANCH  24  25
ENDBRANCH  23  24
ENDBRANCH   1  23
TORSDOF 18
ENDMDL
MODEL 3
REMARK VINA RESULT:     -10.2      3.369      6.760
REMARK SMILES CC(C)SCC(=O)N1Cc2ccccc2C[C@H]1C(=O)OCCOCCOC(=O)c1ccc(-c2c3nc(c(-c4c(F)cccc4F)c4ccc([nH]4)c(-c4c(F)cccc4F)c4nc(c(-c5c(F)cccc5F)c5ccc2[nH]5)C=C4)C=C3)cc1
REMARK SMILES IDX 22 1 21 2 20 3 18 4 19 5 17 6 8 7 9 8 10 9 16 10 11 11 15 12
REMARK SMILES IDX 12 13 14 14 13 15 6 16 7 17 5 18 4 19 2 20 1 21 3 22 23 23
REMARK SMILES IDX 24 24 25 25 26 26 27 27 28 28 29 29 30 30 82 31 31 32 81 33
REMARK SMILES IDX 32 34 33 35 34 36 75 37 35 38 80 39 74 40 76 41 36 42 79 43
REMARK SMILES IDX 73 44 72 45 37 47 63 48 46 49 62 50 47 51 50 52 61 53 77 54
REMARK SMILES IDX 48 55 49 56 60 58 78 59 51 60 38 61 39 62 44 63 40 64 41 65
REMARK SMILES IDX 43 66 45 67 42 68 64 69 65 70 70 71 66 72 67 73 69 74 71 75
REMARK SMILES IDX 68 76 52 77 53 78 58 79 54 80 55 81 57 82 59 83 56 84
REMARK H PARENT 76 46 50 57
REMARK Flexibility Score: inf
ROOT
ATOM      1  C   UNL A   1      32.453  27.969  24.425  1.00  0.00     0.202 C 
ENDROOT
BRANCH   1   2
ATOM      2  C   UNL A   1      31.791  26.597  24.663  1.00  0.00     0.261 C 
BRANCH   2   3
ATOM      3  O   UNL A   1      32.616  25.412  24.489  1.00  0.00    -0.462 OA
BRANCH   3   4
ATOM      4  C   UNL A   1      32.746  24.651  25.609  1.00  0.00     0.329 C 
ATOM      5  O   UNL A   1      32.114  24.872  26.644  1.00  0.00    -0.250 OA
BRANCH   4   6
ATOM      6  C   UNL A   1      33.863  23.592  25.595  1.00  0.00     0.199 C 
ATOM      7  N   UNL A   1      33.822  22.328  24.779  1.00  0.00    -0.323 N 
ATOM      8  C   UNL A   1      35.057  22.022  24.027  1.00  0.00     0.156 C 
ATOM      9  C   UNL A   1      36.306  22.360  24.819  1.00  0.00    -0.025 A 
ATOM     10  C   UNL A   1      35.117  24.458  25.314  1.00  0.00     0.073 C 
ATOM     11  C   UNL A   1      37.400  21.504  24.961  1.00  0.00     0.006 A 
ATOM     12  C   UNL A   1      36.343  23.614  25.446  1.00  0.00    -0.040 A 
ATOM     13  C   UNL A   1      38.509  21.907  25.715  1.00  0.00     0.000 A 
ATOM     14  C   UNL A   1      37.453  24.024  26.185  1.00  0.00     0.004 A 
ATOM     15  C   UNL A   1      38.538  23.165  26.320  1.00  0.00     0.000 A 
BRANCH   7  16
ATOM     16  C   UNL A   1      33.365  21.171  25.448  1.00  0.00     0.233 C 
ATOM     17  O   UNL A   1      33.648  20.983  26.629  1.00  0.00    -0.274 OA
BRANCH  16  18
ATOM     18  C   UNL A   1      32.729  20.118  24.555  1.00  0.00     0.169 C 
BRANCH  18  19
ATOM     19  S   UNL A   1      32.863  18.385  25.148  1.00  0.00    -0.149 SA
BRANCH  19  20
ATOM     20  C   UNL A   1      32.835  17.325  23.634  1.00  0.00     0.041 C 
ATOM     21  C   UNL A   1      32.390  18.186  22.447  1.00  0.00     0.019 C 
ATOM     22  C   UNL A   1      34.170  16.663  23.325  1.00  0.00     0.019 C 
ENDBRANCH  19  20
ENDBRANCH  18  19
ENDBRANCH  16  18
ENDBRANCH   7  16
ENDBRANCH   4   6
ENDBRANCH   3   4
ENDBRANCH   2   3
ENDBRANCH   1   2
BRANCH   1  23
ATOM     23  O   UNL A   1      31.706  29.159  24.640  1.00  0.00    -0.374 OA
BRANCH  23  24
ATOM     24  C   UNL A   1      31.987  29.925  25.796  1.00  0.00     0.202 C 
BRANCH  24  25
ATOM     25  C   UNL A   1      33.435  30.008  26.286  1.00  0.00     0.261 C 
BRANCH  25  26
ATOM     26  O   UNL A   1      33.600  30.298  27.674  1.00  0.00    -0.460 OA
BRANCH  26  27
ATOM     27  C   UNL A   1      34.519  31.232  27.982  1.00  0.00     0.338 C 
ATOM     28  O   UNL A   1      34.389  32.446  27.976  1.00  0.00    -0.246 OA
BRANCH  27  29
ATOM     29  C   UNL A   1      35.767  30.541  28.324  1.00  0.00     0.060 A 
ATOM     30  C   UNL A   1      35.793  29.669  29.416  1.00  0.00     0.016 A 
ATOM     31  C   UNL A   1      36.928  30.813  27.596  1.00  0.00     0.016 A 
ATOM     32  C   UNL A   1      36.999  29.087  29.804  1.00  0.00     0.010 A 
ATOM     33  C   UNL A   1      38.131  30.214  27.976  1.00  0.00     0.010 A 
ATOM     34  C   UNL A   1      38.179  29.374  29.101  1.00  0.00    -0.014 A 
BRANCH  34  35
ATOM     35  C   UNL A   1      39.473  28.857  29.610  1.00  0.00     0.031 A 
ATOM     36  C   UNL A   1      40.094  29.474  30.832  1.00  0.00     0.074 A 
ATOM     37  C   UNL A   1      40.065  27.810  29.009  1.00  0.00     0.049 A 
ATOM     38  N   UNL A   1      41.179  29.124  31.476  1.00  0.00    -0.248 NA
ATOM     39  C   UNL A   1      39.402  30.637  31.404  1.00  0.00     0.031 C 
ATOM     40  C   UNL A   1      39.550  27.115  27.831  1.00  0.00     0.029 A 
ATOM     41  N   UNL A   1      41.220  27.139  29.320  1.00  0.00    -0.354 N 
ATOM     42  C   UNL A   1      41.298  30.021  32.530  1.00  0.00     0.074 A 
ATOM     43  C   UNL A   1      40.200  30.956  32.412  1.00  0.00     0.031 C 
ATOM     44  C   UNL A   1      40.374  26.097  27.531  1.00  0.00     0.029 A 
ATOM     45  C   UNL A   1      41.487  26.088  28.479  1.00  0.00     0.049 A 
ATOM     46  H   UNL A   1      41.801  27.387  30.074  1.00  0.00     0.167 HD
ATOM     47  C   UNL A   1      42.229  30.053  33.515  1.00  0.00     0.037 A 
ATOM     48  C   UNL A   1      42.512  25.215  28.474  1.00  0.00     0.037 A 
ATOM     49  C   UNL A   1      43.326  29.126  33.624  1.00  0.00     0.049 A 
ATOM     50  C   UNL A   1      43.574  25.316  29.533  1.00  0.00     0.074 A 
ATOM     51  C   UNL A   1      44.303  29.056  34.602  1.00  0.00     0.029 A 
ATOM     52  N   UNL A   1      43.600  28.116  32.714  1.00  0.00    -0.354 N 
ATOM     53  N   UNL A   1      43.651  26.137  30.552  1.00  0.00    -0.248 NA
ATOM     54  C   UNL A   1      44.693  24.367  29.440  1.00  0.00     0.031 C 
ATOM     55  C   UNL A   1      45.200  28.040  34.252  1.00  0.00     0.029 A 
ATOM     56  C   UNL A   1      44.752  27.441  33.086  1.00  0.00     0.049 A 
ATOM     57  H   UNL A   1      43.056  27.908  31.920  1.00  0.00     0.167 HD
ATOM     58  C   UNL A   1      44.808  25.787  31.238  1.00  0.00     0.074 A 
ATOM     59  C   UNL A   1      45.396  24.673  30.521  1.00  0.00     0.031 C 
ATOM     60  C   UNL A   1      45.332  26.336  32.362  1.00  0.00     0.037 A 
BRANCH  47  61
ATOM     61  C   UNL A   1      42.111  31.153  34.530  1.00  0.00     0.057 A 
ATOM     62  C   UNL A   1      42.785  32.374  34.386  1.00  0.00     0.134 A 
ATOM     63  C   UNL A   1      41.315  30.989  35.671  1.00  0.00     0.134 A 
ATOM     64  F   UNL A   1      43.574  32.594  33.323  1.00  0.00    -0.206 F 
ATOM     65  C   UNL A   1      42.702  33.374  35.357  1.00  0.00     0.040 A 
ATOM     66  C   UNL A   1      41.201  31.992  36.635  1.00  0.00     0.040 A 
ATOM     67  F   UNL A   1      40.636  29.849  35.869  1.00  0.00    -0.206 F 
ATOM     68  C   UNL A   1      41.905  33.185  36.485  1.00  0.00     0.006 A 
ENDBRANCH  47  61
BRANCH  48  69
ATOM     69  C   UNL A   1      42.566  24.152  27.441  1.00  0.00     0.057 A 
ATOM     70  C   UNL A   1      42.066  22.870  27.699  1.00  0.00     0.134 A 
ATOM     71  C   UNL A   1      43.104  24.391  26.171  1.00  0.00     0.134 A 
ATOM     72  F   UNL A   1      41.556  22.574  28.903  1.00  0.00    -0.206 F 
ATOM     73  C   UNL A   1      42.101  21.864  26.733  1.00  0.00     0.040 A 
ATOM     74  C   UNL A   1      43.126  23.402  25.187  1.00  0.00     0.040 A 
ATOM     75  F   UNL A   1      43.596  25.600  25.862  1.00  0.00    -0.206 F 
ATOM     76  C   UNL A   1      42.626  22.132  25.469  1.00  0.00     0.006 A 
ENDBRANCH  48  69
BRANCH  60  77
ATOM     77  C   UNL A   1      46.592  25.723  32.903  1.00  0.00     0.057 A 
ATOM     78  C   UNL A   1      46.568  24.693  33.851  1.00  0.00     0.134 A 
ATOM     79  C   UNL A   1      47.845  26.148  32.444  1.00  0.00     0.134 A 
ATOM     80  F   UNL A   1      45.401  24.247  34.343  1.00  0.00    -0.206 F 
ATOM     81  C   UNL A   1      47.745  24.122  34.340  1.00  0.00     0.040 A 
ATOM     82  C   UNL A   1      49.029  25.568  32.905  1.00  0.00     0.040 A 
ATOM     83  F   UNL A   1      47.941  27.127  31.531  1.00  0.00    -0.206 F 
ATOM     84  C   UNL A   1      48.980  24.556  33.861  1.00  0.00     0.006 A 
ENDBRANCH  60  77
ENDBRANCH  34  35
ENDBRANCH  27  29
ENDBRANCH  26  27
ENDBRANCH  25  26
ENDBRANCH  24  25
ENDBRANCH  23  24
ENDBRANCH   1  23
TORSDOF 18
ENDMDL
