MODEL 1
REMARK VINA RESULT:     -11.3      0.000      0.000
REMARK SMILES CCCC(=O)N(c1cc2sc(=O)oc2c2ccccc12)S(=O)(=O)c1ccc(C(=O)OCCOCCOC(=O)c2ccc(-c3c4nc(c(-c5c(F)cccc5F)c5ccc([nH]5)c(-c5c(F)cccc5F)c5nc(c(-c6c(F)cccc6F)c6ccc3[nH]6)C=C5)C=C4)cc2)cc1
REMARK SMILES IDX 31 1 30 2 28 3 29 4 27 5 24 6 25 7 94 8 26 9 93 10 21 11
REMARK SMILES IDX 22 12 23 13 6 14 4 15 5 16 3 17 2 18 1 19 7 20 8 21 20 22
REMARK SMILES IDX 9 23 15 24 19 25 10 26 14 27 16 28 18 29 11 30 13 31 17 32
REMARK SMILES IDX 12 33 32 34 33 35 34 36 35 37 36 38 37 39 38 40 39 41 40 42
REMARK SMILES IDX 92 43 41 44 91 45 42 46 43 47 44 48 85 49 45 50 90 51 84 52
REMARK SMILES IDX 86 53 46 54 89 55 83 56 82 57 47 59 73 60 56 61 72 62 57 63
REMARK SMILES IDX 60 64 71 65 87 66 58 67 59 68 70 70 88 71 61 72 48 73 49 74
REMARK SMILES IDX 54 75 50 76 51 77 53 78 55 79 52 80 74 81 75 82 80 83 76 84
REMARK SMILES IDX 77 85 79 86 81 87 78 88 62 89 63 90 68 91 64 92 65 93 67 94
REMARK SMILES IDX 69 95 66 96
REMARK H PARENT 86 58 60 69
REMARK Flexibility Score: inf
ROOT
ATOM      1  C   UNL A   1      37.703  20.563  25.144  1.00  0.00     0.261 C 
ENDROOT
BRANCH   1   2
ATOM      2  O   UNL A   1      36.661  21.511  25.415  1.00  0.00    -0.460 OA
BRANCH   2   3
ATOM      3  C   UNL A   1      35.445  21.196  24.903  1.00  0.00     0.338 C 
ATOM      4  O   UNL A   1      34.854  20.134  25.010  1.00  0.00    -0.246 OA
BRANCH   3   5
ATOM      5  C   UNL A   1      34.825  22.399  24.295  1.00  0.00     0.060 A 
ATOM      6  C   UNL A   1      33.563  24.583  23.094  1.00  0.00     0.088 A 
ATOM      7  C   UNL A   1      33.295  23.293  22.628  1.00  0.00     0.023 A 
ATOM      8  C   UNL A   1      34.406  24.780  24.198  1.00  0.00     0.023 A 
ATOM      9  C   UNL A   1      33.932  22.203  23.228  1.00  0.00     0.017 A 
ATOM     10  C   UNL A   1      35.056  23.690  24.783  1.00  0.00     0.017 A 
BRANCH   6  11
ATOM     11  S   UNL A   1      32.803  26.009  22.309  1.00  0.00     0.270 S 
ATOM     12  O   UNL A   1      32.541  25.604  20.944  1.00  0.00    -0.201 OA
ATOM     13  O   UNL A   1      33.661  27.138  22.617  1.00  0.00    -0.201 OA
BRANCH  11  14
ATOM     14  N   UNL A   1      31.335  26.265  23.125  1.00  0.00    -0.202 N 
BRANCH  14  15
ATOM     15  C   UNL A   1      30.721  25.194  23.847  1.00  0.00     0.241 C 
ATOM     16  O   UNL A   1      30.046  24.336  23.284  1.00  0.00    -0.273 OA
BRANCH  15  17
ATOM     17  C   UNL A   1      30.858  25.164  25.366  1.00  0.00     0.101 C 
BRANCH  17  18
ATOM     18  C   UNL A   1      31.326  23.818  25.920  1.00  0.00     0.006 C 
ATOM     19  C   UNL A   1      30.254  23.132  26.758  1.00  0.00     0.004 C 
ENDBRANCH  17  18
ENDBRANCH  15  17
ENDBRANCH  14  15
BRANCH  14  20
ATOM     20  C   UNL A   1      30.928  27.607  23.424  1.00  0.00     0.070 A 
ATOM     21  C   UNL A   1      29.908  28.129  22.612  1.00  0.00     0.051 A 
ATOM     22  C   UNL A   1      31.520  28.386  24.467  1.00  0.00     0.010 A 
ATOM     23  C   UNL A   1      29.486  29.424  22.817  1.00  0.00     0.080 A 
ATOM     24  C   UNL A   1      30.984  29.672  24.720  1.00  0.00     0.028 A 
ATOM     25  C   UNL A   1      32.585  27.948  25.294  1.00  0.00     0.011 A 
ATOM     26  S   UNL A   1      28.309  30.327  21.890  1.00  0.00    -0.052 S 
ATOM     27  C   UNL A   1      29.999  30.177  23.861  1.00  0.00     0.157 A 
ATOM     28  C   UNL A   1      31.425  30.400  25.838  1.00  0.00     0.013 A 
ATOM     29  C   UNL A   1      33.006  28.688  26.404  1.00  0.00     0.001 A 
ATOM     30  C   UNL A   1      28.576  31.695  22.976  1.00  0.00     0.396 A 
ATOM     31  O   UNL A   1      29.486  31.472  24.005  1.00  0.00    -0.413 OA
ATOM     32  C   UNL A   1      32.405  29.903  26.691  1.00  0.00     0.001 A 
ATOM     33  O   UNL A   1      27.988  32.758  22.828  1.00  0.00    -0.233 OA
ENDBRANCH  14  20
ENDBRANCH  11  14
ENDBRANCH   6  11
ENDBRANCH   3   5
ENDBRANCH   2   3
ENDBRANCH   1   2
BRANCH   1  34
ATOM     34  C   UNL A   1      39.045  21.011  25.737  1.00  0.00     0.202 C 
BRANCH  34  35
ATOM     35  O   UNL A   1      39.120  22.358  26.198  1.00  0.00    -0.374 OA
BRANCH  35  36
ATOM     36  C   UNL A   1      40.130  22.686  27.158  1.00  0.00     0.202 C 
BRANCH  36  37
ATOM     37  C   UNL A   1      41.453  23.244  26.616  1.00  0.00     0.261 C 
BRANCH  37  38
ATOM     38  O   UNL A   1      41.788  24.472  27.288  1.00  0.00    -0.460 OA
BRANCH  38  39
ATOM     39  C   UNL A   1      41.251  25.606  26.766  1.00  0.00     0.338 C 
ATOM     40  O   UNL A   1      40.909  25.827  25.631  1.00  0.00    -0.246 OA
BRANCH  39  41
ATOM     41  C   UNL A   1      40.938  26.466  27.920  1.00  0.00     0.060 A 
ATOM     42  C   UNL A   1      39.617  26.654  28.319  1.00  0.00     0.016 A 
ATOM     43  C   UNL A   1      41.988  27.154  28.536  1.00  0.00     0.016 A 
ATOM     44  C   UNL A   1      39.347  27.560  29.340  1.00  0.00     0.010 A 
ATOM     45  C   UNL A   1      41.710  28.089  29.527  1.00  0.00     0.010 A 
ATOM     46  C   UNL A   1      40.389  28.291  29.941  1.00  0.00    -0.014 A 
BRANCH  46  47
ATOM     47  C   UNL A   1      40.039  29.206  31.046  1.00  0.00     0.031 A 
ATOM     48  C   UNL A   1      40.943  29.164  32.246  1.00  0.00     0.074 A 
ATOM     49  C   UNL A   1      39.456  30.384  30.739  1.00  0.00     0.049 A 
ATOM     50  N   UNL A   1      42.068  29.808  32.362  1.00  0.00    -0.248 NA
ATOM     51  C   UNL A   1      40.723  28.170  33.299  1.00  0.00     0.031 C 
ATOM     52  C   UNL A   1      39.927  31.263  29.663  1.00  0.00     0.029 A 
ATOM     53  N   UNL A   1      38.550  31.145  31.446  1.00  0.00    -0.354 N 
ATOM     54  C   UNL A   1      42.714  29.308  33.484  1.00  0.00     0.074 A 
ATOM     55  C   UNL A   1      41.840  28.295  34.031  1.00  0.00     0.031 C 
ATOM     56  C   UNL A   1      39.419  32.493  29.866  1.00  0.00     0.029 A 
ATOM     57  C   UNL A   1      38.511  32.471  31.017  1.00  0.00     0.049 A 
ATOM     58  H   UNL A   1      37.990  30.792  32.174  1.00  0.00     0.167 HD
ATOM     59  C   UNL A   1      43.925  29.743  33.923  1.00  0.00     0.037 A 
ATOM     60  C   UNL A   1      38.292  33.530  31.843  1.00  0.00     0.037 A 
ATOM     61  C   UNL A   1      44.524  30.800  33.170  1.00  0.00     0.049 A 
ATOM     62  C   UNL A   1      39.642  33.693  32.482  1.00  0.00     0.074 A 
ATOM     63  C   UNL A   1      45.435  30.933  32.146  1.00  0.00     0.029 A 
ATOM     64  N   UNL A   1      44.122  32.085  33.448  1.00  0.00    -0.354 N 
ATOM     65  N   UNL A   1      40.673  34.281  31.942  1.00  0.00    -0.248 NA
ATOM     66  C   UNL A   1      39.957  32.839  33.628  1.00  0.00     0.031 C 
ATOM     67  C   UNL A   1      45.166  32.212  31.564  1.00  0.00     0.029 A 
ATOM     68  C   UNL A   1      44.075  32.744  32.248  1.00  0.00     0.049 A 
ATOM     69  H   UNL A   1      43.911  32.458  34.334  1.00  0.00     0.167 HD
ATOM     70  C   UNL A   1      41.789  33.653  32.497  1.00  0.00     0.074 A 
ATOM     71  C   UNL A   1      41.282  32.825  33.573  1.00  0.00     0.031 C 
ATOM     72  C   UNL A   1      43.023  33.672  31.914  1.00  0.00     0.037 A 
BRANCH  59  73
ATOM     73  C   UNL A   1      44.548  29.352  35.203  1.00  0.00     0.057 A 
ATOM     74  C   UNL A   1      44.190  29.931  36.421  1.00  0.00     0.134 A 
ATOM     75  C   UNL A   1      45.335  28.194  35.235  1.00  0.00     0.134 A 
ATOM     76  F   UNL A   1      43.420  31.029  36.455  1.00  0.00    -0.206 F 
ATOM     77  C   UNL A   1      44.574  29.351  37.634  1.00  0.00     0.040 A 
ATOM     78  C   UNL A   1      45.718  27.600  36.435  1.00  0.00     0.040 A 
ATOM     79  F   UNL A   1      45.681  27.586  34.088  1.00  0.00    -0.206 F 
ATOM     80  C   UNL A   1      45.324  28.173  37.642  1.00  0.00     0.006 A 
ENDBRANCH  59  73
BRANCH  60  81
ATOM     81  C   UNL A   1      36.995  33.569  32.580  1.00  0.00     0.057 A 
ATOM     82  C   UNL A   1      36.780  34.014  33.888  1.00  0.00     0.134 A 
ATOM     83  C   UNL A   1      35.841  33.159  31.890  1.00  0.00     0.134 A 
ATOM     84  F   UNL A   1      37.768  34.547  34.617  1.00  0.00    -0.206 F 
ATOM     85  C   UNL A   1      35.525  33.930  34.506  1.00  0.00     0.040 A 
ATOM     86  C   UNL A   1      34.579  33.079  32.483  1.00  0.00     0.040 A 
ATOM     87  F   UNL A   1      35.919  32.842  30.593  1.00  0.00    -0.206 F 
ATOM     88  C   UNL A   1      34.423  33.445  33.810  1.00  0.00     0.006 A 
ENDBRANCH  60  81
BRANCH  72  89
ATOM     89  C   UNL A   1      43.125  34.498  30.677  1.00  0.00     0.057 A 
ATOM     90  C   UNL A   1      42.973  33.929  29.404  1.00  0.00     0.134 A 
ATOM     91  C   UNL A   1      43.367  35.872  30.747  1.00  0.00     0.134 A 
ATOM     92  F   UNL A   1      42.709  32.620  29.258  1.00  0.00    -0.206 F 
ATOM     93  C   UNL A   1      43.094  34.692  28.243  1.00  0.00     0.040 A 
ATOM     94  C   UNL A   1      43.462  36.651  29.594  1.00  0.00     0.040 A 
ATOM     95  F   UNL A   1      43.526  36.475  31.936  1.00  0.00    -0.206 F 
ATOM     96  C   UNL A   1      43.336  36.060  28.338  1.00  0.00     0.006 A 
ENDBRANCH  72  89
ENDBRANCH  46  47
ENDBRANCH  39  41
ENDBRANCH  38  39
ENDBRANCH  37  38
ENDBRANCH  36  37
ENDBRANCH  35  36
ENDBRANCH  34  35
ENDBRANCH   1  34
TORSDOF 20
ENDMDL
MODEL 2
REMARK VINA RESULT:     -11.3      1.957      3.024
REMARK SMILES CCCC(=O)N(c1cc2sc(=O)oc2c2ccccc12)S(=O)(=O)c1ccc(C(=O)OCCOCCOC(=O)c2ccc(-c3c4nc(c(-c5c(F)cccc5F)c5ccc([nH]5)c(-c5c(F)cccc5F)c5nc(c(-c6c(F)cccc6F)c6ccc3[nH]6)C=C5)C=C4)cc2)cc1
REMARK SMILES IDX 31 1 30 2 28 3 29 4 27 5 24 6 25 7 94 8 26 9 93 10 21 11
REMARK SMILES IDX 22 12 23 13 6 14 4 15 5 16 3 17 2 18 1 19 7 20 8 21 20 22
REMARK SMILES IDX 9 23 15 24 19 25 10 26 14 27 16 28 18 29 11 30 13 31 17 32
REMARK SMILES IDX 12 33 32 34 33 35 34 36 35 37 36 38 37 39 38 40 39 41 40 42
REMARK SMILES IDX 92 43 41 44 91 45 42 46 43 47 44 48 85 49 45 50 90 51 84 52
REMARK SMILES IDX 86 53 46 54 89 55 83 56 82 57 47 59 73 60 56 61 72 62 57 63
REMARK SMILES IDX 60 64 71 65 87 66 58 67 59 68 70 70 88 71 61 72 48 73 49 74
REMARK SMILES IDX 54 75 50 76 51 77 53 78 55 79 52 80 74 81 75 82 80 83 76 84
REMARK SMILES IDX 77 85 79 86 81 87 78 88 62 89 63 90 68 91 64 92 65 93 67 94
REMARK SMILES IDX 69 95 66 96
REMARK H PARENT 86 58 60 69
REMARK Flexibility Score: inf
ROOT
ATOM      1  C   UNL A   1      40.205  22.467  27.024  1.00  0.00     0.261 C 
ENDROOT
BRANCH   1   2
ATOM      2  O   UNL A   1      38.867  22.821  26.647  1.00  0.00    -0.460 OA
BRANCH   2   3
ATOM      3  C   UNL A   1      38.314  22.046  25.682  1.00  0.00     0.338 C 
ATOM      4  O   UNL A   1      38.619  20.901  25.391  1.00  0.00    -0.246 OA
BRANCH   3   5
ATOM      5  C   UNL A   1      37.138  22.734  25.092  1.00  0.00     0.060 A 
ATOM      6  C   UNL A   1      34.902  23.917  23.907  1.00  0.00     0.088 A 
ATOM      7  C   UNL A   1      35.497  22.808  23.298  1.00  0.00     0.023 A 
ATOM      8  C   UNL A   1      35.379  24.395  25.136  1.00  0.00     0.023 A 
ATOM      9  C   UNL A   1      36.618  22.221  23.892  1.00  0.00     0.017 A 
ATOM     10  C   UNL A   1      36.512  23.819  25.717  1.00  0.00     0.017 A 
BRANCH   6  11
ATOM     11  S   UNL A   1      33.493  24.727  23.141  1.00  0.00     0.270 S 
ATOM     12  O   UNL A   1      32.860  23.711  22.327  1.00  0.00    -0.201 OA
ATOM     13  O   UNL A   1      34.006  25.955  22.563  1.00  0.00    -0.201 OA
BRANCH  11  14
ATOM     14  N   UNL A   1      32.461  25.171  24.414  1.00  0.00    -0.202 N 
BRANCH  14  15
ATOM     15  C   UNL A   1      31.995  24.183  25.337  1.00  0.00     0.241 C 
ATOM     16  O   UNL A   1      31.967  24.389  26.547  1.00  0.00    -0.273 OA
BRANCH  15  17
ATOM     17  C   UNL A   1      31.589  22.815  24.799  1.00  0.00     0.101 C 
BRANCH  17  18
ATOM     18  C   UNL A   1      32.413  21.657  25.364  1.00  0.00     0.006 C 
ATOM     19  C   UNL A   1      32.534  20.498  24.381  1.00  0.00     0.004 C 
ENDBRANCH  17  18
ENDBRANCH  15  17
ENDBRANCH  14  15
BRANCH  14  20
ATOM     20  C   UNL A   1      32.381  26.550  24.799  1.00  0.00     0.070 A 
ATOM     21  C   UNL A   1      33.391  27.000  25.666  1.00  0.00     0.051 A 
ATOM     22  C   UNL A   1      31.341  27.425  24.352  1.00  0.00     0.010 A 
ATOM     23  C   UNL A   1      33.363  28.304  26.106  1.00  0.00     0.080 A 
ATOM     24  C   UNL A   1      31.409  28.787  24.737  1.00  0.00     0.028 A 
ATOM     25  C   UNL A   1      30.263  27.034  23.518  1.00  0.00     0.011 A 
ATOM     26  S   UNL A   1      34.440  29.072  27.252  1.00  0.00    -0.052 S 
ATOM     27  C   UNL A   1      32.403  29.187  25.639  1.00  0.00     0.157 A 
ATOM     28  C   UNL A   1      30.503  29.708  24.186  1.00  0.00     0.013 A 
ATOM     29  C   UNL A   1      29.375  27.970  22.979  1.00  0.00     0.001 A 
ATOM     30  C   UNL A   1      33.524  30.567  27.037  1.00  0.00     0.396 A 
ATOM     31  O   UNL A   1      32.475  30.499  26.124  1.00  0.00    -0.413 OA
ATOM     32  C   UNL A   1      29.512  29.313  23.293  1.00  0.00     0.001 A 
ATOM     33  O   UNL A   1      33.807  31.588  27.647  1.00  0.00    -0.233 OA
ENDBRANCH  14  20
ENDBRANCH  11  14
ENDBRANCH   6  11
ENDBRANCH   3   5
ENDBRANCH   2   3
ENDBRANCH   1   2
BRANCH   1  34
ATOM     34  C   UNL A   1      41.221  23.521  26.564  1.00  0.00     0.202 C 
BRANCH  34  35
ATOM     35  O   UNL A   1      41.898  24.244  27.590  1.00  0.00    -0.374 OA
BRANCH  35  36
ATOM     36  C   UNL A   1      43.053  25.007  27.226  1.00  0.00     0.202 C 
BRANCH  36  37
ATOM     37  C   UNL A   1      43.010  25.734  25.875  1.00  0.00     0.261 C 
BRANCH  37  38
ATOM     38  O   UNL A   1      43.484  27.085  26.021  1.00  0.00    -0.460 OA
BRANCH  38  39
ATOM     39  C   UNL A   1      42.614  28.067  25.669  1.00  0.00     0.338 C 
ATOM     40  O   UNL A   1      42.278  28.418  24.565  1.00  0.00    -0.246 OA
BRANCH  39  41
ATOM     41  C   UNL A   1      41.957  28.485  26.918  1.00  0.00     0.060 A 
ATOM     42  C   UNL A   1      40.568  28.490  27.016  1.00  0.00     0.016 A 
ATOM     43  C   UNL A   1      42.760  28.960  27.960  1.00  0.00     0.016 A 
ATOM     44  C   UNL A   1      39.978  28.998  28.169  1.00  0.00     0.010 A 
ATOM     45  C   UNL A   1      42.166  29.504  29.094  1.00  0.00     0.010 A 
ATOM     46  C   UNL A   1      40.772  29.519  29.209  1.00  0.00    -0.014 A 
BRANCH  46  47
ATOM     47  C   UNL A   1      40.085  30.003  30.422  1.00  0.00     0.031 A 
ATOM     48  C   UNL A   1      40.530  29.389  31.720  1.00  0.00     0.074 A 
ATOM     49  C   UNL A   1      39.659  31.284  30.446  1.00  0.00     0.049 A 
ATOM     50  N   UNL A   1      41.560  29.771  32.417  1.00  0.00    -0.248 NA
ATOM     51  C   UNL A   1      39.950  28.123  32.171  1.00  0.00     0.031 C 
ATOM     52  C   UNL A   1      40.480  32.417  30.005  1.00  0.00     0.029 A 
ATOM     53  N   UNL A   1      38.580  31.857  31.085  1.00  0.00    -0.354 N 
ATOM     54  C   UNL A   1      41.781  28.804  33.388  1.00  0.00     0.074 A 
ATOM     55  C   UNL A   1      40.756  27.802  33.194  1.00  0.00     0.031 C 
ATOM     56  C   UNL A   1      39.955  33.547  30.514  1.00  0.00     0.029 A 
ATOM     57  C   UNL A   1      38.712  33.238  31.227  1.00  0.00     0.049 A 
ATOM     58  H   UNL A   1      37.802  31.348  31.405  1.00  0.00     0.167 HD
ATOM     59  C   UNL A   1      42.780  28.862  34.309  1.00  0.00     0.037 A 
ATOM     60  C   UNL A   1      38.244  33.939  32.296  1.00  0.00     0.037 A 
ATOM     61  C   UNL A   1      43.615  30.020  34.257  1.00  0.00     0.049 A 
ATOM     62  C   UNL A   1      39.301  33.653  33.324  1.00  0.00     0.074 A 
ATOM     63  C   UNL A   1      44.820  30.384  33.700  1.00  0.00     0.029 A 
ATOM     64  N   UNL A   1      43.165  31.157  34.885  1.00  0.00    -0.354 N 
ATOM     65  N   UNL A   1      40.464  34.238  33.402  1.00  0.00    -0.248 NA
ATOM     66  C   UNL A   1      39.196  32.401  34.074  1.00  0.00     0.031 C 
ATOM     67  C   UNL A   1      44.785  31.812  33.620  1.00  0.00     0.029 A 
ATOM     68  C   UNL A   1      43.536  32.210  34.092  1.00  0.00     0.049 A 
ATOM     69  H   UNL A   1      42.673  31.204  35.736  1.00  0.00     0.167 HD
ATOM     70  C   UNL A   1      41.316  33.293  33.974  1.00  0.00     0.074 A 
ATOM     71  C   UNL A   1      40.462  32.212  34.424  1.00  0.00     0.031 C 
ATOM     72  C   UNL A   1      42.674  33.341  33.851  1.00  0.00     0.037 A 
BRANCH  59  73
ATOM     73  C   UNL A   1      42.926  27.940  35.452  1.00  0.00     0.057 A 
ATOM     74  C   UNL A   1      41.922  27.755  36.403  1.00  0.00     0.134 A 
ATOM     75  C   UNL A   1      43.997  27.036  35.446  1.00  0.00     0.134 A 
ATOM     76  F   UNL A   1      40.861  28.575  36.444  1.00  0.00    -0.206 F 
ATOM     77  C   UNL A   1      41.966  26.679  37.295  1.00  0.00     0.040 A 
ATOM     78  C   UNL A   1      44.050  25.956  36.323  1.00  0.00     0.040 A 
ATOM     79  F   UNL A   1      44.973  27.159  34.531  1.00  0.00    -0.206 F 
ATOM     80  C   UNL A   1      43.022  25.766  37.244  1.00  0.00     0.006 A 
ENDBRANCH  59  73
BRANCH  60  81
ATOM     81  C   UNL A   1      36.775  33.896  32.556  1.00  0.00     0.057 A 
ATOM     82  C   UNL A   1      35.775  33.469  31.678  1.00  0.00     0.134 A 
ATOM     83  C   UNL A   1      36.327  34.283  33.831  1.00  0.00     0.134 A 
ATOM     84  F   UNL A   1      36.070  32.959  30.476  1.00  0.00    -0.206 F 
ATOM     85  C   UNL A   1      34.414  33.548  32.004  1.00  0.00     0.040 A 
ATOM     86  C   UNL A   1      34.977  34.357  34.181  1.00  0.00     0.040 A 
ATOM     87  F   UNL A   1      37.215  34.581  34.786  1.00  0.00    -0.206 F 
ATOM     88  C   UNL A   1      34.010  34.009  33.252  1.00  0.00     0.006 A 
ENDBRANCH  60  81
BRANCH  72  89
ATOM     89  C   UNL A   1      43.202  34.539  33.138  1.00  0.00     0.057 A 
ATOM     90  C   UNL A   1      43.443  35.745  33.813  1.00  0.00     0.134 A 
ATOM     91  C   UNL A   1      43.484  34.496  31.771  1.00  0.00     0.134 A 
ATOM     92  F   UNL A   1      43.224  35.854  35.134  1.00  0.00    -0.206 F 
ATOM     93  C   UNL A   1      43.911  36.876  33.145  1.00  0.00     0.040 A 
ATOM     94  C   UNL A   1      43.980  35.612  31.097  1.00  0.00     0.040 A 
ATOM     95  F   UNL A   1      43.270  33.372  31.067  1.00  0.00    -0.206 F 
ATOM     96  C   UNL A   1      44.185  36.809  31.782  1.00  0.00     0.006 A 
ENDBRANCH  72  89
ENDBRANCH  46  47
ENDBRANCH  39  41
ENDBRANCH  38  39
ENDBRANCH  37  38
ENDBRANCH  36  37
ENDBRANCH  35  36
ENDBRANCH  34  35
ENDBRANCH   1  34
TORSDOF 20
ENDMDL
MODEL 3
REMARK VINA RESULT:     -11.3      2.788      6.725
REMARK SMILES CCCC(=O)N(c1cc2sc(=O)oc2c2ccccc12)S(=O)(=O)c1ccc(C(=O)OCCOCCOC(=O)c2ccc(-c3c4nc(c(-c5c(F)cccc5F)c5ccc([nH]5)c(-c5c(F)cccc5F)c5nc(c(-c6c(F)cccc6F)c6ccc3[nH]6)C=C5)C=C4)cc2)cc1
REMARK SMILES IDX 31 1 30 2 28 3 29 4 27 5 24 6 25 7 94 8 26 9 93 10 21 11
REMARK SMILES IDX 22 12 23 13 6 14 4 15 5 16 3 17 2 18 1 19 7 20 8 21 20 22
REMARK SMILES IDX 9 23 15 24 19 25 10 26 14 27 16 28 18 29 11 30 13 31 17 32
REMARK SMILES IDX 12 33 32 34 33 35 34 36 35 37 36 38 37 39 38 40 39 41 40 42
REMARK SMILES IDX 92 43 41 44 91 45 42 46 43 47 44 48 85 49 45 50 90 51 84 52
REMARK SMILES IDX 86 53 46 54 89 55 83 56 82 57 47 59 73 60 56 61 72 62 57 63
REMARK SMILES IDX 60 64 71 65 87 66 58 67 59 68 70 70 88 71 61 72 48 73 49 74
REMARK SMILES IDX 54 75 50 76 51 77 53 78 55 79 52 80 74 81 75 82 80 83 76 84
REMARK SMILES IDX 77 85 79 86 81 87 78 88 62 89 63 90 68 91 64 92 65 93 67 94
REMARK SMILES IDX 69 95 66 96
REMARK H PARENT 86 58 60 69
REMARK Flexibility Score: inf
ROOT
ATOM      1  C   UNL A   1      38.623  19.973  24.862  1.00  0.00     0.261 C 
ENDROOT
BRANCH   1   2
ATOM      2  O   UNL A   1      37.508  20.565  25.544  1.00  0.00    -0.460 OA
BRANCH   2   3
ATOM      3  C   UNL A   1      37.563  21.913  25.682  1.00  0.00     0.338 C 
ATOM      4  O   UNL A   1      38.559  22.617  25.640  1.00  0.00    -0.246 OA
BRANCH   3   5
ATOM      5  C   UNL A   1      36.190  22.473  25.743  1.00  0.00     0.060 A 
ATOM      6  C   UNL A   1      33.641  23.615  25.760  1.00  0.00     0.088 A 
ATOM      7  C   UNL A   1      34.703  24.314  25.180  1.00  0.00     0.023 A 
ATOM      8  C   UNL A   1      33.834  22.323  26.272  1.00  0.00     0.023 A 
ATOM      9  C   UNL A   1      35.978  23.741  25.177  1.00  0.00     0.017 A 
ATOM     10  C   UNL A   1      35.114  21.761  26.285  1.00  0.00     0.017 A 
BRANCH   6  11
ATOM     11  S   UNL A   1      32.001  24.346  25.828  1.00  0.00     0.270 S 
ATOM     12  O   UNL A   1      32.168  25.603  26.528  1.00  0.00    -0.201 OA
ATOM     13  O   UNL A   1      31.122  23.307  26.331  1.00  0.00    -0.201 OA
BRANCH  11  14
ATOM     14  N   UNL A   1      31.552  24.639  24.217  1.00  0.00    -0.202 N 
BRANCH  14  15
ATOM     15  C   UNL A   1      31.239  23.545  23.350  1.00  0.00     0.241 C 
ATOM     16  O   UNL A   1      30.080  23.207  23.126  1.00  0.00    -0.273 OA
BRANCH  15  17
ATOM     17  C   UNL A   1      32.386  22.740  22.747  1.00  0.00     0.101 C 
BRANCH  17  18
ATOM     18  C   UNL A   1      32.055  21.264  22.521  1.00  0.00     0.006 C 
ATOM     19  C   UNL A   1      32.720  20.358  23.550  1.00  0.00     0.004 C 
ENDBRANCH  17  18
ENDBRANCH  15  17
ENDBRANCH  14  15
BRANCH  14  20
ATOM     20  C   UNL A   1      31.105  25.950  23.845  1.00  0.00     0.070 A 
ATOM     21  C   UNL A   1      29.721  26.170  23.940  1.00  0.00     0.051 A 
ATOM     22  C   UNL A   1      31.991  26.975  23.389  1.00  0.00     0.010 A 
ATOM     23  C   UNL A   1      29.211  27.394  23.568  1.00  0.00     0.080 A 
ATOM     24  C   UNL A   1      31.444  28.254  23.122  1.00  0.00     0.028 A 
ATOM     25  C   UNL A   1      33.390  26.814  23.219  1.00  0.00     0.011 A 
ATOM     26  S   UNL A   1      27.532  27.882  23.506  1.00  0.00    -0.052 S 
ATOM     27  C   UNL A   1      30.055  28.423  23.183  1.00  0.00     0.157 A 
ATOM     28  C   UNL A   1      32.302  29.329  22.833  1.00  0.00     0.013 A 
ATOM     29  C   UNL A   1      34.225  27.899  22.934  1.00  0.00     0.001 A 
ATOM     30  C   UNL A   1      28.065  29.474  22.955  1.00  0.00     0.396 A 
ATOM     31  O   UNL A   1      29.443  29.639  22.851  1.00  0.00    -0.413 OA
ATOM     32  C   UNL A   1      33.682  29.163  22.767  1.00  0.00     0.001 A 
ATOM     33  O   UNL A   1      27.268  30.364  22.695  1.00  0.00    -0.233 OA
ENDBRANCH  14  20
ENDBRANCH  11  14
ENDBRANCH   6  11
ENDBRANCH   3   5
ENDBRANCH   2   3
ENDBRANCH   1   2
BRANCH   1  34
ATOM     34  C   UNL A   1      39.620  19.345  25.846  1.00  0.00     0.202 C 
BRANCH  34  35
ATOM     35  O   UNL A   1      40.952  19.162  25.373  1.00  0.00    -0.374 OA
BRANCH  35  36
ATOM     36  C   UNL A   1      42.030  19.484  26.258  1.00  0.00     0.202 C 
BRANCH  36  37
ATOM     37  C   UNL A   1      42.647  20.883  26.126  1.00  0.00     0.261 C 
BRANCH  37  38
ATOM     38  O   UNL A   1      42.594  21.572  27.388  1.00  0.00    -0.460 OA
BRANCH  38  39
ATOM     39  C   UNL A   1      41.387  22.090  27.737  1.00  0.00     0.338 C 
ATOM     40  O   UNL A   1      40.376  21.509  28.044  1.00  0.00    -0.246 OA
BRANCH  39  41
ATOM     41  C   UNL A   1      41.608  23.536  27.904  1.00  0.00     0.060 A 
ATOM     42  C   UNL A   1      40.615  24.340  28.457  1.00  0.00     0.016 A 
ATOM     43  C   UNL A   1      42.795  24.085  27.408  1.00  0.00     0.016 A 
ATOM     44  C   UNL A   1      40.811  25.718  28.496  1.00  0.00     0.010 A 
ATOM     45  C   UNL A   1      42.969  25.465  27.412  1.00  0.00     0.010 A 
ATOM     46  C   UNL A   1      41.982  26.289  27.964  1.00  0.00    -0.014 A 
BRANCH  46  47
ATOM     47  C   UNL A   1      42.145  27.752  28.074  1.00  0.00     0.031 A 
ATOM     48  C   UNL A   1      40.896  28.568  27.894  1.00  0.00     0.074 A 
ATOM     49  C   UNL A   1      43.092  28.227  28.910  1.00  0.00     0.049 A 
ATOM     50  N   UNL A   1      40.020  28.817  28.825  1.00  0.00    -0.248 NA
ATOM     51  C   UNL A   1      40.450  28.946  26.552  1.00  0.00     0.031 C 
ATOM     52  C   UNL A   1      43.291  27.727  30.274  1.00  0.00     0.029 A 
ATOM     53  N   UNL A   1      43.854  29.374  28.840  1.00  0.00    -0.354 N 
ATOM     54  C   UNL A   1      38.907  29.368  28.205  1.00  0.00     0.074 A 
ATOM     55  C   UNL A   1      39.223  29.428  26.796  1.00  0.00     0.031 C 
ATOM     56  C   UNL A   1      44.002  28.639  30.963  1.00  0.00     0.029 A 
ATOM     57  C   UNL A   1      44.397  29.735  30.072  1.00  0.00     0.049 A 
ATOM     58  H   UNL A   1      44.000  29.883  28.010  1.00  0.00     0.167 HD
ATOM     59  C   UNL A   1      37.783  29.758  28.864  1.00  0.00     0.037 A 
ATOM     60  C   UNL A   1      44.581  31.023  30.473  1.00  0.00     0.037 A 
ATOM     61  C   UNL A   1      37.800  29.597  30.284  1.00  0.00     0.049 A 
ATOM     62  C   UNL A   1      43.189  31.408  30.884  1.00  0.00     0.074 A 
ATOM     63  C   UNL A   1      37.387  28.666  31.210  1.00  0.00     0.029 A 
ATOM     64  N   UNL A   1      38.404  30.583  31.028  1.00  0.00    -0.354 N 
ATOM     65  N   UNL A   1      42.617  31.100  32.015  1.00  0.00    -0.248 NA
ATOM     66  C   UNL A   1      42.269  31.846  29.834  1.00  0.00     0.031 C 
ATOM     67  C   UNL A   1      38.178  28.914  32.376  1.00  0.00     0.029 A 
ATOM     68  C   UNL A   1      39.052  29.951  32.055  1.00  0.00     0.049 A 
ATOM     69  H   UNL A   1      38.376  31.552  30.856  1.00  0.00     0.167 HD
ATOM     70  C   UNL A   1      41.252  31.033  31.732  1.00  0.00     0.074 A 
ATOM     71  C   UNL A   1      41.099  31.567  30.394  1.00  0.00     0.031 C 
ATOM     72  C   UNL A   1      40.362  30.351  32.509  1.00  0.00     0.037 A 
BRANCH  59  73
ATOM     73  C   UNL A   1      36.664  30.502  28.254  1.00  0.00     0.057 A 
ATOM     74  C   UNL A   1      35.499  29.877  27.808  1.00  0.00     0.134 A 
ATOM     75  C   UNL A   1      36.661  31.899  28.354  1.00  0.00     0.134 A 
ATOM     76  F   UNL A   1      35.436  28.541  27.711  1.00  0.00    -0.206 F 
ATOM     77  C   UNL A   1      34.353  30.621  27.508  1.00  0.00     0.040 A 
ATOM     78  C   UNL A   1      35.525  32.652  28.068  1.00  0.00     0.040 A 
ATOM     79  F   UNL A   1      37.751  32.543  28.805  1.00  0.00    -0.206 F 
ATOM     80  C   UNL A   1      34.360  32.009  27.656  1.00  0.00     0.006 A 
ENDBRANCH  59  73
BRANCH  60  81
ATOM     81  C   UNL A   1      45.489  31.875  29.650  1.00  0.00     0.057 A 
ATOM     82  C   UNL A   1      45.416  32.100  28.272  1.00  0.00     0.134 A 
ATOM     83  C   UNL A   1      46.512  32.570  30.317  1.00  0.00     0.134 A 
ATOM     84  F   UNL A   1      44.418  31.600  27.534  1.00  0.00    -0.206 F 
ATOM     85  C   UNL A   1      46.376  32.860  27.590  1.00  0.00     0.040 A 
ATOM     86  C   UNL A   1      47.471  33.343  29.658  1.00  0.00     0.040 A 
ATOM     87  F   UNL A   1      46.585  32.528  31.652  1.00  0.00    -0.206 F 
ATOM     88  C   UNL A   1      47.417  33.471  28.280  1.00  0.00     0.006 A 
ENDBRANCH  60  81
BRANCH  72  89
ATOM     89  C   UNL A   1      40.934  29.751  33.749  1.00  0.00     0.057 A 
ATOM     90  C   UNL A   1      41.050  30.494  34.933  1.00  0.00     0.134 A 
ATOM     91  C   UNL A   1      41.364  28.422  33.773  1.00  0.00     0.134 A 
ATOM     92  F   UNL A   1      40.630  31.768  34.995  1.00  0.00    -0.206 F 
ATOM     93  C   UNL A   1      41.609  29.945  36.087  1.00  0.00     0.040 A 
ATOM     94  C   UNL A   1      41.898  27.854  34.929  1.00  0.00     0.040 A 
ATOM     95  F   UNL A   1      41.283  27.661  32.670  1.00  0.00    -0.206 F 
ATOM     96  C   UNL A   1      42.032  28.619  36.087  1.00  0.00     0.006 A 
ENDBRANCH  72  89
ENDBRANCH  46  47
ENDBRANCH  39  41
ENDBRANCH  38  39
ENDBRANCH  37  38
ENDBRANCH  36  37
ENDBRANCH  35  36
ENDBRANCH  34  35
ENDBRANCH   1  34
TORSDOF 20
ENDMDL
