MODEL 1
REMARK VINA RESULT:     -11.2      0.000      0.000
REMARK SMILES N#Cc1ccc2c(c1)C=C(C(=O)OCCOCCOC(=O)c1ccc(-c3c4nc(c(-c5c(F)cccc5F)c5ccc([nH]5)c(-c5c(F)cccc5F)c5nc(c(-c6c(F)cccc6F)c6ccc3[nH]6)C=C5)C=C4)cc1)[C@@H](C(F)(F)F)O2
REMARK SMILES IDX 17 1 16 2 15 3 14 4 13 5 11 6 12 7 10 8 3 9 4 10 8 11 5 12
REMARK SMILES IDX 7 13 6 14 9 15 81 16 76 17 2 18 1 19 77 20 78 21 79 22 80 23
REMARK SMILES IDX 18 24 19 25 20 26 21 27 22 28 23 29 75 30 24 31 74 32 25 33
REMARK SMILES IDX 26 34 27 35 68 36 28 37 73 38 67 39 69 40 29 41 72 42 66 43
REMARK SMILES IDX 65 44 30 46 56 47 39 48 55 49 40 50 43 51 54 52 70 53 41 54
REMARK SMILES IDX 42 55 53 57 71 58 44 59 31 60 32 61 37 62 33 63 34 64 36 65
REMARK SMILES IDX 38 66 35 67 57 68 58 69 63 70 59 71 60 72 62 73 64 74 61 75
REMARK SMILES IDX 45 76 46 77 51 78 47 79 48 80 50 81 52 82 49 83
REMARK H PARENT 69 45 43 56
REMARK Flexibility Score: inf
ROOT
ATOM      1  C   UNL A   1      32.113  31.550  26.869  1.00  0.00     0.202 C 
ENDROOT
BRANCH   1   2
ATOM      2  O   UNL A   1      33.329  30.812  26.790  1.00  0.00    -0.374 OA
BRANCH   2   3
ATOM      3  C   UNL A   1      33.348  29.452  27.205  1.00  0.00     0.202 C 
BRANCH   3   4
ATOM      4  C   UNL A   1      33.984  28.405  26.285  1.00  0.00     0.261 C 
BRANCH   4   5
ATOM      5  O   UNL A   1      33.628  28.592  24.910  1.00  0.00    -0.460 OA
BRANCH   5   6
ATOM      6  C   UNL A   1      33.173  27.471  24.302  1.00  0.00     0.338 C 
ATOM      7  O   UNL A   1      33.760  26.408  24.190  1.00  0.00    -0.246 OA
BRANCH   6   8
ATOM      8  C   UNL A   1      31.771  27.664  23.887  1.00  0.00     0.087 C 
ATOM      9  C   UNL A   1      28.455  30.721  22.244  1.00  0.00     0.053 A 
ATOM     10  C   UNL A   1      27.451  29.823  22.621  1.00  0.00     0.023 A 
ATOM     11  C   UNL A   1      29.798  30.361  22.393  1.00  0.00     0.031 A 
ATOM     12  C   UNL A   1      27.790  28.564  23.126  1.00  0.00     0.048 A 
ATOM     13  C   UNL A   1      30.134  29.118  22.941  1.00  0.00     0.019 A 
ATOM     14  C   UNL A   1      29.130  28.213  23.288  1.00  0.00     0.128 A 
ATOM     15  C   UNL A   1      31.518  28.802  23.228  1.00  0.00     0.027 C 
ATOM     16  O   UNL A   1      29.376  26.968  23.793  1.00  0.00    -0.475 OA
ATOM     17  C   UNL A   1      30.725  26.643  24.238  1.00  0.00     0.316 C 
BRANCH   9  18
ATOM     18  C   UNL A   1      28.116  32.016  21.735  1.00  0.00     0.099 C 
ATOM     19  N   UNL A   1      27.837  33.071  21.334  1.00  0.00    -0.192 NA
ENDBRANCH   9  18
BRANCH  17  20
ATOM     20  C   UNL A   1      30.680  26.340  25.742  1.00  0.00     0.430 C 
ATOM     21  F   UNL A   1      29.486  25.812  26.102  1.00  0.00    -0.167 F 
ATOM     22  F   UNL A   1      31.625  25.439  26.103  1.00  0.00    -0.167 F 
ATOM     23  F   UNL A   1      30.875  27.451  26.487  1.00  0.00    -0.167 F 
ENDBRANCH  17  20
ENDBRANCH   6   8
ENDBRANCH   5   6
ENDBRANCH   4   5
ENDBRANCH   3   4
ENDBRANCH   2   3
ENDBRANCH   1   2
BRANCH   1  24
ATOM     24  C   UNL A   1      32.151  33.085  26.877  1.00  0.00     0.261 C 
BRANCH  24  25
ATOM     25  O   UNL A   1      32.168  33.659  28.192  1.00  0.00    -0.460 OA
BRANCH  25  26
ATOM     26  C   UNL A   1      33.195  34.519  28.420  1.00  0.00     0.338 C 
ATOM     27  O   UNL A   1      33.157  35.736  28.423  1.00  0.00    -0.246 OA
BRANCH  26  28
ATOM     28  C   UNL A   1      34.365  33.747  28.874  1.00  0.00     0.060 A 
ATOM     29  C   UNL A   1      35.656  34.151  28.539  1.00  0.00     0.016 A 
ATOM     30  C   UNL A   1      34.155  32.622  29.682  1.00  0.00     0.016 A 
ATOM     31  C   UNL A   1      36.743  33.428  29.030  1.00  0.00     0.010 A 
ATOM     32  C   UNL A   1      35.244  31.903  30.174  1.00  0.00     0.010 A 
ATOM     33  C   UNL A   1      36.548  32.311  29.866  1.00  0.00    -0.014 A 
BRANCH  33  34
ATOM     34  C   UNL A   1      37.718  31.651  30.498  1.00  0.00     0.031 A 
ATOM     35  C   UNL A   1      38.118  31.951  31.912  1.00  0.00     0.074 A 
ATOM     36  C   UNL A   1      38.420  30.760  29.773  1.00  0.00     0.049 A 
ATOM     37  N   UNL A   1      39.064  31.402  32.633  1.00  0.00    -0.248 NA
ATOM     38  C   UNL A   1      37.366  33.005  32.606  1.00  0.00     0.031 C 
ATOM     39  C   UNL A   1      38.149  30.411  28.377  1.00  0.00     0.029 A 
ATOM     40  N   UNL A   1      39.492  29.975  30.111  1.00  0.00    -0.354 N 
ATOM     41  C   UNL A   1      39.007  32.024  33.872  1.00  0.00     0.074 A 
ATOM     42  C   UNL A   1      37.972  33.034  33.785  1.00  0.00     0.031 C 
ATOM     43  C   UNL A   1      39.003  29.451  27.991  1.00  0.00     0.029 A 
ATOM     44  C   UNL A   1      39.910  29.150  29.093  1.00  0.00     0.049 A 
ATOM     45  H   UNL A   1      39.922  30.001  30.996  1.00  0.00     0.167 HD
ATOM     46  C   UNL A   1      39.735  31.761  34.985  1.00  0.00     0.037 A 
ATOM     47  C   UNL A   1      40.915  28.257  29.053  1.00  0.00     0.037 A 
ATOM     48  C   UNL A   1      40.788  30.777  35.057  1.00  0.00     0.049 A 
ATOM     49  C   UNL A   1      41.760  28.049  30.282  1.00  0.00     0.074 A 
ATOM     50  C   UNL A   1      41.569  30.428  36.146  1.00  0.00     0.029 A 
ATOM     51  N   UNL A   1      41.222  30.002  33.992  1.00  0.00    -0.354 N 
ATOM     52  N   UNL A   1      41.646  28.589  31.470  1.00  0.00    -0.248 NA
ATOM     53  C   UNL A   1      42.875  27.099  30.158  1.00  0.00     0.031 C 
ATOM     54  C   UNL A   1      42.520  29.492  35.722  1.00  0.00     0.029 A 
ATOM     55  C   UNL A   1      42.284  29.201  34.389  1.00  0.00     0.049 A 
ATOM     56  H   UNL A   1      40.835  30.016  33.087  1.00  0.00     0.167 HD
ATOM     57  C   UNL A   1      42.652  28.022  32.244  1.00  0.00     0.074 A 
ATOM     58  C   UNL A   1      43.347  27.076  31.396  1.00  0.00     0.031 C 
ATOM     59  C   UNL A   1      42.972  28.263  33.539  1.00  0.00     0.037 A 
BRANCH  46  60
ATOM     60  C   UNL A   1      39.425  32.563  36.219  1.00  0.00     0.057 A 
ATOM     61  C   UNL A   1      38.447  32.139  37.127  1.00  0.00     0.134 A 
ATOM     62  C   UNL A   1      40.072  33.777  36.491  1.00  0.00     0.134 A 
ATOM     63  F   UNL A   1      37.776  30.994  36.922  1.00  0.00    -0.206 F 
ATOM     64  C   UNL A   1      38.127  32.888  38.260  1.00  0.00     0.040 A 
ATOM     65  C   UNL A   1      39.784  34.519  37.638  1.00  0.00     0.040 A 
ATOM     66  F   UNL A   1      41.022  34.242  35.665  1.00  0.00    -0.206 F 
ATOM     67  C   UNL A   1      38.804  34.076  38.524  1.00  0.00     0.006 A 
ENDBRANCH  46  60
BRANCH  47  68
ATOM     68  C   UNL A   1      41.194  27.489  27.812  1.00  0.00     0.057 A 
ATOM     69  C   UNL A   1      40.598  26.244  27.576  1.00  0.00     0.134 A 
ATOM     70  C   UNL A   1      42.016  28.010  26.805  1.00  0.00     0.134 A 
ATOM     71  F   UNL A   1      39.808  25.683  28.504  1.00  0.00    -0.206 F 
ATOM     72  C   UNL A   1      40.799  25.552  26.382  1.00  0.00     0.040 A 
ATOM     73  C   UNL A   1      42.196  27.346  25.591  1.00  0.00     0.040 A 
ATOM     74  F   UNL A   1      42.605  29.205  26.965  1.00  0.00    -0.206 F 
ATOM     75  C   UNL A   1      41.587  26.111  25.378  1.00  0.00     0.006 A 
ENDBRANCH  47  68
BRANCH  59  76
ATOM     76  C   UNL A   1      44.101  27.459  34.126  1.00  0.00     0.057 A 
ATOM     77  C   UNL A   1      45.410  27.958  34.116  1.00  0.00     0.134 A 
ATOM     78  C   UNL A   1      43.899  26.195  34.699  1.00  0.00     0.134 A 
ATOM     79  F   UNL A   1      45.681  29.155  33.574  1.00  0.00    -0.206 F 
ATOM     80  C   UNL A   1      46.474  27.234  34.656  1.00  0.00     0.040 A 
ATOM     81  C   UNL A   1      44.948  25.479  35.277  1.00  0.00     0.040 A 
ATOM     82  F   UNL A   1      42.670  25.662  34.754  1.00  0.00    -0.206 F 
ATOM     83  C   UNL A   1      46.242  25.996  35.251  1.00  0.00     0.006 A 
ENDBRANCH  59  76
ENDBRANCH  33  34
ENDBRANCH  26  28
ENDBRANCH  25  26
ENDBRANCH  24  25
ENDBRANCH   1  24
TORSDOF 16
ENDMDL
MODEL 2
REMARK VINA RESULT:     -10.9      5.658     10.199
REMARK SMILES N#Cc1ccc2c(c1)C=C(C(=O)OCCOCCOC(=O)c1ccc(-c3c4nc(c(-c5c(F)cccc5F)c5ccc([nH]5)c(-c5c(F)cccc5F)c5nc(c(-c6c(F)cccc6F)c6ccc3[nH]6)C=C5)C=C4)cc1)[C@@H](C(F)(F)F)O2
REMARK SMILES IDX 17 1 16 2 15 3 14 4 13 5 11 6 12 7 10 8 3 9 4 10 8 11 5 12
REMARK SMILES IDX 7 13 6 14 9 15 81 16 76 17 2 18 1 19 77 20 78 21 79 22 80 23
REMARK SMILES IDX 18 24 19 25 20 26 21 27 22 28 23 29 75 30 24 31 74 32 25 33
REMARK SMILES IDX 26 34 27 35 68 36 28 37 73 38 67 39 69 40 29 41 72 42 66 43
REMARK SMILES IDX 65 44 30 46 56 47 39 48 55 49 40 50 43 51 54 52 70 53 41 54
REMARK SMILES IDX 42 55 53 57 71 58 44 59 31 60 32 61 37 62 33 63 34 64 36 65
REMARK SMILES IDX 38 66 35 67 57 68 58 69 63 70 59 71 60 72 62 73 64 74 61 75
REMARK SMILES IDX 45 76 46 77 51 78 47 79 48 80 50 81 52 82 49 83
REMARK H PARENT 69 45 43 56
REMARK Flexibility Score: inf
ROOT
ATOM      1  C   UNL A   1      38.049  20.098  24.996  1.00  0.00     0.202 C 
ENDROOT
BRANCH   1   2
ATOM      2  O   UNL A   1      37.001  21.024  25.269  1.00  0.00    -0.374 OA
BRANCH   2   3
ATOM      3  C   UNL A   1      37.323  22.384  25.537  1.00  0.00     0.202 C 
BRANCH   3   4
ATOM      4  C   UNL A   1      36.197  23.351  25.917  1.00  0.00     0.261 C 
BRANCH   4   5
ATOM      5  O   UNL A   1      35.104  22.694  26.571  1.00  0.00    -0.460 OA
BRANCH   5   6
ATOM      6  C   UNL A   1      33.887  23.040  26.088  1.00  0.00     0.338 C 
ATOM      7  O   UNL A   1      33.330  24.118  26.211  1.00  0.00    -0.246 OA
BRANCH   6   8
ATOM      8  C   UNL A   1      33.353  21.948  25.255  1.00  0.00     0.087 C 
ATOM      9  C   UNL A   1      33.137  17.213  24.497  1.00  0.00     0.053 A 
ATOM     10  C   UNL A   1      32.651  17.449  23.206  1.00  0.00     0.023 A 
ATOM     11  C   UNL A   1      33.354  18.288  25.363  1.00  0.00     0.031 A 
ATOM     12  C   UNL A   1      32.365  18.754  22.793  1.00  0.00     0.048 A 
ATOM     13  C   UNL A   1      33.110  19.597  24.930  1.00  0.00     0.019 A 
ATOM     14  C   UNL A   1      32.597  19.827  23.653  1.00  0.00     0.128 A 
ATOM     15  C   UNL A   1      33.469  20.719  25.773  1.00  0.00     0.027 C 
ATOM     16  O   UNL A   1      32.298  21.068  23.170  1.00  0.00    -0.475 OA
ATOM     17  C   UNL A   1      32.763  22.239  23.903  1.00  0.00     0.316 C 
BRANCH   9  18
ATOM     18  C   UNL A   1      33.442  15.880  24.925  1.00  0.00     0.099 C 
ATOM     19  N   UNL A   1      33.695  14.803  25.282  1.00  0.00    -0.192 NA
ENDBRANCH   9  18
BRANCH  17  20
ATOM     20  C   UNL A   1      33.724  23.026  23.000  1.00  0.00     0.430 C 
ATOM     21  F   UNL A   1      33.390  22.894  21.694  1.00  0.00    -0.167 F 
ATOM     22  F   UNL A   1      33.698  24.353  23.272  1.00  0.00    -0.167 F 
ATOM     23  F   UNL A   1      35.002  22.609  23.137  1.00  0.00    -0.167 F 
ENDBRANCH  17  20
ENDBRANCH   6   8
ENDBRANCH   5   6
ENDBRANCH   4   5
ENDBRANCH   3   4
ENDBRANCH   2   3
ENDBRANCH   1   2
BRANCH   1  24
ATOM     24  C   UNL A   1      39.377  20.203  25.759  1.00  0.00     0.261 C 
BRANCH  24  25
ATOM     25  O   UNL A   1      40.176  19.012  25.700  1.00  0.00    -0.460 OA
BRANCH  25  26
ATOM     26  C   UNL A   1      41.491  19.199  25.989  1.00  0.00     0.338 C 
ATOM     27  O   UNL A   1      42.419  18.455  25.735  1.00  0.00    -0.246 OA
BRANCH  26  28
ATOM     28  C   UNL A   1      41.673  20.570  26.498  1.00  0.00     0.060 A 
ATOM     29  C   UNL A   1      41.501  20.854  27.851  1.00  0.00     0.016 A 
ATOM     30  C   UNL A   1      42.060  21.574  25.600  1.00  0.00     0.016 A 
ATOM     31  C   UNL A   1      41.733  22.152  28.308  1.00  0.00     0.010 A 
ATOM     32  C   UNL A   1      42.293  22.869  26.061  1.00  0.00     0.010 A 
ATOM     33  C   UNL A   1      42.149  23.164  27.423  1.00  0.00    -0.014 A 
BRANCH  33  34
ATOM     34  C   UNL A   1      42.536  24.495  27.954  1.00  0.00     0.031 A 
ATOM     35  C   UNL A   1      43.970  24.850  28.213  1.00  0.00     0.074 A 
ATOM     36  C   UNL A   1      41.565  25.395  28.198  1.00  0.00     0.049 A 
ATOM     37  N   UNL A   1      44.478  25.993  28.600  1.00  0.00    -0.248 NA
ATOM     38  C   UNL A   1      44.963  23.785  28.017  1.00  0.00     0.031 C 
ATOM     39  C   UNL A   1      40.132  25.155  28.019  1.00  0.00     0.029 A 
ATOM     40  N   UNL A   1      41.634  26.694  28.633  1.00  0.00    -0.354 N 
ATOM     41  C   UNL A   1      45.850  25.796  28.672  1.00  0.00     0.074 A 
ATOM     42  C   UNL A   1      46.089  24.404  28.346  1.00  0.00     0.031 C 
ATOM     43  C   UNL A   1      39.460  26.282  28.299  1.00  0.00     0.029 A 
ATOM     44  C   UNL A   1      40.407  27.308  28.721  1.00  0.00     0.049 A 
ATOM     45  H   UNL A   1      42.480  27.142  28.860  1.00  0.00     0.167 HD
ATOM     46  C   UNL A   1      46.821  26.697  28.962  1.00  0.00     0.037 A 
ATOM     47  C   UNL A   1      40.084  28.556  29.104  1.00  0.00     0.037 A 
ATOM     48  C   UNL A   1      46.575  28.073  29.319  1.00  0.00     0.049 A 
ATOM     49  C   UNL A   1      41.181  29.509  29.501  1.00  0.00     0.074 A 
ATOM     50  C   UNL A   1      47.495  29.065  29.613  1.00  0.00     0.029 A 
ATOM     51  N   UNL A   1      45.318  28.645  29.455  1.00  0.00    -0.354 N 
ATOM     52  N   UNL A   1      42.479  29.331  29.491  1.00  0.00    -0.248 NA
ATOM     53  C   UNL A   1      40.760  30.840  29.961  1.00  0.00     0.031 C 
ATOM     54  C   UNL A   1      46.795  30.216  29.992  1.00  0.00     0.029 A 
ATOM     55  C   UNL A   1      45.439  29.966  29.862  1.00  0.00     0.049 A 
ATOM     56  H   UNL A   1      44.466  28.182  29.288  1.00  0.00     0.167 HD
ATOM     57  C   UNL A   1      43.030  30.536  29.910  1.00  0.00     0.074 A 
ATOM     58  C   UNL A   1      41.925  31.443  30.140  1.00  0.00     0.031 C 
ATOM     59  C   UNL A   1      44.335  30.862  30.091  1.00  0.00     0.037 A 
BRANCH  46  60
ATOM     60  C   UNL A   1      48.245  26.216  28.916  1.00  0.00     0.057 A 
ATOM     61  C   UNL A   1      48.861  25.680  30.054  1.00  0.00     0.134 A 
ATOM     62  C   UNL A   1      49.020  26.317  27.753  1.00  0.00     0.134 A 
ATOM     63  F   UNL A   1      48.183  25.568  31.208  1.00  0.00    -0.206 F 
ATOM     64  C   UNL A   1      50.191  25.258  30.036  1.00  0.00     0.040 A 
ATOM     65  C   UNL A   1      50.342  25.869  27.712  1.00  0.00     0.040 A 
ATOM     66  F   UNL A   1      48.493  26.819  26.625  1.00  0.00    -0.206 F 
ATOM     67  C   UNL A   1      50.932  25.342  28.859  1.00  0.00     0.006 A 
ENDBRANCH  46  60
BRANCH  47  68
ATOM     68  C   UNL A   1      38.663  28.991  29.143  1.00  0.00     0.057 A 
ATOM     69  C   UNL A   1      37.900  28.882  30.312  1.00  0.00     0.134 A 
ATOM     70  C   UNL A   1      38.054  29.583  28.029  1.00  0.00     0.134 A 
ATOM     71  F   UNL A   1      38.420  28.316  31.411  1.00  0.00    -0.206 F 
ATOM     72  C   UNL A   1      36.589  29.355  30.376  1.00  0.00     0.040 A 
ATOM     73  C   UNL A   1      36.757  30.093  28.090  1.00  0.00     0.040 A 
ATOM     74  F   UNL A   1      38.738  29.729  26.885  1.00  0.00    -0.206 F 
ATOM     75  C   UNL A   1      36.020  29.977  29.267  1.00  0.00     0.006 A 
ENDBRANCH  47  68
BRANCH  59  76
ATOM     76  C   UNL A   1      44.634  32.273  30.521  1.00  0.00     0.057 A 
ATOM     77  C   UNL A   1      44.744  32.594  31.881  1.00  0.00     0.134 A 
ATOM     78  C   UNL A   1      44.811  33.314  29.599  1.00  0.00     0.134 A 
ATOM     79  F   UNL A   1      44.575  31.652  32.821  1.00  0.00    -0.206 F 
ATOM     80  C   UNL A   1      45.024  33.894  32.306  1.00  0.00     0.040 A 
ATOM     81  C   UNL A   1      45.130  34.609  30.010  1.00  0.00     0.040 A 
ATOM     82  F   UNL A   1      44.733  33.075  28.281  1.00  0.00    -0.206 F 
ATOM     83  C   UNL A   1      45.231  34.903  31.368  1.00  0.00     0.006 A 
ENDBRANCH  59  76
ENDBRANCH  33  34
ENDBRANCH  26  28
ENDBRANCH  25  26
ENDBRANCH  24  25
ENDBRANCH   1  24
TORSDOF 16
ENDMDL
MODEL 3
REMARK VINA RESULT:     -10.8      0.464      6.261
REMARK SMILES N#Cc1ccc2c(c1)C=C(C(=O)OCCOCCOC(=O)c1ccc(-c3c4nc(c(-c5c(F)cccc5F)c5ccc([nH]5)c(-c5c(F)cccc5F)c5nc(c(-c6c(F)cccc6F)c6ccc3[nH]6)C=C5)C=C4)cc1)[C@@H](C(F)(F)F)O2
REMARK SMILES IDX 17 1 16 2 15 3 14 4 13 5 11 6 12 7 10 8 3 9 4 10 8 11 5 12
REMARK SMILES IDX 7 13 6 14 9 15 81 16 76 17 2 18 1 19 77 20 78 21 79 22 80 23
REMARK SMILES IDX 18 24 19 25 20 26 21 27 22 28 23 29 75 30 24 31 74 32 25 33
REMARK SMILES IDX 26 34 27 35 68 36 28 37 73 38 67 39 69 40 29 41 72 42 66 43
REMARK SMILES IDX 65 44 30 46 56 47 39 48 55 49 40 50 43 51 54 52 70 53 41 54
REMARK SMILES IDX 42 55 53 57 71 58 44 59 31 60 32 61 37 62 33 63 34 64 36 65
REMARK SMILES IDX 38 66 35 67 57 68 58 69 63 70 59 71 60 72 62 73 64 74 61 75
REMARK SMILES IDX 45 76 46 77 51 78 47 79 48 80 50 81 52 82 49 83
REMARK H PARENT 69 45 43 56
REMARK Flexibility Score: inf
ROOT
ATOM      1  C   UNL A   1      31.380  31.995  26.659  1.00  0.00     0.202 C 
ENDROOT
BRANCH   1   2
ATOM      2  O   UNL A   1      31.785  30.629  26.647  1.00  0.00    -0.374 OA
BRANCH   2   3
ATOM      3  C   UNL A   1      33.088  30.283  27.102  1.00  0.00     0.202 C 
BRANCH   3   4
ATOM      4  C   UNL A   1      33.868  29.196  26.356  1.00  0.00     0.261 C 
BRANCH   4   5
ATOM      5  O   UNL A   1      33.142  27.964  26.261  1.00  0.00    -0.460 OA
BRANCH   5   6
ATOM      6  C   UNL A   1      33.131  27.427  25.018  1.00  0.00     0.338 C 
ATOM      7  O   UNL A   1      34.027  26.792  24.487  1.00  0.00    -0.246 OA
BRANCH   6   8
ATOM      8  C   UNL A   1      31.799  27.603  24.411  1.00  0.00     0.087 C 
ATOM      9  C   UNL A   1      28.609  30.667  22.547  1.00  0.00     0.053 A 
ATOM     10  C   UNL A   1      27.609  29.700  22.688  1.00  0.00     0.023 A 
ATOM     11  C   UNL A   1      29.932  30.348  22.868  1.00  0.00     0.031 A 
ATOM     12  C   UNL A   1      27.935  28.414  23.129  1.00  0.00     0.048 A 
ATOM     13  C   UNL A   1      30.247  29.073  23.353  1.00  0.00     0.019 A 
ATOM     14  C   UNL A   1      29.252  28.102  23.465  1.00  0.00     0.128 A 
ATOM     15  C   UNL A   1      31.588  28.786  23.821  1.00  0.00     0.027 C 
ATOM     16  O   UNL A   1      29.484  26.827  23.893  1.00  0.00    -0.475 OA
ATOM     17  C   UNL A   1      30.766  26.514  24.510  1.00  0.00     0.316 C 
BRANCH   9  18
ATOM     18  C   UNL A   1      28.283  31.990  22.104  1.00  0.00     0.099 C 
ATOM     19  N   UNL A   1      28.027  33.068  21.752  1.00  0.00    -0.192 NA
ENDBRANCH   9  18
BRANCH  17  20
ATOM     20  C   UNL A   1      30.514  26.073  25.959  1.00  0.00     0.430 C 
ATOM     21  F   UNL A   1      30.622  27.115  26.816  1.00  0.00    -0.167 F 
ATOM     22  F   UNL A   1      29.268  25.567  26.121  1.00  0.00    -0.167 F 
ATOM     23  F   UNL A   1      31.391  25.125  26.358  1.00  0.00    -0.167 F 
ENDBRANCH  17  20
ENDBRANCH   6   8
ENDBRANCH   5   6
ENDBRANCH   4   5
ENDBRANCH   3   4
ENDBRANCH   2   3
ENDBRANCH   1   2
BRANCH   1  24
ATOM     24  C   UNL A   1      32.427  33.099  26.875  1.00  0.00     0.261 C 
BRANCH  24  25
ATOM     25  O   UNL A   1      32.197  33.896  28.046  1.00  0.00    -0.460 OA
BRANCH  25  26
ATOM     26  C   UNL A   1      33.232  34.706  28.389  1.00  0.00     0.338 C 
ATOM     27  O   UNL A   1      33.234  35.921  28.454  1.00  0.00    -0.246 OA
BRANCH  26  28
ATOM     28  C   UNL A   1      34.342  33.871  28.882  1.00  0.00     0.060 A 
ATOM     29  C   UNL A   1      35.665  34.248  28.665  1.00  0.00     0.016 A 
ATOM     30  C   UNL A   1      34.039  32.710  29.605  1.00  0.00     0.016 A 
ATOM     31  C   UNL A   1      36.691  33.462  29.190  1.00  0.00     0.010 A 
ATOM     32  C   UNL A   1      35.067  31.928  30.132  1.00  0.00     0.010 A 
ATOM     33  C   UNL A   1      36.402  32.308  29.944  1.00  0.00    -0.014 A 
BRANCH  33  34
ATOM     34  C   UNL A   1      37.501  31.575  30.620  1.00  0.00     0.031 A 
ATOM     35  C   UNL A   1      38.328  30.556  29.892  1.00  0.00     0.074 A 
ATOM     36  C   UNL A   1      37.751  31.846  31.914  1.00  0.00     0.049 A 
ATOM     37  N   UNL A   1      39.371  29.889  30.317  1.00  0.00    -0.248 NA
ATOM     38  C   UNL A   1      37.932  30.243  28.513  1.00  0.00     0.031 C 
ATOM     39  C   UNL A   1      36.994  32.790  32.738  1.00  0.00     0.029 A 
ATOM     40  N   UNL A   1      38.720  31.369  32.760  1.00  0.00    -0.354 N 
ATOM     41  C   UNL A   1      39.773  29.093  29.253  1.00  0.00     0.074 A 
ATOM     42  C   UNL A   1      38.824  29.318  28.182  1.00  0.00     0.031 C 
ATOM     43  C   UNL A   1      37.551  32.855  33.956  1.00  0.00     0.029 A 
ATOM     44  C   UNL A   1      38.674  31.926  34.015  1.00  0.00     0.049 A 
ATOM     45  H   UNL A   1      39.382  30.691  32.493  1.00  0.00     0.167 HD
ATOM     46  C   UNL A   1      40.847  28.269  29.171  1.00  0.00     0.037 A 
ATOM     47  C   UNL A   1      39.449  31.708  35.094  1.00  0.00     0.037 A 
ATOM     48  C   UNL A   1      41.770  28.023  30.252  1.00  0.00     0.049 A 
ATOM     49  C   UNL A   1      40.583  30.723  34.995  1.00  0.00     0.074 A 
ATOM     50  C   UNL A   1      42.896  27.218  30.257  1.00  0.00     0.029 A 
ATOM     51  N   UNL A   1      41.660  28.559  31.527  1.00  0.00    -0.354 N 
ATOM     52  N   UNL A   1      40.997  30.035  33.959  1.00  0.00    -0.248 NA
ATOM     53  C   UNL A   1      41.358  30.488  36.221  1.00  0.00     0.031 C 
ATOM     54  C   UNL A   1      43.428  27.214  31.552  1.00  0.00     0.029 A 
ATOM     55  C   UNL A   1      42.678  28.075  32.335  1.00  0.00     0.049 A 
ATOM     56  H   UNL A   1      40.962  29.191  31.815  1.00  0.00     0.167 HD
ATOM     57  C   UNL A   1      42.100  29.313  34.400  1.00  0.00     0.074 A 
ATOM     58  C   UNL A   1      42.304  29.668  35.789  1.00  0.00     0.031 C 
ATOM     59  C   UNL A   1      42.874  28.432  33.717  1.00  0.00     0.037 A 
BRANCH  46  60
ATOM     60  C   UNL A   1      41.074  27.560  27.865  1.00  0.00     0.057 A 
ATOM     61  C   UNL A   1      40.554  26.280  27.640  1.00  0.00     0.134 A 
ATOM     62  C   UNL A   1      41.841  28.132  26.839  1.00  0.00     0.134 A 
ATOM     63  F   UNL A   1      39.823  25.665  28.583  1.00  0.00    -0.206 F 
ATOM     64  C   UNL A   1      40.782  25.596  26.444  1.00  0.00     0.040 A 
ATOM     65  C   UNL A   1      42.050  27.472  25.626  1.00  0.00     0.040 A 
ATOM     66  F   UNL A   1      42.368  29.357  26.986  1.00  0.00    -0.206 F 
ATOM     67  C   UNL A   1      41.523  26.198  25.429  1.00  0.00     0.006 A 
ENDBRANCH  46  60
BRANCH  47  68
ATOM     68  C   UNL A   1      39.186  32.423  36.370  1.00  0.00     0.057 A 
ATOM     69  C   UNL A   1      39.812  33.641  36.665  1.00  0.00     0.134 A 
ATOM     70  C   UNL A   1      38.256  31.937  37.297  1.00  0.00     0.134 A 
ATOM     71  F   UNL A   1      40.721  34.158  35.824  1.00  0.00    -0.206 F 
ATOM     72  C   UNL A   1      39.515  34.353  37.826  1.00  0.00     0.040 A 
ATOM     73  C   UNL A   1      37.923  32.657  38.445  1.00  0.00     0.040 A 
ATOM     74  F   UNL A   1      37.612  30.783  37.065  1.00  0.00    -0.206 F 
ATOM     75  C   UNL A   1      38.556  33.868  38.713  1.00  0.00     0.006 A 
ENDBRANCH  47  68
BRANCH  59  76
ATOM     76  C   UNL A   1      44.036  27.826  34.456  1.00  0.00     0.057 A 
ATOM     77  C   UNL A   1      43.895  26.602  35.124  1.00  0.00     0.134 A 
ATOM     78  C   UNL A   1      45.292  28.447  34.512  1.00  0.00     0.134 A 
ATOM     79  F   UNL A   1      42.719  25.956  35.124  1.00  0.00    -0.206 F 
ATOM     80  C   UNL A   1      44.958  26.017  35.814  1.00  0.00     0.040 A 
ATOM     81  C   UNL A   1      46.372  27.854  35.166  1.00  0.00     0.040 A 
ATOM     82  F   UNL A   1      45.502  29.614  33.885  1.00  0.00    -0.206 F 
ATOM     83  C   UNL A   1      46.206  26.637  35.825  1.00  0.00     0.006 A 
ENDBRANCH  59  76
ENDBRANCH  33  34
ENDBRANCH  26  28
ENDBRANCH  25  26
ENDBRANCH  24  25
ENDBRANCH   1  24
TORSDOF 16
ENDMDL
