MODEL 1
REMARK VINA RESULT:     -12.1      0.000      0.000
REMARK SMILES Cc1c(CC(=O)OCCOCCOC(=O)c2ccc(-c3c4nc(c(-c5c(F)cccc5F)c5ccc([nH]5)c(-c5c(F)cccc5F)c5nc(c(-c6c(F)cccc6F)c6ccc3[nH]6)C=C5)C=C4)cc2)cc(-c2ccccc2)cc1-c1ccccc1
REMARK SMILES IDX 10 1 9 2 8 3 7 4 5 5 6 6 4 7 3 8 1 9 2 10 79 11 70 12 78 13
REMARK SMILES IDX 71 14 80 15 81 16 85 17 82 18 84 19 83 20 72 21 73 22 77 23
REMARK SMILES IDX 74 24 76 25 75 26 11 27 12 28 13 29 14 30 15 31 16 32 17 33
REMARK SMILES IDX 69 34 18 35 68 36 19 37 20 38 21 39 62 40 22 41 67 42 61 43
REMARK SMILES IDX 63 44 23 45 66 46 60 47 59 48 24 50 50 51 33 52 49 53 34 54
REMARK SMILES IDX 37 55 48 56 64 57 35 58 36 59 47 61 65 62 38 63 25 64 26 65
REMARK SMILES IDX 31 66 27 67 28 68 30 69 32 70 29 71 51 72 52 73 57 74 53 75
REMARK SMILES IDX 54 76 56 77 58 78 55 79 39 80 40 81 45 82 41 83 42 84 44 85
REMARK SMILES IDX 46 86 43 87
REMARK H PARENT 63 49 37 60
REMARK Flexibility Score: inf
ROOT
ATOM      1  O   UNL A   1      33.766  27.706  26.362  1.00  0.00    -0.374 OA
ENDROOT
BRANCH   1   2
ATOM      2  C   UNL A   1      32.841  27.157  25.436  1.00  0.00     0.202 C 
BRANCH   2   3
ATOM      3  C   UNL A   1      33.628  26.439  24.390  1.00  0.00     0.261 C 
BRANCH   3   4
ATOM      4  O   UNL A   1      32.817  25.699  23.485  1.00  0.00    -0.463 OA
BRANCH   4   5
ATOM      5  C   UNL A   1      32.531  24.402  23.826  1.00  0.00     0.310 C 
ATOM      6  O   UNL A   1      31.877  24.045  24.778  1.00  0.00    -0.252 OA
BRANCH   5   7
ATOM      7  C   UNL A   1      33.146  23.468  22.795  1.00  0.00     0.158 C 
BRANCH   7   8
ATOM      8  C   UNL A   1      33.945  22.367  23.480  1.00  0.00    -0.033 A 
ATOM      9  C   UNL A   1      31.945  20.813  23.373  1.00  0.00     0.045 C 
ATOM     10  C   UNL A   1      33.373  21.112  23.788  1.00  0.00    -0.039 A 
ATOM     11  C   UNL A   1      34.125  20.181  24.544  1.00  0.00    -0.015 A 
ATOM     12  C   UNL A   1      35.194  22.717  24.028  1.00  0.00     0.013 A 
ATOM     13  C   UNL A   1      35.333  20.600  25.145  1.00  0.00     0.017 A 
ATOM     14  C   UNL A   1      35.868  21.870  24.915  1.00  0.00    -0.017 A 
BRANCH  11  15
ATOM     15  C   UNL A   1      33.750  18.760  24.621  1.00  0.00    -0.018 A 
ATOM     16  C   UNL A   1      32.878  18.255  25.594  1.00  0.00     0.009 A 
ATOM     17  C   UNL A   1      34.341  17.856  23.719  1.00  0.00     0.009 A 
ATOM     18  C   UNL A   1      32.610  16.883  25.658  1.00  0.00     0.001 A 
ATOM     19  C   UNL A   1      34.064  16.493  23.773  1.00  0.00     0.001 A 
ATOM     20  C   UNL A   1      33.202  16.007  24.750  1.00  0.00     0.000 A 
ENDBRANCH  11  15
BRANCH  14  21
ATOM     21  C   UNL A   1      37.099  22.318  25.576  1.00  0.00    -0.018 A 
ATOM     22  C   UNL A   1      37.237  23.626  26.071  1.00  0.00     0.009 A 
ATOM     23  C   UNL A   1      38.195  21.453  25.679  1.00  0.00     0.009 A 
ATOM     24  C   UNL A   1      38.454  24.075  26.592  1.00  0.00     0.001 A 
ATOM     25  C   UNL A   1      39.402  21.891  26.225  1.00  0.00     0.001 A 
ATOM     26  C   UNL A   1      39.538  23.206  26.664  1.00  0.00     0.000 A 
ENDBRANCH  14  21
ENDBRANCH   7   8
ENDBRANCH   5   7
ENDBRANCH   4   5
ENDBRANCH   3   4
ENDBRANCH   2   3
ENDBRANCH   1   2
BRANCH   1  27
ATOM     27  C   UNL A   1      33.242  28.724  27.203  1.00  0.00     0.202 C 
BRANCH  27  28
ATOM     28  C   UNL A   1      33.769  30.147  26.923  1.00  0.00     0.261 C 
BRANCH  28  29
ATOM     29  O   UNL A   1      34.175  30.791  28.150  1.00  0.00    -0.460 OA
BRANCH  29  30
ATOM     30  C   UNL A   1      35.434  31.312  28.177  1.00  0.00     0.338 C 
ATOM     31  O   UNL A   1      35.747  32.434  27.809  1.00  0.00    -0.246 OA
BRANCH  30  32
ATOM     32  C   UNL A   1      36.414  30.206  28.388  1.00  0.00     0.060 A 
ATOM     33  C   UNL A   1      36.520  29.576  29.643  1.00  0.00     0.016 A 
ATOM     34  C   UNL A   1      37.458  30.107  27.476  1.00  0.00     0.016 A 
ATOM     35  C   UNL A   1      37.736  28.997  30.042  1.00  0.00     0.010 A 
ATOM     36  C   UNL A   1      38.683  29.688  27.937  1.00  0.00     0.010 A 
ATOM     37  C   UNL A   1      38.849  29.137  29.217  1.00  0.00    -0.014 A 
BRANCH  37  38
ATOM     38  C   UNL A   1      40.243  28.830  29.563  1.00  0.00     0.031 A 
ATOM     39  C   UNL A   1      40.868  27.675  28.874  1.00  0.00     0.074 A 
ATOM     40  C   UNL A   1      41.024  29.664  30.300  1.00  0.00     0.049 A 
ATOM     41  N   UNL A   1      41.856  27.000  29.350  1.00  0.00    -0.248 NA
ATOM     42  C   UNL A   1      40.403  27.146  27.593  1.00  0.00     0.031 C 
ATOM     43  C   UNL A   1      42.485  29.686  30.403  1.00  0.00     0.029 A 
ATOM     44  N   UNL A   1      40.653  30.704  31.165  1.00  0.00    -0.354 N 
ATOM     45  C   UNL A   1      42.353  26.217  28.330  1.00  0.00     0.074 A 
ATOM     46  C   UNL A   1      41.349  26.256  27.304  1.00  0.00     0.031 C 
ATOM     47  C   UNL A   1      42.847  30.417  31.477  1.00  0.00     0.029 A 
ATOM     48  C   UNL A   1      41.629  30.813  32.166  1.00  0.00     0.049 A 
ATOM     49  H   UNL A   1      39.846  31.261  31.083  1.00  0.00     0.167 HD
ATOM     50  C   UNL A   1      43.636  25.764  28.412  1.00  0.00     0.037 A 
ATOM     51  C   UNL A   1      41.300  30.674  33.477  1.00  0.00     0.037 A 
ATOM     52  C   UNL A   1      44.258  26.255  29.652  1.00  0.00     0.049 A 
ATOM     53  C   UNL A   1      41.995  29.454  33.994  1.00  0.00     0.074 A 
ATOM     54  C   UNL A   1      45.123  27.311  29.895  1.00  0.00     0.029 A 
ATOM     55  N   UNL A   1      43.726  25.895  30.890  1.00  0.00    -0.354 N 
ATOM     56  N   UNL A   1      42.437  28.528  33.189  1.00  0.00    -0.248 NA
ATOM     57  C   UNL A   1      42.321  29.188  35.390  1.00  0.00     0.031 C 
ATOM     58  C   UNL A   1      45.052  27.627  31.279  1.00  0.00     0.029 A 
ATOM     59  C   UNL A   1      44.163  26.752  31.887  1.00  0.00     0.049 A 
ATOM     60  H   UNL A   1      43.120  25.133  31.037  1.00  0.00     0.167 HD
ATOM     61  C   UNL A   1      43.138  27.608  33.892  1.00  0.00     0.074 A 
ATOM     62  C   UNL A   1      43.010  28.038  35.275  1.00  0.00     0.031 C 
ATOM     63  C   UNL A   1      43.759  26.565  33.278  1.00  0.00     0.037 A 
BRANCH  50  64
ATOM     64  C   UNL A   1      44.416  25.163  27.253  1.00  0.00     0.057 A 
ATOM     65  C   UNL A   1      44.805  23.809  27.282  1.00  0.00     0.134 A 
ATOM     66  C   UNL A   1      44.836  25.842  26.091  1.00  0.00     0.134 A 
ATOM     67  F   UNL A   1      44.404  22.982  28.257  1.00  0.00    -0.206 F 
ATOM     68  C   UNL A   1      45.615  23.218  26.300  1.00  0.00     0.040 A 
ATOM     69  C   UNL A   1      45.691  25.281  25.129  1.00  0.00     0.040 A 
ATOM     70  F   UNL A   1      44.381  27.056  25.769  1.00  0.00    -0.206 F 
ATOM     71  C   UNL A   1      46.090  23.962  25.233  1.00  0.00     0.006 A 
ENDBRANCH  50  64
BRANCH  51  72
ATOM     72  C   UNL A   1      39.912  31.160  33.751  1.00  0.00     0.057 A 
ATOM     73  C   UNL A   1      39.735  32.556  33.878  1.00  0.00     0.134 A 
ATOM     74  C   UNL A   1      38.780  30.418  33.400  1.00  0.00     0.134 A 
ATOM     75  F   UNL A   1      40.777  33.337  34.208  1.00  0.00    -0.206 F 
ATOM     76  C   UNL A   1      38.542  33.195  33.518  1.00  0.00     0.040 A 
ATOM     77  C   UNL A   1      37.575  31.049  33.047  1.00  0.00     0.040 A 
ATOM     78  F   UNL A   1      38.855  29.088  33.253  1.00  0.00    -0.206 F 
ATOM     79  C   UNL A   1      37.469  32.440  33.057  1.00  0.00     0.006 A 
ENDBRANCH  51  72
BRANCH  63  80
ATOM     80  C   UNL A   1      44.105  25.306  33.997  1.00  0.00     0.057 A 
ATOM     81  C   UNL A   1      43.153  24.551  34.700  1.00  0.00     0.134 A 
ATOM     82  C   UNL A   1      45.374  24.717  33.853  1.00  0.00     0.134 A 
ATOM     83  F   UNL A   1      41.873  24.942  34.792  1.00  0.00    -0.206 F 
ATOM     84  C   UNL A   1      43.465  23.329  35.293  1.00  0.00     0.040 A 
ATOM     85  C   UNL A   1      45.678  23.467  34.388  1.00  0.00     0.040 A 
ATOM     86  F   UNL A   1      46.355  25.314  33.161  1.00  0.00    -0.206 F 
ATOM     87  C   UNL A   1      44.729  22.778  35.130  1.00  0.00     0.006 A 
ENDBRANCH  63  80
ENDBRANCH  37  38
ENDBRANCH  30  32
ENDBRANCH  29  30
ENDBRANCH  28  29
ENDBRANCH  27  28
ENDBRANCH   1  27
TORSDOF 17
ENDMDL
MODEL 2
REMARK VINA RESULT:     -12.0      1.531      1.933
REMARK SMILES Cc1c(CC(=O)OCCOCCOC(=O)c2ccc(-c3c4nc(c(-c5c(F)cccc5F)c5ccc([nH]5)c(-c5c(F)cccc5F)c5nc(c(-c6c(F)cccc6F)c6ccc3[nH]6)C=C5)C=C4)cc2)cc(-c2ccccc2)cc1-c1ccccc1
REMARK SMILES IDX 10 1 9 2 8 3 7 4 5 5 6 6 4 7 3 8 1 9 2 10 79 11 70 12 78 13
REMARK SMILES IDX 71 14 80 15 81 16 85 17 82 18 84 19 83 20 72 21 73 22 77 23
REMARK SMILES IDX 74 24 76 25 75 26 11 27 12 28 13 29 14 30 15 31 16 32 17 33
REMARK SMILES IDX 69 34 18 35 68 36 19 37 20 38 21 39 62 40 22 41 67 42 61 43
REMARK SMILES IDX 63 44 23 45 66 46 60 47 59 48 24 50 50 51 33 52 49 53 34 54
REMARK SMILES IDX 37 55 48 56 64 57 35 58 36 59 47 61 65 62 38 63 25 64 26 65
REMARK SMILES IDX 31 66 27 67 28 68 30 69 32 70 29 71 51 72 52 73 57 74 53 75
REMARK SMILES IDX 54 76 56 77 58 78 55 79 39 80 40 81 45 82 41 83 42 84 44 85
REMARK SMILES IDX 46 86 43 87
REMARK H PARENT 63 49 37 60
REMARK Flexibility Score: inf
ROOT
ATOM      1  O   UNL A   1      32.550  28.937  24.328  1.00  0.00    -0.374 OA
ENDROOT
BRANCH   1   2
ATOM      2  C   UNL A   1      31.987  27.701  23.916  1.00  0.00     0.202 C 
BRANCH   2   3
ATOM      3  C   UNL A   1      33.076  26.904  23.276  1.00  0.00     0.261 C 
BRANCH   3   4
ATOM      4  O   UNL A   1      33.559  25.849  24.099  1.00  0.00    -0.463 OA
BRANCH   4   5
ATOM      5  C   UNL A   1      32.858  24.670  24.072  1.00  0.00     0.310 C 
ATOM      6  O   UNL A   1      31.915  24.388  24.773  1.00  0.00    -0.252 OA
BRANCH   5   7
ATOM      7  C   UNL A   1      33.440  23.770  22.993  1.00  0.00     0.158 C 
BRANCH   7   8
ATOM      8  C   UNL A   1      34.224  22.624  23.619  1.00  0.00    -0.033 A 
ATOM      9  C   UNL A   1      32.163  21.147  23.559  1.00  0.00     0.045 C 
ATOM     10  C   UNL A   1      33.617  21.383  23.922  1.00  0.00    -0.039 A 
ATOM     11  C   UNL A   1      34.364  20.406  24.624  1.00  0.00    -0.015 A 
ATOM     12  C   UNL A   1      35.506  22.913  24.123  1.00  0.00     0.013 A 
ATOM     13  C   UNL A   1      35.610  20.765  25.184  1.00  0.00     0.017 A 
ATOM     14  C   UNL A   1      36.183  22.020  24.961  1.00  0.00    -0.017 A 
BRANCH  11  15
ATOM     15  C   UNL A   1      33.939  18.998  24.683  1.00  0.00    -0.018 A 
ATOM     16  C   UNL A   1      32.850  18.564  25.450  1.00  0.00     0.009 A 
ATOM     17  C   UNL A   1      34.696  18.035  23.990  1.00  0.00     0.009 A 
ATOM     18  C   UNL A   1      32.534  17.203  25.519  1.00  0.00     0.001 A 
ATOM     19  C   UNL A   1      34.373  16.682  24.048  1.00  0.00     0.001 A 
ATOM     20  C   UNL A   1      33.294  16.267  24.820  1.00  0.00     0.000 A 
ENDBRANCH  11  15
BRANCH  14  21
ATOM     21  C   UNL A   1      37.457  22.405  25.581  1.00  0.00    -0.018 A 
ATOM     22  C   UNL A   1      38.504  21.484  25.747  1.00  0.00     0.009 A 
ATOM     23  C   UNL A   1      37.632  23.703  26.074  1.00  0.00     0.009 A 
ATOM     24  C   UNL A   1      39.666  21.831  26.444  1.00  0.00     0.001 A 
ATOM     25  C   UNL A   1      38.803  24.060  26.745  1.00  0.00     0.001 A 
ATOM     26  C   UNL A   1      39.812  23.120  26.946  1.00  0.00     0.000 A 
ENDBRANCH  14  21
ENDBRANCH   7   8
ENDBRANCH   5   7
ENDBRANCH   4   5
ENDBRANCH   3   4
ENDBRANCH   2   3
ENDBRANCH   1   2
BRANCH   1  27
ATOM     27  C   UNL A   1      31.860  29.589  25.385  1.00  0.00     0.202 C 
BRANCH  27  28
ATOM     28  C   UNL A   1      32.650  29.727  26.703  1.00  0.00     0.261 C 
BRANCH  28  29
ATOM     29  O   UNL A   1      33.852  30.501  26.499  1.00  0.00    -0.460 OA
BRANCH  29  30
ATOM     30  C   UNL A   1      34.429  31.036  27.612  1.00  0.00     0.338 C 
ATOM     31  O   UNL A   1      34.296  32.186  27.999  1.00  0.00    -0.246 OA
BRANCH  30  32
ATOM     32  C   UNL A   1      35.510  30.122  28.087  1.00  0.00     0.060 A 
ATOM     33  C   UNL A   1      35.527  29.667  29.419  1.00  0.00     0.016 A 
ATOM     34  C   UNL A   1      36.672  30.075  27.326  1.00  0.00     0.016 A 
ATOM     35  C   UNL A   1      36.744  29.329  30.034  1.00  0.00     0.010 A 
ATOM     36  C   UNL A   1      37.868  29.902  27.982  1.00  0.00     0.010 A 
ATOM     37  C   UNL A   1      37.930  29.536  29.336  1.00  0.00    -0.014 A 
BRANCH  37  38
ATOM     38  C   UNL A   1      39.293  29.486  29.883  1.00  0.00     0.031 A 
ATOM     39  C   UNL A   1      40.109  28.294  29.545  1.00  0.00     0.074 A 
ATOM     40  C   UNL A   1      39.889  30.549  30.484  1.00  0.00     0.049 A 
ATOM     41  N   UNL A   1      41.089  27.866  30.261  1.00  0.00    -0.248 NA
ATOM     42  C   UNL A   1      39.862  27.446  28.380  1.00  0.00     0.031 C 
ATOM     43  C   UNL A   1      41.317  30.773  30.726  1.00  0.00     0.029 A 
ATOM     44  N   UNL A   1      39.312  31.699  31.043  1.00  0.00    -0.354 N 
ATOM     45  C   UNL A   1      41.784  26.947  29.505  1.00  0.00     0.074 A 
ATOM     46  C   UNL A   1      40.919  26.638  28.401  1.00  0.00     0.031 C 
ATOM     47  C   UNL A   1      41.467  31.759  31.634  1.00  0.00     0.029 A 
ATOM     48  C   UNL A   1      40.139  32.142  32.086  1.00  0.00     0.049 A 
ATOM     49  H   UNL A   1      38.472  32.122  30.754  1.00  0.00     0.167 HD
ATOM     50  C   UNL A   1      43.084  26.684  29.819  1.00  0.00     0.037 A 
ATOM     51  C   UNL A   1      39.661  32.252  33.353  1.00  0.00     0.037 A 
ATOM     52  C   UNL A   1      43.494  27.505  30.969  1.00  0.00     0.049 A 
ATOM     53  C   UNL A   1      40.400  31.268  34.205  1.00  0.00     0.074 A 
ATOM     54  C   UNL A   1      44.214  28.686  31.049  1.00  0.00     0.029 A 
ATOM     55  N   UNL A   1      42.847  27.360  32.197  1.00  0.00    -0.354 N 
ATOM     56  N   UNL A   1      41.029  30.251  33.684  1.00  0.00    -0.248 NA
ATOM     57  C   UNL A   1      40.571  31.355  35.650  1.00  0.00     0.031 C 
ATOM     58  C   UNL A   1      43.938  29.284  32.309  1.00  0.00     0.029 A 
ATOM     59  C   UNL A   1      43.069  28.460  33.008  1.00  0.00     0.049 A 
ATOM     60  H   UNL A   1      42.304  26.580  32.452  1.00  0.00     0.167 HD
ATOM     61  C   UNL A   1      41.720  29.599  34.648  1.00  0.00     0.074 A 
ATOM     62  C   UNL A   1      41.377  30.301  35.874  1.00  0.00     0.031 C 
ATOM     63  C   UNL A   1      42.512  28.532  34.356  1.00  0.00     0.037 A 
BRANCH  50  64
ATOM     64  C   UNL A   1      44.059  25.945  28.914  1.00  0.00     0.057 A 
ATOM     65  C   UNL A   1      44.230  24.552  29.038  1.00  0.00     0.134 A 
ATOM     66  C   UNL A   1      44.874  26.524  27.920  1.00  0.00     0.134 A 
ATOM     67  F   UNL A   1      43.464  23.819  29.857  1.00  0.00    -0.206 F 
ATOM     68  C   UNL A   1      45.186  23.824  28.313  1.00  0.00     0.040 A 
ATOM     69  C   UNL A   1      45.872  25.820  27.227  1.00  0.00     0.040 A 
ATOM     70  F   UNL A   1      44.701  27.778  27.496  1.00  0.00    -0.206 F 
ATOM     71  C   UNL A   1      46.036  24.462  27.425  1.00  0.00     0.006 A 
ENDBRANCH  50  64
BRANCH  51  72
ATOM     72  C   UNL A   1      38.210  32.612  33.366  1.00  0.00     0.057 A 
ATOM     73  C   UNL A   1      37.882  33.963  33.112  1.00  0.00     0.134 A 
ATOM     74  C   UNL A   1      37.207  31.670  33.116  1.00  0.00     0.134 A 
ATOM     75  F   UNL A   1      38.794  34.926  33.323  1.00  0.00    -0.206 F 
ATOM     76  C   UNL A   1      36.683  34.338  32.494  1.00  0.00     0.040 A 
ATOM     77  C   UNL A   1      35.997  32.039  32.505  1.00  0.00     0.040 A 
ATOM     78  F   UNL A   1      37.430  30.366  33.324  1.00  0.00    -0.206 F 
ATOM     79  C   UNL A   1      35.753  33.365  32.147  1.00  0.00     0.006 A 
ENDBRANCH  51  72
BRANCH  63  80
ATOM     80  C   UNL A   1      42.885  27.512  35.378  1.00  0.00     0.057 A 
ATOM     81  C   UNL A   1      42.187  26.303  35.528  1.00  0.00     0.134 A 
ATOM     82  C   UNL A   1      44.072  27.635  36.122  1.00  0.00     0.134 A 
ATOM     83  F   UNL A   1      41.115  26.011  34.776  1.00  0.00    -0.206 F 
ATOM     84  C   UNL A   1      42.596  25.316  36.422  1.00  0.00     0.040 A 
ATOM     85  C   UNL A   1      44.523  26.627  36.971  1.00  0.00     0.040 A 
ATOM     86  F   UNL A   1      44.854  28.720  36.029  1.00  0.00    -0.206 F 
ATOM     87  C   UNL A   1      43.773  25.472  37.141  1.00  0.00     0.006 A 
ENDBRANCH  63  80
ENDBRANCH  37  38
ENDBRANCH  30  32
ENDBRANCH  29  30
ENDBRANCH  28  29
ENDBRANCH  27  28
ENDBRANCH   1  27
TORSDOF 17
ENDMDL
MODEL 3
REMARK VINA RESULT:     -12.0      3.015      5.935
REMARK SMILES Cc1c(CC(=O)OCCOCCOC(=O)c2ccc(-c3c4nc(c(-c5c(F)cccc5F)c5ccc([nH]5)c(-c5c(F)cccc5F)c5nc(c(-c6c(F)cccc6F)c6ccc3[nH]6)C=C5)C=C4)cc2)cc(-c2ccccc2)cc1-c1ccccc1
REMARK SMILES IDX 10 1 9 2 8 3 7 4 5 5 6 6 4 7 3 8 1 9 2 10 79 11 70 12 78 13
REMARK SMILES IDX 71 14 80 15 81 16 85 17 82 18 84 19 83 20 72 21 73 22 77 23
REMARK SMILES IDX 74 24 76 25 75 26 11 27 12 28 13 29 14 30 15 31 16 32 17 33
REMARK SMILES IDX 69 34 18 35 68 36 19 37 20 38 21 39 62 40 22 41 67 42 61 43
REMARK SMILES IDX 63 44 23 45 66 46 60 47 59 48 24 50 50 51 33 52 49 53 34 54
REMARK SMILES IDX 37 55 48 56 64 57 35 58 36 59 47 61 65 62 38 63 25 64 26 65
REMARK SMILES IDX 31 66 27 67 28 68 30 69 32 70 29 71 51 72 52 73 57 74 53 75
REMARK SMILES IDX 54 76 56 77 58 78 55 79 39 80 40 81 45 82 41 83 42 84 44 85
REMARK SMILES IDX 46 86 43 87
REMARK H PARENT 63 49 37 60
REMARK Flexibility Score: inf
ROOT
ATOM      1  O   UNL A   1      33.326  33.950  29.330  1.00  0.00    -0.374 OA
ENDROOT
BRANCH   1   2
ATOM      2  C   UNL A   1      33.350  33.520  27.978  1.00  0.00     0.202 C 
BRANCH   2   3
ATOM      3  C   UNL A   1      33.898  32.131  27.959  1.00  0.00     0.261 C 
BRANCH   3   4
ATOM      4  O   UNL A   1      33.053  31.202  27.289  1.00  0.00    -0.463 OA
BRANCH   4   5
ATOM      5  C   UNL A   1      33.579  29.964  27.024  1.00  0.00     0.310 C 
ATOM      6  O   UNL A   1      34.697  29.738  26.624  1.00  0.00    -0.252 OA
BRANCH   5   7
ATOM      7  C   UNL A   1      32.537  28.902  27.339  1.00  0.00     0.158 C 
BRANCH   7   8
ATOM      8  C   UNL A   1      31.900  28.381  26.057  1.00  0.00    -0.033 A 
ATOM      9  C   UNL A   1      33.456  26.380  26.066  1.00  0.00     0.045 C 
ATOM     10  C   UNL A   1      32.352  27.200  25.426  1.00  0.00    -0.039 A 
ATOM     11  C   UNL A   1      31.809  26.841  24.168  1.00  0.00    -0.015 A 
ATOM     12  C   UNL A   1      31.017  29.241  25.376  1.00  0.00     0.013 A 
ATOM     13  C   UNL A   1      30.994  27.769  23.483  1.00  0.00     0.017 A 
ATOM     14  C   UNL A   1      30.608  28.980  24.063  1.00  0.00    -0.017 A 
BRANCH  11  15
ATOM     15  C   UNL A   1      31.969  25.489  23.611  1.00  0.00    -0.018 A 
ATOM     16  C   UNL A   1      31.169  24.407  23.998  1.00  0.00     0.009 A 
ATOM     17  C   UNL A   1      33.010  25.256  22.693  1.00  0.00     0.009 A 
ATOM     18  C   UNL A   1      31.411  23.129  23.481  1.00  0.00     0.001 A 
ATOM     19  C   UNL A   1      33.243  23.989  22.168  1.00  0.00     0.001 A 
ATOM     20  C   UNL A   1      32.445  22.923  22.569  1.00  0.00     0.000 A 
ENDBRANCH  11  15
BRANCH  14  21
ATOM     21  C   UNL A   1      29.798  29.961  23.331  1.00  0.00    -0.018 A 
ATOM     22  C   UNL A   1      29.430  29.759  21.990  1.00  0.00     0.009 A 
ATOM     23  C   UNL A   1      29.418  31.158  23.948  1.00  0.00     0.009 A 
ATOM     24  C   UNL A   1      28.760  30.752  21.269  1.00  0.00     0.001 A 
ATOM     25  C   UNL A   1      28.724  32.139  23.238  1.00  0.00     0.001 A 
ATOM     26  C   UNL A   1      28.412  31.945  21.893  1.00  0.00     0.000 A 
ENDBRANCH  14  21
ENDBRANCH   7   8
ENDBRANCH   5   7
ENDBRANCH   4   5
ENDBRANCH   3   4
ENDBRANCH   2   3
ENDBRANCH   1   2
BRANCH   1  27
ATOM     27  C   UNL A   1      33.335  35.358  29.515  1.00  0.00     0.202 C 
BRANCH  27  28
ATOM     28  C   UNL A   1      33.066  35.838  30.956  1.00  0.00     0.261 C 
BRANCH  28  29
ATOM     29  O   UNL A   1      33.339  34.783  31.903  1.00  0.00    -0.460 OA
BRANCH  29  30
ATOM     30  C   UNL A   1      34.575  34.788  32.480  1.00  0.00     0.338 C 
ATOM     31  O   UNL A   1      35.122  35.758  32.979  1.00  0.00    -0.246 OA
BRANCH  30  32
ATOM     32  C   UNL A   1      35.293  33.534  32.103  1.00  0.00     0.060 A 
ATOM     33  C   UNL A   1      35.517  32.525  33.059  1.00  0.00     0.016 A 
ATOM     34  C   UNL A   1      36.064  33.574  30.948  1.00  0.00     0.016 A 
ATOM     35  C   UNL A   1      36.622  31.667  32.934  1.00  0.00     0.010 A 
ATOM     36  C   UNL A   1      37.228  32.844  30.921  1.00  0.00     0.010 A 
ATOM     37  C   UNL A   1      37.532  31.890  31.905  1.00  0.00    -0.014 A 
BRANCH  37  38
ATOM     38  C   UNL A   1      38.858  31.275  31.755  1.00  0.00     0.031 A 
ATOM     39  C   UNL A   1      38.972  30.145  30.803  1.00  0.00     0.074 A 
ATOM     40  C   UNL A   1      39.990  31.822  32.273  1.00  0.00     0.049 A 
ATOM     41  N   UNL A   1      39.874  29.230  30.874  1.00  0.00    -0.248 NA
ATOM     42  C   UNL A   1      38.041  29.919  29.698  1.00  0.00     0.031 C 
ATOM     43  C   UNL A   1      41.382  31.552  31.902  1.00  0.00     0.029 A 
ATOM     44  N   UNL A   1      40.138  32.766  33.300  1.00  0.00    -0.354 N 
ATOM     45  C   UNL A   1      39.856  28.536  29.683  1.00  0.00     0.074 A 
ATOM     46  C   UNL A   1      38.630  28.922  29.042  1.00  0.00     0.031 C 
ATOM     47  C   UNL A   1      42.201  32.025  32.863  1.00  0.00     0.029 A 
ATOM     48  C   UNL A   1      41.364  32.531  33.939  1.00  0.00     0.049 A 
ATOM     49  H   UNL A   1      39.493  33.472  33.532  1.00  0.00     0.167 HD
ATOM     50  C   UNL A   1      40.967  27.841  29.308  1.00  0.00     0.037 A 
ATOM     51  C   UNL A   1      41.413  32.255  35.269  1.00  0.00     0.037 A 
ATOM     52  C   UNL A   1      42.022  28.007  30.320  1.00  0.00     0.049 A 
ATOM     53  C   UNL A   1      41.933  30.860  35.425  1.00  0.00     0.074 A 
ATOM     54  C   UNL A   1      43.137  28.829  30.365  1.00  0.00     0.029 A 
ATOM     55  N   UNL A   1      41.812  27.565  31.627  1.00  0.00    -0.354 N 
ATOM     56  N   UNL A   1      41.895  30.004  34.442  1.00  0.00    -0.248 NA
ATOM     57  C   UNL A   1      42.586  30.324  36.612  1.00  0.00     0.031 C 
ATOM     58  C   UNL A   1      43.551  28.933  31.721  1.00  0.00     0.029 A 
ATOM     59  C   UNL A   1      42.707  28.158  32.502  1.00  0.00     0.049 A 
ATOM     60  H   UNL A   1      41.119  26.918  31.892  1.00  0.00     0.167 HD
ATOM     61  C   UNL A   1      42.542  28.870  34.798  1.00  0.00     0.074 A 
ATOM     62  C   UNL A   1      42.929  29.096  36.181  1.00  0.00     0.031 C 
ATOM     63  C   UNL A   1      42.699  27.838  33.927  1.00  0.00     0.037 A 
BRANCH  50  64
ATOM     64  C   UNL A   1      41.212  27.291  27.911  1.00  0.00     0.057 A 
ATOM     65  C   UNL A   1      41.024  25.920  27.642  1.00  0.00     0.134 A 
ATOM     66  C   UNL A   1      41.646  28.028  26.790  1.00  0.00     0.134 A 
ATOM     67  F   UNL A   1      40.513  25.087  28.558  1.00  0.00    -0.206 F 
ATOM     68  C   UNL A   1      41.332  25.327  26.408  1.00  0.00     0.040 A 
ATOM     69  C   UNL A   1      42.011  27.441  25.568  1.00  0.00     0.040 A 
ATOM     70  F   UNL A   1      41.665  29.363  26.777  1.00  0.00    -0.206 F 
ATOM     71  C   UNL A   1      41.859  26.081  25.373  1.00  0.00     0.006 A 
ENDBRANCH  50  64
BRANCH  51  72
ATOM     72  C   UNL A   1      40.318  32.946  36.016  1.00  0.00     0.057 A 
ATOM     73  C   UNL A   1      39.202  32.163  36.388  1.00  0.00     0.134 A 
ATOM     74  C   UNL A   1      40.544  34.104  36.767  1.00  0.00     0.134 A 
ATOM     75  F   UNL A   1      38.922  31.034  35.717  1.00  0.00    -0.206 F 
ATOM     76  C   UNL A   1      38.451  32.430  37.539  1.00  0.00     0.040 A 
ATOM     77  C   UNL A   1      39.789  34.386  37.918  1.00  0.00     0.040 A 
ATOM     78  F   UNL A   1      41.581  34.905  36.488  1.00  0.00    -0.206 F 
ATOM     79  C   UNL A   1      38.775  33.523  38.335  1.00  0.00     0.006 A 
ENDBRANCH  51  72
BRANCH  63  80
ATOM     80  C   UNL A   1      42.945  26.439  34.382  1.00  0.00     0.057 A 
ATOM     81  C   UNL A   1      44.198  25.816  34.266  1.00  0.00     0.134 A 
ATOM     82  C   UNL A   1      41.974  25.739  35.120  1.00  0.00     0.134 A 
ATOM     83  F   UNL A   1      45.244  26.438  33.702  1.00  0.00    -0.206 F 
ATOM     84  C   UNL A   1      44.444  24.543  34.776  1.00  0.00     0.040 A 
ATOM     85  C   UNL A   1      42.230  24.492  35.688  1.00  0.00     0.040 A 
ATOM     86  F   UNL A   1      40.755  26.248  35.345  1.00  0.00    -0.206 F 
ATOM     87  C   UNL A   1      43.461  23.880  35.498  1.00  0.00     0.006 A 
ENDBRANCH  63  80
ENDBRANCH  37  38
ENDBRANCH  30  32
ENDBRANCH  29  30
ENDBRANCH  28  29
ENDBRANCH  27  28
ENDBRANCH   1  27
TORSDOF 17
ENDMDL
