MODEL 1
REMARK VINA RESULT:     -10.1      0.000      0.000
REMARK SMILES O=C(OCCOCCOC(=O)[C@H](CCO)NC(=O)c1cccc(C(F)(F)F)c1F)c1ccc(-c2c3nc(c(-c4c(F)cccc4F)c4ccc([nH]4)c(-c4c(F)cccc4F)c4nc(c(-c5c(F)cccc5F)c5ccc2[nH]5)C=C4)C=C3)cc1
REMARK SMILES IDX 7 1 6 2 5 3 4 4 3 5 2 6 1 7 30 8 31 9 83 10 32 11 82 12
REMARK SMILES IDX 33 13 34 14 35 15 76 16 36 17 81 18 75 19 77 20 37 21 80 22
REMARK SMILES IDX 74 23 73 24 38 26 64 27 47 28 63 29 48 30 51 31 62 32 78 33
REMARK SMILES IDX 49 34 50 35 61 37 79 38 52 39 39 40 40 41 45 42 41 43 42 44
REMARK SMILES IDX 44 45 46 46 43 47 65 48 66 49 71 50 67 51 68 52 70 53 72 54
REMARK SMILES IDX 69 55 53 56 54 57 59 58 55 59 56 60 58 61 60 62 57 63 8 64
REMARK SMILES IDX 9 65 10 66 11 67 12 68 16 69 17 70 18 72 19 73 20 74 28 75
REMARK SMILES IDX 21 76 23 77 29 78 22 79 24 80 25 81 26 82 27 83 13 84 14 85
REMARK SMILES IDX 15 86
REMARK H PARENT 77 25 51 36 16 71 15 87
REMARK Flexibility Score: inf
ROOT
ATOM      1  C   UNL A   1      34.062  29.581  26.899  1.00  0.00     0.202 C 
ENDROOT
BRANCH   1   2
ATOM      2  O   UNL A   1      32.986  30.325  27.490  1.00  0.00    -0.374 OA
BRANCH   2   3
ATOM      3  C   UNL A   1      32.158  31.037  26.571  1.00  0.00     0.202 C 
BRANCH   3   4
ATOM      4  C   UNL A   1      31.395  32.203  27.204  1.00  0.00     0.261 C 
BRANCH   4   5
ATOM      5  O   UNL A   1      32.144  33.421  27.075  1.00  0.00    -0.460 OA
BRANCH   5   6
ATOM      6  C   UNL A   1      32.874  34.074  28.008  1.00  0.00     0.338 C 
ATOM      7  O   UNL A   1      32.415  35.111  28.485  1.00  0.00    -0.246 OA
BRANCH   6   8
ATOM      8  C   UNL A   1      34.206  33.614  28.514  1.00  0.00     0.060 A 
ATOM      9  C   UNL A   1      35.445  34.022  28.018  1.00  0.00     0.016 A 
ATOM     10  C   UNL A   1      34.202  32.759  29.631  1.00  0.00     0.016 A 
ATOM     11  C   UNL A   1      36.636  33.569  28.564  1.00  0.00     0.010 A 
ATOM     12  C   UNL A   1      35.396  32.308  30.204  1.00  0.00     0.010 A 
ATOM     13  C   UNL A   1      36.616  32.701  29.649  1.00  0.00    -0.014 A 
BRANCH  13  14
ATOM     14  C   UNL A   1      37.903  32.119  30.058  1.00  0.00     0.031 A 
ATOM     15  C   UNL A   1      38.590  32.709  31.250  1.00  0.00     0.074 A 
ATOM     16  C   UNL A   1      38.317  30.970  29.498  1.00  0.00     0.049 A 
ATOM     17  N   UNL A   1      39.691  32.332  31.840  1.00  0.00    -0.248 NA
ATOM     18  C   UNL A   1      37.927  33.862  31.884  1.00  0.00     0.031 C 
ATOM     19  C   UNL A   1      37.611  30.256  28.432  1.00  0.00     0.029 A 
ATOM     20  N   UNL A   1      39.392  30.173  29.782  1.00  0.00    -0.354 N 
ATOM     21  C   UNL A   1      39.858  33.207  32.904  1.00  0.00     0.074 A 
ATOM     22  C   UNL A   1      38.753  34.136  32.881  1.00  0.00     0.031 C 
ATOM     23  C   UNL A   1      38.255  29.105  28.179  1.00  0.00     0.029 A 
ATOM     24  C   UNL A   1      39.443  29.031  29.023  1.00  0.00     0.049 A 
ATOM     25  H   UNL A   1      40.064  30.398  30.466  1.00  0.00     0.167 HD
ATOM     26  C   UNL A   1      40.858  33.229  33.814  1.00  0.00     0.037 A 
ATOM     27  C   UNL A   1      40.362  28.047  29.010  1.00  0.00     0.037 A 
ATOM     28  C   UNL A   1      41.954  32.302  33.798  1.00  0.00     0.049 A 
ATOM     29  C   UNL A   1      41.520  28.151  29.964  1.00  0.00     0.074 A 
ATOM     30  C   UNL A   1      43.095  32.292  34.578  1.00  0.00     0.029 A 
ATOM     31  N   UNL A   1      42.036  31.208  32.945  1.00  0.00    -0.354 N 
ATOM     32  N   UNL A   1      41.740  29.048  30.897  1.00  0.00    -0.248 NA
ATOM     33  C   UNL A   1      42.565  27.125  29.856  1.00  0.00     0.031 C 
ATOM     34  C   UNL A   1      43.882  31.207  34.175  1.00  0.00     0.029 A 
ATOM     35  C   UNL A   1      43.210  30.516  33.176  1.00  0.00     0.049 A 
ATOM     36  H   UNL A   1      41.358  30.961  32.276  1.00  0.00     0.167 HD
ATOM     37  C   UNL A   1      42.941  28.695  31.492  1.00  0.00     0.074 A 
ATOM     38  C   UNL A   1      43.393  27.487  30.827  1.00  0.00     0.031 C 
ATOM     39  C   UNL A   1      43.616  29.313  32.492  1.00  0.00     0.037 A 
BRANCH  26  40
ATOM     40  C   UNL A   1      40.827  34.330  34.828  1.00  0.00     0.057 A 
ATOM     41  C   UNL A   1      40.250  34.118  36.086  1.00  0.00     0.134 A 
ATOM     42  C   UNL A   1      41.408  35.582  34.585  1.00  0.00     0.134 A 
ATOM     43  F   UNL A   1      39.690  32.937  36.387  1.00  0.00    -0.206 F 
ATOM     44  C   UNL A   1      40.252  35.110  37.067  1.00  0.00     0.040 A 
ATOM     45  C   UNL A   1      41.434  36.576  35.566  1.00  0.00     0.040 A 
ATOM     46  F   UNL A   1      42.009  35.836  33.413  1.00  0.00    -0.206 F 
ATOM     47  C   UNL A   1      40.852  36.341  36.811  1.00  0.00     0.006 A 
ENDBRANCH  26  40
BRANCH  27  48
ATOM     48  C   UNL A   1      40.229  26.918  28.055  1.00  0.00     0.057 A 
ATOM     49  C   UNL A   1      39.524  25.756  28.395  1.00  0.00     0.134 A 
ATOM     50  C   UNL A   1      40.826  26.956  26.789  1.00  0.00     0.134 A 
ATOM     51  F   UNL A   1      38.927  25.653  29.592  1.00  0.00    -0.206 F 
ATOM     52  C   UNL A   1      39.439  24.665  27.528  1.00  0.00     0.040 A 
ATOM     53  C   UNL A   1      40.727  25.882  25.900  1.00  0.00     0.040 A 
ATOM     54  F   UNL A   1      41.500  28.046  26.393  1.00  0.00    -0.206 F 
ATOM     55  C   UNL A   1      40.040  24.728  26.274  1.00  0.00     0.006 A 
ENDBRANCH  27  48
BRANCH  39  56
ATOM     56  C   UNL A   1      44.900  28.686  32.938  1.00  0.00     0.057 A 
ATOM     57  C   UNL A   1      44.907  27.743  33.973  1.00  0.00     0.134 A 
ATOM     58  C   UNL A   1      46.131  29.080  32.401  1.00  0.00     0.134 A 
ATOM     59  F   UNL A   1      43.758  27.336  34.531  1.00  0.00    -0.206 F 
ATOM     60  C   UNL A   1      46.101  27.223  34.470  1.00  0.00     0.040 A 
ATOM     61  C   UNL A   1      47.330  28.550  32.878  1.00  0.00     0.040 A 
ATOM     62  F   UNL A   1      46.183  29.975  31.403  1.00  0.00    -0.206 F 
ATOM     63  C   UNL A   1      47.317  27.626  33.922  1.00  0.00     0.006 A 
ENDBRANCH  39  56
ENDBRANCH  13  14
ENDBRANCH   6   8
ENDBRANCH   5   6
ENDBRANCH   4   5
ENDBRANCH   3   4
ENDBRANCH   2   3
ENDBRANCH   1   2
BRANCH   1  64
ATOM     64  C   UNL A   1      33.474  28.622  25.873  1.00  0.00     0.261 C 
BRANCH  64  65
ATOM     65  O   UNL A   1      33.222  27.399  26.570  1.00  0.00    -0.462 OA
BRANCH  65  66
ATOM     66  C   UNL A   1      31.925  27.095  26.839  1.00  0.00     0.328 C 
ATOM     67  O   UNL A   1      31.209  27.638  27.669  1.00  0.00    -0.250 OA
BRANCH  66  68
ATOM     68  C   UNL A   1      31.511  25.915  25.962  1.00  0.00     0.194 C 
BRANCH  68  69
ATOM     69  N   UNL A   1      31.290  24.775  26.851  1.00  0.00    -0.338 N 
ATOM     70  C   UNL A   1      31.981  23.587  26.899  1.00  0.00     0.254 C 
ATOM     71  H   UNL A   1      30.554  24.871  27.497  1.00  0.00     0.164 HD
ATOM     72  O   UNL A   1      31.790  22.797  27.817  1.00  0.00    -0.269 OA
BRANCH  70  73
ATOM     73  C   UNL A   1      32.846  23.194  25.774  1.00  0.00     0.076 A 
ATOM     74  C   UNL A   1      32.230  22.869  24.564  1.00  0.00     0.017 A 
ATOM     75  C   UNL A   1      34.235  23.157  25.881  1.00  0.00     0.148 A 
ATOM     76  C   UNL A   1      33.011  22.570  23.450  1.00  0.00     0.002 A 
ATOM     77  C   UNL A   1      35.031  22.940  24.756  1.00  0.00     0.092 A 
ATOM     78  F   UNL A   1      34.821  23.349  27.067  1.00  0.00    -0.205 F 
ATOM     79  C   UNL A   1      34.405  22.625  23.539  1.00  0.00     0.016 A 
BRANCH  77  80
ATOM     80  C   UNL A   1      36.524  23.055  24.852  1.00  0.00     0.419 C 
ATOM     81  F   UNL A   1      37.077  22.113  25.661  1.00  0.00    -0.166 F 
ATOM     82  F   UNL A   1      37.129  22.904  23.637  1.00  0.00    -0.166 F 
ATOM     83  F   UNL A   1      36.955  24.263  25.313  1.00  0.00    -0.166 F 
ENDBRANCH  77  80
ENDBRANCH  70  73
ENDBRANCH  68  69
BRANCH  68  84
ATOM     84  C   UNL A   1      30.265  26.269  25.136  1.00  0.00     0.065 C 
BRANCH  84  85
ATOM     85  C   UNL A   1      30.564  26.239  23.640  1.00  0.00     0.159 C 
BRANCH  85  86
ATOM     86  O   UNL A   1      31.932  26.498  23.373  1.00  0.00    -0.396 OA
ATOM     87  H   UNL A   1      32.081  27.457  23.353  1.00  0.00     0.210 HD
ENDBRANCH  85  86
ENDBRANCH  84  85
ENDBRANCH  68  84
ENDBRANCH  66  68
ENDBRANCH  65  66
ENDBRANCH  64  65
ENDBRANCH   1  64
TORSDOF 20
ENDMDL
MODEL 2
REMARK VINA RESULT:     -10.0      1.398      1.936
REMARK SMILES O=C(OCCOCCOC(=O)[C@H](CCO)NC(=O)c1cccc(C(F)(F)F)c1F)c1ccc(-c2c3nc(c(-c4c(F)cccc4F)c4ccc([nH]4)c(-c4c(F)cccc4F)c4nc(c(-c5c(F)cccc5F)c5ccc2[nH]5)C=C4)C=C3)cc1
REMARK SMILES IDX 7 1 6 2 5 3 4 4 3 5 2 6 1 7 30 8 31 9 83 10 32 11 82 12
REMARK SMILES IDX 33 13 34 14 35 15 76 16 36 17 81 18 75 19 77 20 37 21 80 22
REMARK SMILES IDX 74 23 73 24 38 26 64 27 47 28 63 29 48 30 51 31 62 32 78 33
REMARK SMILES IDX 49 34 50 35 61 37 79 38 52 39 39 40 40 41 45 42 41 43 42 44
REMARK SMILES IDX 44 45 46 46 43 47 65 48 66 49 71 50 67 51 68 52 70 53 72 54
REMARK SMILES IDX 69 55 53 56 54 57 59 58 55 59 56 60 58 61 60 62 57 63 8 64
REMARK SMILES IDX 9 65 10 66 11 67 12 68 16 69 17 70 18 72 19 73 20 74 28 75
REMARK SMILES IDX 21 76 23 77 29 78 22 79 24 80 25 81 26 82 27 83 13 84 14 85
REMARK SMILES IDX 15 86
REMARK H PARENT 77 25 51 36 16 71 15 87
REMARK Flexibility Score: inf
ROOT
ATOM      1  C   UNL A   1      33.232  28.663  27.258  1.00  0.00     0.202 C 
ENDROOT
BRANCH   1   2
ATOM      2  O   UNL A   1      32.176  29.629  27.149  1.00  0.00    -0.374 OA
BRANCH   2   3
ATOM      3  C   UNL A   1      32.593  30.960  26.847  1.00  0.00     0.202 C 
BRANCH   3   4
ATOM      4  C   UNL A   1      31.558  32.027  27.213  1.00  0.00     0.261 C 
BRANCH   4   5
ATOM      5  O   UNL A   1      32.140  33.338  27.136  1.00  0.00    -0.460 OA
BRANCH   5   6
ATOM      6  C   UNL A   1      32.876  33.998  28.059  1.00  0.00     0.338 C 
ATOM      7  O   UNL A   1      32.415  35.032  28.539  1.00  0.00    -0.246 OA
BRANCH   6   8
ATOM      8  C   UNL A   1      34.217  33.548  28.550  1.00  0.00     0.060 A 
ATOM      9  C   UNL A   1      35.445  33.897  27.986  1.00  0.00     0.016 A 
ATOM     10  C   UNL A   1      34.238  32.771  29.724  1.00  0.00     0.016 A 
ATOM     11  C   UNL A   1      36.646  33.460  28.522  1.00  0.00     0.010 A 
ATOM     12  C   UNL A   1      35.443  32.338  30.286  1.00  0.00     0.010 A 
ATOM     13  C   UNL A   1      36.650  32.669  29.665  1.00  0.00    -0.014 A 
BRANCH  13  14
ATOM     14  C   UNL A   1      37.940  32.092  30.070  1.00  0.00     0.031 A 
ATOM     15  C   UNL A   1      38.634  32.692  31.252  1.00  0.00     0.074 A 
ATOM     16  C   UNL A   1      38.351  30.938  29.517  1.00  0.00     0.049 A 
ATOM     17  N   UNL A   1      39.739  32.322  31.838  1.00  0.00    -0.248 NA
ATOM     18  C   UNL A   1      37.975  33.851  31.880  1.00  0.00     0.031 C 
ATOM     19  C   UNL A   1      37.639  30.214  28.462  1.00  0.00     0.029 A 
ATOM     20  N   UNL A   1      39.429  30.145  29.801  1.00  0.00    -0.354 N 
ATOM     21  C   UNL A   1      39.914  33.206  32.893  1.00  0.00     0.074 A 
ATOM     22  C   UNL A   1      38.807  34.134  32.869  1.00  0.00     0.031 C 
ATOM     23  C   UNL A   1      38.282  29.061  28.214  1.00  0.00     0.029 A 
ATOM     24  C   UNL A   1      39.475  28.996  29.050  1.00  0.00     0.049 A 
ATOM     25  H   UNL A   1      40.105  30.376  30.478  1.00  0.00     0.167 HD
ATOM     26  C   UNL A   1      40.920  33.237  33.795  1.00  0.00     0.037 A 
ATOM     27  C   UNL A   1      40.395  28.013  29.040  1.00  0.00     0.037 A 
ATOM     28  C   UNL A   1      42.017  32.311  33.780  1.00  0.00     0.049 A 
ATOM     29  C   UNL A   1      41.560  28.126  29.985  1.00  0.00     0.074 A 
ATOM     30  C   UNL A   1      43.162  32.309  34.552  1.00  0.00     0.029 A 
ATOM     31  N   UNL A   1      42.094  31.210  32.935  1.00  0.00    -0.354 N 
ATOM     32  N   UNL A   1      41.785  29.032  30.909  1.00  0.00    -0.248 NA
ATOM     33  C   UNL A   1      42.605  27.101  29.878  1.00  0.00     0.031 C 
ATOM     34  C   UNL A   1      43.948  31.221  34.153  1.00  0.00     0.029 A 
ATOM     35  C   UNL A   1      43.270  30.521  33.164  1.00  0.00     0.049 A 
ATOM     36  H   UNL A   1      41.411  30.957  32.273  1.00  0.00     0.167 HD
ATOM     37  C   UNL A   1      42.991  28.685  31.499  1.00  0.00     0.074 A 
ATOM     38  C   UNL A   1      43.440  27.472  30.840  1.00  0.00     0.031 C 
ATOM     39  C   UNL A   1      43.672  29.313  32.488  1.00  0.00     0.037 A 
BRANCH  26  40
ATOM     40  C   UNL A   1      40.895  34.347  34.800  1.00  0.00     0.057 A 
ATOM     41  C   UNL A   1      40.325  34.145  36.063  1.00  0.00     0.134 A 
ATOM     42  C   UNL A   1      41.475  35.596  34.543  1.00  0.00     0.134 A 
ATOM     43  F   UNL A   1      39.766  32.967  36.378  1.00  0.00    -0.206 F 
ATOM     44  C   UNL A   1      40.332  35.146  37.035  1.00  0.00     0.040 A 
ATOM     45  C   UNL A   1      41.506  36.599  35.515  1.00  0.00     0.040 A 
ATOM     46  F   UNL A   1      42.069  35.840  33.365  1.00  0.00    -0.206 F 
ATOM     47  C   UNL A   1      40.931  36.375  36.765  1.00  0.00     0.006 A 
ENDBRANCH  26  40
BRANCH  27  48
ATOM     48  C   UNL A   1      40.257  26.876  28.095  1.00  0.00     0.057 A 
ATOM     49  C   UNL A   1      39.517  25.735  28.433  1.00  0.00     0.134 A 
ATOM     50  C   UNL A   1      40.882  26.885  26.843  1.00  0.00     0.134 A 
ATOM     51  F   UNL A   1      38.892  25.661  29.618  1.00  0.00    -0.206 F 
ATOM     52  C   UNL A   1      39.426  24.636  27.577  1.00  0.00     0.040 A 
ATOM     53  C   UNL A   1      40.779  25.802  25.965  1.00  0.00     0.040 A 
ATOM     54  F   UNL A   1      41.590  27.953  26.449  1.00  0.00    -0.206 F 
ATOM     55  C   UNL A   1      40.056  24.669  26.336  1.00  0.00     0.006 A 
ENDBRANCH  27  48
BRANCH  39  56
ATOM     56  C   UNL A   1      44.960  28.690  32.930  1.00  0.00     0.057 A 
ATOM     57  C   UNL A   1      46.164  29.029  32.302  1.00  0.00     0.134 A 
ATOM     58  C   UNL A   1      44.991  27.695  33.914  1.00  0.00     0.134 A 
ATOM     59  F   UNL A   1      46.192  29.968  31.345  1.00  0.00    -0.206 F 
ATOM     60  C   UNL A   1      47.358  28.388  32.629  1.00  0.00     0.040 A 
ATOM     61  C   UNL A   1      46.183  27.061  34.263  1.00  0.00     0.040 A 
ATOM     62  F   UNL A   1      43.868  27.335  34.554  1.00  0.00    -0.206 F 
ATOM     63  C   UNL A   1      47.369  27.401  33.613  1.00  0.00     0.006 A 
ENDBRANCH  39  56
ENDBRANCH  13  14
ENDBRANCH   6   8
ENDBRANCH   5   6
ENDBRANCH   4   5
ENDBRANCH   3   4
ENDBRANCH   2   3
ENDBRANCH   1   2
BRANCH   1  64
ATOM     64  C   UNL A   1      33.788  28.402  25.864  1.00  0.00     0.261 C 
BRANCH  64  65
ATOM     65  O   UNL A   1      33.536  27.021  25.587  1.00  0.00    -0.462 OA
BRANCH  65  66
ATOM     66  C   UNL A   1      32.615  26.740  24.629  1.00  0.00     0.328 C 
ATOM     67  O   UNL A   1      31.947  27.551  24.002  1.00  0.00    -0.250 OA
BRANCH  66  68
ATOM     68  C   UNL A   1      32.507  25.222  24.490  1.00  0.00     0.194 C 
BRANCH  68  69
ATOM     69  N   UNL A   1      31.806  24.731  25.676  1.00  0.00    -0.338 N 
ATOM     70  C   UNL A   1      32.175  23.713  26.522  1.00  0.00     0.254 C 
ATOM     71  H   UNL A   1      30.962  25.188  25.895  1.00  0.00     0.164 HD
ATOM     72  O   UNL A   1      31.572  23.533  27.574  1.00  0.00    -0.269 OA
BRANCH  70  73
ATOM     73  C   UNL A   1      33.204  22.745  26.103  1.00  0.00     0.076 A 
ATOM     74  C   UNL A   1      34.537  23.052  26.385  1.00  0.00     0.017 A 
ATOM     75  C   UNL A   1      32.884  21.548  25.465  1.00  0.00     0.148 A 
ATOM     76  C   UNL A   1      35.536  22.131  26.082  1.00  0.00     0.002 A 
ATOM     77  C   UNL A   1      33.863  20.582  25.230  1.00  0.00     0.092 A 
ATOM     78  F   UNL A   1      31.624  21.306  25.087  1.00  0.00    -0.205 F 
ATOM     79  C   UNL A   1      35.200  20.893  25.526  1.00  0.00     0.016 A 
BRANCH  77  80
ATOM     80  C   UNL A   1      33.483  19.238  24.684  1.00  0.00     0.419 C 
ATOM     81  F   UNL A   1      32.855  19.313  23.480  1.00  0.00    -0.166 F 
ATOM     82  F   UNL A   1      34.571  18.438  24.487  1.00  0.00    -0.166 F 
ATOM     83  F   UNL A   1      32.663  18.521  25.503  1.00  0.00    -0.166 F 
ENDBRANCH  77  80
ENDBRANCH  70  73
ENDBRANCH  68  69
BRANCH  68  84
ATOM     84  C   UNL A   1      31.789  24.851  23.184  1.00  0.00     0.065 C 
BRANCH  84  85
ATOM     85  C   UNL A   1      30.357  24.393  23.449  1.00  0.00     0.159 C 
BRANCH  85  86
ATOM     86  O   UNL A   1      29.566  25.438  23.992  1.00  0.00    -0.396 OA
ATOM     87  H   UNL A   1      28.814  25.613  23.404  1.00  0.00     0.210 HD
ENDBRANCH  85  86
ENDBRANCH  84  85
ENDBRANCH  68  84
ENDBRANCH  66  68
ENDBRANCH  65  66
ENDBRANCH  64  65
ENDBRANCH   1  64
TORSDOF 20
ENDMDL
MODEL 3
REMARK VINA RESULT:      -9.9      1.782      2.547
REMARK SMILES O=C(OCCOCCOC(=O)[C@H](CCO)NC(=O)c1cccc(C(F)(F)F)c1F)c1ccc(-c2c3nc(c(-c4c(F)cccc4F)c4ccc([nH]4)c(-c4c(F)cccc4F)c4nc(c(-c5c(F)cccc5F)c5ccc2[nH]5)C=C4)C=C3)cc1
REMARK SMILES IDX 7 1 6 2 5 3 4 4 3 5 2 6 1 7 30 8 31 9 83 10 32 11 82 12
REMARK SMILES IDX 33 13 34 14 35 15 76 16 36 17 81 18 75 19 77 20 37 21 80 22
REMARK SMILES IDX 74 23 73 24 38 26 64 27 47 28 63 29 48 30 51 31 62 32 78 33
REMARK SMILES IDX 49 34 50 35 61 37 79 38 52 39 39 40 40 41 45 42 41 43 42 44
REMARK SMILES IDX 44 45 46 46 43 47 65 48 66 49 71 50 67 51 68 52 70 53 72 54
REMARK SMILES IDX 69 55 53 56 54 57 59 58 55 59 56 60 58 61 60 62 57 63 8 64
REMARK SMILES IDX 9 65 10 66 11 67 12 68 16 69 17 70 18 72 19 73 20 74 28 75
REMARK SMILES IDX 21 76 23 77 29 78 22 79 24 80 25 81 26 82 27 83 13 84 14 85
REMARK SMILES IDX 15 86
REMARK H PARENT 77 25 51 36 16 71 15 87
REMARK Flexibility Score: inf
ROOT
ATOM      1  C   UNL A   1      33.041  28.836  27.163  1.00  0.00     0.202 C 
ENDROOT
BRANCH   1   2
ATOM      2  O   UNL A   1      32.050  29.871  27.087  1.00  0.00    -0.374 OA
BRANCH   2   3
ATOM      3  C   UNL A   1      32.540  31.164  26.735  1.00  0.00     0.202 C 
BRANCH   3   4
ATOM      4  C   UNL A   1      31.601  32.307  27.129  1.00  0.00     0.261 C 
BRANCH   4   5
ATOM      5  O   UNL A   1      32.326  33.544  27.215  1.00  0.00    -0.460 OA
BRANCH   5   6
ATOM      6  C   UNL A   1      33.112  34.002  28.216  1.00  0.00     0.338 C 
ATOM      7  O   UNL A   1      32.809  35.067  28.753  1.00  0.00    -0.246 OA
BRANCH   6   8
ATOM      8  C   UNL A   1      34.328  33.294  28.727  1.00  0.00     0.060 A 
ATOM      9  C   UNL A   1      34.321  32.176  29.563  1.00  0.00     0.016 A 
ATOM     10  C   UNL A   1      35.575  33.751  28.261  1.00  0.00     0.016 A 
ATOM     11  C   UNL A   1      35.495  31.561  29.968  1.00  0.00     0.010 A 
ATOM     12  C   UNL A   1      36.765  33.128  28.647  1.00  0.00     0.010 A 
ATOM     13  C   UNL A   1      36.721  32.041  29.524  1.00  0.00    -0.014 A 
BRANCH  13  14
ATOM     14  C   UNL A   1      37.925  31.458  30.135  1.00  0.00     0.031 A 
ATOM     15  C   UNL A   1      38.180  31.738  31.582  1.00  0.00     0.074 A 
ATOM     16  C   UNL A   1      38.634  30.542  29.453  1.00  0.00     0.049 A 
ATOM     17  N   UNL A   1      39.129  31.288  32.356  1.00  0.00    -0.248 NA
ATOM     18  C   UNL A   1      37.214  32.621  32.259  1.00  0.00     0.031 C 
ATOM     19  C   UNL A   1      38.345  30.106  28.085  1.00  0.00     0.029 A 
ATOM     20  N   UNL A   1      39.700  29.773  29.834  1.00  0.00    -0.354 N 
ATOM     21  C   UNL A   1      38.882  31.842  33.605  1.00  0.00     0.074 A 
ATOM     22  C   UNL A   1      37.699  32.662  33.490  1.00  0.00     0.031 C 
ATOM     23  C   UNL A   1      39.193  29.118  27.755  1.00  0.00     0.029 A 
ATOM     24  C   UNL A   1      40.114  28.894  28.864  1.00  0.00     0.049 A 
ATOM     25  H   UNL A   1      40.128  29.844  30.717  1.00  0.00     0.167 HD
ATOM     26  C   UNL A   1      39.593  31.678  34.743  1.00  0.00     0.037 A 
ATOM     27  C   UNL A   1      41.136  28.018  28.878  1.00  0.00     0.037 A 
ATOM     28  C   UNL A   1      40.777  30.869  34.819  1.00  0.00     0.049 A 
ATOM     29  C   UNL A   1      41.974  27.932  30.123  1.00  0.00     0.074 A 
ATOM     30  C   UNL A   1      41.660  30.721  35.871  1.00  0.00     0.029 A 
ATOM     31  N   UNL A   1      41.239  30.065  33.785  1.00  0.00    -0.354 N 
ATOM     32  N   UNL A   1      41.808  28.546  31.272  1.00  0.00    -0.248 NA
ATOM     33  C   UNL A   1      43.148  27.051  30.075  1.00  0.00     0.031 C 
ATOM     34  C   UNL A   1      42.675  29.848  35.461  1.00  0.00     0.029 A 
ATOM     35  C   UNL A   1      42.397  29.419  34.170  1.00  0.00     0.049 A 
ATOM     36  H   UNL A   1      40.803  29.969  32.907  1.00  0.00     0.167 HD
ATOM     37  C   UNL A   1      42.848  28.124  32.086  1.00  0.00     0.074 A 
ATOM     38  C   UNL A   1      43.630  27.184  31.305  1.00  0.00     0.031 C 
ATOM     39  C   UNL A   1      43.139  28.485  33.360  1.00  0.00     0.037 A 
BRANCH  26  40
ATOM     40  C   UNL A   1      39.136  32.448  35.943  1.00  0.00     0.057 A 
ATOM     41  C   UNL A   1      39.566  33.765  36.144  1.00  0.00     0.134 A 
ATOM     42  C   UNL A   1      38.235  31.912  36.872  1.00  0.00     0.134 A 
ATOM     43  F   UNL A   1      40.418  34.342  35.283  1.00  0.00    -0.206 F 
ATOM     44  C   UNL A   1      39.117  34.522  37.227  1.00  0.00     0.040 A 
ATOM     45  C   UNL A   1      37.763  32.667  37.949  1.00  0.00     0.040 A 
ATOM     46  F   UNL A   1      37.757  30.668  36.716  1.00  0.00    -0.206 F 
ATOM     47  C   UNL A   1      38.207  33.976  38.128  1.00  0.00     0.006 A 
ENDBRANCH  26  40
BRANCH  27  48
ATOM     48  C   UNL A   1      41.425  27.194  27.677  1.00  0.00     0.057 A 
ATOM     49  C   UNL A   1      42.261  27.665  26.655  1.00  0.00     0.134 A 
ATOM     50  C   UNL A   1      40.853  25.929  27.502  1.00  0.00     0.134 A 
ATOM     51  F   UNL A   1      42.843  28.870  26.759  1.00  0.00    -0.206 F 
ATOM     52  C   UNL A   1      42.496  26.925  25.496  1.00  0.00     0.040 A 
ATOM     53  C   UNL A   1      41.099  25.166  26.357  1.00  0.00     0.040 A 
ATOM     54  F   UNL A   1      40.058  25.411  28.449  1.00  0.00    -0.206 F 
ATOM     55  C   UNL A   1      41.916  25.668  25.346  1.00  0.00     0.006 A 
ENDBRANCH  27  48
BRANCH  39  56
ATOM     56  C   UNL A   1      44.337  27.848  33.992  1.00  0.00     0.057 A 
ATOM     57  C   UNL A   1      44.208  26.658  34.717  1.00  0.00     0.134 A 
ATOM     58  C   UNL A   1      45.596  28.459  33.954  1.00  0.00     0.134 A 
ATOM     59  F   UNL A   1      43.024  26.033  34.797  1.00  0.00    -0.206 F 
ATOM     60  C   UNL A   1      45.291  26.102  35.397  1.00  0.00     0.040 A 
ATOM     61  C   UNL A   1      46.691  27.901  34.613  1.00  0.00     0.040 A 
ATOM     62  F   UNL A   1      45.779  29.597  33.268  1.00  0.00    -0.206 F 
ATOM     63  C   UNL A   1      46.537  26.725  35.346  1.00  0.00     0.006 A 
ENDBRANCH  39  56
ENDBRANCH  13  14
ENDBRANCH   6   8
ENDBRANCH   5   6
ENDBRANCH   4   5
ENDBRANCH   3   4
ENDBRANCH   2   3
ENDBRANCH   1   2
BRANCH   1  64
ATOM     64  C   UNL A   1      33.573  28.578  25.759  1.00  0.00     0.261 C 
BRANCH  64  65
ATOM     65  O   UNL A   1      33.222  27.227  25.443  1.00  0.00    -0.462 OA
BRANCH  65  66
ATOM     66  C   UNL A   1      32.147  27.039  24.634  1.00  0.00     0.328 C 
ATOM     67  O   UNL A   1      31.405  27.909  24.198  1.00  0.00    -0.250 OA
BRANCH  66  68
ATOM     68  C   UNL A   1      31.979  25.540  24.392  1.00  0.00     0.194 C 
BRANCH  68  69
ATOM     69  N   UNL A   1      31.370  24.976  25.596  1.00  0.00    -0.338 N 
ATOM     70  C   UNL A   1      31.878  24.013  26.434  1.00  0.00     0.254 C 
ATOM     71  H   UNL A   1      30.484  25.332  25.836  1.00  0.00     0.164 HD
ATOM     72  O   UNL A   1      31.327  23.768  27.502  1.00  0.00    -0.269 OA
BRANCH  70  73
ATOM     73  C   UNL A   1      33.002  23.171  25.992  1.00  0.00     0.076 A 
ATOM     74  C   UNL A   1      34.294  23.674  26.157  1.00  0.00     0.017 A 
ATOM     75  C   UNL A   1      32.813  21.904  25.442  1.00  0.00     0.148 A 
ATOM     76  C   UNL A   1      35.392  22.881  25.830  1.00  0.00     0.002 A 
ATOM     77  C   UNL A   1      33.900  21.068  25.186  1.00  0.00     0.092 A 
ATOM     78  F   UNL A   1      31.578  21.470  25.171  1.00  0.00    -0.205 F 
ATOM     79  C   UNL A   1      35.196  21.577  25.365  1.00  0.00     0.016 A 
BRANCH  77  80
ATOM     80  C   UNL A   1      33.678  19.653  24.739  1.00  0.00     0.419 C 
ATOM     81  F   UNL A   1      34.837  18.967  24.559  1.00  0.00    -0.166 F 
ATOM     82  F   UNL A   1      32.957  18.936  25.650  1.00  0.00    -0.166 F 
ATOM     83  F   UNL A   1      32.979  19.547  23.574  1.00  0.00    -0.166 F 
ENDBRANCH  77  80
ENDBRANCH  70  73
ENDBRANCH  68  69
BRANCH  68  84
ATOM     84  C   UNL A   1      31.136  25.290  23.133  1.00  0.00     0.065 C 
BRANCH  84  85
ATOM     85  C   UNL A   1      31.915  25.634  21.866  1.00  0.00     0.159 C 
BRANCH  85  86
ATOM     86  O   UNL A   1      31.411  26.805  21.243  1.00  0.00    -0.396 OA
ATOM     87  H   UNL A   1      32.057  27.130  20.596  1.00  0.00     0.210 HD
ENDBRANCH  85  86
ENDBRANCH  84  85
ENDBRANCH  68  84
ENDBRANCH  66  68
ENDBRANCH  65  66
ENDBRANCH  64  65
ENDBRANCH   1  64
TORSDOF 20
ENDMDL
