MODEL 1
REMARK VINA RESULT:     -10.3      0.000      0.000
REMARK SMILES Cc1ccc([C@@H](C)[N@@H+]2CCO[C@H](CC(=O)OCCOCCOC(=O)c3ccc(-c4c5nc(c(-c6c(F)cccc6F)c6ccc([nH]6)c(-c6c(F)cccc6F)c6nc(c(-c7c(F)cccc7F)c7ccc4[nH]7)C=C6)C=C5)cc3)C2)o1
REMARK SMILES IDX 18 1 17 2 16 3 14 4 15 5 13 6 12 7 8 8 9 9 79 10 10 12 11 13
REMARK SMILES IDX 6 14 7 15 5 16 1 17 2 18 3 19 80 20 4 21 19 22 20 23 21 24
REMARK SMILES IDX 22 25 23 26 24 27 25 28 26 29 78 30 27 31 77 32 28 33 29 34
REMARK SMILES IDX 30 35 71 36 31 37 76 38 70 39 72 40 32 41 75 42 69 43 68 44
REMARK SMILES IDX 33 46 59 47 42 48 58 49 43 50 46 51 57 52 73 53 44 54 45 55
REMARK SMILES IDX 56 57 74 58 47 59 34 60 35 61 40 62 36 63 37 64 39 65 41 66
REMARK SMILES IDX 38 67 60 68 61 69 66 70 62 71 63 72 65 73 67 74 64 75 48 76
REMARK SMILES IDX 49 77 54 78 50 79 51 80 53 81 55 82 52 83
REMARK H PARENT 8 11 72 45 46 56
REMARK Flexibility Score: inf
ROOT
ATOM      1  C   UNL A   1      34.254  21.515  26.668  1.00  0.00     0.202 C 
ENDROOT
BRANCH   1   2
ATOM      2  C   UNL A   1      32.896  22.055  26.217  1.00  0.00     0.261 C 
BRANCH   2   3
ATOM      3  O   UNL A   1      32.251  22.908  27.175  1.00  0.00    -0.463 OA
BRANCH   3   4
ATOM      4  C   UNL A   1      31.794  24.093  26.715  1.00  0.00     0.308 C 
ATOM      5  O   UNL A   1      30.625  24.464  26.770  1.00  0.00    -0.252 OA
BRANCH   4   6
ATOM      6  C   UNL A   1      32.858  25.032  26.228  1.00  0.00     0.160 C 
BRANCH   6   7
ATOM      7  C   UNL A   1      32.783  25.812  24.911  1.00  0.00     0.184 C 
ATOM      8  N   UNL A   1      33.029  28.315  25.345  1.00  0.00    -0.322 N 
ATOM      9  C   UNL A   1      31.744  28.480  24.663  1.00  0.00     0.291 C 
ATOM     10  C   UNL A   1      33.669  27.080  24.903  1.00  0.00     0.295 C 
ATOM     11  H   UNL A   1      33.666  29.049  25.035  1.00  0.00     0.348 HD
ATOM     12  C   UNL A   1      30.850  27.236  24.747  1.00  0.00     0.222 C 
ATOM     13  O   UNL A   1      31.502  26.034  24.317  1.00  0.00    -0.366 OA
BRANCH   8  14
ATOM     14  C   UNL A   1      33.120  28.756  26.748  1.00  0.00     0.248 C 
ATOM     15  C   UNL A   1      31.807  29.336  27.297  1.00  0.00     0.084 C 
BRANCH  14  16
ATOM     16  C   UNL A   1      34.302  29.607  27.137  1.00  0.00     0.161 A 
ATOM     17  C   UNL A   1      35.309  32.948  27.994  1.00  0.00     0.087 C 
ATOM     18  C   UNL A   1      35.279  31.487  27.751  1.00  0.00     0.101 A 
ATOM     19  C   UNL A   1      36.225  30.496  27.892  1.00  0.00     0.046 A 
ATOM     20  O   UNL A   1      34.113  30.955  27.278  1.00  0.00    -0.460 OA
ATOM     21  C   UNL A   1      35.591  29.288  27.525  1.00  0.00     0.052 A 
ENDBRANCH  14  16
ENDBRANCH   8  14
ENDBRANCH   6   7
ENDBRANCH   4   6
ENDBRANCH   3   4
ENDBRANCH   2   3
ENDBRANCH   1   2
BRANCH   1  22
ATOM     22  O   UNL A   1      34.807  20.635  25.711  1.00  0.00    -0.374 OA
BRANCH  22  23
ATOM     23  C   UNL A   1      35.803  21.127  24.822  1.00  0.00     0.202 C 
BRANCH  23  24
ATOM     24  C   UNL A   1      37.300  20.773  24.965  1.00  0.00     0.261 C 
BRANCH  24  25
ATOM     25  O   UNL A   1      38.218  21.835  25.255  1.00  0.00    -0.460 OA
BRANCH  25  26
ATOM     26  C   UNL A   1      39.258  21.545  26.061  1.00  0.00     0.338 C 
ATOM     27  O   UNL A   1      39.857  20.490  26.141  1.00  0.00    -0.246 OA
BRANCH  26  28
ATOM     28  C   UNL A   1      39.667  22.791  26.741  1.00  0.00     0.060 A 
ATOM     29  C   UNL A   1      39.000  23.979  26.422  1.00  0.00     0.016 A 
ATOM     30  C   UNL A   1      40.750  22.800  27.625  1.00  0.00     0.016 A 
ATOM     31  C   UNL A   1      39.463  25.193  26.927  1.00  0.00     0.010 A 
ATOM     32  C   UNL A   1      41.221  24.019  28.121  1.00  0.00     0.010 A 
ATOM     33  C   UNL A   1      40.611  25.224  27.732  1.00  0.00    -0.014 A 
BRANCH  33  34
ATOM     34  C   UNL A   1      41.286  26.519  27.987  1.00  0.00     0.031 A 
ATOM     35  C   UNL A   1      42.689  26.709  27.478  1.00  0.00     0.074 A 
ATOM     36  C   UNL A   1      40.662  27.517  28.632  1.00  0.00     0.049 A 
ATOM     37  N   UNL A   1      43.485  27.740  27.595  1.00  0.00    -0.248 NA
ATOM     38  C   UNL A   1      43.274  25.578  26.741  1.00  0.00     0.031 C 
ATOM     39  C   UNL A   1      39.295  27.464  29.147  1.00  0.00     0.029 A 
ATOM     40  N   UNL A   1      41.106  28.770  28.972  1.00  0.00    -0.354 N 
ATOM     41  C   UNL A   1      44.666  27.379  26.957  1.00  0.00     0.074 A 
ATOM     42  C   UNL A   1      44.492  26.025  26.480  1.00  0.00     0.031 C 
ATOM     43  C   UNL A   1      39.018  28.631  29.756  1.00  0.00     0.029 A 
ATOM     44  C   UNL A   1      40.195  29.497  29.694  1.00  0.00     0.049 A 
ATOM     45  H   UNL A   1      41.994  29.114  28.721  1.00  0.00     0.167 HD
ATOM     46  C   UNL A   1      45.791  28.111  26.779  1.00  0.00     0.037 A 
ATOM     47  C   UNL A   1      40.305  30.715  30.259  1.00  0.00     0.037 A 
ATOM     48  C   UNL A   1      45.959  29.459  27.252  1.00  0.00     0.049 A 
ATOM     49  C   UNL A   1      41.581  31.496  30.092  1.00  0.00     0.074 A 
ATOM     50  C   UNL A   1      47.043  30.303  27.086  1.00  0.00     0.029 A 
ATOM     51  N   UNL A   1      45.020  30.156  27.997  1.00  0.00    -0.354 N 
ATOM     52  N   UNL A   1      42.676  31.163  29.451  1.00  0.00    -0.248 NA
ATOM     53  C   UNL A   1      41.634  32.823  30.720  1.00  0.00     0.031 C 
ATOM     54  C   UNL A   1      46.780  31.491  27.778  1.00  0.00     0.029 A 
ATOM     55  C   UNL A   1      45.511  31.407  28.329  1.00  0.00     0.049 A 
ATOM     56  H   UNL A   1      44.133  29.811  28.252  1.00  0.00     0.167 HD
ATOM     57  C   UNL A   1      43.540  32.244  29.582  1.00  0.00     0.074 A 
ATOM     58  C   UNL A   1      42.836  33.249  30.354  1.00  0.00     0.031 C 
ATOM     59  C   UNL A   1      44.800  32.393  29.104  1.00  0.00     0.037 A 
BRANCH  46  60
ATOM     60  C   UNL A   1      46.937  27.446  26.074  1.00  0.00     0.057 A 
ATOM     61  C   UNL A   1      47.076  27.479  24.680  1.00  0.00     0.134 A 
ATOM     62  C   UNL A   1      47.917  26.761  26.804  1.00  0.00     0.134 A 
ATOM     63  F   UNL A   1      46.164  28.105  23.920  1.00  0.00    -0.206 F 
ATOM     64  C   UNL A   1      48.128  26.825  24.036  1.00  0.00     0.040 A 
ATOM     65  C   UNL A   1      48.988  26.126  26.173  1.00  0.00     0.040 A 
ATOM     66  F   UNL A   1      47.846  26.692  28.142  1.00  0.00    -0.206 F 
ATOM     67  C   UNL A   1      49.090  26.150  24.784  1.00  0.00     0.006 A 
ENDBRANCH  46  60
BRANCH  47  68
ATOM     68  C   UNL A   1      39.174  31.258  31.051  1.00  0.00     0.057 A 
ATOM     69  C   UNL A   1      38.979  30.896  32.387  1.00  0.00     0.134 A 
ATOM     70  C   UNL A   1      38.274  32.173  30.491  1.00  0.00     0.134 A 
ATOM     71  F   UNL A   1      39.795  30.007  32.972  1.00  0.00    -0.206 F 
ATOM     72  C   UNL A   1      37.926  31.422  33.140  1.00  0.00     0.040 A 
ATOM     73  C   UNL A   1      37.232  32.723  31.237  1.00  0.00     0.040 A 
ATOM     74  F   UNL A   1      38.410  32.561  29.214  1.00  0.00    -0.206 F 
ATOM     75  C   UNL A   1      37.055  32.346  32.566  1.00  0.00     0.006 A 
ENDBRANCH  47  68
BRANCH  59  76
ATOM     76  C   UNL A   1      45.494  33.694  29.382  1.00  0.00     0.057 A 
ATOM     77  C   UNL A   1      46.317  33.867  30.502  1.00  0.00     0.134 A 
ATOM     78  C   UNL A   1      45.375  34.771  28.495  1.00  0.00     0.134 A 
ATOM     79  F   UNL A   1      46.465  32.879  31.397  1.00  0.00    -0.206 F 
ATOM     80  C   UNL A   1      46.982  35.073  30.739  1.00  0.00     0.040 A 
ATOM     81  C   UNL A   1      46.054  35.972  28.707  1.00  0.00     0.040 A 
ATOM     82  F   UNL A   1      44.610  34.668  27.397  1.00  0.00    -0.206 F 
ATOM     83  C   UNL A   1      46.856  36.127  29.836  1.00  0.00     0.006 A 
ENDBRANCH  59  76
ENDBRANCH  33  34
ENDBRANCH  26  28
ENDBRANCH  25  26
ENDBRANCH  24  25
ENDBRANCH  23  24
ENDBRANCH  22  23
ENDBRANCH   1  22
TORSDOF 17
ENDMDL
MODEL 2
REMARK VINA RESULT:     -10.2      1.614      2.889
REMARK SMILES Cc1ccc([C@@H](C)[N@@H+]2CCO[C@H](CC(=O)OCCOCCOC(=O)c3ccc(-c4c5nc(c(-c6c(F)cccc6F)c6ccc([nH]6)c(-c6c(F)cccc6F)c6nc(c(-c7c(F)cccc7F)c7ccc4[nH]7)C=C6)C=C5)cc3)C2)o1
REMARK SMILES IDX 18 1 17 2 16 3 14 4 15 5 13 6 12 7 8 8 9 9 79 10 10 12 11 13
REMARK SMILES IDX 6 14 7 15 5 16 1 17 2 18 3 19 80 20 4 21 19 22 20 23 21 24
REMARK SMILES IDX 22 25 23 26 24 27 25 28 26 29 78 30 27 31 77 32 28 33 29 34
REMARK SMILES IDX 30 35 71 36 31 37 76 38 70 39 72 40 32 41 75 42 69 43 68 44
REMARK SMILES IDX 33 46 59 47 42 48 58 49 43 50 46 51 57 52 73 53 44 54 45 55
REMARK SMILES IDX 56 57 74 58 47 59 34 60 35 61 40 62 36 63 37 64 39 65 41 66
REMARK SMILES IDX 38 67 60 68 61 69 66 70 62 71 63 72 65 73 67 74 64 75 48 76
REMARK SMILES IDX 49 77 54 78 50 79 51 80 53 81 55 82 52 83
REMARK H PARENT 8 11 72 45 46 56
REMARK Flexibility Score: inf
ROOT
ATOM      1  C   UNL A   1      34.047  22.201  24.888  1.00  0.00     0.202 C 
ENDROOT
BRANCH   1   2
ATOM      2  C   UNL A   1      33.638  23.562  25.453  1.00  0.00     0.261 C 
BRANCH   2   3
ATOM      3  O   UNL A   1      32.277  23.930  25.183  1.00  0.00    -0.463 OA
BRANCH   3   4
ATOM      4  C   UNL A   1      31.657  24.679  26.121  1.00  0.00     0.308 C 
ATOM      5  O   UNL A   1      31.417  24.312  27.267  1.00  0.00    -0.252 OA
BRANCH   4   6
ATOM      6  C   UNL A   1      31.380  26.097  25.712  1.00  0.00     0.160 C 
BRANCH   6   7
ATOM      7  C   UNL A   1      32.441  27.201  25.655  1.00  0.00     0.184 C 
ATOM      8  N   UNL A   1      31.611  29.159  24.244  1.00  0.00    -0.322 N 
ATOM      9  C   UNL A   1      32.814  28.979  23.429  1.00  0.00     0.291 C 
ATOM     10  C   UNL A   1      31.836  28.622  25.582  1.00  0.00     0.295 C 
ATOM     11  H   UNL A   1      31.461  30.156  24.399  1.00  0.00     0.348 HD
ATOM     12  C   UNL A   1      33.354  27.543  23.455  1.00  0.00     0.222 C 
ATOM     13  O   UNL A   1      33.559  27.034  24.779  1.00  0.00    -0.366 OA
BRANCH   8  14
ATOM     14  C   UNL A   1      30.305  29.012  23.578  1.00  0.00     0.248 C 
ATOM     15  C   UNL A   1      30.314  27.996  22.425  1.00  0.00     0.084 C 
BRANCH  14  16
ATOM     16  C   UNL A   1      29.571  30.271  23.196  1.00  0.00     0.161 A 
ATOM     17  C   UNL A   1      28.076  32.032  20.444  1.00  0.00     0.087 C 
ATOM     18  C   UNL A   1      28.518  31.609  21.794  1.00  0.00     0.101 A 
ATOM     19  C   UNL A   1      28.325  32.138  23.050  1.00  0.00     0.046 A 
ATOM     20  O   UNL A   1      29.288  30.483  21.875  1.00  0.00    -0.460 OA
ATOM     21  C   UNL A   1      28.976  31.267  23.952  1.00  0.00     0.052 A 
ENDBRANCH  14  16
ENDBRANCH   8  14
ENDBRANCH   6   7
ENDBRANCH   4   6
ENDBRANCH   3   4
ENDBRANCH   2   3
ENDBRANCH   1   2
BRANCH   1  22
ATOM     22  O   UNL A   1      35.226  21.717  25.498  1.00  0.00    -0.374 OA
BRANCH  22  23
ATOM     23  C   UNL A   1      35.849  20.556  24.961  1.00  0.00     0.202 C 
BRANCH  23  24
ATOM     24  C   UNL A   1      37.369  20.300  25.061  1.00  0.00     0.261 C 
BRANCH  24  25
ATOM     25  O   UNL A   1      38.222  21.416  25.349  1.00  0.00    -0.460 OA
BRANCH  25  26
ATOM     26  C   UNL A   1      39.329  21.172  26.077  1.00  0.00     0.338 C 
ATOM     27  O   UNL A   1      39.987  20.149  26.098  1.00  0.00    -0.246 OA
BRANCH  26  28
ATOM     28  C   UNL A   1      39.717  22.429  26.749  1.00  0.00     0.060 A 
ATOM     29  C   UNL A   1      39.010  23.598  26.446  1.00  0.00     0.016 A 
ATOM     30  C   UNL A   1      40.819  22.469  27.608  1.00  0.00     0.016 A 
ATOM     31  C   UNL A   1      39.449  24.824  26.942  1.00  0.00     0.010 A 
ATOM     32  C   UNL A   1      41.267  23.700  28.095  1.00  0.00     0.010 A 
ATOM     33  C   UNL A   1      40.614  24.887  27.721  1.00  0.00    -0.014 A 
BRANCH  33  34
ATOM     34  C   UNL A   1      41.258  26.201  27.962  1.00  0.00     0.031 A 
ATOM     35  C   UNL A   1      42.652  26.422  27.443  1.00  0.00     0.074 A 
ATOM     36  C   UNL A   1      40.612  27.187  28.604  1.00  0.00     0.049 A 
ATOM     37  N   UNL A   1      43.422  27.474  27.547  1.00  0.00    -0.248 NA
ATOM     38  C   UNL A   1      43.261  25.301  26.710  1.00  0.00     0.031 C 
ATOM     39  C   UNL A   1      39.251  27.104  29.128  1.00  0.00     0.029 A 
ATOM     40  N   UNL A   1      41.027  28.454  28.931  1.00  0.00    -0.354 N 
ATOM     41  C   UNL A   1      44.608  27.138  26.903  1.00  0.00     0.074 A 
ATOM     42  C   UNL A   1      44.466  25.776  26.437  1.00  0.00     0.031 C 
ATOM     43  C   UNL A   1      38.947  28.268  29.730  1.00  0.00     0.029 A 
ATOM     44  C   UNL A   1      40.102  29.163  29.654  1.00  0.00     0.049 A 
ATOM     45  H   UNL A   1      41.904  28.818  28.673  1.00  0.00     0.167 HD
ATOM     46  C   UNL A   1      45.713  27.897  26.712  1.00  0.00     0.037 A 
ATOM     47  C   UNL A   1      40.185  30.387  30.210  1.00  0.00     0.037 A 
ATOM     48  C   UNL A   1      45.850  29.253  27.175  1.00  0.00     0.049 A 
ATOM     49  C   UNL A   1      41.439  31.199  30.029  1.00  0.00     0.074 A 
ATOM     50  C   UNL A   1      46.911  30.122  26.995  1.00  0.00     0.029 A 
ATOM     51  N   UNL A   1      44.898  29.931  27.921  1.00  0.00    -0.354 N 
ATOM     52  N   UNL A   1      42.538  30.889  29.383  1.00  0.00    -0.248 NA
ATOM     53  C   UNL A   1      41.463  32.532  30.647  1.00  0.00     0.031 C 
ATOM     54  C   UNL A   1      46.622  31.309  27.680  1.00  0.00     0.029 A 
ATOM     55  C   UNL A   1      45.360  31.197  28.240  1.00  0.00     0.049 A 
ATOM     56  H   UNL A   1      44.022  29.565  28.185  1.00  0.00     0.167 HD
ATOM     57  C   UNL A   1      43.376  31.993  29.500  1.00  0.00     0.074 A 
ATOM     58  C   UNL A   1      42.651  32.985  30.269  1.00  0.00     0.031 C 
ATOM     59  C   UNL A   1      44.629  32.170  29.013  1.00  0.00     0.037 A 
BRANCH  46  60
ATOM     60  C   UNL A   1      46.871  27.256  26.005  1.00  0.00     0.057 A 
ATOM     61  C   UNL A   1      47.810  26.462  26.677  1.00  0.00     0.134 A 
ATOM     62  C   UNL A   1      47.048  27.438  24.627  1.00  0.00     0.134 A 
ATOM     63  F   UNL A   1      47.707  26.261  27.999  1.00  0.00    -0.206 F 
ATOM     64  C   UNL A   1      48.901  25.902  26.011  1.00  0.00     0.040 A 
ATOM     65  C   UNL A   1      48.121  26.860  23.945  1.00  0.00     0.040 A 
ATOM     66  F   UNL A   1      46.184  28.184  23.921  1.00  0.00    -0.206 F 
ATOM     67  C   UNL A   1      49.056  26.097  24.640  1.00  0.00     0.006 A 
ENDBRANCH  46  60
BRANCH  47  68
ATOM     68  C   UNL A   1      39.046  30.907  31.005  1.00  0.00     0.057 A 
ATOM     69  C   UNL A   1      38.013  31.637  30.408  1.00  0.00     0.134 A 
ATOM     70  C   UNL A   1      38.954  30.665  32.381  1.00  0.00     0.134 A 
ATOM     71  F   UNL A   1      38.056  31.920  29.098  1.00  0.00    -0.206 F 
ATOM     72  C   UNL A   1      36.929  32.110  31.151  1.00  0.00     0.040 A 
ATOM     73  C   UNL A   1      37.866  31.112  33.132  1.00  0.00     0.040 A 
ATOM     74  F   UNL A   1      39.912  29.969  33.011  1.00  0.00    -0.206 F 
ATOM     75  C   UNL A   1      36.850  31.840  32.515  1.00  0.00     0.006 A 
ENDBRANCH  47  68
BRANCH  59  76
ATOM     76  C   UNL A   1      45.291  33.490  29.277  1.00  0.00     0.057 A 
ATOM     77  C   UNL A   1      46.130  33.688  30.381  1.00  0.00     0.134 A 
ATOM     78  C   UNL A   1      45.124  34.563  28.391  1.00  0.00     0.134 A 
ATOM     79  F   UNL A   1      46.323  32.705  31.273  1.00  0.00    -0.206 F 
ATOM     80  C   UNL A   1      46.765  34.912  30.604  1.00  0.00     0.040 A 
ATOM     81  C   UNL A   1      45.774  35.782  28.590  1.00  0.00     0.040 A 
ATOM     82  F   UNL A   1      44.341  34.437  27.309  1.00  0.00    -0.206 F 
ATOM     83  C   UNL A   1      46.592  35.961  29.703  1.00  0.00     0.006 A 
ENDBRANCH  59  76
ENDBRANCH  33  34
ENDBRANCH  26  28
ENDBRANCH  25  26
ENDBRANCH  24  25
ENDBRANCH  23  24
ENDBRANCH  22  23
ENDBRANCH   1  22
TORSDOF 17
ENDMDL
MODEL 3
REMARK VINA RESULT:     -10.2      1.474      3.037
REMARK SMILES Cc1ccc([C@@H](C)[N@@H+]2CCO[C@H](CC(=O)OCCOCCOC(=O)c3ccc(-c4c5nc(c(-c6c(F)cccc6F)c6ccc([nH]6)c(-c6c(F)cccc6F)c6nc(c(-c7c(F)cccc7F)c7ccc4[nH]7)C=C6)C=C5)cc3)C2)o1
REMARK SMILES IDX 18 1 17 2 16 3 14 4 15 5 13 6 12 7 8 8 9 9 79 10 10 12 11 13
REMARK SMILES IDX 6 14 7 15 5 16 1 17 2 18 3 19 80 20 4 21 19 22 20 23 21 24
REMARK SMILES IDX 22 25 23 26 24 27 25 28 26 29 78 30 27 31 77 32 28 33 29 34
REMARK SMILES IDX 30 35 71 36 31 37 76 38 70 39 72 40 32 41 75 42 69 43 68 44
REMARK SMILES IDX 33 46 59 47 42 48 58 49 43 50 46 51 57 52 73 53 44 54 45 55
REMARK SMILES IDX 56 57 74 58 47 59 34 60 35 61 40 62 36 63 37 64 39 65 41 66
REMARK SMILES IDX 38 67 60 68 61 69 66 70 62 71 63 72 65 73 67 74 64 75 48 76
REMARK SMILES IDX 49 77 54 78 50 79 51 80 53 81 55 82 52 83
REMARK H PARENT 8 11 72 45 46 56
REMARK Flexibility Score: inf
ROOT
ATOM      1  C   UNL A   1      34.085  19.762  24.971  1.00  0.00     0.202 C 
ENDROOT
BRANCH   1   2
ATOM      2  C   UNL A   1      32.708  20.050  24.371  1.00  0.00     0.261 C 
BRANCH   2   3
ATOM      3  O   UNL A   1      32.435  21.443  24.160  1.00  0.00    -0.463 OA
BRANCH   3   4
ATOM      4  C   UNL A   1      32.152  21.816  22.893  1.00  0.00     0.308 C 
ATOM      5  O   UNL A   1      31.799  21.053  21.998  1.00  0.00    -0.252 OA
BRANCH   4   6
ATOM      6  C   UNL A   1      32.165  23.298  22.656  1.00  0.00     0.160 C 
BRANCH   6   7
ATOM      7  C   UNL A   1      33.436  24.126  22.439  1.00  0.00     0.184 C 
ATOM      8  N   UNL A   1      33.662  25.901  24.258  1.00  0.00    -0.322 N 
ATOM      9  C   UNL A   1      33.720  26.888  23.178  1.00  0.00     0.291 C 
ATOM     10  C   UNL A   1      34.088  24.598  23.759  1.00  0.00     0.295 C 
ATOM     11  H   UNL A   1      34.362  26.138  24.961  1.00  0.00     0.348 HD
ATOM     12  C   UNL A   1      33.002  26.430  21.900  1.00  0.00     0.222 C 
ATOM     13  O   UNL A   1      33.429  25.144  21.435  1.00  0.00    -0.366 OA
BRANCH   8  14
ATOM     14  C   UNL A   1      32.565  26.018  25.234  1.00  0.00     0.248 C 
ATOM     15  C   UNL A   1      32.649  27.284  26.103  1.00  0.00     0.084 C 
BRANCH  14  16
ATOM     16  C   UNL A   1      32.235  24.803  26.062  1.00  0.00     0.161 A 
ATOM     17  C   UNL A   1      29.550  22.668  27.130  1.00  0.00     0.087 C 
ATOM     18  C   UNL A   1      30.884  23.261  26.874  1.00  0.00     0.101 A 
ATOM     19  C   UNL A   1      32.161  22.864  27.199  1.00  0.00     0.046 A 
ATOM     20  O   UNL A   1      30.921  24.447  26.196  1.00  0.00    -0.460 OA
ATOM     21  C   UNL A   1      33.029  23.838  26.655  1.00  0.00     0.052 A 
ENDBRANCH  14  16
ENDBRANCH   8  14
ENDBRANCH   6   7
ENDBRANCH   4   6
ENDBRANCH   3   4
ENDBRANCH   2   3
ENDBRANCH   1   2
BRANCH   1  22
ATOM     22  O   UNL A   1      34.708  20.943  25.434  1.00  0.00    -0.374 OA
BRANCH  22  23
ATOM     23  C   UNL A   1      35.939  21.345  24.846  1.00  0.00     0.202 C 
BRANCH  23  24
ATOM     24  C   UNL A   1      37.282  20.650  25.161  1.00  0.00     0.261 C 
BRANCH  24  25
ATOM     25  O   UNL A   1      38.473  21.449  25.149  1.00  0.00    -0.460 OA
BRANCH  25  26
ATOM     26  C   UNL A   1      39.413  21.164  26.070  1.00  0.00     0.338 C 
ATOM     27  O   UNL A   1      39.970  20.098  26.250  1.00  0.00    -0.246 OA
BRANCH  26  28
ATOM     28  C   UNL A   1      39.782  22.425  26.747  1.00  0.00     0.060 A 
ATOM     29  C   UNL A   1      39.063  23.585  26.441  1.00  0.00     0.016 A 
ATOM     30  C   UNL A   1      40.879  22.476  27.612  1.00  0.00     0.016 A 
ATOM     31  C   UNL A   1      39.485  24.816  26.942  1.00  0.00     0.010 A 
ATOM     32  C   UNL A   1      41.309  23.711  28.104  1.00  0.00     0.010 A 
ATOM     33  C   UNL A   1      40.644  24.892  27.728  1.00  0.00    -0.014 A 
BRANCH  33  34
ATOM     34  C   UNL A   1      41.271  26.213  27.975  1.00  0.00     0.031 A 
ATOM     35  C   UNL A   1      42.663  26.453  27.459  1.00  0.00     0.074 A 
ATOM     36  C   UNL A   1      40.612  27.188  28.620  1.00  0.00     0.049 A 
ATOM     37  N   UNL A   1      43.420  27.515  27.569  1.00  0.00    -0.248 NA
ATOM     38  C   UNL A   1      43.287  25.343  26.723  1.00  0.00     0.031 C 
ATOM     39  C   UNL A   1      39.251  27.085  29.142  1.00  0.00     0.029 A 
ATOM     40  N   UNL A   1      41.010  28.459  28.953  1.00  0.00    -0.354 N 
ATOM     41  C   UNL A   1      44.610  27.196  26.926  1.00  0.00     0.074 A 
ATOM     42  C   UNL A   1      44.486  25.835  26.454  1.00  0.00     0.031 C 
ATOM     43  C   UNL A   1      38.932  28.243  29.748  1.00  0.00     0.029 A 
ATOM     44  C   UNL A   1      40.074  29.153  29.677  1.00  0.00     0.049 A 
ATOM     45  H   UNL A   1      41.883  28.835  28.697  1.00  0.00     0.167 HD
ATOM     46  C   UNL A   1      45.706  27.970  26.739  1.00  0.00     0.037 A 
ATOM     47  C   UNL A   1      40.141  30.376  30.238  1.00  0.00     0.037 A 
ATOM     48  C   UNL A   1      45.825  29.326  27.207  1.00  0.00     0.049 A 
ATOM     49  C   UNL A   1      41.385  31.205  30.062  1.00  0.00     0.074 A 
ATOM     50  C   UNL A   1      46.875  30.209  27.033  1.00  0.00     0.029 A 
ATOM     51  N   UNL A   1      44.863  29.989  27.954  1.00  0.00    -0.354 N 
ATOM     52  N   UNL A   1      42.489  30.912  29.416  1.00  0.00    -0.248 NA
ATOM     53  C   UNL A   1      41.391  32.536  30.685  1.00  0.00     0.031 C 
ATOM     54  C   UNL A   1      46.570  31.389  27.722  1.00  0.00     0.029 A 
ATOM     55  C   UNL A   1      45.308  31.259  28.280  1.00  0.00     0.049 A 
ATOM     56  H   UNL A   1      43.991  29.611  28.215  1.00  0.00     0.167 HD
ATOM     57  C   UNL A   1      43.312  32.025  29.539  1.00  0.00     0.074 A 
ATOM     58  C   UNL A   1      42.574  33.005  30.311  1.00  0.00     0.031 C 
ATOM     59  C   UNL A   1      44.564  32.220  29.054  1.00  0.00     0.037 A 
BRANCH  46  60
ATOM     60  C   UNL A   1      46.873  27.347  26.031  1.00  0.00     0.057 A 
ATOM     61  C   UNL A   1      47.061  27.473  24.648  1.00  0.00     0.134 A 
ATOM     62  C   UNL A   1      47.823  26.607  26.747  1.00  0.00     0.134 A 
ATOM     63  F   UNL A   1      46.179  28.155  23.902  1.00  0.00    -0.206 F 
ATOM     64  C   UNL A   1      48.132  26.857  23.999  1.00  0.00     0.040 A 
ATOM     65  C   UNL A   1      48.913  26.009  26.112  1.00  0.00     0.040 A 
ATOM     66  F   UNL A   1      47.706  26.449  28.074  1.00  0.00    -0.206 F 
ATOM     67  C   UNL A   1      49.064  26.126  24.732  1.00  0.00     0.006 A 
ENDBRANCH  46  60
BRANCH  47  68
ATOM     68  C   UNL A   1      38.994  30.879  31.033  1.00  0.00     0.057 A 
ATOM     69  C   UNL A   1      37.984  31.650  30.449  1.00  0.00     0.134 A 
ATOM     70  C   UNL A   1      38.871  30.577  32.395  1.00  0.00     0.134 A 
ATOM     71  F   UNL A   1      38.058  31.990  29.154  1.00  0.00    -0.206 F 
ATOM     72  C   UNL A   1      36.894  32.107  31.191  1.00  0.00     0.040 A 
ATOM     73  C   UNL A   1      37.776  31.008  33.143  1.00  0.00     0.040 A 
ATOM     74  F   UNL A   1      39.806  29.839  33.011  1.00  0.00    -0.206 F 
ATOM     75  C   UNL A   1      36.783  31.778  32.540  1.00  0.00     0.006 A 
ENDBRANCH  47  68
BRANCH  59  76
ATOM     76  C   UNL A   1      45.209  33.548  29.325  1.00  0.00     0.057 A 
ATOM     77  C   UNL A   1      45.024  34.646  28.476  1.00  0.00     0.134 A 
ATOM     78  C   UNL A   1      45.987  33.742  30.473  1.00  0.00     0.134 A 
ATOM     79  F   UNL A   1      44.299  34.524  27.354  1.00  0.00    -0.206 F 
ATOM     80  C   UNL A   1      45.606  35.886  28.751  1.00  0.00     0.040 A 
ATOM     81  C   UNL A   1      46.553  34.983  30.771  1.00  0.00     0.040 A 
ATOM     82  F   UNL A   1      46.196  32.733  31.334  1.00  0.00    -0.206 F 
ATOM     83  C   UNL A   1      46.367  36.057  29.905  1.00  0.00     0.006 A 
ENDBRANCH  59  76
ENDBRANCH  33  34
ENDBRANCH  26  28
ENDBRANCH  25  26
ENDBRANCH  24  25
ENDBRANCH  23  24
ENDBRANCH  22  23
ENDBRANCH   1  22
TORSDOF 17
ENDMDL
