MODEL 1
REMARK VINA RESULT:     -11.2      0.000      0.000
REMARK SMILES CC(C)CN(C)c1cc2c(cc1Cl)C=C(C(=O)OCCOCCOC(=O)c1ccc(-c3c4nc(c(-c5c(F)cccc5F)c5ccc([nH]5)c(-c5c(F)cccc5F)c5nc(c(-c6c(F)cccc6F)c6ccc3[nH]6)C=C5)C=C4)cc1)[C@@H](C(F)(F)F)O2
REMARK SMILES IDX 20 1 19 2 18 3 16 4 17 5 15 6 7 7 8 8 12 9 9 10 11 11 13 12
REMARK SMILES IDX 10 13 86 14 14 15 81 16 5 17 6 18 4 19 2 20 1 21 3 22 82 23
REMARK SMILES IDX 83 24 84 25 85 26 21 27 22 28 23 29 24 30 25 31 26 32 27 33
REMARK SMILES IDX 28 34 80 35 29 36 79 37 30 38 31 39 32 40 73 41 33 42 78 43
REMARK SMILES IDX 72 44 74 45 34 46 77 47 71 48 70 49 35 51 61 52 44 53 60 54
REMARK SMILES IDX 45 55 48 56 59 57 75 58 46 59 47 60 58 62 76 63 49 64 36 65
REMARK SMILES IDX 37 66 42 67 38 68 39 69 41 70 43 71 40 72 62 73 63 74 68 75
REMARK SMILES IDX 64 76 65 77 67 78 69 79 66 80 50 81 51 82 56 83 52 84 53 85
REMARK SMILES IDX 55 86 57 87 54 88
REMARK H PARENT 74 50 48 61
REMARK Flexibility Score: inf
ROOT
ATOM      1  C   UNL A   1      39.740  22.165  26.660  1.00  0.00     0.202 C 
ENDROOT
BRANCH   1   2
ATOM      2  C   UNL A   1      38.836  21.338  25.741  1.00  0.00     0.261 C 
BRANCH   2   3
ATOM      3  O   UNL A   1      37.677  22.061  25.300  1.00  0.00    -0.460 OA
BRANCH   3   4
ATOM      4  C   UNL A   1      36.642  21.258  24.963  1.00  0.00     0.338 C 
ATOM      5  O   UNL A   1      36.631  20.037  25.001  1.00  0.00    -0.246 OA
BRANCH   4   6
ATOM      6  C   UNL A   1      35.443  22.046  24.635  1.00  0.00     0.087 C 
ATOM      7  C   UNL A   1      32.068  25.767  24.714  1.00  0.00     0.059 A 
ATOM      8  C   UNL A   1      32.075  24.471  24.152  1.00  0.00     0.074 A 
ATOM      9  C   UNL A   1      33.213  26.170  25.436  1.00  0.00     0.065 A 
ATOM     10  C   UNL A   1      33.203  23.647  24.254  1.00  0.00     0.130 A 
ATOM     11  C   UNL A   1      34.372  25.404  25.426  1.00  0.00     0.034 A 
ATOM     12  Cl  UNL A   1      33.245  27.599  26.413  1.00  0.00    -0.082 Cl
ATOM     13  C   UNL A   1      34.369  24.152  24.822  1.00  0.00     0.019 A 
ATOM     14  O   UNL A   1      33.127  22.366  23.765  1.00  0.00    -0.475 OA
ATOM     15  C   UNL A   1      35.575  23.357  24.858  1.00  0.00     0.027 C 
ATOM     16  C   UNL A   1      34.145  21.410  24.222  1.00  0.00     0.316 C 
BRANCH   7  17
ATOM     17  N   UNL A   1      30.981  26.629  24.544  1.00  0.00    -0.373 N 
ATOM     18  C   UNL A   1      29.728  26.218  25.165  1.00  0.00     0.143 C 
BRANCH  17  19
ATOM     19  C   UNL A   1      30.917  27.438  23.309  1.00  0.00     0.119 C 
BRANCH  19  20
ATOM     20  C   UNL A   1      30.265  28.825  23.522  1.00  0.00     0.002 C 
ATOM     21  C   UNL A   1      31.027  29.684  24.537  1.00  0.00     0.009 C 
ATOM     22  C   UNL A   1      30.160  29.612  22.212  1.00  0.00     0.009 C 
ENDBRANCH  19  20
ENDBRANCH  17  19
ENDBRANCH   7  17
BRANCH  16  23
ATOM     23  C   UNL A   1      33.593  20.514  25.341  1.00  0.00     0.430 C 
ATOM     24  F   UNL A   1      32.239  20.530  25.371  1.00  0.00    -0.167 F 
ATOM     25  F   UNL A   1      33.960  19.221  25.157  1.00  0.00    -0.167 F 
ATOM     26  F   UNL A   1      34.034  20.886  26.563  1.00  0.00    -0.167 F 
ENDBRANCH  16  23
ENDBRANCH   4   6
ENDBRANCH   3   4
ENDBRANCH   2   3
ENDBRANCH   1   2
BRANCH   1  27
ATOM     27  O   UNL A   1      40.971  21.596  27.092  1.00  0.00    -0.374 OA
BRANCH  27  28
ATOM     28  C   UNL A   1      41.873  21.074  26.119  1.00  0.00     0.202 C 
BRANCH  28  29
ATOM     29  C   UNL A   1      43.059  21.936  25.664  1.00  0.00     0.261 C 
BRANCH  29  30
ATOM     30  O   UNL A   1      42.669  23.235  25.188  1.00  0.00    -0.460 OA
BRANCH  30  31
ATOM     31  C   UNL A   1      43.543  24.231  25.474  1.00  0.00     0.338 C 
ATOM     32  O   UNL A   1      44.609  24.466  24.925  1.00  0.00    -0.246 OA
BRANCH  31  33
ATOM     33  C   UNL A   1      42.927  25.151  26.446  1.00  0.00     0.060 A 
ATOM     34  C   UNL A   1      41.971  24.696  27.354  1.00  0.00     0.016 A 
ATOM     35  C   UNL A   1      43.358  26.484  26.466  1.00  0.00     0.016 A 
ATOM     36  C   UNL A   1      41.464  25.581  28.308  1.00  0.00     0.010 A 
ATOM     37  C   UNL A   1      42.852  27.365  27.421  1.00  0.00     0.010 A 
ATOM     38  C   UNL A   1      41.915  26.913  28.360  1.00  0.00    -0.014 A 
BRANCH  38  39
ATOM     39  C   UNL A   1      41.495  27.789  29.480  1.00  0.00     0.031 A 
ATOM     40  C   UNL A   1      40.324  28.714  29.359  1.00  0.00     0.074 A 
ATOM     41  C   UNL A   1      42.206  27.751  30.622  1.00  0.00     0.049 A 
ATOM     42  N   UNL A   1      39.777  29.473  30.274  1.00  0.00    -0.248 NA
ATOM     43  C   UNL A   1      39.693  28.807  28.036  1.00  0.00     0.031 C 
ATOM     44  C   UNL A   1      43.404  26.937  30.837  1.00  0.00     0.029 A 
ATOM     45  N   UNL A   1      42.027  28.407  31.811  1.00  0.00    -0.354 N 
ATOM     46  C   UNL A   1      38.718  30.116  29.649  1.00  0.00     0.074 A 
ATOM     47  C   UNL A   1      38.744  29.706  28.258  1.00  0.00     0.031 C 
ATOM     48  C   UNL A   1      43.838  27.122  32.093  1.00  0.00     0.029 A 
ATOM     49  C   UNL A   1      42.968  28.086  32.759  1.00  0.00     0.049 A 
ATOM     50  H   UNL A   1      41.295  29.045  31.971  1.00  0.00     0.167 HD
ATOM     51  C   UNL A   1      37.796  30.952  30.189  1.00  0.00     0.037 A 
ATOM     52  C   UNL A   1      43.114  28.522  34.023  1.00  0.00     0.037 A 
ATOM     53  C   UNL A   1      37.807  31.395  31.562  1.00  0.00     0.049 A 
ATOM     54  C   UNL A   1      42.113  29.488  34.588  1.00  0.00     0.074 A 
ATOM     55  C   UNL A   1      36.906  32.218  32.214  1.00  0.00     0.029 A 
ATOM     56  N   UNL A   1      38.790  31.073  32.489  1.00  0.00    -0.354 N 
ATOM     57  N   UNL A   1      41.056  30.014  34.016  1.00  0.00    -0.248 NA
ATOM     58  C   UNL A   1      42.319  29.914  35.978  1.00  0.00     0.031 C 
ATOM     59  C   UNL A   1      37.375  32.445  33.514  1.00  0.00     0.029 A 
ATOM     60  C   UNL A   1      38.536  31.710  33.696  1.00  0.00     0.049 A 
ATOM     61  H   UNL A   1      39.556  30.480  32.316  1.00  0.00     0.167 HD
ATOM     62  C   UNL A   1      40.463  30.819  34.979  1.00  0.00     0.074 A 
ATOM     63  C   UNL A   1      41.265  30.690  36.180  1.00  0.00     0.031 C 
ATOM     64  C   UNL A   1      39.355  31.595  34.879  1.00  0.00     0.037 A 
BRANCH  51  65
ATOM     65  C   UNL A   1      36.712  31.449  29.273  1.00  0.00     0.057 A 
ATOM     66  C   UNL A   1      35.662  30.611  28.877  1.00  0.00     0.134 A 
ATOM     67  C   UNL A   1      36.700  32.766  28.791  1.00  0.00     0.134 A 
ATOM     68  F   UNL A   1      35.615  29.335  29.287  1.00  0.00    -0.206 F 
ATOM     69  C   UNL A   1      34.630  31.072  28.056  1.00  0.00     0.040 A 
ATOM     70  C   UNL A   1      35.656  33.247  27.997  1.00  0.00     0.040 A 
ATOM     71  F   UNL A   1      37.673  33.625  29.134  1.00  0.00    -0.206 F 
ATOM     72  C   UNL A   1      34.617  32.397  27.626  1.00  0.00     0.006 A 
ENDBRANCH  51  65
BRANCH  52  73
ATOM     73  C   UNL A   1      44.253  28.033  34.839  1.00  0.00     0.057 A 
ATOM     74  C   UNL A   1      45.483  28.703  34.840  1.00  0.00     0.134 A 
ATOM     75  C   UNL A   1      44.143  26.884  35.629  1.00  0.00     0.134 A 
ATOM     76  F   UNL A   1      45.653  29.805  34.093  1.00  0.00    -0.206 F 
ATOM     77  C   UNL A   1      46.566  28.242  35.587  1.00  0.00     0.040 A 
ATOM     78  C   UNL A   1      45.210  26.427  36.405  1.00  0.00     0.040 A 
ATOM     79  F   UNL A   1      42.985  26.208  35.681  1.00  0.00    -0.206 F 
ATOM     80  C   UNL A   1      46.428  27.104  36.379  1.00  0.00     0.006 A 
ENDBRANCH  52  73
BRANCH  64  81
ATOM     81  C   UNL A   1      38.942  32.353  36.111  1.00  0.00     0.057 A 
ATOM     82  C   UNL A   1      39.342  33.683  36.299  1.00  0.00     0.134 A 
ATOM     83  C   UNL A   1      38.151  31.772  37.111  1.00  0.00     0.134 A 
ATOM     84  F   UNL A   1      40.105  34.302  35.386  1.00  0.00    -0.206 F 
ATOM     85  C   UNL A   1      38.969  34.406  37.434  1.00  0.00     0.040 A 
ATOM     86  C   UNL A   1      37.745  32.495  38.235  1.00  0.00     0.040 A 
ATOM     87  F   UNL A   1      37.719  30.507  36.988  1.00  0.00    -0.206 F 
ATOM     88  C   UNL A   1      38.159  33.815  38.402  1.00  0.00     0.006 A 
ENDBRANCH  64  81
ENDBRANCH  38  39
ENDBRANCH  31  33
ENDBRANCH  30  31
ENDBRANCH  29  30
ENDBRANCH  28  29
ENDBRANCH  27  28
ENDBRANCH   1  27
TORSDOF 18
ENDMDL
MODEL 2
REMARK VINA RESULT:     -11.1      5.135      9.989
REMARK SMILES CC(C)CN(C)c1cc2c(cc1Cl)C=C(C(=O)OCCOCCOC(=O)c1ccc(-c3c4nc(c(-c5c(F)cccc5F)c5ccc([nH]5)c(-c5c(F)cccc5F)c5nc(c(-c6c(F)cccc6F)c6ccc3[nH]6)C=C5)C=C4)cc1)[C@@H](C(F)(F)F)O2
REMARK SMILES IDX 20 1 19 2 18 3 16 4 17 5 15 6 7 7 8 8 12 9 9 10 11 11 13 12
REMARK SMILES IDX 10 13 86 14 14 15 81 16 5 17 6 18 4 19 2 20 1 21 3 22 82 23
REMARK SMILES IDX 83 24 84 25 85 26 21 27 22 28 23 29 24 30 25 31 26 32 27 33
REMARK SMILES IDX 28 34 80 35 29 36 79 37 30 38 31 39 32 40 73 41 33 42 78 43
REMARK SMILES IDX 72 44 74 45 34 46 77 47 71 48 70 49 35 51 61 52 44 53 60 54
REMARK SMILES IDX 45 55 48 56 59 57 75 58 46 59 47 60 58 62 76 63 49 64 36 65
REMARK SMILES IDX 37 66 42 67 38 68 39 69 41 70 43 71 40 72 62 73 63 74 68 75
REMARK SMILES IDX 64 76 65 77 67 78 69 79 66 80 50 81 51 82 56 83 52 84 53 85
REMARK SMILES IDX 55 86 57 87 54 88
REMARK H PARENT 74 50 48 61
REMARK Flexibility Score: inf
ROOT
ATOM      1  C   UNL A   1      31.738  28.820  27.512  1.00  0.00     0.202 C 
ENDROOT
BRANCH   1   2
ATOM      2  C   UNL A   1      31.407  27.602  26.644  1.00  0.00     0.261 C 
BRANCH   2   3
ATOM      3  O   UNL A   1      32.071  26.408  27.082  1.00  0.00    -0.460 OA
BRANCH   3   4
ATOM      4  C   UNL A   1      32.947  25.920  26.174  1.00  0.00     0.338 C 
ATOM      5  O   UNL A   1      33.936  26.492  25.742  1.00  0.00    -0.246 OA
BRANCH   4   6
ATOM      6  C   UNL A   1      32.630  24.525  25.826  1.00  0.00     0.087 C 
ATOM      7  C   UNL A   1      33.280  19.705  24.570  1.00  0.00     0.059 A 
ATOM      8  C   UNL A   1      32.155  20.558  24.604  1.00  0.00     0.074 A 
ATOM      9  C   UNL A   1      34.526  20.254  24.941  1.00  0.00     0.065 A 
ATOM     10  C   UNL A   1      32.266  21.881  25.052  1.00  0.00     0.130 A 
ATOM     11  C   UNL A   1      34.611  21.522  25.503  1.00  0.00     0.034 A 
ATOM     12  Cl  UNL A   1      36.025  19.428  24.681  1.00  0.00    -0.082 Cl
ATOM     13  C   UNL A   1      33.479  22.326  25.572  1.00  0.00     0.019 A 
ATOM     14  O   UNL A   1      31.162  22.693  24.984  1.00  0.00    -0.475 OA
ATOM     15  C   UNL A   1      33.599  23.655  26.124  1.00  0.00     0.027 C 
ATOM     16  C   UNL A   1      31.385  24.142  25.076  1.00  0.00     0.316 C 
BRANCH   7  17
ATOM     17  N   UNL A   1      33.163  18.359  24.207  1.00  0.00    -0.373 N 
ATOM     18  C   UNL A   1      32.813  18.094  22.818  1.00  0.00     0.143 C 
BRANCH  17  19
ATOM     19  C   UNL A   1      32.723  17.394  25.237  1.00  0.00     0.119 C 
BRANCH  19  20
ATOM     20  C   UNL A   1      33.257  15.962  24.996  1.00  0.00     0.002 C 
ATOM     21  C   UNL A   1      34.766  15.846  25.247  1.00  0.00     0.009 C 
ATOM     22  C   UNL A   1      32.545  14.932  25.880  1.00  0.00     0.009 C 
ENDBRANCH  19  20
ENDBRANCH  17  19
ENDBRANCH   7  17
BRANCH  16  23
ATOM     23  C   UNL A   1      31.364  24.789  23.682  1.00  0.00     0.430 C 
ATOM     24  F   UNL A   1      32.572  24.709  23.076  1.00  0.00    -0.167 F 
ATOM     25  F   UNL A   1      30.480  24.162  22.866  1.00  0.00    -0.167 F 
ATOM     26  F   UNL A   1      31.013  26.094  23.727  1.00  0.00    -0.167 F 
ENDBRANCH  16  23
ENDBRANCH   4   6
ENDBRANCH   3   4
ENDBRANCH   2   3
ENDBRANCH   1   2
BRANCH   1  27
ATOM     27  O   UNL A   1      31.937  30.075  26.872  1.00  0.00    -0.374 OA
BRANCH  27  28
ATOM     28  C   UNL A   1      33.170  30.765  27.065  1.00  0.00     0.202 C 
BRANCH  28  29
ATOM     29  C   UNL A   1      34.283  30.088  27.879  1.00  0.00     0.261 C 
BRANCH  29  30
ATOM     30  O   UNL A   1      35.444  30.917  28.054  1.00  0.00    -0.460 OA
BRANCH  30  31
ATOM     31  C   UNL A   1      36.080  30.760  29.241  1.00  0.00     0.338 C 
ATOM     32  O   UNL A   1      35.633  30.973  30.359  1.00  0.00    -0.246 OA
BRANCH  31  33
ATOM     33  C   UNL A   1      37.370  30.088  29.013  1.00  0.00     0.060 A 
ATOM     34  C   UNL A   1      37.888  29.953  27.726  1.00  0.00     0.016 A 
ATOM     35  C   UNL A   1      38.087  29.628  30.126  1.00  0.00     0.016 A 
ATOM     36  C   UNL A   1      39.149  29.376  27.558  1.00  0.00     0.010 A 
ATOM     37  C   UNL A   1      39.346  29.054  29.955  1.00  0.00     0.010 A 
ATOM     38  C   UNL A   1      39.893  28.942  28.670  1.00  0.00    -0.014 A 
BRANCH  38  39
ATOM     39  C   UNL A   1      41.292  28.489  28.489  1.00  0.00     0.031 A 
ATOM     40  C   UNL A   1      41.624  27.061  28.183  1.00  0.00     0.074 A 
ATOM     41  C   UNL A   1      42.279  29.395  28.623  1.00  0.00     0.049 A 
ATOM     42  N   UNL A   1      42.787  26.527  27.906  1.00  0.00    -0.248 NA
ATOM     43  C   UNL A   1      40.508  26.107  28.199  1.00  0.00     0.031 C 
ATOM     44  C   UNL A   1      42.084  30.800  28.982  1.00  0.00     0.029 A 
ATOM     45  N   UNL A   1      43.635  29.271  28.473  1.00  0.00    -0.354 N 
ATOM     46  C   UNL A   1      42.543  25.179  27.688  1.00  0.00     0.074 A 
ATOM     47  C   UNL A   1      41.130  24.968  27.931  1.00  0.00     0.031 C 
ATOM     48  C   UNL A   1      43.275  31.416  28.999  1.00  0.00     0.029 A 
ATOM     49  C   UNL A   1      44.317  30.445  28.680  1.00  0.00     0.049 A 
ATOM     50  H   UNL A   1      44.078  28.424  28.238  1.00  0.00     0.167 HD
ATOM     51  C   UNL A   1      43.412  24.213  27.299  1.00  0.00     0.037 A 
ATOM     52  C   UNL A   1      45.635  30.708  28.623  1.00  0.00     0.037 A 
ATOM     53  C   UNL A   1      44.826  24.421  27.109  1.00  0.00     0.049 A 
ATOM     54  C   UNL A   1      46.587  29.612  28.241  1.00  0.00     0.074 A 
ATOM     55  C   UNL A   1      45.787  23.516  26.691  1.00  0.00     0.029 A 
ATOM     56  N   UNL A   1      45.490  25.616  27.354  1.00  0.00    -0.354 N 
ATOM     57  N   UNL A   1      46.333  28.361  27.940  1.00  0.00    -0.248 NA
ATOM     58  C   UNL A   1      48.012  29.968  28.181  1.00  0.00     0.031 C 
ATOM     59  C   UNL A   1      47.037  24.145  26.744  1.00  0.00     0.029 A 
ATOM     60  C   UNL A   1      46.852  25.462  27.131  1.00  0.00     0.049 A 
ATOM     61  H   UNL A   1      45.058  26.452  27.645  1.00  0.00     0.167 HD
ATOM     62  C   UNL A   1      47.560  27.784  27.640  1.00  0.00     0.074 A 
ATOM     63  C   UNL A   1      48.554  28.831  27.770  1.00  0.00     0.031 C 
ATOM     64  C   UNL A   1      47.838  26.504  27.288  1.00  0.00     0.037 A 
BRANCH  51  65
ATOM     65  C   UNL A   1      42.841  22.840  27.075  1.00  0.00     0.057 A 
ATOM     66  C   UNL A   1      42.517  22.007  28.153  1.00  0.00     0.134 A 
ATOM     67  C   UNL A   1      42.598  22.344  25.785  1.00  0.00     0.134 A 
ATOM     68  F   UNL A   1      42.734  22.408  29.414  1.00  0.00    -0.206 F 
ATOM     69  C   UNL A   1      41.952  20.745  27.958  1.00  0.00     0.040 A 
ATOM     70  C   UNL A   1      42.004  21.097  25.578  1.00  0.00     0.040 A 
ATOM     71  F   UNL A   1      42.881  23.090  24.705  1.00  0.00    -0.206 F 
ATOM     72  C   UNL A   1      41.681  20.293  26.668  1.00  0.00     0.006 A 
ENDBRANCH  51  65
BRANCH  52  73
ATOM     73  C   UNL A   1      46.122  32.077  28.926  1.00  0.00     0.057 A 
ATOM     74  C   UNL A   1      46.523  32.432  30.221  1.00  0.00     0.134 A 
ATOM     75  C   UNL A   1      46.190  33.062  27.936  1.00  0.00     0.134 A 
ATOM     76  F   UNL A   1      46.469  31.534  31.216  1.00  0.00    -0.206 F 
ATOM     77  C   UNL A   1      46.964  33.720  30.521  1.00  0.00     0.040 A 
ATOM     78  C   UNL A   1      46.657  34.347  28.216  1.00  0.00     0.040 A 
ATOM     79  F   UNL A   1      45.835  32.777  26.674  1.00  0.00    -0.206 F 
ATOM     80  C   UNL A   1      47.039  34.680  29.515  1.00  0.00     0.006 A 
ENDBRANCH  52  73
BRANCH  64  81
ATOM     81  C   UNL A   1      49.278  26.174  27.008  1.00  0.00     0.057 A 
ATOM     82  C   UNL A   1      50.136  25.779  28.044  1.00  0.00     0.134 A 
ATOM     83  C   UNL A   1      49.820  26.246  25.717  1.00  0.00     0.134 A 
ATOM     84  F   UNL A   1      49.688  25.694  29.305  1.00  0.00    -0.206 F 
ATOM     85  C   UNL A   1      51.475  25.466  27.805  1.00  0.00     0.040 A 
ATOM     86  C   UNL A   1      51.149  25.904  25.461  1.00  0.00     0.040 A 
ATOM     87  F   UNL A   1      49.051  26.601  24.676  1.00  0.00    -0.206 F 
ATOM     88  C   UNL A   1      51.983  25.518  26.509  1.00  0.00     0.006 A 
ENDBRANCH  64  81
ENDBRANCH  38  39
ENDBRANCH  31  33
ENDBRANCH  30  31
ENDBRANCH  29  30
ENDBRANCH  28  29
ENDBRANCH  27  28
ENDBRANCH   1  27
TORSDOF 18
ENDMDL
MODEL 3
REMARK VINA RESULT:     -11.0      1.751      2.505
REMARK SMILES CC(C)CN(C)c1cc2c(cc1Cl)C=C(C(=O)OCCOCCOC(=O)c1ccc(-c3c4nc(c(-c5c(F)cccc5F)c5ccc([nH]5)c(-c5c(F)cccc5F)c5nc(c(-c6c(F)cccc6F)c6ccc3[nH]6)C=C5)C=C4)cc1)[C@@H](C(F)(F)F)O2
REMARK SMILES IDX 20 1 19 2 18 3 16 4 17 5 15 6 7 7 8 8 12 9 9 10 11 11 13 12
REMARK SMILES IDX 10 13 86 14 14 15 81 16 5 17 6 18 4 19 2 20 1 21 3 22 82 23
REMARK SMILES IDX 83 24 84 25 85 26 21 27 22 28 23 29 24 30 25 31 26 32 27 33
REMARK SMILES IDX 28 34 80 35 29 36 79 37 30 38 31 39 32 40 73 41 33 42 78 43
REMARK SMILES IDX 72 44 74 45 34 46 77 47 71 48 70 49 35 51 61 52 44 53 60 54
REMARK SMILES IDX 45 55 48 56 59 57 75 58 46 59 47 60 58 62 76 63 49 64 36 65
REMARK SMILES IDX 37 66 42 67 38 68 39 69 41 70 43 71 40 72 62 73 63 74 68 75
REMARK SMILES IDX 64 76 65 77 67 78 69 79 66 80 50 81 51 82 56 83 52 84 53 85
REMARK SMILES IDX 55 86 57 87 54 88
REMARK H PARENT 74 50 48 61
REMARK Flexibility Score: inf
ROOT
ATOM      1  C   UNL A   1      37.811  20.771  24.967  1.00  0.00     0.202 C 
ENDROOT
BRANCH   1   2
ATOM      2  C   UNL A   1      36.313  20.746  25.287  1.00  0.00     0.261 C 
BRANCH   2   3
ATOM      3  O   UNL A   1      35.526  21.472  24.332  1.00  0.00    -0.460 OA
BRANCH   3   4
ATOM      4  C   UNL A   1      34.208  21.169  24.384  1.00  0.00     0.338 C 
ATOM      5  O   UNL A   1      33.722  20.048  24.369  1.00  0.00    -0.246 OA
BRANCH   4   6
ATOM      6  C   UNL A   1      33.392  22.378  24.578  1.00  0.00     0.087 C 
ATOM      7  C   UNL A   1      31.999  27.204  24.473  1.00  0.00     0.059 A 
ATOM      8  C   UNL A   1      31.494  26.060  25.130  1.00  0.00     0.074 A 
ATOM      9  C   UNL A   1      33.146  27.040  23.667  1.00  0.00     0.065 A 
ATOM     10  C   UNL A   1      32.076  24.800  24.934  1.00  0.00     0.130 A 
ATOM     11  C   UNL A   1      33.641  25.775  23.374  1.00  0.00     0.034 A 
ATOM     12  Cl  UNL A   1      34.041  28.380  23.034  1.00  0.00    -0.082 Cl
ATOM     13  C   UNL A   1      33.094  24.657  23.996  1.00  0.00     0.019 A 
ATOM     14  O   UNL A   1      31.602  23.737  25.661  1.00  0.00    -0.475 OA
ATOM     15  C   UNL A   1      33.651  23.356  23.705  1.00  0.00     0.027 C 
ATOM     16  C   UNL A   1      32.455  22.544  25.742  1.00  0.00     0.316 C 
BRANCH   7  17
ATOM     17  N   UNL A   1      31.373  28.449  24.595  1.00  0.00    -0.373 N 
ATOM     18  C   UNL A   1      30.425  28.799  23.546  1.00  0.00     0.143 C 
BRANCH  17  19
ATOM     19  C   UNL A   1      32.114  29.541  25.262  1.00  0.00     0.119 C 
BRANCH  19  20
ATOM     20  C   UNL A   1      32.694  29.131  26.636  1.00  0.00     0.002 C 
ATOM     21  C   UNL A   1      33.434  30.281  27.329  1.00  0.00     0.009 C 
ATOM     22  C   UNL A   1      31.604  28.623  27.586  1.00  0.00     0.009 C 
ENDBRANCH  19  20
ENDBRANCH  17  19
ENDBRANCH   7  17
BRANCH  16  23
ATOM     23  C   UNL A   1      33.222  22.508  27.073  1.00  0.00     0.430 C 
ATOM     24  F   UNL A   1      34.339  23.271  27.026  1.00  0.00    -0.167 F 
ATOM     25  F   UNL A   1      32.463  22.994  28.087  1.00  0.00    -0.167 F 
ATOM     26  F   UNL A   1      33.596  21.255  27.417  1.00  0.00    -0.167 F 
ENDBRANCH  16  23
ENDBRANCH   4   6
ENDBRANCH   3   4
ENDBRANCH   2   3
ENDBRANCH   1   2
BRANCH   1  27
ATOM     27  O   UNL A   1      38.583  21.876  25.422  1.00  0.00    -0.374 OA
BRANCH  27  28
ATOM     28  C   UNL A   1      39.720  21.635  26.248  1.00  0.00     0.202 C 
BRANCH  28  29
ATOM     29  C   UNL A   1      40.536  22.831  26.760  1.00  0.00     0.261 C 
BRANCH  29  30
ATOM     30  O   UNL A   1      39.878  24.094  26.565  1.00  0.00    -0.460 OA
BRANCH  30  31
ATOM     31  C   UNL A   1      40.709  25.134  26.312  1.00  0.00     0.338 C 
ATOM     32  O   UNL A   1      41.245  25.416  25.250  1.00  0.00    -0.246 OA
BRANCH  31  33
ATOM     33  C   UNL A   1      40.732  26.031  27.480  1.00  0.00     0.060 A 
ATOM     34  C   UNL A   1      41.730  26.995  27.622  1.00  0.00     0.016 A 
ATOM     35  C   UNL A   1      39.699  25.925  28.421  1.00  0.00     0.016 A 
ATOM     36  C   UNL A   1      41.675  27.876  28.704  1.00  0.00     0.010 A 
ATOM     37  C   UNL A   1      39.646  26.807  29.499  1.00  0.00     0.010 A 
ATOM     38  C   UNL A   1      40.624  27.801  29.637  1.00  0.00    -0.014 A 
BRANCH  38  39
ATOM     39  C   UNL A   1      40.489  28.846  30.679  1.00  0.00     0.031 A 
ATOM     40  C   UNL A   1      39.475  29.942  30.567  1.00  0.00     0.074 A 
ATOM     41  C   UNL A   1      41.318  28.802  31.739  1.00  0.00     0.049 A 
ATOM     42  N   UNL A   1      39.171  30.874  31.435  1.00  0.00    -0.248 NA
ATOM     43  C   UNL A   1      38.711  30.007  29.315  1.00  0.00     0.031 C 
ATOM     44  C   UNL A   1      42.387  27.820  31.927  1.00  0.00     0.029 A 
ATOM     45  N   UNL A   1      41.391  29.598  32.852  1.00  0.00    -0.354 N 
ATOM     46  C   UNL A   1      38.160  31.623  30.848  1.00  0.00     0.074 A 
ATOM     47  C   UNL A   1      37.952  31.074  29.522  1.00  0.00     0.031 C 
ATOM     48  C   UNL A   1      42.994  28.056  33.100  1.00  0.00     0.029 A 
ATOM     49  C   UNL A   1      42.376  29.218  33.731  1.00  0.00     0.049 A 
ATOM     50  H   UNL A   1      40.796  30.366  33.007  1.00  0.00     0.167 HD
ATOM     51  C   UNL A   1      37.457  32.656  31.375  1.00  0.00     0.037 A 
ATOM     52  C   UNL A   1      42.742  29.749  34.910  1.00  0.00     0.037 A 
ATOM     53  C   UNL A   1      37.705  33.228  32.675  1.00  0.00     0.049 A 
ATOM     54  C   UNL A   1      41.984  30.926  35.453  1.00  0.00     0.074 A 
ATOM     55  C   UNL A   1      37.032  34.257  33.312  1.00  0.00     0.029 A 
ATOM     56  N   UNL A   1      38.728  32.838  33.529  1.00  0.00    -0.354 N 
ATOM     57  N   UNL A   1      40.964  31.566  34.934  1.00  0.00    -0.248 NA
ATOM     58  C   UNL A   1      42.423  31.450  36.754  1.00  0.00     0.031 C 
ATOM     59  C   UNL A   1      37.686  34.531  34.520  1.00  0.00     0.029 A 
ATOM     60  C   UNL A   1      38.728  33.629  34.670  1.00  0.00     0.049 A 
ATOM     61  H   UNL A   1      39.363  32.107  33.352  1.00  0.00     0.167 HD
ATOM     62  C   UNL A   1      40.628  32.555  35.848  1.00  0.00     0.074 A 
ATOM     63  C   UNL A   1      41.539  32.413  36.966  1.00  0.00     0.031 C 
ATOM     64  C   UNL A   1      39.655  33.496  35.768  1.00  0.00     0.037 A 
BRANCH  51  65
ATOM     65  C   UNL A   1      36.363  33.235  30.521  1.00  0.00     0.057 A 
ATOM     66  C   UNL A   1      35.016  32.961  30.788  1.00  0.00     0.134 A 
ATOM     67  C   UNL A   1      36.644  34.081  29.437  1.00  0.00     0.134 A 
ATOM     68  F   UNL A   1      34.673  32.150  31.800  1.00  0.00    -0.206 F 
ATOM     69  C   UNL A   1      33.991  33.524  30.025  1.00  0.00     0.040 A 
ATOM     70  C   UNL A   1      35.626  34.675  28.688  1.00  0.00     0.040 A 
ATOM     71  F   UNL A   1      37.913  34.390  29.126  1.00  0.00    -0.206 F 
ATOM     72  C   UNL A   1      34.294  34.395  28.980  1.00  0.00     0.006 A 
ENDBRANCH  51  65
BRANCH  52  73
ATOM     73  C   UNL A   1      43.878  29.157  35.659  1.00  0.00     0.057 A 
ATOM     74  C   UNL A   1      45.184  29.636  35.491  1.00  0.00     0.134 A 
ATOM     75  C   UNL A   1      43.690  28.096  36.551  1.00  0.00     0.134 A 
ATOM     76  F   UNL A   1      45.430  30.645  34.641  1.00  0.00    -0.206 F 
ATOM     77  C   UNL A   1      46.262  29.075  36.174  1.00  0.00     0.040 A 
ATOM     78  C   UNL A   1      44.756  27.543  37.263  1.00  0.00     0.040 A 
ATOM     79  F   UNL A   1      42.460  27.605  36.766  1.00  0.00    -0.206 F 
ATOM     80  C   UNL A   1      46.048  28.030  37.070  1.00  0.00     0.006 A 
ENDBRANCH  52  73
BRANCH  64  81
ATOM     81  C   UNL A   1      39.521  34.436  36.934  1.00  0.00     0.057 A 
ATOM     82  C   UNL A   1      40.100  35.712  36.895  1.00  0.00     0.134 A 
ATOM     83  C   UNL A   1      38.823  34.084  38.097  1.00  0.00     0.134 A 
ATOM     84  F   UNL A   1      40.788  36.115  35.817  1.00  0.00    -0.206 F 
ATOM     85  C   UNL A   1      39.986  36.601  37.966  1.00  0.00     0.040 A 
ATOM     86  C   UNL A   1      38.675  34.976  39.161  1.00  0.00     0.040 A 
ATOM     87  F   UNL A   1      38.229  32.884  38.196  1.00  0.00    -0.206 F 
ATOM     88  C   UNL A   1      39.263  36.238  39.100  1.00  0.00     0.006 A 
ENDBRANCH  64  81
ENDBRANCH  38  39
ENDBRANCH  31  33
ENDBRANCH  30  31
ENDBRANCH  29  30
ENDBRANCH  28  29
ENDBRANCH  27  28
ENDBRANCH   1  27
TORSDOF 18
ENDMDL
