MODEL 1
REMARK VINA RESULT:     -12.6      0.000      0.000
REMARK SMILES O=C(OCCOCCOC(=O)c1ccc(-c2c3nc(c(-c4c(F)cccc4F)c4ccc([nH]4)c(-c4c(F)cccc4F)c4nc(c(-c5c(F)cccc5F)c5ccc2[nH]5)C=C4)C=C3)cc1)C1=Cc2cc(Cl)c(Cl)cc2O[C@@H]1C(F)(F)F
REMARK SMILES IDX 7 1 6 2 5 3 4 4 3 5 2 6 1 7 66 8 67 9 77 10 68 11 76 12
REMARK SMILES IDX 69 13 75 14 70 15 74 16 71 17 72 18 73 19 78 20 79 21 80 22
REMARK SMILES IDX 81 23 8 24 9 25 10 26 11 27 12 28 13 29 65 30 14 31 64 32
REMARK SMILES IDX 15 33 16 34 17 35 58 36 18 37 63 38 57 39 59 40 19 41 62 42
REMARK SMILES IDX 56 43 55 44 20 46 46 47 29 48 45 49 30 50 33 51 44 52 60 53
REMARK SMILES IDX 31 54 32 55 43 57 61 58 34 59 21 60 22 61 27 62 23 63 24 64
REMARK SMILES IDX 26 65 28 66 25 67 47 68 48 69 53 70 49 71 50 72 52 73 54 74
REMARK SMILES IDX 51 75 35 76 36 77 41 78 37 79 38 80 40 81 42 82 39 83
REMARK H PARENT 59 45 33 56
REMARK Flexibility Score: inf
ROOT
ATOM      1  C   UNL A   1      42.919  21.438  25.988  1.00  0.00     0.202 C 
ENDROOT
BRANCH   1   2
ATOM      2  O   UNL A   1      41.571  21.695  25.541  1.00  0.00    -0.374 OA
BRANCH   2   3
ATOM      3  C   UNL A   1      40.146  21.652  26.333  1.00  0.00     0.202 C 
BRANCH   3   4
ATOM      4  C   UNL A   1      38.178  22.348  25.686  1.00  0.00     0.261 C 
BRANCH   4   5
ATOM      5  O   UNL A   1      37.242  21.641  24.707  1.00  0.00    -0.460 OA
BRANCH   5   6
ATOM      6  C   UNL A   1      36.499  22.494  23.996  1.00  0.00     0.338 C 
ATOM      7  O   UNL A   1      36.808  23.159  23.040  1.00  0.00    -0.246 OA
BRANCH   6   8
ATOM      8  C   UNL A   1      35.438  22.630  24.974  1.00  0.00     0.087 C 
ATOM      9  C   UNL A   1      35.366  23.991  25.540  1.00  0.00     0.027 C 
ATOM     10  C   UNL A   1      34.073  21.820  23.872  1.00  0.00     0.316 C 
ATOM     11  C   UNL A   1      34.106  25.203  25.083  1.00  0.00     0.019 A 
ATOM     12  O   UNL A   1      32.754  23.117  23.298  1.00  0.00    -0.475 OA
ATOM     13  C   UNL A   1      34.213  26.481  25.555  1.00  0.00     0.034 A 
ATOM     14  C   UNL A   1      32.865  24.836  23.926  1.00  0.00     0.129 A 
ATOM     15  C   UNL A   1      33.331  27.409  24.975  1.00  0.00     0.060 A 
ATOM     16  C   UNL A   1      32.136  25.822  23.326  1.00  0.00     0.069 A 
ATOM     17  Cl  UNL A   1      33.439  29.018  25.643  1.00  0.00    -0.083 Cl
ATOM     18  C   UNL A   1      32.398  27.111  23.881  1.00  0.00     0.063 A 
ATOM     19  Cl  UNL A   1      31.603  28.463  23.125  1.00  0.00    -0.083 Cl
BRANCH  10  20
ATOM     20  C   UNL A   1      33.948  20.466  24.730  1.00  0.00     0.430 C 
ATOM     21  F   UNL A   1      33.538  20.612  26.003  1.00  0.00    -0.167 F 
ATOM     22  F   UNL A   1      32.977  19.705  24.141  1.00  0.00    -0.167 F 
ATOM     23  F   UNL A   1      35.046  19.677  24.725  1.00  0.00    -0.167 F 
ENDBRANCH  10  20
ENDBRANCH   6   8
ENDBRANCH   5   6
ENDBRANCH   4   5
ENDBRANCH   3   4
ENDBRANCH   2   3
ENDBRANCH   1   2
BRANCH   1  24
ATOM     24  C   UNL A   1      44.029  22.268  25.346  1.00  0.00     0.261 C 
BRANCH  24  25
ATOM     25  O   UNL A   1      43.523  23.422  24.692  1.00  0.00    -0.460 OA
BRANCH  25  26
ATOM     26  C   UNL A   1      44.211  24.536  25.014  1.00  0.00     0.338 C 
ATOM     27  O   UNL A   1      45.341  24.840  24.676  1.00  0.00    -0.246 OA
BRANCH  26  28
ATOM     28  C   UNL A   1      43.387  25.367  25.900  1.00  0.00     0.060 A 
ATOM     29  C   UNL A   1      43.987  26.522  26.404  1.00  0.00     0.016 A 
ATOM     30  C   UNL A   1      42.074  25.018  26.252  1.00  0.00     0.016 A 
ATOM     31  C   UNL A   1      43.280  27.327  27.277  1.00  0.00     0.010 A 
ATOM     32  C   UNL A   1      41.366  25.822  27.138  1.00  0.00     0.010 A 
ATOM     33  C   UNL A   1      41.985  26.962  27.666  1.00  0.00    -0.014 A 
BRANCH  33  34
ATOM     34  C   UNL A   1      41.433  27.649  28.841  1.00  0.00     0.031 A 
ATOM     35  C   UNL A   1      42.204  27.521  30.117  1.00  0.00     0.074 A 
ATOM     36  C   UNL A   1      40.379  28.467  28.723  1.00  0.00     0.049 A 
ATOM     37  N   UNL A   1      42.032  28.137  31.253  1.00  0.00    -0.248 NA
ATOM     38  C   UNL A   1      43.339  26.579  30.102  1.00  0.00     0.031 C 
ATOM     39  C   UNL A   1      39.618  28.694  27.496  1.00  0.00     0.029 A 
ATOM     40  N   UNL A   1      39.790  29.288  29.645  1.00  0.00    -0.354 N 
ATOM     41  C   UNL A   1      43.044  27.671  32.080  1.00  0.00     0.074 A 
ATOM     42  C   UNL A   1      43.803  26.697  31.333  1.00  0.00     0.031 C 
ATOM     43  C   UNL A   1      38.678  29.625  27.735  1.00  0.00     0.029 A 
ATOM     44  C   UNL A   1      38.746  30.019  29.139  1.00  0.00     0.049 A 
ATOM     45  H   UNL A   1      40.087  29.348  30.581  1.00  0.00     0.167 HD
ATOM     46  C   UNL A   1      43.314  28.037  33.353  1.00  0.00     0.037 A 
ATOM     47  C   UNL A   1      37.937  30.896  29.759  1.00  0.00     0.037 A 
ATOM     48  C   UNL A   1      42.519  28.983  34.084  1.00  0.00     0.049 A 
ATOM     49  C   UNL A   1      38.192  31.197  31.213  1.00  0.00     0.074 A 
ATOM     50  C   UNL A   1      42.671  29.408  35.390  1.00  0.00     0.029 A 
ATOM     51  N   UNL A   1      41.403  29.634  33.575  1.00  0.00    -0.354 N 
ATOM     52  N   UNL A   1      39.152  30.761  31.997  1.00  0.00    -0.248 NA
ATOM     53  C   UNL A   1      37.256  32.117  31.869  1.00  0.00     0.031 C 
ATOM     54  C   UNL A   1      41.601  30.254  35.694  1.00  0.00     0.029 A 
ATOM     55  C   UNL A   1      40.836  30.432  34.551  1.00  0.00     0.049 A 
ATOM     56  H   UNL A   1      41.067  29.540  32.654  1.00  0.00     0.167 HD
ATOM     57  C   UNL A   1      38.962  31.388  33.222  1.00  0.00     0.074 A 
ATOM     58  C   UNL A   1      37.800  32.242  33.070  1.00  0.00     0.031 C 
ATOM     59  C   UNL A   1      39.682  31.278  34.368  1.00  0.00     0.037 A 
BRANCH  46  60
ATOM     60  C   UNL A   1      44.459  27.347  34.032  1.00  0.00     0.057 A 
ATOM     61  C   UNL A   1      45.777  27.816  33.944  1.00  0.00     0.134 A 
ATOM     62  C   UNL A   1      44.237  26.179  34.769  1.00  0.00     0.134 A 
ATOM     63  F   UNL A   1      46.064  28.913  33.226  1.00  0.00    -0.206 F 
ATOM     64  C   UNL A   1      46.836  27.128  34.539  1.00  0.00     0.040 A 
ATOM     65  C   UNL A   1      45.282  25.502  35.397  1.00  0.00     0.040 A 
ATOM     66  F   UNL A   1      43.001  25.670  34.885  1.00  0.00    -0.206 F 
ATOM     67  C   UNL A   1      46.588  25.971  35.276  1.00  0.00     0.006 A 
ENDBRANCH  46  60
BRANCH  47  68
ATOM     68  C   UNL A   1      36.810  31.533  29.030  1.00  0.00     0.057 A 
ATOM     69  C   UNL A   1      36.850  32.879  28.647  1.00  0.00     0.134 A 
ATOM     70  C   UNL A   1      35.639  30.821  28.742  1.00  0.00     0.134 A 
ATOM     71  F   UNL A   1      37.935  33.625  28.908  1.00  0.00    -0.206 F 
ATOM     72  C   UNL A   1      35.758  33.501  28.039  1.00  0.00     0.040 A 
ATOM     73  C   UNL A   1      34.552  31.421  28.105  1.00  0.00     0.040 A 
ATOM     74  F   UNL A   1      35.531  29.527  29.078  1.00  0.00    -0.206 F 
ATOM     75  C   UNL A   1      34.605  32.770  27.764  1.00  0.00     0.006 A 
ENDBRANCH  47  68
BRANCH  59  76
ATOM     76  C   UNL A   1      39.275  32.154  35.520  1.00  0.00     0.057 A 
ATOM     77  C   UNL A   1      38.434  31.706  36.546  1.00  0.00     0.134 A 
ATOM     78  C   UNL A   1      39.761  33.465  35.611  1.00  0.00     0.134 A 
ATOM     79  F   UNL A   1      37.930  30.462  36.520  1.00  0.00    -0.206 F 
ATOM     80  C   UNL A   1      38.054  32.545  37.595  1.00  0.00     0.040 A 
ATOM     81  C   UNL A   1      39.423  34.299  36.676  1.00  0.00     0.040 A 
ATOM     82  F   UNL A   1      40.587  33.954  34.672  1.00  0.00    -0.206 F 
ATOM     83  C   UNL A   1      38.554  33.843  37.664  1.00  0.00     0.006 A 
ENDBRANCH  59  76
ENDBRANCH  33  34
ENDBRANCH  26  28
ENDBRANCH  25  26
ENDBRANCH  24  25
ENDBRANCH   1  24
TORSDOF 15
ENDMDL
MODEL 2
REMARK VINA RESULT:     -12.5      0.945      6.205
REMARK SMILES O=C(OCCOCCOC(=O)c1ccc(-c2c3nc(c(-c4c(F)cccc4F)c4ccc([nH]4)c(-c4c(F)cccc4F)c4nc(c(-c5c(F)cccc5F)c5ccc2[nH]5)C=C4)C=C3)cc1)C1=Cc2cc(Cl)c(Cl)cc2O[C@@H]1C(F)(F)F
REMARK SMILES IDX 7 1 6 2 5 3 4 4 3 5 2 6 1 7 66 8 67 9 77 10 68 11 76 12
REMARK SMILES IDX 69 13 75 14 70 15 74 16 71 17 72 18 73 19 78 20 79 21 80 22
REMARK SMILES IDX 81 23 8 24 9 25 10 26 11 27 12 28 13 29 65 30 14 31 64 32
REMARK SMILES IDX 15 33 16 34 17 35 58 36 18 37 63 38 57 39 59 40 19 41 62 42
REMARK SMILES IDX 56 43 55 44 20 46 46 47 29 48 45 49 30 50 33 51 44 52 60 53
REMARK SMILES IDX 31 54 32 55 43 57 61 58 34 59 21 60 22 61 27 62 23 63 24 64
REMARK SMILES IDX 26 65 28 66 25 67 47 68 48 69 53 70 49 71 50 72 52 73 54 74
REMARK SMILES IDX 51 75 35 76 36 77 41 78 37 79 38 80 40 81 42 82 39 83
REMARK H PARENT 59 45 33 56
REMARK Flexibility Score: inf
ROOT
ATOM      1  C   UNL A   1      42.024  21.310  26.154  1.00  0.00     0.202 C 
ENDROOT
BRANCH   1   2
ATOM      2  O   UNL A   1      40.651  21.489  25.745  1.00  0.00    -0.374 OA
BRANCH   2   3
ATOM      3  C   UNL A   1      39.382  22.181  26.501  1.00  0.00     0.202 C 
BRANCH   3   4
ATOM      4  C   UNL A   1      37.629  23.168  25.647  1.00  0.00     0.261 C 
BRANCH   4   5
ATOM      5  O   UNL A   1      36.180  22.997  26.101  1.00  0.00    -0.460 OA
BRANCH   5   6
ATOM      6  C   UNL A   1      35.666  21.814  25.751  1.00  0.00     0.338 C 
ATOM      7  O   UNL A   1      36.211  20.868  25.243  1.00  0.00    -0.246 OA
BRANCH   6   8
ATOM      8  C   UNL A   1      34.278  22.226  25.801  1.00  0.00     0.087 C 
ATOM      9  C   UNL A   1      34.118  23.609  26.291  1.00  0.00     0.027 C 
ATOM     10  C   UNL A   1      33.849  21.633  24.013  1.00  0.00     0.316 C 
ATOM     11  C   UNL A   1      33.737  25.015  25.222  1.00  0.00     0.019 A 
ATOM     12  O   UNL A   1      33.518  23.126  22.824  1.00  0.00    -0.475 OA
ATOM     13  C   UNL A   1      33.754  26.275  25.751  1.00  0.00     0.034 A 
ATOM     14  C   UNL A   1      33.522  24.827  23.510  1.00  0.00     0.129 A 
ATOM     15  C   UNL A   1      33.674  27.319  24.814  1.00  0.00     0.060 A 
ATOM     16  C   UNL A   1      33.577  25.896  22.662  1.00  0.00     0.069 A 
ATOM     17  Cl  UNL A   1      33.628  28.915  25.519  1.00  0.00    -0.083 Cl
ATOM     18  C   UNL A   1      33.655  27.140  23.357  1.00  0.00     0.063 A 
ATOM     19  Cl  UNL A   1      33.836  28.570  22.379  1.00  0.00    -0.083 Cl
BRANCH  10  20
ATOM     20  C   UNL A   1      32.930  20.393  24.464  1.00  0.00     0.430 C 
ATOM     21  F   UNL A   1      31.811  20.706  25.142  1.00  0.00    -0.167 F 
ATOM     22  F   UNL A   1      32.482  19.788  23.323  1.00  0.00    -0.167 F 
ATOM     23  F   UNL A   1      33.575  19.413  25.137  1.00  0.00    -0.167 F 
ENDBRANCH  10  20
ENDBRANCH   6   8
ENDBRANCH   5   6
ENDBRANCH   4   5
ENDBRANCH   3   4
ENDBRANCH   2   3
ENDBRANCH   1   2
BRANCH   1  24
ATOM     24  C   UNL A   1      43.078  22.113  25.395  1.00  0.00     0.261 C 
BRANCH  24  25
ATOM     25  O   UNL A   1      42.637  23.428  25.096  1.00  0.00    -0.460 OA
BRANCH  25  26
ATOM     26  C   UNL A   1      43.525  24.366  25.480  1.00  0.00     0.338 C 
ATOM     27  O   UNL A   1      44.689  24.481  25.136  1.00  0.00    -0.246 OA
BRANCH  26  28
ATOM     28  C   UNL A   1      42.882  25.266  26.446  1.00  0.00     0.060 A 
ATOM     29  C   UNL A   1      43.361  26.577  26.489  1.00  0.00     0.016 A 
ATOM     30  C   UNL A   1      41.860  24.838  27.306  1.00  0.00     0.016 A 
ATOM     31  C   UNL A   1      42.827  27.462  27.405  1.00  0.00     0.010 A 
ATOM     32  C   UNL A   1      41.330  25.727  28.235  1.00  0.00     0.010 A 
ATOM     33  C   UNL A   1      41.837  27.031  28.295  1.00  0.00    -0.014 A 
BRANCH  33  34
ATOM     34  C   UNL A   1      41.570  27.895  29.452  1.00  0.00     0.031 A 
ATOM     35  C   UNL A   1      40.383  28.801  29.353  1.00  0.00     0.074 A 
ATOM     36  C   UNL A   1      42.270  27.757  30.586  1.00  0.00     0.049 A 
ATOM     37  N   UNL A   1      39.834  29.549  30.268  1.00  0.00    -0.248 NA
ATOM     38  C   UNL A   1      39.712  28.856  28.040  1.00  0.00     0.031 C 
ATOM     39  C   UNL A   1      43.397  26.847  30.780  1.00  0.00     0.029 A 
ATOM     40  N   UNL A   1      42.108  28.360  31.803  1.00  0.00    -0.354 N 
ATOM     41  C   UNL A   1      38.746  30.148  29.650  1.00  0.00     0.074 A 
ATOM     42  C   UNL A   1      38.731  29.709  28.275  1.00  0.00     0.031 C 
ATOM     43  C   UNL A   1      43.806  26.928  32.057  1.00  0.00     0.029 A 
ATOM     44  C   UNL A   1      43.000  27.928  32.751  1.00  0.00     0.049 A 
ATOM     45  H   UNL A   1      41.418  29.039  31.981  1.00  0.00     0.167 HD
ATOM     46  C   UNL A   1      37.838  30.988  30.193  1.00  0.00     0.037 A 
ATOM     47  C   UNL A   1      43.142  28.317  34.030  1.00  0.00     0.037 A 
ATOM     48  C   UNL A   1      37.898  31.437  31.555  1.00  0.00     0.049 A 
ATOM     49  C   UNL A   1      42.183  29.343  34.575  1.00  0.00     0.074 A 
ATOM     50  C   UNL A   1      37.056  32.314  32.211  1.00  0.00     0.029 A 
ATOM     51  N   UNL A   1      38.876  31.058  32.466  1.00  0.00    -0.354 N 
ATOM     52  N   UNL A   1      41.150  29.907  33.993  1.00  0.00    -0.248 NA
ATOM     53  C   UNL A   1      42.404  29.781  35.958  1.00  0.00     0.031 C 
ATOM     54  C   UNL A   1      37.571  32.527  33.493  1.00  0.00     0.029 A 
ATOM     55  C   UNL A   1      38.678  31.711  33.670  1.00  0.00     0.049 A 
ATOM     56  H   UNL A   1      39.601  30.419  32.282  1.00  0.00     0.167 HD
ATOM     57  C   UNL A   1      40.573  30.732  34.951  1.00  0.00     0.074 A 
ATOM     58  C   UNL A   1      41.368  30.583  36.154  1.00  0.00     0.031 C 
ATOM     59  C   UNL A   1      39.482  31.535  34.853  1.00  0.00     0.037 A 
BRANCH  46  60
ATOM     60  C   UNL A   1      36.771  31.519  29.284  1.00  0.00     0.057 A 
ATOM     61  C   UNL A   1      36.794  32.827  28.781  1.00  0.00     0.134 A 
ATOM     62  C   UNL A   1      35.688  30.709  28.925  1.00  0.00     0.134 A 
ATOM     63  F   UNL A   1      37.788  33.667  29.112  1.00  0.00    -0.206 F 
ATOM     64  C   UNL A   1      35.762  33.319  27.980  1.00  0.00     0.040 A 
ATOM     65  C   UNL A   1      34.668  31.177  28.097  1.00  0.00     0.040 A 
ATOM     66  F   UNL A   1      35.598  29.450  29.379  1.00  0.00    -0.206 F 
ATOM     67  C   UNL A   1      34.699  32.489  27.629  1.00  0.00     0.006 A 
ENDBRANCH  46  60
BRANCH  47  68
ATOM     68  C   UNL A   1      44.232  27.761  34.874  1.00  0.00     0.057 A 
ATOM     69  C   UNL A   1      45.507  28.338  34.900  1.00  0.00     0.134 A 
ATOM     70  C   UNL A   1      44.037  26.604  35.640  1.00  0.00     0.134 A 
ATOM     71  F   UNL A   1      45.768  29.436  34.177  1.00  0.00    -0.206 F 
ATOM     72  C   UNL A   1      46.555  27.767  35.626  1.00  0.00     0.040 A 
ATOM     73  C   UNL A   1      45.066  26.042  36.396  1.00  0.00     0.040 A 
ATOM     74  F   UNL A   1      42.839  26.000  35.664  1.00  0.00    -0.206 F 
ATOM     75  C   UNL A   1      46.335  26.616  36.379  1.00  0.00     0.006 A 
ENDBRANCH  47  68
BRANCH  59  76
ATOM     76  C   UNL A   1      39.047  32.254  36.100  1.00  0.00     0.057 A 
ATOM     77  C   UNL A   1      38.183  31.679  37.039  1.00  0.00     0.134 A 
ATOM     78  C   UNL A   1      39.530  33.542  36.372  1.00  0.00     0.134 A 
ATOM     79  F   UNL A   1      37.680  30.451  36.840  1.00  0.00    -0.206 F 
ATOM     80  C   UNL A   1      37.778  32.375  38.179  1.00  0.00     0.040 A 
ATOM     81  C   UNL A   1      39.166  34.231  37.528  1.00  0.00     0.040 A 
ATOM     82  F   UNL A   1      40.378  34.147  35.524  1.00  0.00    -0.206 F 
ATOM     83  C   UNL A   1      38.275  33.652  38.428  1.00  0.00     0.006 A 
ENDBRANCH  59  76
ENDBRANCH  33  34
ENDBRANCH  26  28
ENDBRANCH  25  26
ENDBRANCH  24  25
ENDBRANCH   1  24
TORSDOF 15
ENDMDL
MODEL 3
REMARK VINA RESULT:     -12.4      4.157      6.612
REMARK SMILES O=C(OCCOCCOC(=O)c1ccc(-c2c3nc(c(-c4c(F)cccc4F)c4ccc([nH]4)c(-c4c(F)cccc4F)c4nc(c(-c5c(F)cccc5F)c5ccc2[nH]5)C=C4)C=C3)cc1)C1=Cc2cc(Cl)c(Cl)cc2O[C@@H]1C(F)(F)F
REMARK SMILES IDX 7 1 6 2 5 3 4 4 3 5 2 6 1 7 66 8 67 9 77 10 68 11 76 12
REMARK SMILES IDX 69 13 75 14 70 15 74 16 71 17 72 18 73 19 78 20 79 21 80 22
REMARK SMILES IDX 81 23 8 24 9 25 10 26 11 27 12 28 13 29 65 30 14 31 64 32
REMARK SMILES IDX 15 33 16 34 17 35 58 36 18 37 63 38 57 39 59 40 19 41 62 42
REMARK SMILES IDX 56 43 55 44 20 46 46 47 29 48 45 49 30 50 33 51 44 52 60 53
REMARK SMILES IDX 31 54 32 55 43 57 61 58 34 59 21 60 22 61 27 62 23 63 24 64
REMARK SMILES IDX 26 65 28 66 25 67 47 68 48 69 53 70 49 71 50 72 52 73 54 74
REMARK SMILES IDX 51 75 35 76 36 77 41 78 37 79 38 80 40 81 42 82 39 83
REMARK H PARENT 59 45 33 56
REMARK Flexibility Score: inf
ROOT
ATOM      1  C   UNL A   1      36.110  20.561  25.079  1.00  0.00     0.202 C 
ENDROOT
BRANCH   1   2
ATOM      2  O   UNL A   1      35.642  21.446  26.120  1.00  0.00    -0.374 OA
BRANCH   2   3
ATOM      3  C   UNL A   1      35.350  23.050  26.120  1.00  0.00     0.202 C 
BRANCH   3   4
ATOM      4  C   UNL A   1      35.157  24.425  24.432  1.00  0.00     0.261 C 
BRANCH   4   5
ATOM      5  O   UNL A   1      34.021  24.452  23.409  1.00  0.00    -0.460 OA
BRANCH   5   6
ATOM      6  C   UNL A   1      33.299  25.575  23.470  1.00  0.00     0.338 C 
ATOM      7  O   UNL A   1      33.643  26.684  23.787  1.00  0.00    -0.246 OA
BRANCH   6   8
ATOM      8  C   UNL A   1      32.003  24.928  23.442  1.00  0.00     0.087 C 
ATOM      9  C   UNL A   1      32.003  23.701  22.623  1.00  0.00     0.027 C 
ATOM     10  C   UNL A   1      31.734  24.979  25.355  1.00  0.00     0.316 C 
ATOM     11  C   UNL A   1      32.007  22.032  23.316  1.00  0.00     0.019 A 
ATOM     12  O   UNL A   1      31.818  23.208  26.135  1.00  0.00    -0.475 OA
ATOM     13  C   UNL A   1      32.154  20.965  22.476  1.00  0.00     0.034 A 
ATOM     14  C   UNL A   1      32.003  21.756  25.030  1.00  0.00     0.129 A 
ATOM     15  C   UNL A   1      32.375  19.729  23.110  1.00  0.00     0.060 A 
ATOM     16  C   UNL A   1      32.347  20.545  25.559  1.00  0.00     0.069 A 
ATOM     17  Cl  UNL A   1      32.492  18.372  22.018  1.00  0.00    -0.083 Cl
ATOM     18  C   UNL A   1      32.529  19.544  24.558  1.00  0.00     0.063 A 
ATOM     19  Cl  UNL A   1      33.073  17.983  25.105  1.00  0.00    -0.083 Cl
BRANCH  10  20
ATOM     20  C   UNL A   1      30.573  26.090  25.331  1.00  0.00     0.430 C 
ATOM     21  F   UNL A   1      29.644  25.950  24.369  1.00  0.00    -0.167 F 
ATOM     22  F   UNL A   1      29.877  25.969  26.502  1.00  0.00    -0.167 F 
ATOM     23  F   UNL A   1      31.003  27.373  25.324  1.00  0.00    -0.167 F 
ENDBRANCH  10  20
ENDBRANCH   6   8
ENDBRANCH   5   6
ENDBRANCH   4   5
ENDBRANCH   3   4
ENDBRANCH   2   3
ENDBRANCH   1   2
BRANCH   1  24
ATOM     24  C   UNL A   1      37.622  20.420  24.922  1.00  0.00     0.261 C 
BRANCH  24  25
ATOM     25  O   UNL A   1      38.317  21.570  25.379  1.00  0.00    -0.460 OA
BRANCH  25  26
ATOM     26  C   UNL A   1      39.406  21.255  26.107  1.00  0.00     0.338 C 
ATOM     27  O   UNL A   1      39.938  20.165  26.223  1.00  0.00    -0.246 OA
BRANCH  26  28
ATOM     28  C   UNL A   1      39.877  22.456  26.807  1.00  0.00     0.060 A 
ATOM     29  C   UNL A   1      39.226  23.652  26.498  1.00  0.00     0.016 A 
ATOM     30  C   UNL A   1      40.942  22.425  27.720  1.00  0.00     0.016 A 
ATOM     31  C   UNL A   1      39.649  24.826  27.091  1.00  0.00     0.010 A 
ATOM     32  C   UNL A   1      41.374  23.608  28.310  1.00  0.00     0.010 A 
ATOM     33  C   UNL A   1      40.738  24.809  27.970  1.00  0.00    -0.014 A 
BRANCH  33  34
ATOM     34  C   UNL A   1      41.351  26.106  28.284  1.00  0.00     0.031 A 
ATOM     35  C   UNL A   1      42.716  26.357  27.725  1.00  0.00     0.074 A 
ATOM     36  C   UNL A   1      40.649  27.061  28.909  1.00  0.00     0.049 A 
ATOM     37  N   UNL A   1      43.419  27.454  27.717  1.00  0.00    -0.248 NA
ATOM     38  C   UNL A   1      43.372  25.211  27.067  1.00  0.00     0.031 C 
ATOM     39  C   UNL A   1      39.289  26.913  29.422  1.00  0.00     0.029 A 
ATOM     40  N   UNL A   1      40.976  28.361  29.184  1.00  0.00    -0.354 N 
ATOM     41  C   UNL A   1      44.588  27.138  27.041  1.00  0.00     0.074 A 
ATOM     42  C   UNL A   1      44.521  25.740  26.686  1.00  0.00     0.031 C 
ATOM     43  C   UNL A   1      38.883  28.092  29.924  1.00  0.00     0.029 A 
ATOM     44  C   UNL A   1      39.972  29.057  29.806  1.00  0.00     0.049 A 
ATOM     45  H   UNL A   1      41.848  28.757  28.957  1.00  0.00     0.167 HD
ATOM     46  C   UNL A   1      45.623  27.953  26.742  1.00  0.00     0.037 A 
ATOM     47  C   UNL A   1      39.956  30.331  30.237  1.00  0.00     0.037 A 
ATOM     48  C   UNL A   1      45.681  29.331  27.141  1.00  0.00     0.049 A 
ATOM     49  C   UNL A   1      41.174  31.183  29.990  1.00  0.00     0.074 A 
ATOM     50  C   UNL A   1      46.691  30.248  26.927  1.00  0.00     0.029 A 
ATOM     51  N   UNL A   1      44.688  29.983  27.861  1.00  0.00    -0.354 N 
ATOM     52  N   UNL A   1      42.279  30.887  29.346  1.00  0.00    -0.248 NA
ATOM     53  C   UNL A   1      41.139  32.550  30.523  1.00  0.00     0.031 C 
ATOM     54  C   UNL A   1      46.345  31.431  27.586  1.00  0.00     0.029 A 
ATOM     55  C   UNL A   1      45.078  31.283  28.129  1.00  0.00     0.049 A 
ATOM     56  H   UNL A   1      43.834  29.580  28.138  1.00  0.00     0.167 HD
ATOM     57  C   UNL A   1      43.051  32.043  29.358  1.00  0.00     0.074 A 
ATOM     58  C   UNL A   1      42.279  33.045  30.064  1.00  0.00     0.031 C 
ATOM     59  C   UNL A   1      44.282  32.262  28.829  1.00  0.00     0.037 A 
BRANCH  46  60
ATOM     60  C   UNL A   1      46.788  27.339  26.024  1.00  0.00     0.057 A 
ATOM     61  C   UNL A   1      46.941  27.422  24.633  1.00  0.00     0.134 A 
ATOM     62  C   UNL A   1      47.761  26.633  26.739  1.00  0.00     0.134 A 
ATOM     63  F   UNL A   1      46.027  28.058  23.883  1.00  0.00    -0.206 F 
ATOM     64  C   UNL A   1      48.004  26.797  23.978  1.00  0.00     0.040 A 
ATOM     65  C   UNL A   1      48.846  26.034  26.100  1.00  0.00     0.040 A 
ATOM     66  F   UNL A   1      47.670  26.506  28.072  1.00  0.00    -0.206 F 
ATOM     67  C   UNL A   1      48.965  26.108  24.714  1.00  0.00     0.006 A 
ENDBRANCH  46  60
BRANCH  47  68
ATOM     68  C   UNL A   1      38.774  30.873  30.957  1.00  0.00     0.057 A 
ATOM     69  C   UNL A   1      38.615  30.707  32.337  1.00  0.00     0.134 A 
ATOM     70  C   UNL A   1      37.745  31.528  30.268  1.00  0.00     0.134 A 
ATOM     71  F   UNL A   1      39.554  30.073  33.055  1.00  0.00    -0.206 F 
ATOM     72  C   UNL A   1      37.465  31.141  33.000  1.00  0.00     0.040 A 
ATOM     73  C   UNL A   1      36.605  31.996  30.923  1.00  0.00     0.040 A 
ATOM     74  F   UNL A   1      37.831  31.724  28.944  1.00  0.00    -0.206 F 
ATOM     75  C   UNL A   1      36.456  31.790  32.292  1.00  0.00     0.006 A 
ENDBRANCH  47  68
BRANCH  59  76
ATOM     76  C   UNL A   1      44.834  33.656  28.933  1.00  0.00     0.057 A 
ATOM     77  C   UNL A   1      45.643  34.068  29.999  1.00  0.00     0.134 A 
ATOM     78  C   UNL A   1      44.567  34.594  27.926  1.00  0.00     0.134 A 
ATOM     79  F   UNL A   1      45.935  33.223  31.000  1.00  0.00    -0.206 F 
ATOM     80  C   UNL A   1      46.127  35.375  30.084  1.00  0.00     0.040 A 
ATOM     81  C   UNL A   1      45.080  35.889  27.978  1.00  0.00     0.040 A 
ATOM     82  F   UNL A   1      43.815  34.261  26.865  1.00  0.00    -0.206 F 
ATOM     83  C   UNL A   1      45.850  36.287  29.068  1.00  0.00     0.006 A 
ENDBRANCH  59  76
ENDBRANCH  33  34
ENDBRANCH  26  28
ENDBRANCH  25  26
ENDBRANCH  24  25
ENDBRANCH   1  24
TORSDOF 15
ENDMDL
