MODEL 1
REMARK VINA RESULT:     -11.3      0.000      0.000
REMARK SMILES O=C(OCCOCCOC(=O)[C@H]1CS[C@]2(c3ccccc3)CCC(=O)N12)c1ccc(-c2c3nc(c(-c4c(F)cccc4F)c4ccc([nH]4)c(-c4c(F)cccc4F)c4nc(c(-c5c(F)cccc5F)c5ccc2[nH]5)C=C4)C=C3)cc1
REMARK SMILES IDX 5 1 4 2 3 3 2 4 1 5 27 6 28 7 80 8 29 9 79 10 30 11 31 12
REMARK SMILES IDX 32 13 73 14 33 15 78 16 72 17 74 18 34 19 77 20 71 21 70 22
REMARK SMILES IDX 35 24 61 25 44 26 60 27 45 28 48 29 59 30 75 31 46 32 47 33
REMARK SMILES IDX 58 35 76 36 49 37 36 38 37 39 42 40 38 41 39 42 41 43 43 44
REMARK SMILES IDX 40 45 62 46 63 47 68 48 64 49 65 50 67 51 69 52 66 53 50 54
REMARK SMILES IDX 51 55 56 56 52 57 53 58 55 59 57 60 54 61 6 62 7 63 8 64
REMARK SMILES IDX 9 65 10 66 11 67 12 68 13 69 26 70 14 71 15 72 24 73 22 74
REMARK SMILES IDX 23 75 25 76 16 77 17 78 21 79 18 80 20 81 19 82
REMARK H PARENT 74 23 48 34
REMARK Flexibility Score: inf
ROOT
ATOM      1  C   UNL A   1      31.323  31.886  26.493  1.00  0.00     0.202 C 
ENDROOT
BRANCH   1   2
ATOM      2  C   UNL A   1      32.525  32.463  27.236  1.00  0.00     0.261 C 
BRANCH   2   3
ATOM      3  O   UNL A   1      32.250  33.815  27.628  1.00  0.00    -0.460 OA
BRANCH   3   4
ATOM      4  C   UNL A   1      32.914  34.560  28.538  1.00  0.00     0.338 C 
ATOM      5  O   UNL A   1      32.528  35.709  28.751  1.00  0.00    -0.246 OA
BRANCH   4   6
ATOM      6  C   UNL A   1      34.101  34.077  29.306  1.00  0.00     0.060 A 
ATOM      7  C   UNL A   1      34.052  33.252  30.432  1.00  0.00     0.016 A 
ATOM      8  C   UNL A   1      35.360  34.371  28.759  1.00  0.00     0.016 A 
ATOM      9  C   UNL A   1      35.192  32.710  30.993  1.00  0.00     0.010 A 
ATOM     10  C   UNL A   1      36.520  33.833  29.315  1.00  0.00     0.010 A 
ATOM     11  C   UNL A   1      36.426  32.990  30.427  1.00  0.00    -0.014 A 
BRANCH  11  12
ATOM     12  C   UNL A   1      37.607  32.443  31.097  1.00  0.00     0.031 A 
ATOM     13  C   UNL A   1      38.321  31.316  30.433  1.00  0.00     0.074 A 
ATOM     14  C   UNL A   1      38.069  33.048  32.203  1.00  0.00     0.049 A 
ATOM     15  N   UNL A   1      39.310  30.596  30.876  1.00  0.00    -0.248 NA
ATOM     16  C   UNL A   1      37.865  30.958  29.077  1.00  0.00     0.031 C 
ATOM     17  C   UNL A   1      37.498  34.258  32.805  1.00  0.00     0.029 A 
ATOM     18  N   UNL A   1      39.128  32.743  33.011  1.00  0.00    -0.354 N 
ATOM     19  C   UNL A   1      39.566  29.669  29.877  1.00  0.00     0.074 A 
ATOM     20  C   UNL A   1      38.649  29.930  28.792  1.00  0.00     0.031 C 
ATOM     21  C   UNL A   1      38.210  34.582  33.897  1.00  0.00     0.029 A 
ATOM     22  C   UNL A   1      39.226  33.560  34.110  1.00  0.00     0.049 A 
ATOM     23  H   UNL A   1      39.757  32.009  32.823  1.00  0.00     0.167 HD
ATOM     24  C   UNL A   1      40.477  28.673  29.899  1.00  0.00     0.037 A 
ATOM     25  C   UNL A   1      40.014  33.438  35.194  1.00  0.00     0.037 A 
ATOM     26  C   UNL A   1      41.370  28.466  31.004  1.00  0.00     0.049 A 
ATOM     27  C   UNL A   1      40.945  32.256  35.238  1.00  0.00     0.074 A 
ATOM     28  C   UNL A   1      42.323  27.482  31.173  1.00  0.00     0.029 A 
ATOM     29  N   UNL A   1      41.406  29.270  32.138  1.00  0.00    -0.354 N 
ATOM     30  N   UNL A   1      41.161  31.342  34.319  1.00  0.00    -0.248 NA
ATOM     31  C   UNL A   1      41.717  32.064  36.470  1.00  0.00     0.031 C 
ATOM     32  C   UNL A   1      42.896  27.656  32.437  1.00  0.00     0.029 A 
ATOM     33  C   UNL A   1      42.338  28.780  33.032  1.00  0.00     0.049 A 
ATOM     34  H   UNL A   1      40.851  30.069  32.282  1.00  0.00     0.167 HD
ATOM     35  C   UNL A   1      42.097  30.471  34.857  1.00  0.00     0.074 A 
ATOM     36  C   UNL A   1      42.428  30.985  36.172  1.00  0.00     0.031 C 
ATOM     37  C   UNL A   1      42.630  29.342  34.327  1.00  0.00     0.037 A 
BRANCH  24  38
ATOM     38  C   UNL A   1      40.467  27.703  28.760  1.00  0.00     0.057 A 
ATOM     39  C   UNL A   1      39.679  26.546  28.760  1.00  0.00     0.134 A 
ATOM     40  C   UNL A   1      41.282  27.932  27.645  1.00  0.00     0.134 A 
ATOM     41  F   UNL A   1      38.903  26.251  29.813  1.00  0.00    -0.206 F 
ATOM     42  C   UNL A   1      39.710  25.646  27.692  1.00  0.00     0.040 A 
ATOM     43  C   UNL A   1      41.306  27.051  26.563  1.00  0.00     0.040 A 
ATOM     44  F   UNL A   1      42.075  29.013  27.590  1.00  0.00    -0.206 F 
ATOM     45  C   UNL A   1      40.520  25.901  26.586  1.00  0.00     0.006 A 
ENDBRANCH  24  38
BRANCH  25  46
ATOM     46  C   UNL A   1      39.880  34.370  36.345  1.00  0.00     0.057 A 
ATOM     47  C   UNL A   1      40.630  35.547  36.428  1.00  0.00     0.134 A 
ATOM     48  C   UNL A   1      39.026  34.081  37.419  1.00  0.00     0.134 A 
ATOM     49  F   UNL A   1      41.483  35.877  35.446  1.00  0.00    -0.206 F 
ATOM     50  C   UNL A   1      40.558  36.388  37.543  1.00  0.00     0.040 A 
ATOM     51  C   UNL A   1      38.919  34.926  38.526  1.00  0.00     0.040 A 
ATOM     52  F   UNL A   1      38.276  32.969  37.410  1.00  0.00    -0.206 F 
ATOM     53  C   UNL A   1      39.697  36.078  38.595  1.00  0.00     0.006 A 
ENDBRANCH  25  46
BRANCH  37  54
ATOM     54  C   UNL A   1      43.626  28.610  35.170  1.00  0.00     0.057 A 
ATOM     55  C   UNL A   1      44.995  28.888  35.091  1.00  0.00     0.134 A 
ATOM     56  C   UNL A   1      43.200  27.679  36.124  1.00  0.00     0.134 A 
ATOM     57  F   UNL A   1      45.461  29.761  34.184  1.00  0.00    -0.206 F 
ATOM     58  C   UNL A   1      45.911  28.257  35.929  1.00  0.00     0.040 A 
ATOM     59  C   UNL A   1      44.103  27.063  36.988  1.00  0.00     0.040 A 
ATOM     60  F   UNL A   1      41.898  27.381  36.252  1.00  0.00    -0.206 F 
ATOM     61  C   UNL A   1      45.462  27.350  36.890  1.00  0.00     0.006 A 
ENDBRANCH  37  54
ENDBRANCH  11  12
ENDBRANCH   4   6
ENDBRANCH   3   4
ENDBRANCH   2   3
ENDBRANCH   1   2
BRANCH   1  62
ATOM     62  O   UNL A   1      31.505  30.551  26.027  1.00  0.00    -0.374 OA
BRANCH  62  63
ATOM     63  C   UNL A   1      32.277  29.656  26.835  1.00  0.00     0.202 C 
BRANCH  63  64
ATOM     64  C   UNL A   1      31.775  28.245  26.545  1.00  0.00     0.261 C 
BRANCH  64  65
ATOM     65  O   UNL A   1      32.951  27.449  26.394  1.00  0.00    -0.462 OA
BRANCH  65  66
ATOM     66  C   UNL A   1      33.015  26.690  25.259  1.00  0.00     0.329 C 
ATOM     67  O   UNL A   1      33.832  26.839  24.362  1.00  0.00    -0.250 OA
BRANCH  66  68
ATOM     68  C   UNL A   1      31.919  25.627  25.285  1.00  0.00     0.206 C 
ATOM     69  C   UNL A   1      31.245  25.382  23.927  1.00  0.00     0.109 C 
ATOM     70  N   UNL A   1      32.302  24.300  25.753  1.00  0.00    -0.309 N 
ATOM     71  S   UNL A   1      32.256  24.071  23.144  1.00  0.00    -0.126 SA
ATOM     72  C   UNL A   1      32.945  23.444  24.753  1.00  0.00     0.116 C 
ATOM     73  C   UNL A   1      31.262  23.638  26.432  1.00  0.00     0.224 C 
ATOM     74  C   UNL A   1      32.340  22.061  25.068  1.00  0.00     0.055 C 
ATOM     75  C   UNL A   1      31.011  22.329  25.740  1.00  0.00     0.104 C 
ATOM     76  O   UNL A   1      30.512  24.134  27.250  1.00  0.00    -0.275 OA
BRANCH  72  77
ATOM     77  C   UNL A   1      34.491  23.464  24.757  1.00  0.00    -0.012 A 
ATOM     78  C   UNL A   1      35.256  23.776  25.895  1.00  0.00     0.007 A 
ATOM     79  C   UNL A   1      35.248  23.184  23.602  1.00  0.00     0.007 A 
ATOM     80  C   UNL A   1      36.653  23.702  25.933  1.00  0.00     0.000 A 
ATOM     81  C   UNL A   1      36.652  23.132  23.618  1.00  0.00     0.000 A 
ATOM     82  C   UNL A   1      37.355  23.367  24.791  1.00  0.00     0.000 A 
ENDBRANCH  72  77
ENDBRANCH  66  68
ENDBRANCH  65  66
ENDBRANCH  64  65
ENDBRANCH  63  64
ENDBRANCH  62  63
ENDBRANCH   1  62
TORSDOF 15
ENDMDL
MODEL 2
REMARK VINA RESULT:     -11.2      0.803      1.641
REMARK SMILES O=C(OCCOCCOC(=O)[C@H]1CS[C@]2(c3ccccc3)CCC(=O)N12)c1ccc(-c2c3nc(c(-c4c(F)cccc4F)c4ccc([nH]4)c(-c4c(F)cccc4F)c4nc(c(-c5c(F)cccc5F)c5ccc2[nH]5)C=C4)C=C3)cc1
REMARK SMILES IDX 5 1 4 2 3 3 2 4 1 5 27 6 28 7 80 8 29 9 79 10 30 11 31 12
REMARK SMILES IDX 32 13 73 14 33 15 78 16 72 17 74 18 34 19 77 20 71 21 70 22
REMARK SMILES IDX 35 24 61 25 44 26 60 27 45 28 48 29 59 30 75 31 46 32 47 33
REMARK SMILES IDX 58 35 76 36 49 37 36 38 37 39 42 40 38 41 39 42 41 43 43 44
REMARK SMILES IDX 40 45 62 46 63 47 68 48 64 49 65 50 67 51 69 52 66 53 50 54
REMARK SMILES IDX 51 55 56 56 52 57 53 58 55 59 57 60 54 61 6 62 7 63 8 64
REMARK SMILES IDX 9 65 10 66 11 67 12 68 13 69 26 70 14 71 15 72 24 73 22 74
REMARK SMILES IDX 23 75 25 76 16 77 17 78 21 79 18 80 20 81 19 82
REMARK H PARENT 74 23 48 34
REMARK Flexibility Score: inf
ROOT
ATOM      1  C   UNL A   1      31.329  31.634  26.437  1.00  0.00     0.202 C 
ENDROOT
BRANCH   1   2
ATOM      2  C   UNL A   1      32.556  32.215  27.135  1.00  0.00     0.261 C 
BRANCH   2   3
ATOM      3  O   UNL A   1      32.285  33.561  27.553  1.00  0.00    -0.460 OA
BRANCH   3   4
ATOM      4  C   UNL A   1      32.980  34.304  28.441  1.00  0.00     0.338 C 
ATOM      5  O   UNL A   1      32.569  35.432  28.711  1.00  0.00    -0.246 OA
BRANCH   4   6
ATOM      6  C   UNL A   1      34.229  33.843  29.117  1.00  0.00     0.060 A 
ATOM      7  C   UNL A   1      34.281  32.972  30.209  1.00  0.00     0.016 A 
ATOM      8  C   UNL A   1      35.440  34.212  28.511  1.00  0.00     0.016 A 
ATOM      9  C   UNL A   1      35.474  32.458  30.679  1.00  0.00     0.010 A 
ATOM     10  C   UNL A   1      36.652  33.704  28.977  1.00  0.00     0.010 A 
ATOM     11  C   UNL A   1      36.659  32.814  30.055  1.00  0.00    -0.014 A 
BRANCH  11  12
ATOM     12  C   UNL A   1      37.899  32.293  30.632  1.00  0.00     0.031 A 
ATOM     13  C   UNL A   1      38.542  31.130  29.958  1.00  0.00     0.074 A 
ATOM     14  C   UNL A   1      38.469  32.949  31.657  1.00  0.00     0.049 A 
ATOM     15  N   UNL A   1      39.569  30.426  30.337  1.00  0.00    -0.248 NA
ATOM     16  C   UNL A   1      37.955  30.709  28.673  1.00  0.00     0.031 C 
ATOM     17  C   UNL A   1      37.962  34.190  32.252  1.00  0.00     0.029 A 
ATOM     18  N   UNL A   1      39.601  32.676  32.370  1.00  0.00    -0.354 N 
ATOM     19  C   UNL A   1      39.723  29.449  29.364  1.00  0.00     0.074 A 
ATOM     20  C   UNL A   1      38.705  29.663  28.363  1.00  0.00     0.031 C 
ATOM     21  C   UNL A   1      38.779  34.562  33.250  1.00  0.00     0.029 A 
ATOM     22  C   UNL A   1      39.809  33.545  33.413  1.00  0.00     0.049 A 
ATOM     23  H   UNL A   1      40.207  31.929  32.158  1.00  0.00     0.167 HD
ATOM     24  C   UNL A   1      40.631  28.450  29.347  1.00  0.00     0.037 A 
ATOM     25  C   UNL A   1      40.700  33.472  34.419  1.00  0.00     0.037 A 
ATOM     26  C   UNL A   1      41.628  28.291  30.367  1.00  0.00     0.049 A 
ATOM     27  C   UNL A   1      41.628  32.286  34.430  1.00  0.00     0.074 A 
ATOM     28  C   UNL A   1      42.591  27.310  30.490  1.00  0.00     0.029 A 
ATOM     29  N   UNL A   1      41.777  29.149  31.450  1.00  0.00    -0.354 N 
ATOM     30  N   UNL A   1      41.751  31.327  33.540  1.00  0.00    -0.248 NA
ATOM     31  C   UNL A   1      42.518  32.150  35.588  1.00  0.00     0.031 C 
ATOM     32  C   UNL A   1      43.286  27.542  31.681  1.00  0.00     0.029 A 
ATOM     33  C   UNL A   1      42.791  28.697  32.273  1.00  0.00     0.049 A 
ATOM     34  H   UNL A   1      41.240  29.958  31.609  1.00  0.00     0.167 HD
ATOM     35  C   UNL A   1      42.734  30.478  34.026  1.00  0.00     0.074 A 
ATOM     36  C   UNL A   1      43.193  31.053  35.276  1.00  0.00     0.031 C 
ATOM     37  C   UNL A   1      43.210  29.320  33.503  1.00  0.00     0.037 A 
BRANCH  24  38
ATOM     38  C   UNL A   1      40.507  27.425  28.263  1.00  0.00     0.057 A 
ATOM     39  C   UNL A   1      39.698  26.289  28.386  1.00  0.00     0.134 A 
ATOM     40  C   UNL A   1      41.232  27.579  27.074  1.00  0.00     0.134 A 
ATOM     41  F   UNL A   1      39.007  26.065  29.513  1.00  0.00    -0.206 F 
ATOM     42  C   UNL A   1      39.623  25.337  27.368  1.00  0.00     0.040 A 
ATOM     43  C   UNL A   1      41.148  26.646  26.041  1.00  0.00     0.040 A 
ATOM     44  F   UNL A   1      42.039  28.636  26.900  1.00  0.00    -0.206 F 
ATOM     45  C   UNL A   1      40.344  25.518  26.187  1.00  0.00     0.006 A 
ENDBRANCH  24  38
BRANCH  25  46
ATOM     46  C   UNL A   1      40.681  34.459  35.530  1.00  0.00     0.057 A 
ATOM     47  C   UNL A   1      39.825  34.314  36.627  1.00  0.00     0.134 A 
ATOM     48  C   UNL A   1      41.490  35.604  35.501  1.00  0.00     0.134 A 
ATOM     49  F   UNL A   1      39.008  33.253  36.710  1.00  0.00    -0.206 F 
ATOM     50  C   UNL A   1      39.754  35.278  37.637  1.00  0.00     0.040 A 
ATOM     51  C   UNL A   1      41.454  36.560  36.518  1.00  0.00     0.040 A 
ATOM     52  F   UNL A   1      42.336  35.812  34.481  1.00  0.00    -0.206 F 
ATOM     53  C   UNL A   1      40.574  36.404  37.584  1.00  0.00     0.006 A 
ENDBRANCH  25  46
BRANCH  37  54
ATOM     54  C   UNL A   1      44.283  28.624  34.279  1.00  0.00     0.057 A 
ATOM     55  C   UNL A   1      43.980  27.619  35.205  1.00  0.00     0.134 A 
ATOM     56  C   UNL A   1      45.631  28.907  34.036  1.00  0.00     0.134 A 
ATOM     57  F   UNL A   1      42.703  27.316  35.488  1.00  0.00    -0.206 F 
ATOM     58  C   UNL A   1      44.986  26.923  35.870  1.00  0.00     0.040 A 
ATOM     59  C   UNL A   1      46.647  28.197  34.674  1.00  0.00     0.040 A 
ATOM     60  F   UNL A   1      45.981  29.853  33.151  1.00  0.00    -0.206 F 
ATOM     61  C   UNL A   1      46.324  27.204  35.596  1.00  0.00     0.006 A 
ENDBRANCH  37  54
ENDBRANCH  11  12
ENDBRANCH   4   6
ENDBRANCH   3   4
ENDBRANCH   2   3
ENDBRANCH   1   2
BRANCH   1  62
ATOM     62  O   UNL A   1      31.591  30.462  25.668  1.00  0.00    -0.374 OA
BRANCH  62  63
ATOM     63  C   UNL A   1      31.903  29.254  26.370  1.00  0.00     0.202 C 
BRANCH  63  64
ATOM     64  C   UNL A   1      31.583  28.095  25.431  1.00  0.00     0.261 C 
BRANCH  64  65
ATOM     65  O   UNL A   1      32.847  27.537  25.074  1.00  0.00    -0.462 OA
BRANCH  65  66
ATOM     66  C   UNL A   1      32.815  26.534  24.144  1.00  0.00     0.329 C 
ATOM     67  O   UNL A   1      33.558  26.453  23.178  1.00  0.00    -0.250 OA
BRANCH  66  68
ATOM     68  C   UNL A   1      31.718  25.534  24.500  1.00  0.00     0.206 C 
ATOM     69  C   UNL A   1      31.057  24.865  23.287  1.00  0.00     0.109 C 
ATOM     70  N   UNL A   1      32.095  24.428  25.373  1.00  0.00    -0.309 N 
ATOM     71  S   UNL A   1      32.073  23.374  22.975  1.00  0.00    -0.126 SA
ATOM     72  C   UNL A   1      32.746  23.297  24.707  1.00  0.00     0.116 C 
ATOM     73  C   UNL A   1      31.047  24.017  26.218  1.00  0.00     0.224 C 
ATOM     74  C   UNL A   1      32.136  22.088  25.444  1.00  0.00     0.055 C 
ATOM     75  C   UNL A   1      30.801  22.554  25.981  1.00  0.00     0.104 C 
ATOM     76  O   UNL A   1      30.289  24.748  26.827  1.00  0.00    -0.275 OA
BRANCH  72  77
ATOM     77  C   UNL A   1      34.292  23.321  24.719  1.00  0.00    -0.012 A 
ATOM     78  C   UNL A   1      35.078  22.968  23.608  1.00  0.00     0.007 A 
ATOM     79  C   UNL A   1      35.028  23.685  25.865  1.00  0.00     0.007 A 
ATOM     80  C   UNL A   1      36.473  23.080  23.580  1.00  0.00     0.000 A 
ATOM     81  C   UNL A   1      36.429  23.775  25.860  1.00  0.00     0.000 A 
ATOM     82  C   UNL A   1      37.152  23.496  24.709  1.00  0.00     0.000 A 
ENDBRANCH  72  77
ENDBRANCH  66  68
ENDBRANCH  65  66
ENDBRANCH  64  65
ENDBRANCH  63  64
ENDBRANCH  62  63
ENDBRANCH   1  62
TORSDOF 15
ENDMDL
MODEL 3
REMARK VINA RESULT:     -11.2      5.072      9.964
REMARK SMILES O=C(OCCOCCOC(=O)[C@H]1CS[C@]2(c3ccccc3)CCC(=O)N12)c1ccc(-c2c3nc(c(-c4c(F)cccc4F)c4ccc([nH]4)c(-c4c(F)cccc4F)c4nc(c(-c5c(F)cccc5F)c5ccc2[nH]5)C=C4)C=C3)cc1
REMARK SMILES IDX 5 1 4 2 3 3 2 4 1 5 27 6 28 7 80 8 29 9 79 10 30 11 31 12
REMARK SMILES IDX 32 13 73 14 33 15 78 16 72 17 74 18 34 19 77 20 71 21 70 22
REMARK SMILES IDX 35 24 61 25 44 26 60 27 45 28 48 29 59 30 75 31 46 32 47 33
REMARK SMILES IDX 58 35 76 36 49 37 36 38 37 39 42 40 38 41 39 42 41 43 43 44
REMARK SMILES IDX 40 45 62 46 63 47 68 48 64 49 65 50 67 51 69 52 66 53 50 54
REMARK SMILES IDX 51 55 56 56 52 57 53 58 55 59 57 60 54 61 6 62 7 63 8 64
REMARK SMILES IDX 9 65 10 66 11 67 12 68 13 69 26 70 14 71 15 72 24 73 22 74
REMARK SMILES IDX 23 75 25 76 16 77 17 78 21 79 18 80 20 81 19 82
REMARK H PARENT 74 23 48 34
REMARK Flexibility Score: inf
ROOT
ATOM      1  C   UNL A   1      37.720  19.819  24.981  1.00  0.00     0.202 C 
ENDROOT
BRANCH   1   2
ATOM      2  C   UNL A   1      38.933  20.332  25.754  1.00  0.00     0.261 C 
BRANCH   2   3
ATOM      3  O   UNL A   1      39.969  19.341  25.743  1.00  0.00    -0.460 OA
BRANCH   3   4
ATOM      4  C   UNL A   1      41.288  19.525  25.968  1.00  0.00     0.338 C 
ATOM      5  O   UNL A   1      42.046  18.564  25.842  1.00  0.00    -0.246 OA
BRANCH   4   6
ATOM      6  C   UNL A   1      41.891  20.831  26.369  1.00  0.00     0.060 A 
ATOM      7  C   UNL A   1      42.262  21.853  25.491  1.00  0.00     0.016 A 
ATOM      8  C   UNL A   1      41.954  21.093  27.747  1.00  0.00     0.016 A 
ATOM      9  C   UNL A   1      42.659  23.097  25.941  1.00  0.00     0.010 A 
ATOM     10  C   UNL A   1      42.356  22.343  28.216  1.00  0.00     0.010 A 
ATOM     11  C   UNL A   1      42.694  23.347  27.303  1.00  0.00    -0.014 A 
BRANCH  11  12
ATOM     12  C   UNL A   1      43.182  24.660  27.728  1.00  0.00     0.031 A 
ATOM     13  C   UNL A   1      42.176  25.657  28.191  1.00  0.00     0.074 A 
ATOM     14  C   UNL A   1      44.507  24.871  27.803  1.00  0.00     0.049 A 
ATOM     15  N   UNL A   1      42.346  26.908  28.506  1.00  0.00    -0.248 NA
ATOM     16  C   UNL A   1      40.790  25.175  28.332  1.00  0.00     0.031 C 
ATOM     17  C   UNL A   1      45.540  23.870  27.514  1.00  0.00     0.029 A 
ATOM     18  N   UNL A   1      45.214  25.985  28.156  1.00  0.00    -0.354 N 
ATOM     19  C   UNL A   1      41.083  27.378  28.835  1.00  0.00     0.074 A 
ATOM     20  C   UNL A   1      40.159  26.275  28.710  1.00  0.00     0.031 C 
ATOM     21  C   UNL A   1      46.750  24.425  27.690  1.00  0.00     0.029 A 
ATOM     22  C   UNL A   1      46.572  25.832  28.022  1.00  0.00     0.049 A 
ATOM     23  H   UNL A   1      44.790  26.816  28.473  1.00  0.00     0.167 HD
ATOM     24  C   UNL A   1      40.745  28.638  29.182  1.00  0.00     0.037 A 
ATOM     25  C   UNL A   1      47.545  26.759  28.097  1.00  0.00     0.037 A 
ATOM     26  C   UNL A   1      41.709  29.695  29.298  1.00  0.00     0.049 A 
ATOM     27  C   UNL A   1      47.124  28.177  28.379  1.00  0.00     0.074 A 
ATOM     28  C   UNL A   1      41.503  31.022  29.615  1.00  0.00     0.029 A 
ATOM     29  N   UNL A   1      43.074  29.529  29.094  1.00  0.00    -0.354 N 
ATOM     30  N   UNL A   1      45.924  28.643  28.644  1.00  0.00    -0.248 NA
ATOM     31  C   UNL A   1      48.173  29.201  28.345  1.00  0.00     0.031 C 
ATOM     32  C   UNL A   1      42.739  31.674  29.543  1.00  0.00     0.029 A 
ATOM     33  C   UNL A   1      43.721  30.741  29.235  1.00  0.00     0.049 A 
ATOM     34  H   UNL A   1      43.514  28.676  28.880  1.00  0.00     0.167 HD
ATOM     35  C   UNL A   1      46.074  30.012  28.814  1.00  0.00     0.074 A 
ATOM     36  C   UNL A   1      47.488  30.293  28.651  1.00  0.00     0.031 C 
ATOM     37  C   UNL A   1      45.137  30.958  29.069  1.00  0.00     0.037 A 
BRANCH  24  38
ATOM     38  C   UNL A   1      39.289  28.940  29.348  1.00  0.00     0.057 A 
ATOM     39  C   UNL A   1      38.629  28.828  30.579  1.00  0.00     0.134 A 
ATOM     40  C   UNL A   1      38.529  29.337  28.241  1.00  0.00     0.134 A 
ATOM     41  F   UNL A   1      39.292  28.418  31.671  1.00  0.00    -0.206 F 
ATOM     42  C   UNL A   1      37.263  29.093  30.698  1.00  0.00     0.040 A 
ATOM     43  C   UNL A   1      37.168  29.625  28.352  1.00  0.00     0.040 A 
ATOM     44  F   UNL A   1      39.096  29.446  27.030  1.00  0.00    -0.206 F 
ATOM     45  C   UNL A   1      36.530  29.499  29.583  1.00  0.00     0.006 A 
ENDBRANCH  24  38
BRANCH  25  46
ATOM     46  C   UNL A   1      48.958  26.410  27.794  1.00  0.00     0.057 A 
ATOM     47  C   UNL A   1      49.446  26.395  26.484  1.00  0.00     0.134 A 
ATOM     48  C   UNL A   1      49.848  26.035  28.810  1.00  0.00     0.134 A 
ATOM     49  F   UNL A   1      48.644  26.723  25.459  1.00  0.00    -0.206 F 
ATOM     50  C   UNL A   1      50.754  25.998  26.191  1.00  0.00     0.040 A 
ATOM     51  C   UNL A   1      51.167  25.665  28.538  1.00  0.00     0.040 A 
ATOM     52  F   UNL A   1      49.451  26.023  30.091  1.00  0.00    -0.206 F 
ATOM     53  C   UNL A   1      51.619  25.634  27.222  1.00  0.00     0.006 A 
ENDBRANCH  25  46
BRANCH  37  54
ATOM     54  C   UNL A   1      45.622  32.368  29.196  1.00  0.00     0.057 A 
ATOM     55  C   UNL A   1      45.649  33.232  28.096  1.00  0.00     0.134 A 
ATOM     56  C   UNL A   1      45.986  32.882  30.445  1.00  0.00     0.134 A 
ATOM     57  F   UNL A   1      45.324  32.789  26.872  1.00  0.00    -0.206 F 
ATOM     58  C   UNL A   1      46.032  34.565  28.234  1.00  0.00     0.040 A 
ATOM     59  C   UNL A   1      46.342  34.220  30.601  1.00  0.00     0.040 A 
ATOM     60  F   UNL A   1      45.968  32.101  31.536  1.00  0.00    -0.206 F 
ATOM     61  C   UNL A   1      46.367  35.064  29.492  1.00  0.00     0.006 A 
ENDBRANCH  37  54
ENDBRANCH  11  12
ENDBRANCH   4   6
ENDBRANCH   3   4
ENDBRANCH   2   3
ENDBRANCH   1   2
BRANCH   1  62
ATOM     62  O   UNL A   1      36.622  20.727  24.941  1.00  0.00    -0.374 OA
BRANCH  62  63
ATOM     63  C   UNL A   1      36.853  22.037  24.411  1.00  0.00     0.202 C 
BRANCH  63  64
ATOM     64  C   UNL A   1      35.488  22.636  24.086  1.00  0.00     0.261 C 
BRANCH  64  65
ATOM     65  O   UNL A   1      35.264  23.632  25.084  1.00  0.00    -0.462 OA
BRANCH  65  66
ATOM     66  C   UNL A   1      33.957  23.859  25.416  1.00  0.00     0.329 C 
ATOM     67  O   UNL A   1      33.529  23.943  26.558  1.00  0.00    -0.250 OA
BRANCH  66  68
ATOM     68  C   UNL A   1      33.118  23.999  24.148  1.00  0.00     0.206 C 
ATOM     69  C   UNL A   1      31.697  23.431  24.266  1.00  0.00     0.109 C 
ATOM     70  N   UNL A   1      32.936  25.349  23.627  1.00  0.00    -0.309 N 
ATOM     71  S   UNL A   1      30.692  24.835  24.876  1.00  0.00    -0.126 SA
ATOM     72  C   UNL A   1      31.878  26.132  24.271  1.00  0.00     0.116 C 
ATOM     73  C   UNL A   1      32.845  25.386  22.223  1.00  0.00     0.224 C 
ATOM     74  C   UNL A   1      31.254  26.885  23.078  1.00  0.00     0.055 C 
ATOM     75  C   UNL A   1      31.546  26.044  21.855  1.00  0.00     0.104 C 
ATOM     76  O   UNL A   1      33.541  24.763  21.444  1.00  0.00    -0.275 OA
BRANCH  72  77
ATOM     77  C   UNL A   1      32.343  27.058  25.419  1.00  0.00    -0.012 A 
ATOM     78  C   UNL A   1      33.636  27.606  25.492  1.00  0.00     0.007 A 
ATOM     79  C   UNL A   1      31.498  27.407  26.491  1.00  0.00     0.007 A 
ATOM     80  C   UNL A   1      34.035  28.521  26.474  1.00  0.00     0.000 A 
ATOM     81  C   UNL A   1      31.893  28.303  27.498  1.00  0.00     0.000 A 
ATOM     82  C   UNL A   1      33.154  28.880  27.477  1.00  0.00     0.000 A 
ENDBRANCH  72  77
ENDBRANCH  66  68
ENDBRANCH  65  66
ENDBRANCH  64  65
ENDBRANCH  63  64
ENDBRANCH  62  63
ENDBRANCH   1  62
TORSDOF 15
ENDMDL
