MODEL 1
REMARK VINA RESULT:     -11.2      0.000      0.000
REMARK SMILES CC1(C)[C@H](C(=O)OCCOCCOC(=O)c2ccc(-c3c4nc(c(-c5c(F)cccc5F)c5ccc([nH]5)c(-c5c(F)cccc5F)c5nc(c(-c6c(F)cccc6F)c6ccc3[nH]6)C=C5)C=C4)cc2)[C@@H]1C(=O)Nc1ccc(Cl)c(Br)c1
REMARK SMILES IDX 10 1 9 2 8 3 7 4 5 5 6 6 4 7 1 8 2 9 3 10 70 11 71 12 72 13
REMARK SMILES IDX 73 14 74 16 75 17 81 18 76 19 79 20 77 21 80 22 78 23 11 24
REMARK SMILES IDX 12 25 13 26 14 27 15 28 16 29 17 30 69 31 18 32 68 33 19 34
REMARK SMILES IDX 20 35 21 36 62 37 22 38 67 39 61 40 63 41 23 42 66 43 60 44
REMARK SMILES IDX 59 45 24 47 50 48 33 49 49 50 34 51 37 52 48 53 64 54 35 55
REMARK SMILES IDX 36 56 47 58 65 59 38 60 25 61 26 62 31 63 27 64 28 65 30 66
REMARK SMILES IDX 32 67 29 68 51 69 52 70 57 71 53 72 54 73 56 74 58 75 55 76
REMARK SMILES IDX 39 77 40 78 45 79 41 80 42 81 44 82 46 83 43 84
REMARK H PARENT 73 15 63 46 37 57
REMARK Flexibility Score: inf
ROOT
ATOM      1  O   UNL A   1      35.673  33.013  29.008  1.00  0.00    -0.374 OA
ENDROOT
BRANCH   1   2
ATOM      2  C   UNL A   1      35.113  32.645  27.759  1.00  0.00     0.202 C 
BRANCH   2   3
ATOM      3  C   UNL A   1      33.654  32.168  27.652  1.00  0.00     0.261 C 
BRANCH   3   4
ATOM      4  O   UNL A   1      33.430  30.823  27.227  1.00  0.00    -0.463 OA
BRANCH   4   5
ATOM      5  C   UNL A   1      32.257  30.663  26.564  1.00  0.00     0.310 C 
ATOM      6  O   UNL A   1      31.245  31.315  26.778  1.00  0.00    -0.252 OA
BRANCH   5   7
ATOM      7  C   UNL A   1      32.271  29.684  25.455  1.00  0.00     0.118 C 
ATOM      8  C   UNL A   1      33.677  28.347  23.793  1.00  0.00     0.013 C 
ATOM      9  C   UNL A   1      33.226  28.536  25.225  1.00  0.00    -0.009 C 
ATOM     10  C   UNL A   1      34.316  28.207  26.220  1.00  0.00     0.013 C 
ATOM     11  C   UNL A   1      31.743  28.271  25.570  1.00  0.00     0.100 C 
BRANCH  11  12
ATOM     12  C   UNL A   1      31.419  27.529  26.819  1.00  0.00     0.228 C 
ATOM     13  O   UNL A   1      31.130  28.171  27.827  1.00  0.00    -0.274 OA
ATOM     14  N   UNL A   1      31.394  26.159  26.879  1.00  0.00    -0.326 N 
ATOM     15  H   UNL A   1      31.017  25.798  27.713  1.00  0.00     0.169 HD
BRANCH  14  16
ATOM     16  C   UNL A   1      31.808  25.180  25.966  1.00  0.00     0.042 A 
ATOM     17  C   UNL A   1      30.821  24.640  25.135  1.00  0.00     0.028 A 
ATOM     18  C   UNL A   1      33.134  24.774  25.813  1.00  0.00     0.043 A 
ATOM     19  C   UNL A   1      31.180  23.831  24.054  1.00  0.00     0.024 A 
ATOM     20  C   UNL A   1      33.494  23.946  24.738  1.00  0.00     0.038 A 
ATOM     21  C   UNL A   1      32.521  23.507  23.834  1.00  0.00     0.055 A 
ATOM     22  Br  UNL A   1      35.340  23.547  24.527  1.00  0.00    -0.049 Br
ATOM     23  Cl  UNL A   1      32.897  22.603  22.412  1.00  0.00    -0.083 Cl
ENDBRANCH  14  16
ENDBRANCH  11  12
ENDBRANCH   5   7
ENDBRANCH   4   5
ENDBRANCH   3   4
ENDBRANCH   2   3
ENDBRANCH   1   2
BRANCH   1  24
ATOM     24  C   UNL A   1      35.102  34.070  29.770  1.00  0.00     0.202 C 
BRANCH  24  25
ATOM     25  C   UNL A   1      34.688  33.825  31.222  1.00  0.00     0.261 C 
BRANCH  25  26
ATOM     26  O   UNL A   1      34.625  32.436  31.582  1.00  0.00    -0.460 OA
BRANCH  26  27
ATOM     27  C   UNL A   1      35.540  32.064  32.508  1.00  0.00     0.338 C 
ATOM     28  O   UNL A   1      35.540  32.327  33.699  1.00  0.00    -0.246 OA
BRANCH  27  29
ATOM     29  C   UNL A   1      36.514  31.127  31.929  1.00  0.00     0.060 A 
ATOM     30  C   UNL A   1      37.705  30.913  32.636  1.00  0.00     0.016 A 
ATOM     31  C   UNL A   1      36.338  30.606  30.646  1.00  0.00     0.016 A 
ATOM     32  C   UNL A   1      38.758  30.237  32.031  1.00  0.00     0.010 A 
ATOM     33  C   UNL A   1      37.403  29.936  30.035  1.00  0.00     0.010 A 
ATOM     34  C   UNL A   1      38.632  29.798  30.707  1.00  0.00    -0.014 A 
BRANCH  34  35
ATOM     35  C   UNL A   1      39.851  29.382  29.974  1.00  0.00     0.031 A 
ATOM     36  C   UNL A   1      40.965  30.380  29.797  1.00  0.00     0.074 A 
ATOM     37  C   UNL A   1      39.992  28.121  29.533  1.00  0.00     0.049 A 
ATOM     38  N   UNL A   1      42.122  30.235  29.206  1.00  0.00    -0.248 NA
ATOM     39  C   UNL A   1      40.742  31.719  30.366  1.00  0.00     0.031 C 
ATOM     40  C   UNL A   1      39.003  27.057  29.685  1.00  0.00     0.029 A 
ATOM     41  N   UNL A   1      41.032  27.526  28.866  1.00  0.00    -0.354 N 
ATOM     42  C   UNL A   1      42.763  31.462  29.328  1.00  0.00     0.074 A 
ATOM     43  C   UNL A   1      41.854  32.350  30.019  1.00  0.00     0.031 C 
ATOM     44  C   UNL A   1      39.482  25.935  29.120  1.00  0.00     0.029 A 
ATOM     45  C   UNL A   1      40.797  26.212  28.546  1.00  0.00     0.049 A 
ATOM     46  H   UNL A   1      41.867  27.996  28.638  1.00  0.00     0.167 HD
ATOM     47  C   UNL A   1      44.003  31.815  28.912  1.00  0.00     0.037 A 
ATOM     48  C   UNL A   1      41.555  25.340  27.853  1.00  0.00     0.037 A 
ATOM     49  C   UNL A   1      44.907  30.929  28.226  1.00  0.00     0.049 A 
ATOM     50  C   UNL A   1      42.901  25.777  27.340  1.00  0.00     0.074 A 
ATOM     51  C   UNL A   1      46.191  31.186  27.778  1.00  0.00     0.029 A 
ATOM     52  N   UNL A   1      44.618  29.617  27.885  1.00  0.00    -0.354 N 
ATOM     53  N   UNL A   1      43.508  26.931  27.483  1.00  0.00    -0.248 NA
ATOM     54  C   UNL A   1      43.670  24.786  26.573  1.00  0.00     0.031 C 
ATOM     55  C   UNL A   1      46.660  30.043  27.121  1.00  0.00     0.029 A 
ATOM     56  C   UNL A   1      45.689  29.059  27.207  1.00  0.00     0.049 A 
ATOM     57  H   UNL A   1      43.776  29.152  28.094  1.00  0.00     0.167 HD
ATOM     58  C   UNL A   1      44.738  26.797  26.849  1.00  0.00     0.074 A 
ATOM     59  C   UNL A   1      44.796  25.443  26.335  1.00  0.00     0.031 C 
ATOM     60  C   UNL A   1      45.731  27.709  26.706  1.00  0.00     0.037 A 
BRANCH  47  61
ATOM     61  C   UNL A   1      44.441  33.227  29.166  1.00  0.00     0.057 A 
ATOM     62  C   UNL A   1      44.201  34.255  28.245  1.00  0.00     0.134 A 
ATOM     63  C   UNL A   1      45.088  33.569  30.361  1.00  0.00     0.134 A 
ATOM     64  F   UNL A   1      43.600  33.992  27.075  1.00  0.00    -0.206 F 
ATOM     65  C   UNL A   1      44.610  35.567  28.492  1.00  0.00     0.040 A 
ATOM     66  C   UNL A   1      45.479  34.882  30.630  1.00  0.00     0.040 A 
ATOM     67  F   UNL A   1      45.346  32.634  31.287  1.00  0.00    -0.206 F 
ATOM     68  C   UNL A   1      45.245  35.884  29.691  1.00  0.00     0.006 A 
ENDBRANCH  47  61
BRANCH  48  69
ATOM     69  C   UNL A   1      41.056  23.966  27.593  1.00  0.00     0.057 A 
ATOM     70  C   UNL A   1      41.583  22.861  28.271  1.00  0.00     0.134 A 
ATOM     71  C   UNL A   1      40.058  23.724  26.642  1.00  0.00     0.134 A 
ATOM     72  F   UNL A   1      42.558  23.026  29.178  1.00  0.00    -0.206 F 
ATOM     73  C   UNL A   1      41.149  21.562  27.999  1.00  0.00     0.040 A 
ATOM     74  C   UNL A   1      39.596  22.435  26.378  1.00  0.00     0.040 A 
ATOM     75  F   UNL A   1      39.511  24.741  25.960  1.00  0.00    -0.206 F 
ATOM     76  C   UNL A   1      40.148  21.347  27.053  1.00  0.00     0.006 A 
ENDBRANCH  48  69
BRANCH  60  77
ATOM     77  C   UNL A   1      46.975  27.264  25.993  1.00  0.00     0.057 A 
ATOM     78  C   UNL A   1      48.071  26.728  26.682  1.00  0.00     0.134 A 
ATOM     79  C   UNL A   1      47.062  27.339  24.597  1.00  0.00     0.134 A 
ATOM     80  F   UNL A   1      48.056  26.640  28.019  1.00  0.00    -0.206 F 
ATOM     81  C   UNL A   1      49.220  26.308  26.008  1.00  0.00     0.040 A 
ATOM     82  C   UNL A   1      48.194  26.898  23.911  1.00  0.00     0.040 A 
ATOM     83  F   UNL A   1      46.043  27.833  23.876  1.00  0.00    -0.206 F 
ATOM     84  C   UNL A   1      49.281  26.386  24.618  1.00  0.00     0.006 A 
ENDBRANCH  60  77
ENDBRANCH  34  35
ENDBRANCH  27  29
ENDBRANCH  26  27
ENDBRANCH  25  26
ENDBRANCH  24  25
ENDBRANCH   1  24
TORSDOF 16
ENDMDL
MODEL 2
REMARK VINA RESULT:     -11.2      4.974      9.748
REMARK SMILES CC1(C)[C@H](C(=O)OCCOCCOC(=O)c2ccc(-c3c4nc(c(-c5c(F)cccc5F)c5ccc([nH]5)c(-c5c(F)cccc5F)c5nc(c(-c6c(F)cccc6F)c6ccc3[nH]6)C=C5)C=C4)cc2)[C@@H]1C(=O)Nc1ccc(Cl)c(Br)c1
REMARK SMILES IDX 10 1 9 2 8 3 7 4 5 5 6 6 4 7 1 8 2 9 3 10 70 11 71 12 72 13
REMARK SMILES IDX 73 14 74 16 75 17 81 18 76 19 79 20 77 21 80 22 78 23 11 24
REMARK SMILES IDX 12 25 13 26 14 27 15 28 16 29 17 30 69 31 18 32 68 33 19 34
REMARK SMILES IDX 20 35 21 36 62 37 22 38 67 39 61 40 63 41 23 42 66 43 60 44
REMARK SMILES IDX 59 45 24 47 50 48 33 49 49 50 34 51 37 52 48 53 64 54 35 55
REMARK SMILES IDX 36 56 47 58 65 59 38 60 25 61 26 62 31 63 27 64 28 65 30 66
REMARK SMILES IDX 32 67 29 68 51 69 52 70 57 71 53 72 54 73 56 74 58 75 55 76
REMARK SMILES IDX 39 77 40 78 45 79 41 80 42 81 44 82 46 83 43 84
REMARK H PARENT 73 15 63 46 37 57
REMARK Flexibility Score: inf
ROOT
ATOM      1  O   UNL A   1      42.006  21.435  26.644  1.00  0.00    -0.374 OA
ENDROOT
BRANCH   1   2
ATOM      2  C   UNL A   1      40.788  21.945  26.130  1.00  0.00     0.202 C 
BRANCH   2   3
ATOM      3  C   UNL A   1      39.519  21.076  26.085  1.00  0.00     0.261 C 
BRANCH   3   4
ATOM      4  O   UNL A   1      38.273  21.740  25.868  1.00  0.00    -0.463 OA
BRANCH   4   5
ATOM      5  C   UNL A   1      37.392  20.997  25.153  1.00  0.00     0.310 C 
ATOM      6  O   UNL A   1      37.705  20.115  24.366  1.00  0.00    -0.252 OA
BRANCH   5   7
ATOM      7  C   UNL A   1      35.960  21.239  25.440  1.00  0.00     0.118 C 
ATOM      8  C   UNL A   1      34.233  22.223  27.043  1.00  0.00     0.013 C 
ATOM      9  C   UNL A   1      35.313  22.477  26.014  1.00  0.00    -0.009 C 
ATOM     10  C   UNL A   1      36.120  23.718  26.321  1.00  0.00     0.013 C 
ATOM     11  C   UNL A   1      35.049  22.056  24.551  1.00  0.00     0.100 C 
BRANCH  11  12
ATOM     12  C   UNL A   1      35.449  22.980  23.455  1.00  0.00     0.228 C 
ATOM     13  O   UNL A   1      36.496  22.757  22.851  1.00  0.00    -0.274 OA
ATOM     14  N   UNL A   1      34.677  24.047  23.070  1.00  0.00    -0.326 N 
ATOM     15  H   UNL A   1      34.976  24.482  22.239  1.00  0.00     0.169 HD
BRANCH  14  16
ATOM     16  C   UNL A   1      33.541  24.629  23.645  1.00  0.00     0.042 A 
ATOM     17  C   UNL A   1      32.316  24.008  23.382  1.00  0.00     0.028 A 
ATOM     18  C   UNL A   1      33.582  25.735  24.495  1.00  0.00     0.043 A 
ATOM     19  C   UNL A   1      31.172  24.384  24.088  1.00  0.00     0.024 A 
ATOM     20  C   UNL A   1      32.428  26.126  25.194  1.00  0.00     0.038 A 
ATOM     21  C   UNL A   1      31.232  25.423  25.020  1.00  0.00     0.055 A 
ATOM     22  Br  UNL A   1      32.603  27.560  26.428  1.00  0.00    -0.049 Br
ATOM     23  Cl  UNL A   1      29.806  25.750  25.939  1.00  0.00    -0.083 Cl
ENDBRANCH  14  16
ENDBRANCH  11  12
ENDBRANCH   5   7
ENDBRANCH   4   5
ENDBRANCH   3   4
ENDBRANCH   2   3
ENDBRANCH   1   2
BRANCH   1  24
ATOM     24  C   UNL A   1      43.055  21.050  25.764  1.00  0.00     0.202 C 
BRANCH  24  25
ATOM     25  C   UNL A   1      44.093  22.082  25.316  1.00  0.00     0.261 C 
BRANCH  25  26
ATOM     26  O   UNL A   1      43.521  23.266  24.737  1.00  0.00    -0.460 OA
BRANCH  26  27
ATOM     27  C   UNL A   1      44.182  24.406  25.048  1.00  0.00     0.338 C 
ATOM     28  O   UNL A   1      45.290  24.748  24.670  1.00  0.00    -0.246 OA
BRANCH  27  29
ATOM     29  C   UNL A   1      43.316  25.316  25.812  1.00  0.00     0.060 A 
ATOM     30  C   UNL A   1      43.774  26.624  26.018  1.00  0.00     0.016 A 
ATOM     31  C   UNL A   1      42.167  24.850  26.453  1.00  0.00     0.016 A 
ATOM     32  C   UNL A   1      43.125  27.451  26.927  1.00  0.00     0.010 A 
ATOM     33  C   UNL A   1      41.522  25.679  27.375  1.00  0.00     0.010 A 
ATOM     34  C   UNL A   1      42.032  26.961  27.653  1.00  0.00    -0.014 A 
BRANCH  34  35
ATOM     35  C   UNL A   1      41.563  27.722  28.835  1.00  0.00     0.031 A 
ATOM     36  C   UNL A   1      42.324  27.593  30.128  1.00  0.00     0.074 A 
ATOM     37  C   UNL A   1      40.519  28.562  28.743  1.00  0.00     0.049 A 
ATOM     38  N   UNL A   1      42.107  28.171  31.280  1.00  0.00    -0.248 NA
ATOM     39  C   UNL A   1      43.489  26.693  30.115  1.00  0.00     0.031 C 
ATOM     40  C   UNL A   1      39.733  28.805  27.535  1.00  0.00     0.029 A 
ATOM     41  N   UNL A   1      39.944  29.370  29.690  1.00  0.00    -0.354 N 
ATOM     42  C   UNL A   1      43.101  27.703  32.130  1.00  0.00     0.074 A 
ATOM     43  C   UNL A   1      43.904  26.769  31.371  1.00  0.00     0.031 C 
ATOM     44  C   UNL A   1      38.770  29.699  27.817  1.00  0.00     0.029 A 
ATOM     45  C   UNL A   1      38.858  30.070  29.227  1.00  0.00     0.049 A 
ATOM     46  H   UNL A   1      40.278  29.441  30.614  1.00  0.00     0.167 HD
ATOM     47  C   UNL A   1      43.334  28.031  33.424  1.00  0.00     0.037 A 
ATOM     48  C   UNL A   1      38.022  30.903  29.877  1.00  0.00     0.037 A 
ATOM     49  C   UNL A   1      42.536  28.962  34.176  1.00  0.00     0.049 A 
ATOM     50  C   UNL A   1      38.260  31.199  31.334  1.00  0.00     0.074 A 
ATOM     51  C   UNL A   1      42.698  29.375  35.487  1.00  0.00     0.029 A 
ATOM     52  N   UNL A   1      41.420  29.622  33.684  1.00  0.00    -0.354 N 
ATOM     53  N   UNL A   1      39.219  30.771  32.121  1.00  0.00    -0.248 NA
ATOM     54  C   UNL A   1      37.301  32.098  31.991  1.00  0.00     0.031 C 
ATOM     55  C   UNL A   1      41.651  30.246  35.803  1.00  0.00     0.029 A 
ATOM     56  C   UNL A   1      40.867  30.418  34.674  1.00  0.00     0.049 A 
ATOM     57  H   UNL A   1      41.072  29.536  32.767  1.00  0.00     0.167 HD
ATOM     58  C   UNL A   1      38.994  31.369  33.356  1.00  0.00     0.074 A 
ATOM     59  C   UNL A   1      37.817  32.201  33.208  1.00  0.00     0.031 C 
ATOM     60  C   UNL A   1      39.698  31.242  34.508  1.00  0.00     0.037 A 
BRANCH  47  61
ATOM     61  C   UNL A   1      44.484  27.356  34.111  1.00  0.00     0.057 A 
ATOM     62  C   UNL A   1      45.767  27.920  34.138  1.00  0.00     0.134 A 
ATOM     63  C   UNL A   1      44.300  26.139  34.779  1.00  0.00     0.134 A 
ATOM     64  F   UNL A   1      46.014  29.076  33.504  1.00  0.00    -0.206 F 
ATOM     65  C   UNL A   1      46.830  27.285  34.783  1.00  0.00     0.040 A 
ATOM     66  C   UNL A   1      45.349  25.508  35.450  1.00  0.00     0.040 A 
ATOM     67  F   UNL A   1      43.097  25.546  34.795  1.00  0.00    -0.206 F 
ATOM     68  C   UNL A   1      46.620  26.079  35.448  1.00  0.00     0.006 A 
ENDBRANCH  47  61
BRANCH  48  69
ATOM     69  C   UNL A   1      36.874  31.513  29.160  1.00  0.00     0.057 A 
ATOM     70  C   UNL A   1      35.712  30.780  28.893  1.00  0.00     0.134 A 
ATOM     71  C   UNL A   1      36.923  32.835  28.704  1.00  0.00     0.134 A 
ATOM     72  F   UNL A   1      35.615  29.501  29.284  1.00  0.00    -0.206 F 
ATOM     73  C   UNL A   1      34.647  31.335  28.180  1.00  0.00     0.040 A 
ATOM     74  C   UNL A   1      35.856  33.411  28.013  1.00  0.00     0.040 A 
ATOM     75  F   UNL A   1      38.008  33.591  28.930  1.00  0.00    -0.206 F 
ATOM     76  C   UNL A   1      34.716  32.656  27.743  1.00  0.00     0.006 A 
ENDBRANCH  48  69
BRANCH  60  77
ATOM     77  C   UNL A   1      39.233  32.046  35.688  1.00  0.00     0.057 A 
ATOM     78  C   UNL A   1      39.659  33.363  35.901  1.00  0.00     0.134 A 
ATOM     79  C   UNL A   1      38.320  31.506  36.603  1.00  0.00     0.134 A 
ATOM     80  F   UNL A   1      40.542  33.935  35.069  1.00  0.00    -0.206 F 
ATOM     81  C   UNL A   1      39.213  34.105  36.996  1.00  0.00     0.040 A 
ATOM     82  C   UNL A   1      37.846  32.246  37.686  1.00  0.00     0.040 A 
ATOM     83  F   UNL A   1      37.864  30.252  36.451  1.00  0.00    -0.206 F 
ATOM     84  C   UNL A   1      38.299  33.549  37.889  1.00  0.00     0.006 A 
ENDBRANCH  60  77
ENDBRANCH  34  35
ENDBRANCH  27  29
ENDBRANCH  26  27
ENDBRANCH  25  26
ENDBRANCH  24  25
ENDBRANCH   1  24
TORSDOF 16
ENDMDL
MODEL 3
REMARK VINA RESULT:     -11.0      3.881      6.198
REMARK SMILES CC1(C)[C@H](C(=O)OCCOCCOC(=O)c2ccc(-c3c4nc(c(-c5c(F)cccc5F)c5ccc([nH]5)c(-c5c(F)cccc5F)c5nc(c(-c6c(F)cccc6F)c6ccc3[nH]6)C=C5)C=C4)cc2)[C@@H]1C(=O)Nc1ccc(Cl)c(Br)c1
REMARK SMILES IDX 10 1 9 2 8 3 7 4 5 5 6 6 4 7 1 8 2 9 3 10 70 11 71 12 72 13
REMARK SMILES IDX 73 14 74 16 75 17 81 18 76 19 79 20 77 21 80 22 78 23 11 24
REMARK SMILES IDX 12 25 13 26 14 27 15 28 16 29 17 30 69 31 18 32 68 33 19 34
REMARK SMILES IDX 20 35 21 36 62 37 22 38 67 39 61 40 63 41 23 42 66 43 60 44
REMARK SMILES IDX 59 45 24 47 50 48 33 49 49 50 34 51 37 52 48 53 64 54 35 55
REMARK SMILES IDX 36 56 47 58 65 59 38 60 25 61 26 62 31 63 27 64 28 65 30 66
REMARK SMILES IDX 32 67 29 68 51 69 52 70 57 71 53 72 54 73 56 74 58 75 55 76
REMARK SMILES IDX 39 77 40 78 45 79 41 80 42 81 44 82 46 83 43 84
REMARK H PARENT 73 15 63 46 37 57
REMARK Flexibility Score: inf
ROOT
ATOM      1  O   UNL A   1      30.975  31.039  25.363  1.00  0.00    -0.374 OA
ENDROOT
BRANCH   1   2
ATOM      2  C   UNL A   1      31.220  29.749  24.831  1.00  0.00     0.202 C 
BRANCH   2   3
ATOM      3  C   UNL A   1      30.654  29.334  23.461  1.00  0.00     0.261 C 
BRANCH   3   4
ATOM      4  O   UNL A   1      31.248  28.206  22.817  1.00  0.00    -0.463 OA
BRANCH   4   5
ATOM      5  C   UNL A   1      32.604  28.215  22.872  1.00  0.00     0.310 C 
ATOM      6  O   UNL A   1      33.315  29.050  22.333  1.00  0.00    -0.252 OA
BRANCH   5   7
ATOM      7  C   UNL A   1      33.222  27.178  23.729  1.00  0.00     0.118 C 
ATOM      8  C   UNL A   1      32.978  25.655  25.765  1.00  0.00     0.013 C 
ATOM      9  C   UNL A   1      32.578  25.954  24.336  1.00  0.00    -0.009 C 
ATOM     10  C   UNL A   1      31.134  25.603  24.057  1.00  0.00     0.013 C 
ATOM     11  C   UNL A   1      33.647  25.815  23.229  1.00  0.00     0.100 C 
BRANCH  11  12
ATOM     12  C   UNL A   1      33.268  25.168  21.943  1.00  0.00     0.228 C 
ATOM     13  O   UNL A   1      33.069  25.882  20.962  1.00  0.00    -0.274 OA
ATOM     14  N   UNL A   1      33.169  23.807  21.802  1.00  0.00    -0.326 N 
ATOM     15  H   UNL A   1      33.064  23.504  20.872  1.00  0.00     0.169 HD
BRANCH  14  16
ATOM     16  C   UNL A   1      33.190  22.771  22.744  1.00  0.00     0.042 A 
ATOM     17  C   UNL A   1      32.169  21.818  22.651  1.00  0.00     0.028 A 
ATOM     18  C   UNL A   1      34.189  22.616  23.705  1.00  0.00     0.043 A 
ATOM     19  C   UNL A   1      32.239  20.640  23.398  1.00  0.00     0.024 A 
ATOM     20  C   UNL A   1      34.251  21.440  24.469  1.00  0.00     0.038 A 
ATOM     21  C   UNL A   1      33.298  20.434  24.286  1.00  0.00     0.055 A 
ATOM     22  Br  UNL A   1      35.719  21.254  25.662  1.00  0.00    -0.049 Br
ATOM     23  Cl  UNL A   1      33.378  18.904  25.084  1.00  0.00    -0.083 Cl
ENDBRANCH  14  16
ENDBRANCH  11  12
ENDBRANCH   5   7
ENDBRANCH   4   5
ENDBRANCH   3   4
ENDBRANCH   2   3
ENDBRANCH   1   2
BRANCH   1  24
ATOM     24  C   UNL A   1      31.575  31.438  26.589  1.00  0.00     0.202 C 
BRANCH  24  25
ATOM     25  C   UNL A   1      31.560  32.912  27.003  1.00  0.00     0.261 C 
BRANCH  25  26
ATOM     26  O   UNL A   1      32.853  33.538  26.968  1.00  0.00    -0.460 OA
BRANCH  26  27
ATOM     27  C   UNL A   1      33.398  33.744  28.191  1.00  0.00     0.338 C 
ATOM     28  O   UNL A   1      32.899  34.329  29.137  1.00  0.00    -0.246 OA
BRANCH  27  29
ATOM     29  C   UNL A   1      34.668  33.015  28.322  1.00  0.00     0.060 A 
ATOM     30  C   UNL A   1      34.601  31.643  28.598  1.00  0.00     0.016 A 
ATOM     31  C   UNL A   1      35.889  33.691  28.343  1.00  0.00     0.016 A 
ATOM     32  C   UNL A   1      35.749  30.954  28.971  1.00  0.00     0.010 A 
ATOM     33  C   UNL A   1      37.040  32.999  28.729  1.00  0.00     0.010 A 
ATOM     34  C   UNL A   1      36.962  31.642  29.096  1.00  0.00    -0.014 A 
BRANCH  34  35
ATOM     35  C   UNL A   1      38.087  30.983  29.800  1.00  0.00     0.031 A 
ATOM     36  C   UNL A   1      38.307  31.290  31.258  1.00  0.00     0.074 A 
ATOM     37  C   UNL A   1      38.858  30.080  29.173  1.00  0.00     0.049 A 
ATOM     38  N   UNL A   1      39.214  30.824  32.077  1.00  0.00    -0.248 NA
ATOM     39  C   UNL A   1      37.375  32.249  31.874  1.00  0.00     0.031 C 
ATOM     40  C   UNL A   1      38.713  29.669  27.779  1.00  0.00     0.029 A 
ATOM     41  N   UNL A   1      39.918  29.344  29.636  1.00  0.00    -0.354 N 
ATOM     42  C   UNL A   1      38.966  31.434  33.300  1.00  0.00     0.074 A 
ATOM     43  C   UNL A   1      37.845  32.328  33.111  1.00  0.00     0.031 C 
ATOM     44  C   UNL A   1      39.657  28.755  27.495  1.00  0.00     0.029 A 
ATOM     45  C   UNL A   1      40.485  28.538  28.679  1.00  0.00     0.049 A 
ATOM     46  H   UNL A   1      40.242  29.389  30.565  1.00  0.00     0.167 HD
ATOM     47  C   UNL A   1      39.607  31.256  34.481  1.00  0.00     0.037 A 
ATOM     48  C   UNL A   1      41.561  27.731  28.753  1.00  0.00     0.037 A 
ATOM     49  C   UNL A   1      40.721  30.364  34.668  1.00  0.00     0.049 A 
ATOM     50  C   UNL A   1      42.300  27.604  30.059  1.00  0.00     0.074 A 
ATOM     51  C   UNL A   1      41.429  30.100  35.827  1.00  0.00     0.029 A 
ATOM     52  N   UNL A   1      41.292  29.594  33.666  1.00  0.00    -0.354 N 
ATOM     53  N   UNL A   1      42.042  28.165  31.216  1.00  0.00    -0.248 NA
ATOM     54  C   UNL A   1      43.478  26.724  30.068  1.00  0.00     0.031 C 
ATOM     55  C   UNL A   1      42.460  29.208  35.515  1.00  0.00     0.029 A 
ATOM     56  C   UNL A   1      42.361  28.876  34.174  1.00  0.00     0.049 A 
ATOM     57  H   UNL A   1      40.983  29.564  32.732  1.00  0.00     0.167 HD
ATOM     58  C   UNL A   1      43.006  27.687  32.096  1.00  0.00     0.074 A 
ATOM     59  C   UNL A   1      43.845  26.778  31.341  1.00  0.00     0.031 C 
ATOM     60  C   UNL A   1      43.183  27.973  33.409  1.00  0.00     0.037 A 
BRANCH  47  61
ATOM     61  C   UNL A   1      39.133  32.063  35.652  1.00  0.00     0.057 A 
ATOM     62  C   UNL A   1      38.262  31.533  36.615  1.00  0.00     0.134 A 
ATOM     63  C   UNL A   1      39.573  33.380  35.836  1.00  0.00     0.134 A 
ATOM     64  F   UNL A   1      37.792  30.284  36.490  1.00  0.00    -0.206 F 
ATOM     65  C   UNL A   1      37.829  32.292  37.703  1.00  0.00     0.040 A 
ATOM     66  C   UNL A   1      39.167  34.140  36.934  1.00  0.00     0.040 A 
ATOM     67  F   UNL A   1      40.409  33.948  34.954  1.00  0.00    -0.206 F 
ATOM     68  C   UNL A   1      38.288  33.598  37.869  1.00  0.00     0.006 A 
ENDBRANCH  47  61
BRANCH  48  69
ATOM     69  C   UNL A   1      42.014  26.986  27.552  1.00  0.00     0.057 A 
ATOM     70  C   UNL A   1      42.846  27.582  26.598  1.00  0.00     0.134 A 
ATOM     71  C   UNL A   1      41.605  25.667  27.319  1.00  0.00     0.134 A 
ATOM     72  F   UNL A   1      43.253  28.850  26.754  1.00  0.00    -0.206 F 
ATOM     73  C   UNL A   1      43.239  26.900  25.444  1.00  0.00     0.040 A 
ATOM     74  C   UNL A   1      42.011  24.966  26.184  1.00  0.00     0.040 A 
ATOM     75  F   UNL A   1      40.809  25.040  28.197  1.00  0.00    -0.206 F 
ATOM     76  C   UNL A   1      42.825  25.585  25.238  1.00  0.00     0.006 A 
ENDBRANCH  48  69
BRANCH  60  77
ATOM     77  C   UNL A   1      44.304  27.272  34.120  1.00  0.00     0.057 A 
ATOM     78  C   UNL A   1      44.134  26.011  34.708  1.00  0.00     0.134 A 
ATOM     79  C   UNL A   1      45.578  27.849  34.185  1.00  0.00     0.134 A 
ATOM     80  F   UNL A   1      42.936  25.409  34.691  1.00  0.00    -0.206 F 
ATOM     81  C   UNL A   1      45.186  25.363  35.359  1.00  0.00     0.040 A 
ATOM     82  C   UNL A   1      46.644  27.200  34.809  1.00  0.00     0.040 A 
ATOM     83  F   UNL A   1      45.811  29.051  33.633  1.00  0.00    -0.206 F 
ATOM     84  C   UNL A   1      46.447  25.955  35.404  1.00  0.00     0.006 A 
ENDBRANCH  60  77
ENDBRANCH  34  35
ENDBRANCH  27  29
ENDBRANCH  26  27
ENDBRANCH  25  26
ENDBRANCH  24  25
ENDBRANCH   1  24
TORSDOF 16
ENDMDL
