MODEL 1
REMARK VINA RESULT:      -8.7      0.000      0.000
REMARK SMILES NS(=O)(=O)c1ccc(C#Cc2cc(Cl)cc3c2O[C@H](C(F)(F)F)C(C(=O)OCCOCCOC(=O)c2ccc(-c4c5nc(c(-c6c(F)cccc6F)c6ccc([nH]6)c(-c6c(F)cccc6F)c6nc(c(-c7c(F)cccc7F)c7ccc4[nH]7)C=C6)C=C5)cc2)=C3)cc1
REMARK SMILES IDX 29 1 28 2 27 3 25 4 26 5 24 6 11 7 12 8 17 9 13 10 16 11
REMARK SMILES IDX 18 12 14 13 15 14 90 15 19 16 10 17 9 18 8 19 5 20 6 21
REMARK SMILES IDX 92 22 7 23 91 24 2 25 3 26 4 27 1 28 20 31 21 32 22 33 23 34
REMARK SMILES IDX 30 35 31 36 32 37 33 38 34 39 35 40 36 41 37 42 89 43 38 44
REMARK SMILES IDX 88 45 39 46 40 47 41 48 82 49 42 50 87 51 81 52 83 53 43 54
REMARK SMILES IDX 86 55 80 56 79 57 44 59 70 60 53 61 69 62 54 63 57 64 68 65
REMARK SMILES IDX 84 66 55 67 56 68 67 70 85 71 58 72 45 73 46 74 51 75 47 76
REMARK SMILES IDX 48 77 50 78 52 79 49 80 71 81 72 82 77 83 73 84 74 85 76 86
REMARK SMILES IDX 78 87 75 88 59 89 60 90 65 91 61 92 62 93 64 94 66 95 63 96
REMARK H PARENT 1 29 1 30 83 58 57 69
REMARK Flexibility Score: inf
ROOT
ATOM      1  C   UNL A   1      34.146  36.366  33.279  1.00  0.00     0.202 C 
ENDROOT
BRANCH   1   2
ATOM      2  C   UNL A   1      35.040  35.177  32.915  1.00  0.00     0.261 C 
BRANCH   2   3
ATOM      3  O   UNL A   1      36.172  35.046  33.787  1.00  0.00    -0.460 OA
BRANCH   3   4
ATOM      4  C   UNL A   1      36.114  33.971  34.609  1.00  0.00     0.338 C 
ATOM      5  O   UNL A   1      35.226  33.703  35.401  1.00  0.00    -0.246 OA
BRANCH   4   6
ATOM      6  C   UNL A   1      37.242  33.062  34.327  1.00  0.00     0.087 C 
ATOM      7  C   UNL A   1      40.162  30.112  33.885  1.00  0.00     0.069 A 
ATOM      8  C   UNL A   1      39.838  28.933  33.203  1.00  0.00     0.041 A 
ATOM      9  C   UNL A   1      39.232  31.162  33.954  1.00  0.00     0.143 A 
ATOM     10  C   UNL A   1      38.602  28.811  32.575  1.00  0.00     0.043 A 
ATOM     11  C   UNL A   1      37.980  31.014  33.346  1.00  0.00     0.020 A 
ATOM     12  O   UNL A   1      39.596  32.302  34.620  1.00  0.00    -0.474 OA
ATOM     13  Cl  UNL A   1      38.199  27.358  31.749  1.00  0.00    -0.084 Cl
ATOM     14  C   UNL A   1      37.674  29.846  32.638  1.00  0.00     0.032 A 
ATOM     15  C   UNL A   1      36.962  32.031  33.521  1.00  0.00     0.027 C 
ATOM     16  C   UNL A   1      38.581  33.286  34.966  1.00  0.00     0.316 C 
BRANCH   7  17
ATOM     17  C   UNL A   1      41.422  30.180  34.561  1.00  0.00    -0.058 C 
ATOM     18  C   UNL A   1      42.457  30.301  35.164  1.00  0.00    -0.062 C 
BRANCH  18  19
ATOM     19  C   UNL A   1      43.666  30.524  35.891  1.00  0.00     0.025 A 
ATOM     20  C   UNL A   1      46.089  31.017  37.181  1.00  0.00     0.082 A 
ATOM     21  C   UNL A   1      45.888  29.795  36.532  1.00  0.00     0.023 A 
ATOM     22  C   UNL A   1      45.077  31.981  37.214  1.00  0.00     0.023 A 
ATOM     23  C   UNL A   1      44.672  29.552  35.887  1.00  0.00     0.018 A 
ATOM     24  C   UNL A   1      43.864  31.732  36.565  1.00  0.00     0.018 A 
BRANCH  20  25
ATOM     25  S   UNL A   1      47.623  31.400  37.972  1.00  0.00     0.238 S 
ATOM     26  O   UNL A   1      48.192  30.173  38.480  1.00  0.00    -0.207 OA
ATOM     27  O   UNL A   1      47.427  32.570  38.793  1.00  0.00    -0.207 OA
BRANCH  25  28
ATOM     28  N   UNL A   1      48.645  31.879  36.727  1.00  0.00    -0.225 NA
ATOM     29  H   UNL A   1      49.600  31.948  37.078  1.00  0.00     0.137 HD
ATOM     30  H   UNL A   1      48.347  32.788  36.373  1.00  0.00     0.137 HD
ENDBRANCH  25  28
ENDBRANCH  20  25
ENDBRANCH  18  19
ENDBRANCH   7  17
BRANCH  16  31
ATOM     31  C   UNL A   1      38.493  33.381  36.497  1.00  0.00     0.430 C 
ATOM     32  F   UNL A   1      37.533  32.560  36.987  1.00  0.00    -0.167 F 
ATOM     33  F   UNL A   1      39.653  33.012  37.089  1.00  0.00    -0.167 F 
ATOM     34  F   UNL A   1      38.208  34.636  36.910  1.00  0.00    -0.167 F 
ENDBRANCH  16  31
ENDBRANCH   4   6
ENDBRANCH   3   4
ENDBRANCH   2   3
ENDBRANCH   1   2
BRANCH   1  35
ATOM     35  O   UNL A   1      33.034  36.671  32.447  1.00  0.00    -0.374 OA
BRANCH  35  36
ATOM     36  C   UNL A   1      33.257  37.305  31.190  1.00  0.00     0.202 C 
BRANCH  36  37
ATOM     37  C   UNL A   1      33.175  36.478  29.900  1.00  0.00     0.261 C 
BRANCH  37  38
ATOM     38  O   UNL A   1      33.001  35.070  30.124  1.00  0.00    -0.460 OA
BRANCH  38  39
ATOM     39  C   UNL A   1      33.177  34.296  29.022  1.00  0.00     0.338 C 
ATOM     40  O   UNL A   1      32.486  34.265  28.019  1.00  0.00    -0.246 OA
BRANCH  39  41
ATOM     41  C   UNL A   1      34.476  33.608  29.125  1.00  0.00     0.060 A 
ATOM     42  C   UNL A   1      35.502  33.885  28.223  1.00  0.00     0.016 A 
ATOM     43  C   UNL A   1      34.671  32.703  30.176  1.00  0.00     0.016 A 
ATOM     44  C   UNL A   1      36.739  33.262  28.390  1.00  0.00     0.010 A 
ATOM     45  C   UNL A   1      35.909  32.082  30.341  1.00  0.00     0.010 A 
ATOM     46  C   UNL A   1      36.959  32.374  29.461  1.00  0.00    -0.014 A 
BRANCH  46  47
ATOM     47  C   UNL A   1      38.326  31.861  29.724  1.00  0.00     0.031 A 
ATOM     48  C   UNL A   1      39.320  32.642  30.531  1.00  0.00     0.074 A 
ATOM     49  C   UNL A   1      38.668  30.663  29.212  1.00  0.00     0.049 A 
ATOM     50  N   UNL A   1      40.524  32.296  30.911  1.00  0.00    -0.248 NA
ATOM     51  C   UNL A   1      38.911  33.985  30.965  1.00  0.00     0.031 C 
ATOM     52  C   UNL A   1      37.799  29.828  28.379  1.00  0.00     0.029 A 
ATOM     53  N   UNL A   1      39.823  29.935  29.325  1.00  0.00    -0.354 N 
ATOM     54  C   UNL A   1      41.013  33.367  31.646  1.00  0.00     0.074 A 
ATOM     55  C   UNL A   1      39.995  34.397  31.610  1.00  0.00     0.031 C 
ATOM     56  C   UNL A   1      38.438  28.684  28.091  1.00  0.00     0.029 A 
ATOM     57  C   UNL A   1      39.772  28.723  28.679  1.00  0.00     0.049 A 
ATOM     58  H   UNL A   1      40.613  30.250  29.820  1.00  0.00     0.167 HD
ATOM     59  C   UNL A   1      42.194  33.471  32.304  1.00  0.00     0.037 A 
ATOM     60  C   UNL A   1      40.699  27.755  28.570  1.00  0.00     0.037 A 
ATOM     61  C   UNL A   1      43.220  32.457  32.304  1.00  0.00     0.049 A 
ATOM     62  C   UNL A   1      42.031  27.934  29.246  1.00  0.00     0.074 A 
ATOM     63  C   UNL A   1      44.440  32.463  32.958  1.00  0.00     0.029 A 
ATOM     64  N   UNL A   1      43.157  31.265  31.596  1.00  0.00    -0.354 N 
ATOM     65  N   UNL A   1      42.451  28.917  30.004  1.00  0.00    -0.248 NA
ATOM     66  C   UNL A   1      43.016  26.861  29.053  1.00  0.00     0.031 C 
ATOM     67  C   UNL A   1      45.142  31.310  32.590  1.00  0.00     0.029 A 
ATOM     68  C   UNL A   1      44.331  30.546  31.770  1.00  0.00     0.049 A 
ATOM     69  H   UNL A   1      42.392  30.973  31.050  1.00  0.00     0.167 HD
ATOM     70  C   UNL A   1      43.735  28.567  30.404  1.00  0.00     0.074 A 
ATOM     71  C   UNL A   1      44.013  27.271  29.823  1.00  0.00     0.031 C 
ATOM     72  C   UNL A   1      44.603  29.256  31.185  1.00  0.00     0.037 A 
BRANCH  59  73
ATOM     73  C   UNL A   1      42.447  34.742  33.068  1.00  0.00     0.057 A 
ATOM     74  C   UNL A   1      42.957  35.878  32.426  1.00  0.00     0.134 A 
ATOM     75  C   UNL A   1      42.215  34.833  34.448  1.00  0.00     0.134 A 
ATOM     76  F   UNL A   1      43.219  35.859  31.111  1.00  0.00    -0.206 F 
ATOM     77  C   UNL A   1      43.219  37.057  33.126  1.00  0.00     0.040 A 
ATOM     78  C   UNL A   1      42.442  36.017  35.152  1.00  0.00     0.040 A 
ATOM     79  F   UNL A   1      41.727  33.783  35.126  1.00  0.00    -0.206 F 
ATOM     80  C   UNL A   1      42.950  37.132  34.491  1.00  0.00     0.006 A 
ENDBRANCH  59  73
BRANCH  60  81
ATOM     81  C   UNL A   1      40.409  26.522  27.792  1.00  0.00     0.057 A 
ATOM     82  C   UNL A   1      40.937  26.328  26.510  1.00  0.00     0.134 A 
ATOM     83  C   UNL A   1      39.634  25.489  28.334  1.00  0.00     0.134 A 
ATOM     84  F   UNL A   1      41.678  27.283  25.931  1.00  0.00    -0.206 F 
ATOM     85  C   UNL A   1      40.709  25.151  25.796  1.00  0.00     0.040 A 
ATOM     86  C   UNL A   1      39.427  24.294  27.645  1.00  0.00     0.040 A 
ATOM     87  F   UNL A   1      39.113  25.608  29.564  1.00  0.00    -0.206 F 
ATOM     88  C   UNL A   1      39.964  24.123  26.371  1.00  0.00     0.006 A 
ENDBRANCH  60  81
BRANCH  72  89
ATOM     89  C   UNL A   1      45.920  28.598  31.492  1.00  0.00     0.057 A 
ATOM     90  C   UNL A   1      46.049  27.750  32.600  1.00  0.00     0.134 A 
ATOM     91  C   UNL A   1      47.061  28.802  30.703  1.00  0.00     0.134 A 
ATOM     92  F   UNL A   1      45.003  27.516  33.405  1.00  0.00    -0.206 F 
ATOM     93  C   UNL A   1      47.261  27.128  32.910  1.00  0.00     0.040 A 
ATOM     94  C   UNL A   1      48.268  28.156  30.981  1.00  0.00     0.040 A 
ATOM     95  F   UNL A   1      47.007  29.590  29.619  1.00  0.00    -0.206 F 
ATOM     96  C   UNL A   1      48.371  27.321  32.092  1.00  0.00     0.006 A 
ENDBRANCH  72  89
ENDBRANCH  46  47
ENDBRANCH  39  41
ENDBRANCH  38  39
ENDBRANCH  37  38
ENDBRANCH  36  37
ENDBRANCH  35  36
ENDBRANCH   1  35
TORSDOF 19
ENDMDL
MODEL 2
REMARK VINA RESULT:      -8.4      0.578      5.832
REMARK SMILES NS(=O)(=O)c1ccc(C#Cc2cc(Cl)cc3c2O[C@H](C(F)(F)F)C(C(=O)OCCOCCOC(=O)c2ccc(-c4c5nc(c(-c6c(F)cccc6F)c6ccc([nH]6)c(-c6c(F)cccc6F)c6nc(c(-c7c(F)cccc7F)c7ccc4[nH]7)C=C6)C=C5)cc2)=C3)cc1
REMARK SMILES IDX 29 1 28 2 27 3 25 4 26 5 24 6 11 7 12 8 17 9 13 10 16 11
REMARK SMILES IDX 18 12 14 13 15 14 90 15 19 16 10 17 9 18 8 19 5 20 6 21
REMARK SMILES IDX 92 22 7 23 91 24 2 25 3 26 4 27 1 28 20 31 21 32 22 33 23 34
REMARK SMILES IDX 30 35 31 36 32 37 33 38 34 39 35 40 36 41 37 42 89 43 38 44
REMARK SMILES IDX 88 45 39 46 40 47 41 48 82 49 42 50 87 51 81 52 83 53 43 54
REMARK SMILES IDX 86 55 80 56 79 57 44 59 70 60 53 61 69 62 54 63 57 64 68 65
REMARK SMILES IDX 84 66 55 67 56 68 67 70 85 71 58 72 45 73 46 74 51 75 47 76
REMARK SMILES IDX 48 77 50 78 52 79 49 80 71 81 72 82 77 83 73 84 74 85 76 86
REMARK SMILES IDX 78 87 75 88 59 89 60 90 65 91 61 92 62 93 64 94 66 95 63 96
REMARK H PARENT 1 29 1 30 83 58 57 69
REMARK Flexibility Score: inf
ROOT
ATOM      1  C   UNL A   1      34.081  35.721  33.114  1.00  0.00     0.202 C 
ENDROOT
BRANCH   1   2
ATOM      2  C   UNL A   1      35.366  34.916  32.899  1.00  0.00     0.261 C 
BRANCH   2   3
ATOM      3  O   UNL A   1      36.304  35.072  33.974  1.00  0.00    -0.460 OA
BRANCH   3   4
ATOM      4  C   UNL A   1      36.327  34.030  34.839  1.00  0.00     0.338 C 
ATOM      5  O   UNL A   1      35.510  33.785  35.711  1.00  0.00    -0.246 OA
BRANCH   4   6
ATOM      6  C   UNL A   1      37.442  33.123  34.503  1.00  0.00     0.087 C 
ATOM      7  C   UNL A   1      40.347  30.182  33.925  1.00  0.00     0.069 A 
ATOM      8  C   UNL A   1      39.990  28.994  33.276  1.00  0.00     0.041 A 
ATOM      9  C   UNL A   1      39.417  31.228  34.037  1.00  0.00     0.143 A 
ATOM     10  C   UNL A   1      38.720  28.859  32.723  1.00  0.00     0.043 A 
ATOM     11  C   UNL A   1      38.133  31.067  33.504  1.00  0.00     0.020 A 
ATOM     12  O   UNL A   1      39.813  32.378  34.667  1.00  0.00    -0.474 OA
ATOM     13  Cl  UNL A   1      38.278  27.394  31.938  1.00  0.00    -0.084 Cl
ATOM     14  C   UNL A   1      37.792  29.891  32.827  1.00  0.00     0.032 A 
ATOM     15  C   UNL A   1      37.121  32.082  33.726  1.00  0.00     0.027 C 
ATOM     16  C   UNL A   1      38.815  33.361  35.060  1.00  0.00     0.316 C 
BRANCH   7  17
ATOM     17  C   UNL A   1      41.644  30.264  34.526  1.00  0.00    -0.058 C 
ATOM     18  C   UNL A   1      42.726  30.408  35.033  1.00  0.00    -0.062 C 
BRANCH  18  19
ATOM     19  C   UNL A   1      44.010  30.658  35.607  1.00  0.00     0.025 A 
ATOM     20  C   UNL A   1      46.556  31.218  36.597  1.00  0.00     0.082 A 
ATOM     21  C   UNL A   1      46.337  30.038  35.880  1.00  0.00     0.023 A 
ATOM     22  C   UNL A   1      45.504  32.104  36.847  1.00  0.00     0.023 A 
ATOM     23  C   UNL A   1      45.060  29.761  35.386  1.00  0.00     0.018 A 
ATOM     24  C   UNL A   1      44.230  31.823  36.348  1.00  0.00     0.018 A 
BRANCH  20  25
ATOM     25  S   UNL A   1      48.161  31.645  37.204  1.00  0.00     0.238 S 
ATOM     26  O   UNL A   1      49.143  30.883  36.469  1.00  0.00    -0.207 OA
ATOM     27  O   UNL A   1      48.106  31.666  38.646  1.00  0.00    -0.207 OA
BRANCH  25  28
ATOM     28  N   UNL A   1      48.393  33.241  36.731  1.00  0.00    -0.225 NA
ATOM     29  H   UNL A   1      48.371  33.301  35.713  1.00  0.00     0.137 HD
ATOM     30  H   UNL A   1      49.296  33.569  37.071  1.00  0.00     0.137 HD
ENDBRANCH  25  28
ENDBRANCH  20  25
ENDBRANCH  18  19
ENDBRANCH   7  17
BRANCH  16  31
ATOM     31  C   UNL A   1      38.815  33.473  36.593  1.00  0.00     0.430 C 
ATOM     32  F   UNL A   1      38.050  32.507  37.157  1.00  0.00    -0.167 F 
ATOM     33  F   UNL A   1      40.059  33.327  37.105  1.00  0.00    -0.167 F 
ATOM     34  F   UNL A   1      38.341  34.667  37.012  1.00  0.00    -0.167 F 
ENDBRANCH  16  31
ENDBRANCH   4   6
ENDBRANCH   3   4
ENDBRANCH   2   3
ENDBRANCH   1   2
BRANCH   1  35
ATOM     35  O   UNL A   1      33.031  35.608  32.161  1.00  0.00    -0.374 OA
BRANCH  35  36
ATOM     36  C   UNL A   1      33.004  36.491  31.044  1.00  0.00     0.202 C 
BRANCH  36  37
ATOM     37  C   UNL A   1      33.097  35.918  29.623  1.00  0.00     0.261 C 
BRANCH  37  38
ATOM     38  O   UNL A   1      32.595  34.578  29.505  1.00  0.00    -0.460 OA
BRANCH  38  39
ATOM     39  C   UNL A   1      33.178  33.841  28.525  1.00  0.00     0.338 C 
ATOM     40  O   UNL A   1      32.758  33.636  27.400  1.00  0.00    -0.246 OA
BRANCH  39  41
ATOM     41  C   UNL A   1      34.535  33.461  28.958  1.00  0.00     0.060 A 
ATOM     42  C   UNL A   1      34.728  32.705  30.113  1.00  0.00     0.016 A 
ATOM     43  C   UNL A   1      35.622  33.840  28.160  1.00  0.00     0.016 A 
ATOM     44  C   UNL A   1      36.020  32.310  30.458  1.00  0.00     0.010 A 
ATOM     45  C   UNL A   1      36.913  33.443  28.507  1.00  0.00     0.010 A 
ATOM     46  C   UNL A   1      37.119  32.656  29.648  1.00  0.00    -0.014 A 
BRANCH  46  47
ATOM     47  C   UNL A   1      38.456  32.081  29.934  1.00  0.00     0.031 A 
ATOM     48  C   UNL A   1      38.854  30.724  29.434  1.00  0.00     0.074 A 
ATOM     49  C   UNL A   1      39.321  32.808  30.667  1.00  0.00     0.049 A 
ATOM     50  N   UNL A   1      40.009  30.116  29.537  1.00  0.00    -0.248 NA
ATOM     51  C   UNL A   1      37.822  29.947  28.734  1.00  0.00     0.031 C 
ATOM     52  C   UNL A   1      39.034  34.125  31.240  1.00  0.00     0.029 A 
ATOM     53  N   UNL A   1      40.614  32.553  31.045  1.00  0.00    -0.354 N 
ATOM     54  C   UNL A   1      39.854  28.894  28.897  1.00  0.00     0.074 A 
ATOM     55  C   UNL A   1      38.474  28.825  28.460  1.00  0.00     0.031 C 
ATOM     56  C   UNL A   1      40.133  34.581  31.860  1.00  0.00     0.029 A 
ATOM     57  C   UNL A   1      41.183  33.573  31.769  1.00  0.00     0.049 A 
ATOM     58  H   UNL A   1      41.087  31.721  30.820  1.00  0.00     0.167 HD
ATOM     59  C   UNL A   1      40.781  27.930  28.679  1.00  0.00     0.037 A 
ATOM     60  C   UNL A   1      42.414  33.680  32.303  1.00  0.00     0.037 A 
ATOM     61  C   UNL A   1      42.144  27.988  29.150  1.00  0.00     0.049 A 
ATOM     62  C   UNL A   1      43.397  32.558  32.111  1.00  0.00     0.074 A 
ATOM     63  C   UNL A   1      43.162  27.070  28.961  1.00  0.00     0.029 A 
ATOM     64  N   UNL A   1      42.672  29.010  29.926  1.00  0.00    -0.354 N 
ATOM     65  N   UNL A   1      43.262  31.442  31.437  1.00  0.00    -0.248 NA
ATOM     66  C   UNL A   1      44.708  32.716  32.755  1.00  0.00     0.031 C 
ATOM     67  C   UNL A   1      44.283  27.502  29.679  1.00  0.00     0.029 A 
ATOM     68  C   UNL A   1      43.990  28.728  30.252  1.00  0.00     0.049 A 
ATOM     69  H   UNL A   1      42.182  29.818  30.204  1.00  0.00     0.167 HD
ATOM     70  C   UNL A   1      44.479  30.782  31.547  1.00  0.00     0.074 A 
ATOM     71  C   UNL A   1      45.346  31.634  32.335  1.00  0.00     0.031 C 
ATOM     72  C   UNL A   1      44.847  29.579  31.040  1.00  0.00     0.037 A 
BRANCH  59  73
ATOM     73  C   UNL A   1      40.344  26.715  27.908  1.00  0.00     0.057 A 
ATOM     74  C   UNL A   1      40.710  26.544  26.567  1.00  0.00     0.134 A 
ATOM     75  C   UNL A   1      39.534  25.726  28.484  1.00  0.00     0.134 A 
ATOM     76  F   UNL A   1      41.470  27.458  25.944  1.00  0.00    -0.206 F 
ATOM     77  C   UNL A   1      40.293  25.433  25.831  1.00  0.00     0.040 A 
ATOM     78  C   UNL A   1      39.139  24.594  27.769  1.00  0.00     0.040 A 
ATOM     79  F   UNL A   1      39.148  25.825  29.766  1.00  0.00    -0.206 F 
ATOM     80  C   UNL A   1      39.514  24.448  26.436  1.00  0.00     0.006 A 
ENDBRANCH  59  73
BRANCH  60  81
ATOM     81  C   UNL A   1      42.795  34.894  33.069  1.00  0.00     0.057 A 
ATOM     82  C   UNL A   1      43.277  36.041  32.425  1.00  0.00     0.134 A 
ATOM     83  C   UNL A   1      42.642  34.952  34.460  1.00  0.00     0.134 A 
ATOM     84  F   UNL A   1      43.455  36.048  31.096  1.00  0.00    -0.206 F 
ATOM     85  C   UNL A   1      43.588  37.201  33.135  1.00  0.00     0.040 A 
ATOM     86  C   UNL A   1      42.918  36.117  35.177  1.00  0.00     0.040 A 
ATOM     87  F   UNL A   1      42.172  33.892  35.132  1.00  0.00    -0.206 F 
ATOM     88  C   UNL A   1      43.394  37.246  34.514  1.00  0.00     0.006 A 
ENDBRANCH  60  81
BRANCH  72  89
ATOM     89  C   UNL A   1      46.264  29.136  31.284  1.00  0.00     0.057 A 
ATOM     90  C   UNL A   1      47.308  29.623  30.487  1.00  0.00     0.134 A 
ATOM     91  C   UNL A   1      46.599  28.228  32.298  1.00  0.00     0.134 A 
ATOM     92  F   UNL A   1      47.060  30.487  29.492  1.00  0.00    -0.206 F 
ATOM     93  C   UNL A   1      48.631  29.226  30.689  1.00  0.00     0.040 A 
ATOM     94  C   UNL A   1      47.924  27.853  32.535  1.00  0.00     0.040 A 
ATOM     95  F   UNL A   1      45.652  27.732  33.109  1.00  0.00    -0.206 F 
ATOM     96  C   UNL A   1      48.943  28.347  31.724  1.00  0.00     0.006 A 
ENDBRANCH  72  89
ENDBRANCH  46  47
ENDBRANCH  39  41
ENDBRANCH  38  39
ENDBRANCH  37  38
ENDBRANCH  36  37
ENDBRANCH  35  36
ENDBRANCH   1  35
TORSDOF 19
ENDMDL
MODEL 3
REMARK VINA RESULT:      -8.3      6.457     13.058
REMARK SMILES NS(=O)(=O)c1ccc(C#Cc2cc(Cl)cc3c2O[C@H](C(F)(F)F)C(C(=O)OCCOCCOC(=O)c2ccc(-c4c5nc(c(-c6c(F)cccc6F)c6ccc([nH]6)c(-c6c(F)cccc6F)c6nc(c(-c7c(F)cccc7F)c7ccc4[nH]7)C=C6)C=C5)cc2)=C3)cc1
REMARK SMILES IDX 29 1 28 2 27 3 25 4 26 5 24 6 11 7 12 8 17 9 13 10 16 11
REMARK SMILES IDX 18 12 14 13 15 14 90 15 19 16 10 17 9 18 8 19 5 20 6 21
REMARK SMILES IDX 92 22 7 23 91 24 2 25 3 26 4 27 1 28 20 31 21 32 22 33 23 34
REMARK SMILES IDX 30 35 31 36 32 37 33 38 34 39 35 40 36 41 37 42 89 43 38 44
REMARK SMILES IDX 88 45 39 46 40 47 41 48 82 49 42 50 87 51 81 52 83 53 43 54
REMARK SMILES IDX 86 55 80 56 79 57 44 59 70 60 53 61 69 62 54 63 57 64 68 65
REMARK SMILES IDX 84 66 55 67 56 68 67 70 85 71 58 72 45 73 46 74 51 75 47 76
REMARK SMILES IDX 48 77 50 78 52 79 49 80 71 81 72 82 77 83 73 84 74 85 76 86
REMARK SMILES IDX 78 87 75 88 59 89 60 90 65 91 61 92 62 93 64 94 66 95 63 96
REMARK H PARENT 1 29 1 30 83 58 57 69
REMARK Flexibility Score: inf
ROOT
ATOM      1  C   UNL A   1      41.038  20.864  26.282  1.00  0.00     0.202 C 
ENDROOT
BRANCH   1   2
ATOM      2  C   UNL A   1      39.861  21.664  26.848  1.00  0.00     0.261 C 
BRANCH   2   3
ATOM      3  O   UNL A   1      38.845  21.922  25.868  1.00  0.00    -0.460 OA
BRANCH   3   4
ATOM      4  C   UNL A   1      38.307  20.804  25.324  1.00  0.00     0.338 C 
ATOM      5  O   UNL A   1      38.886  19.761  25.075  1.00  0.00    -0.246 OA
BRANCH   4   6
ATOM      6  C   UNL A   1      36.847  20.969  25.179  1.00  0.00     0.087 C 
ATOM      7  C   UNL A   1      32.799  21.277  24.209  1.00  0.00     0.069 A 
ATOM      8  C   UNL A   1      32.082  20.112  23.910  1.00  0.00     0.041 A 
ATOM      9  C   UNL A   1      34.132  21.190  24.642  1.00  0.00     0.143 A 
ATOM     10  C   UNL A   1      32.685  18.867  24.062  1.00  0.00     0.043 A 
ATOM     11  C   UNL A   1      34.737  19.933  24.759  1.00  0.00     0.020 A 
ATOM     12  O   UNL A   1      34.792  22.354  24.937  1.00  0.00    -0.474 OA
ATOM     13  Cl  UNL A   1      31.809  17.438  23.681  1.00  0.00    -0.084 Cl
ATOM     14  C   UNL A   1      34.006  18.771  24.490  1.00  0.00     0.032 A 
ATOM     15  C   UNL A   1      36.148  19.832  25.074  1.00  0.00     0.027 C 
ATOM     16  C   UNL A   1      36.237  22.338  25.104  1.00  0.00     0.316 C 
BRANCH   7  17
ATOM     17  C   UNL A   1      32.162  22.541  23.992  1.00  0.00    -0.058 C 
ATOM     18  C   UNL A   1      31.679  23.618  23.757  1.00  0.00    -0.062 C 
BRANCH  18  19
ATOM     19  C   UNL A   1      31.178  24.919  23.443  1.00  0.00     0.025 A 
ATOM     20  C   UNL A   1      30.271  27.511  22.959  1.00  0.00     0.082 A 
ATOM     21  C   UNL A   1      29.508  26.649  23.752  1.00  0.00     0.023 A 
ATOM     22  C   UNL A   1      31.469  27.076  22.383  1.00  0.00     0.023 A 
ATOM     23  C   UNL A   1      29.966  25.350  23.992  1.00  0.00     0.018 A 
ATOM     24  C   UNL A   1      31.922  25.777  22.629  1.00  0.00     0.018 A 
BRANCH  20  25
ATOM     25  S   UNL A   1      29.767  29.178  22.660  1.00  0.00     0.238 S 
ATOM     26  O   UNL A   1      30.007  29.949  23.858  1.00  0.00    -0.207 OA
ATOM     27  O   UNL A   1      28.488  29.150  21.992  1.00  0.00    -0.207 OA
BRANCH  25  28
ATOM     28  N   UNL A   1      30.861  29.767  21.529  1.00  0.00    -0.225 NA
ATOM     29  H   UNL A   1      31.738  29.251  21.603  1.00  0.00     0.137 HD
ATOM     30  H   UNL A   1      31.034  30.756  21.704  1.00  0.00     0.137 HD
ENDBRANCH  25  28
ENDBRANCH  20  25
ENDBRANCH  18  19
ENDBRANCH   7  17
BRANCH  16  31
ATOM     31  C   UNL A   1      36.867  23.202  24.000  1.00  0.00     0.430 C 
ATOM     32  F   UNL A   1      37.363  22.436  22.999  1.00  0.00    -0.167 F 
ATOM     33  F   UNL A   1      35.959  24.032  23.436  1.00  0.00    -0.167 F 
ATOM     34  F   UNL A   1      37.877  23.965  24.471  1.00  0.00    -0.167 F 
ENDBRANCH  16  31
ENDBRANCH   4   6
ENDBRANCH   3   4
ENDBRANCH   2   3
ENDBRANCH   1   2
BRANCH   1  35
ATOM     35  O   UNL A   1      42.363  21.293  26.571  1.00  0.00    -0.374 OA
BRANCH  35  36
ATOM     36  C   UNL A   1      43.419  20.942  25.682  1.00  0.00     0.202 C 
BRANCH  36  37
ATOM     37  C   UNL A   1      44.090  22.033  24.836  1.00  0.00     0.261 C 
BRANCH  37  38
ATOM     38  O   UNL A   1      43.388  23.285  24.842  1.00  0.00    -0.460 OA
BRANCH  38  39
ATOM     39  C   UNL A   1      44.167  24.369  25.092  1.00  0.00     0.338 C 
ATOM     40  O   UNL A   1      45.164  24.721  24.489  1.00  0.00    -0.246 OA
BRANCH  39  41
ATOM     41  C   UNL A   1      43.508  25.203  26.113  1.00  0.00     0.060 A 
ATOM     42  C   UNL A   1      42.434  24.709  26.851  1.00  0.00     0.016 A 
ATOM     43  C   UNL A   1      44.014  26.487  26.355  1.00  0.00     0.016 A 
ATOM     44  C   UNL A   1      41.877  25.503  27.854  1.00  0.00     0.010 A 
ATOM     45  C   UNL A   1      43.455  27.279  27.359  1.00  0.00     0.010 A 
ATOM     46  C   UNL A   1      42.396  26.783  28.130  1.00  0.00    -0.014 A 
BRANCH  46  47
ATOM     47  C   UNL A   1      41.908  27.538  29.311  1.00  0.00     0.031 A 
ATOM     48  C   UNL A   1      42.586  27.439  30.645  1.00  0.00     0.074 A 
ATOM     49  C   UNL A   1      40.822  28.321  29.164  1.00  0.00     0.049 A 
ATOM     50  N   UNL A   1      42.325  28.092  31.750  1.00  0.00    -0.248 NA
ATOM     51  C   UNL A   1      43.696  26.483  30.755  1.00  0.00     0.031 C 
ATOM     52  C   UNL A   1      40.055  28.468  27.924  1.00  0.00     0.029 A 
ATOM     53  N   UNL A   1      40.186  29.149  30.051  1.00  0.00    -0.354 N 
ATOM     54  C   UNL A   1      43.251  27.645  32.683  1.00  0.00     0.074 A 
ATOM     55  C   UNL A   1      44.041  26.622  32.028  1.00  0.00     0.031 C 
ATOM     56  C   UNL A   1      39.077  29.365  28.120  1.00  0.00     0.029 A 
ATOM     57  C   UNL A   1      39.119  29.821  29.505  1.00  0.00     0.049 A 
ATOM     58  H   UNL A   1      40.464  29.251  30.989  1.00  0.00     0.167 HD
ATOM     59  C   UNL A   1      43.433  28.062  33.960  1.00  0.00     0.037 A 
ATOM     60  C   UNL A   1      38.268  30.703  30.059  1.00  0.00     0.037 A 
ATOM     61  C   UNL A   1      42.616  29.054  34.617  1.00  0.00     0.049 A 
ATOM     62  C   UNL A   1      38.448  31.087  31.502  1.00  0.00     0.074 A 
ATOM     63  C   UNL A   1      42.737  29.557  35.902  1.00  0.00     0.029 A 
ATOM     64  N   UNL A   1      41.512  29.674  34.052  1.00  0.00    -0.354 N 
ATOM     65  N   UNL A   1      39.375  30.716  32.351  1.00  0.00    -0.248 NA
ATOM     66  C   UNL A   1      37.460  32.021  32.062  1.00  0.00     0.031 C 
ATOM     67  C   UNL A   1      41.667  30.428  36.135  1.00  0.00     0.029 A 
ATOM     68  C   UNL A   1      40.923  30.528  34.972  1.00  0.00     0.049 A 
ATOM     69  H   UNL A   1      41.193  29.530  33.132  1.00  0.00     0.167 HD
ATOM     70  C   UNL A   1      39.102  31.394  33.533  1.00  0.00     0.074 A 
ATOM     71  C   UNL A   1      37.937  32.216  33.282  1.00  0.00     0.031 C 
ATOM     72  C   UNL A   1      39.760  31.342  34.717  1.00  0.00     0.037 A 
BRANCH  59  73
ATOM     73  C   UNL A   1      44.554  27.430  34.738  1.00  0.00     0.057 A 
ATOM     74  C   UNL A   1      44.336  26.280  35.507  1.00  0.00     0.134 A 
ATOM     75  C   UNL A   1      45.844  27.977  34.752  1.00  0.00     0.134 A 
ATOM     76  F   UNL A   1      43.122  25.710  35.555  1.00  0.00    -0.206 F 
ATOM     77  C   UNL A   1      45.360  25.694  36.254  1.00  0.00     0.040 A 
ATOM     78  C   UNL A   1      46.885  27.382  35.467  1.00  0.00     0.040 A 
ATOM     79  F   UNL A   1      46.124  29.078  34.036  1.00  0.00    -0.206 F 
ATOM     80  C   UNL A   1      46.642  26.239  36.226  1.00  0.00     0.006 A 
ENDBRANCH  59  73
BRANCH  60  81
ATOM     81  C   UNL A   1      37.166  31.291  29.254  1.00  0.00     0.057 A 
ATOM     82  C   UNL A   1      35.990  30.577  28.999  1.00  0.00     0.134 A 
ATOM     83  C   UNL A   1      37.247  32.600  28.762  1.00  0.00     0.134 A 
ATOM     84  F   UNL A   1      35.853  29.316  29.434  1.00  0.00    -0.206 F 
ATOM     85  C   UNL A   1      34.931  31.143  28.287  1.00  0.00     0.040 A 
ATOM     86  C   UNL A   1      36.183  33.189  28.078  1.00  0.00     0.040 A 
ATOM     87  F   UNL A   1      38.342  33.340  28.986  1.00  0.00    -0.206 F 
ATOM     88  C   UNL A   1      35.021  32.459  27.837  1.00  0.00     0.006 A 
ENDBRANCH  60  81
BRANCH  72  89
ATOM     89  C   UNL A   1      39.259  32.235  35.819  1.00  0.00     0.057 A 
ATOM     90  C   UNL A   1      39.739  33.545  35.946  1.00  0.00     0.134 A 
ATOM     91  C   UNL A   1      38.310  31.806  36.757  1.00  0.00     0.134 A 
ATOM     92  F   UNL A   1      40.656  34.021  35.091  1.00  0.00    -0.206 F 
ATOM     93  C   UNL A   1      39.294  34.394  36.961  1.00  0.00     0.040 A 
ATOM     94  C   UNL A   1      37.828  32.657  37.754  1.00  0.00     0.040 A 
ATOM     95  F   UNL A   1      37.796  30.568  36.688  1.00  0.00    -0.206 F 
ATOM     96  C   UNL A   1      38.326  33.955  37.862  1.00  0.00     0.006 A 
ENDBRANCH  72  89
ENDBRANCH  46  47
ENDBRANCH  39  41
ENDBRANCH  38  39
ENDBRANCH  37  38
ENDBRANCH  36  37
ENDBRANCH  35  36
ENDBRANCH   1  35
TORSDOF 19
ENDMDL
