MODEL 1
REMARK VINA RESULT:     -11.5      0.000      0.000
REMARK SMILES Cc1ccc(Nc2c(Cl)cc(Cl)cc2Cl)c(CC(=O)OCCOCCOC(=O)c2ccc(-c3c4nc(c(-c5c(F)cccc5F)c5ccc([nH]5)c(-c5c(F)cccc5F)c5nc(c(-c6c(F)cccc6F)c6ccc3[nH]6)C=C5)C=C4)cc2)c1
REMARK SMILES IDX 22 1 21 2 20 3 18 4 19 5 17 6 16 7 1 8 2 9 3 10 83 11 4 12
REMARK SMILES IDX 5 13 6 14 7 16 8 17 14 18 9 19 10 20 13 21 15 22 11 23 12 24
REMARK SMILES IDX 23 25 24 26 25 27 26 28 27 29 28 30 29 31 30 32 82 33 31 34
REMARK SMILES IDX 81 35 32 36 33 37 34 38 75 39 35 40 80 41 74 42 76 43 36 44
REMARK SMILES IDX 79 45 73 46 72 47 37 49 63 50 46 51 62 52 47 53 50 54 61 55
REMARK SMILES IDX 77 56 48 57 49 58 60 60 78 61 51 62 38 63 39 64 44 65 40 66
REMARK SMILES IDX 41 67 43 68 45 69 42 70 64 71 65 72 70 73 66 74 67 75 69 76
REMARK SMILES IDX 71 77 68 78 52 79 53 80 58 81 54 82 55 83 57 84 59 85 56 86
REMARK H PARENT 6 15 76 48 50 59
REMARK Flexibility Score: inf
ROOT
ATOM      1  C   UNL A   1      39.021  22.078  26.242  1.00  0.00     0.202 C 
ENDROOT
BRANCH   1   2
ATOM      2  C   UNL A   1      37.637  21.769  25.699  1.00  0.00     0.261 C 
BRANCH   2   3
ATOM      3  O   UNL A   1      37.575  21.835  24.284  1.00  0.00    -0.463 OA
BRANCH   3   4
ATOM      4  C   UNL A   1      36.597  22.597  23.703  1.00  0.00     0.310 C 
ATOM      5  O   UNL A   1      36.538  22.953  22.537  1.00  0.00    -0.252 OA
BRANCH   4   6
ATOM      6  C   UNL A   1      35.558  22.983  24.745  1.00  0.00     0.160 C 
BRANCH   6   7
ATOM      7  C   UNL A   1      34.185  22.516  24.293  1.00  0.00    -0.013 A 
ATOM      8  C   UNL A   1      32.713  18.985  24.260  1.00  0.00     0.044 C 
ATOM      9  C   UNL A   1      32.898  20.448  23.985  1.00  0.00    -0.051 A 
ATOM     10  C   UNL A   1      32.175  21.087  22.985  1.00  0.00     0.005 A 
ATOM     11  C   UNL A   1      33.847  21.190  24.683  1.00  0.00     0.009 A 
ATOM     12  C   UNL A   1      32.445  22.422  22.650  1.00  0.00     0.026 A 
ATOM     13  C   UNL A   1      33.472  23.166  23.266  1.00  0.00     0.042 A 
BRANCH  13  14
ATOM     14  N   UNL A   1      33.793  24.486  22.837  1.00  0.00    -0.353 N 
ATOM     15  H   UNL A   1      34.682  24.597  22.432  1.00  0.00     0.167 HD
BRANCH  14  16
ATOM     16  C   UNL A   1      32.999  25.667  22.916  1.00  0.00     0.076 A 
ATOM     17  C   UNL A   1      32.854  26.402  24.107  1.00  0.00     0.067 A 
ATOM     18  C   UNL A   1      32.179  26.058  21.834  1.00  0.00     0.067 A 
ATOM     19  Cl  UNL A   1      34.028  26.307  25.380  1.00  0.00    -0.082 Cl
ATOM     20  C   UNL A   1      31.807  27.311  24.280  1.00  0.00     0.043 A 
ATOM     21  C   UNL A   1      31.093  26.922  22.014  1.00  0.00     0.043 A 
ATOM     22  Cl  UNL A   1      32.530  25.574  20.210  1.00  0.00    -0.082 Cl
ATOM     23  C   UNL A   1      30.894  27.516  23.253  1.00  0.00     0.044 A 
ATOM     24  Cl  UNL A   1      29.552  28.560  23.500  1.00  0.00    -0.084 Cl
ENDBRANCH  14  16
ENDBRANCH  13  14
ENDBRANCH   6   7
ENDBRANCH   4   6
ENDBRANCH   3   4
ENDBRANCH   2   3
ENDBRANCH   1   2
BRANCH   1  25
ATOM     25  O   UNL A   1      39.840  20.936  26.098  1.00  0.00    -0.374 OA
BRANCH  25  26
ATOM     26  C   UNL A   1      40.933  20.871  26.993  1.00  0.00     0.202 C 
BRANCH  26  27
ATOM     27  C   UNL A   1      42.229  20.606  26.226  1.00  0.00     0.261 C 
BRANCH  27  28
ATOM     28  O   UNL A   1      42.568  21.739  25.397  1.00  0.00    -0.460 OA
BRANCH  28  29
ATOM     29  C   UNL A   1      43.837  21.710  24.910  1.00  0.00     0.338 C 
ATOM     30  O   UNL A   1      44.311  20.793  24.243  1.00  0.00    -0.246 OA
BRANCH  29  31
ATOM     31  C   UNL A   1      44.655  22.788  25.534  1.00  0.00     0.060 A 
ATOM     32  C   UNL A   1      44.819  22.766  26.931  1.00  0.00     0.016 A 
ATOM     33  C   UNL A   1      44.851  23.969  24.820  1.00  0.00     0.016 A 
ATOM     34  C   UNL A   1      44.940  23.966  27.634  1.00  0.00     0.010 A 
ATOM     35  C   UNL A   1      44.832  25.155  25.526  1.00  0.00     0.010 A 
ATOM     36  C   UNL A   1      44.822  25.162  26.932  1.00  0.00    -0.014 A 
BRANCH  36  37
ATOM     37  C   UNL A   1      44.548  26.467  27.534  1.00  0.00     0.031 A 
ATOM     38  C   UNL A   1      43.189  27.029  27.443  1.00  0.00     0.074 A 
ATOM     39  C   UNL A   1      45.433  27.025  28.394  1.00  0.00     0.049 A 
ATOM     40  N   UNL A   1      42.872  28.184  27.906  1.00  0.00    -0.248 NA
ATOM     41  C   UNL A   1      42.075  26.373  26.762  1.00  0.00     0.031 C 
ATOM     42  C   UNL A   1      45.170  27.949  29.501  1.00  0.00     0.029 A 
ATOM     43  N   UNL A   1      46.812  26.891  28.426  1.00  0.00    -0.354 N 
ATOM     44  C   UNL A   1      41.508  28.260  27.929  1.00  0.00     0.074 A 
ATOM     45  C   UNL A   1      41.063  27.188  27.077  1.00  0.00     0.031 C 
ATOM     46  C   UNL A   1      46.330  28.460  29.944  1.00  0.00     0.029 A 
ATOM     47  C   UNL A   1      47.369  28.020  29.033  1.00  0.00     0.049 A 
ATOM     48  H   UNL A   1      47.319  26.121  28.079  1.00  0.00     0.167 HD
ATOM     49  C   UNL A   1      40.939  29.163  28.773  1.00  0.00     0.037 A 
ATOM     50  C   UNL A   1      48.264  28.811  28.378  1.00  0.00     0.037 A 
ATOM     51  C   UNL A   1      41.951  30.098  29.295  1.00  0.00     0.049 A 
ATOM     52  C   UNL A   1      47.596  30.125  28.005  1.00  0.00     0.074 A 
ATOM     53  C   UNL A   1      42.552  30.335  30.518  1.00  0.00     0.029 A 
ATOM     54  N   UNL A   1      42.713  30.797  28.369  1.00  0.00    -0.354 N 
ATOM     55  N   UNL A   1      46.389  30.444  28.393  1.00  0.00    -0.248 NA
ATOM     56  C   UNL A   1      48.166  31.153  27.141  1.00  0.00     0.031 C 
ATOM     57  C   UNL A   1      43.731  31.127  30.282  1.00  0.00     0.029 A 
ATOM     58  C   UNL A   1      43.815  31.412  28.928  1.00  0.00     0.049 A 
ATOM     59  H   UNL A   1      42.490  30.850  27.412  1.00  0.00     0.167 HD
ATOM     60  C   UNL A   1      45.986  31.611  27.831  1.00  0.00     0.074 A 
ATOM     61  C   UNL A   1      47.137  32.017  27.036  1.00  0.00     0.031 C 
ATOM     62  C   UNL A   1      44.739  32.133  28.048  1.00  0.00     0.037 A 
BRANCH  49  63
ATOM     63  C   UNL A   1      39.491  29.150  29.199  1.00  0.00     0.057 A 
ATOM     64  C   UNL A   1      38.482  29.455  28.267  1.00  0.00     0.134 A 
ATOM     65  C   UNL A   1      39.020  28.940  30.514  1.00  0.00     0.134 A 
ATOM     66  F   UNL A   1      38.775  29.702  26.982  1.00  0.00    -0.206 F 
ATOM     67  C   UNL A   1      37.125  29.537  28.611  1.00  0.00     0.040 A 
ATOM     68  C   UNL A   1      37.662  28.966  30.858  1.00  0.00     0.040 A 
ATOM     69  F   UNL A   1      39.842  28.756  31.552  1.00  0.00    -0.206 F 
ATOM     70  C   UNL A   1      36.706  29.278  29.908  1.00  0.00     0.006 A 
ENDBRANCH  49  63
BRANCH  50  71
ATOM     71  C   UNL A   1      49.223  27.968  27.595  1.00  0.00     0.057 A 
ATOM     72  C   UNL A   1      50.165  27.248  28.367  1.00  0.00     0.134 A 
ATOM     73  C   UNL A   1      48.850  27.403  26.369  1.00  0.00     0.134 A 
ATOM     74  F   UNL A   1      50.573  27.733  29.552  1.00  0.00    -0.206 F 
ATOM     75  C   UNL A   1      50.531  25.936  28.049  1.00  0.00     0.040 A 
ATOM     76  C   UNL A   1      49.228  26.090  26.037  1.00  0.00     0.040 A 
ATOM     77  F   UNL A   1      47.927  27.998  25.601  1.00  0.00    -0.206 F 
ATOM     78  C   UNL A   1      50.016  25.335  26.907  1.00  0.00     0.006 A 
ENDBRANCH  50  71
BRANCH  62  79
ATOM     79  C   UNL A   1      44.294  33.401  27.380  1.00  0.00     0.057 A 
ATOM     80  C   UNL A   1      43.878  33.427  26.043  1.00  0.00     0.134 A 
ATOM     81  C   UNL A   1      44.319  34.647  28.037  1.00  0.00     0.134 A 
ATOM     82  F   UNL A   1      43.926  32.323  25.282  1.00  0.00    -0.206 F 
ATOM     83  C   UNL A   1      43.403  34.593  25.437  1.00  0.00     0.040 A 
ATOM     84  C   UNL A   1      43.915  35.830  27.420  1.00  0.00     0.040 A 
ATOM     85  F   UNL A   1      44.699  34.774  29.314  1.00  0.00    -0.206 F 
ATOM     86  C   UNL A   1      43.419  35.800  26.126  1.00  0.00     0.006 A 
ENDBRANCH  62  79
ENDBRANCH  36  37
ENDBRANCH  29  31
ENDBRANCH  28  29
ENDBRANCH  27  28
ENDBRANCH  26  27
ENDBRANCH  25  26
ENDBRANCH   1  25
TORSDOF 17
ENDMDL
MODEL 2
REMARK VINA RESULT:     -11.4      4.327      8.642
REMARK SMILES Cc1ccc(Nc2c(Cl)cc(Cl)cc2Cl)c(CC(=O)OCCOCCOC(=O)c2ccc(-c3c4nc(c(-c5c(F)cccc5F)c5ccc([nH]5)c(-c5c(F)cccc5F)c5nc(c(-c6c(F)cccc6F)c6ccc3[nH]6)C=C5)C=C4)cc2)c1
REMARK SMILES IDX 22 1 21 2 20 3 18 4 19 5 17 6 16 7 1 8 2 9 3 10 83 11 4 12
REMARK SMILES IDX 5 13 6 14 7 16 8 17 14 18 9 19 10 20 13 21 15 22 11 23 12 24
REMARK SMILES IDX 23 25 24 26 25 27 26 28 27 29 28 30 29 31 30 32 82 33 31 34
REMARK SMILES IDX 81 35 32 36 33 37 34 38 75 39 35 40 80 41 74 42 76 43 36 44
REMARK SMILES IDX 79 45 73 46 72 47 37 49 63 50 46 51 62 52 47 53 50 54 61 55
REMARK SMILES IDX 77 56 48 57 49 58 60 60 78 61 51 62 38 63 39 64 44 65 40 66
REMARK SMILES IDX 41 67 43 68 45 69 42 70 64 71 65 72 70 73 66 74 67 75 69 76
REMARK SMILES IDX 71 77 68 78 52 79 53 80 58 81 54 82 55 83 57 84 59 85 56 86
REMARK H PARENT 6 15 76 48 50 59
REMARK Flexibility Score: inf
ROOT
ATOM      1  C   UNL A   1      31.772  30.656  26.693  1.00  0.00     0.202 C 
ENDROOT
BRANCH   1   2
ATOM      2  C   UNL A   1      32.211  29.286  27.180  1.00  0.00     0.261 C 
BRANCH   2   3
ATOM      3  O   UNL A   1      32.386  28.358  26.123  1.00  0.00    -0.463 OA
BRANCH   3   4
ATOM      4  C   UNL A   1      32.310  27.019  26.403  1.00  0.00     0.310 C 
ATOM      5  O   UNL A   1      31.355  26.419  26.867  1.00  0.00    -0.252 OA
BRANCH   4   6
ATOM      6  C   UNL A   1      33.635  26.349  26.071  1.00  0.00     0.160 C 
BRANCH   6   7
ATOM      7  C   UNL A   1      33.382  24.926  25.603  1.00  0.00    -0.013 A 
ATOM      8  C   UNL A   1      34.094  21.620  27.391  1.00  0.00     0.044 C 
ATOM      9  C   UNL A   1      33.764  22.606  26.310  1.00  0.00    -0.051 A 
ATOM     10  C   UNL A   1      33.790  22.237  24.971  1.00  0.00     0.005 A 
ATOM     11  C   UNL A   1      33.486  23.935  26.619  1.00  0.00     0.009 A 
ATOM     12  C   UNL A   1      33.606  23.195  23.962  1.00  0.00     0.026 A 
ATOM     13  C   UNL A   1      33.428  24.565  24.241  1.00  0.00     0.042 A 
BRANCH  13  14
ATOM     14  N   UNL A   1      33.344  25.531  23.198  1.00  0.00    -0.353 N 
ATOM     15  H   UNL A   1      34.107  25.553  22.576  1.00  0.00     0.167 HD
BRANCH  14  16
ATOM     16  C   UNL A   1      32.305  26.468  22.931  1.00  0.00     0.076 A 
ATOM     17  C   UNL A   1      32.565  27.811  22.601  1.00  0.00     0.067 A 
ATOM     18  C   UNL A   1      30.952  26.128  23.155  1.00  0.00     0.067 A 
ATOM     19  Cl  UNL A   1      34.087  28.304  21.933  1.00  0.00    -0.082 Cl
ATOM     20  C   UNL A   1      31.576  28.794  22.712  1.00  0.00     0.043 A 
ATOM     21  C   UNL A   1      29.969  27.110  23.324  1.00  0.00     0.043 A 
ATOM     22  Cl  UNL A   1      30.415  24.483  23.130  1.00  0.00    -0.082 Cl
ATOM     23  C   UNL A   1      30.301  28.445  23.136  1.00  0.00     0.044 A 
ATOM     24  Cl  UNL A   1      29.114  29.666  23.365  1.00  0.00    -0.084 Cl
ENDBRANCH  14  16
ENDBRANCH  13  14
ENDBRANCH   6   7
ENDBRANCH   4   6
ENDBRANCH   3   4
ENDBRANCH   2   3
ENDBRANCH   1   2
BRANCH   1  25
ATOM     25  O   UNL A   1      32.629  31.638  27.237  1.00  0.00    -0.374 OA
BRANCH  25  26
ATOM     26  C   UNL A   1      33.909  31.169  27.614  1.00  0.00     0.202 C 
BRANCH  26  27
ATOM     27  C   UNL A   1      34.856  32.347  27.842  1.00  0.00     0.261 C 
BRANCH  27  28
ATOM     28  O   UNL A   1      36.216  31.884  27.983  1.00  0.00    -0.460 OA
BRANCH  28  29
ATOM     29  C   UNL A   1      36.487  31.312  29.187  1.00  0.00     0.338 C 
ATOM     30  O   UNL A   1      36.399  31.886  30.270  1.00  0.00    -0.246 OA
BRANCH  29  31
ATOM     31  C   UNL A   1      37.175  30.005  28.997  1.00  0.00     0.060 A 
ATOM     32  C   UNL A   1      37.193  29.105  30.078  1.00  0.00     0.016 A 
ATOM     33  C   UNL A   1      38.114  29.893  27.972  1.00  0.00     0.016 A 
ATOM     34  C   UNL A   1      38.286  28.255  30.255  1.00  0.00     0.010 A 
ATOM     35  C   UNL A   1      39.251  29.152  28.223  1.00  0.00     0.010 A 
ATOM     36  C   UNL A   1      39.367  28.374  29.388  1.00  0.00    -0.014 A 
BRANCH  36  37
ATOM     37  C   UNL A   1      40.710  27.852  29.642  1.00  0.00     0.031 A 
ATOM     38  C   UNL A   1      41.094  26.549  29.072  1.00  0.00     0.074 A 
ATOM     39  C   UNL A   1      41.674  28.657  30.149  1.00  0.00     0.049 A 
ATOM     40  N   UNL A   1      42.236  25.998  29.279  1.00  0.00    -0.248 NA
ATOM     41  C   UNL A   1      40.205  25.711  28.271  1.00  0.00     0.031 C 
ATOM     42  C   UNL A   1      43.125  28.572  29.958  1.00  0.00     0.029 A 
ATOM     43  N   UNL A   1      41.539  29.743  30.999  1.00  0.00    -0.354 N 
ATOM     44  C   UNL A   1      42.372  24.977  28.380  1.00  0.00     0.074 A 
ATOM     45  C   UNL A   1      41.041  24.741  27.885  1.00  0.00     0.031 C 
ATOM     46  C   UNL A   1      43.740  29.395  30.823  1.00  0.00     0.029 A 
ATOM     47  C   UNL A   1      42.724  29.913  31.719  1.00  0.00     0.049 A 
ATOM     48  H   UNL A   1      40.735  30.306  31.081  1.00  0.00     0.167 HD
ATOM     49  C   UNL A   1      43.632  24.550  28.095  1.00  0.00     0.037 A 
ATOM     50  C   UNL A   1      42.742  29.869  33.081  1.00  0.00     0.037 A 
ATOM     51  C   UNL A   1      44.601  25.103  29.057  1.00  0.00     0.049 A 
ATOM     52  C   UNL A   1      43.399  28.574  33.534  1.00  0.00     0.074 A 
ATOM     53  C   UNL A   1      45.624  26.032  29.019  1.00  0.00     0.029 A 
ATOM     54  N   UNL A   1      44.365  24.871  30.405  1.00  0.00    -0.354 N 
ATOM     55  N   UNL A   1      43.959  27.734  32.704  1.00  0.00    -0.248 NA
ATOM     56  C   UNL A   1      43.442  28.078  34.905  1.00  0.00     0.031 C 
ATOM     57  C   UNL A   1      45.934  26.401  30.375  1.00  0.00     0.029 A 
ATOM     58  C   UNL A   1      45.137  25.660  31.234  1.00  0.00     0.049 A 
ATOM     59  H   UNL A   1      43.713  24.212  30.737  1.00  0.00     0.167 HD
ATOM     60  C   UNL A   1      44.366  26.609  33.346  1.00  0.00     0.074 A 
ATOM     61  C   UNL A   1      44.006  26.866  34.734  1.00  0.00     0.031 C 
ATOM     62  C   UNL A   1      44.942  25.559  32.683  1.00  0.00     0.037 A 
BRANCH  49  63
ATOM     63  C   UNL A   1      44.005  23.710  26.898  1.00  0.00     0.057 A 
ATOM     64  C   UNL A   1      44.687  24.294  25.815  1.00  0.00     0.134 A 
ATOM     65  C   UNL A   1      43.651  22.358  26.697  1.00  0.00     0.134 A 
ATOM     66  F   UNL A   1      45.071  25.579  25.846  1.00  0.00    -0.206 F 
ATOM     67  C   UNL A   1      44.996  23.594  24.640  1.00  0.00     0.040 A 
ATOM     68  C   UNL A   1      44.001  21.632  25.550  1.00  0.00     0.040 A 
ATOM     69  F   UNL A   1      42.897  21.674  27.565  1.00  0.00    -0.206 F 
ATOM     70  C   UNL A   1      44.667  22.252  24.508  1.00  0.00     0.006 A 
ENDBRANCH  49  63
BRANCH  50  71
ATOM     71  C   UNL A   1      41.548  30.582  33.636  1.00  0.00     0.057 A 
ATOM     72  C   UNL A   1      41.596  31.994  33.557  1.00  0.00     0.134 A 
ATOM     73  C   UNL A   1      40.278  29.993  33.607  1.00  0.00     0.134 A 
ATOM     74  F   UNL A   1      42.780  32.629  33.585  1.00  0.00    -0.206 F 
ATOM     75  C   UNL A   1      40.468  32.754  33.229  1.00  0.00     0.040 A 
ATOM     76  C   UNL A   1      39.139  30.754  33.293  1.00  0.00     0.040 A 
ATOM     77  F   UNL A   1      40.149  28.659  33.629  1.00  0.00    -0.206 F 
ATOM     78  C   UNL A   1      39.244  32.123  33.043  1.00  0.00     0.006 A 
ENDBRANCH  50  71
BRANCH  62  79
ATOM     79  C   UNL A   1      45.341  24.304  33.403  1.00  0.00     0.057 A 
ATOM     80  C   UNL A   1      46.633  24.120  33.910  1.00  0.00     0.134 A 
ATOM     81  C   UNL A   1      44.460  23.217  33.564  1.00  0.00     0.134 A 
ATOM     82  F   UNL A   1      47.591  25.039  33.711  1.00  0.00    -0.206 F 
ATOM     83  C   UNL A   1      46.990  22.981  34.636  1.00  0.00     0.040 A 
ATOM     84  C   UNL A   1      44.827  22.044  34.225  1.00  0.00     0.040 A 
ATOM     85  F   UNL A   1      43.196  23.249  33.126  1.00  0.00    -0.206 F 
ATOM     86  C   UNL A   1      46.085  21.938  34.797  1.00  0.00     0.006 A 
ENDBRANCH  62  79
ENDBRANCH  36  37
ENDBRANCH  29  31
ENDBRANCH  28  29
ENDBRANCH  27  28
ENDBRANCH  26  27
ENDBRANCH  25  26
ENDBRANCH   1  25
TORSDOF 17
ENDMDL
MODEL 3
REMARK VINA RESULT:     -11.3      3.910      8.671
REMARK SMILES Cc1ccc(Nc2c(Cl)cc(Cl)cc2Cl)c(CC(=O)OCCOCCOC(=O)c2ccc(-c3c4nc(c(-c5c(F)cccc5F)c5ccc([nH]5)c(-c5c(F)cccc5F)c5nc(c(-c6c(F)cccc6F)c6ccc3[nH]6)C=C5)C=C4)cc2)c1
REMARK SMILES IDX 22 1 21 2 20 3 18 4 19 5 17 6 16 7 1 8 2 9 3 10 83 11 4 12
REMARK SMILES IDX 5 13 6 14 7 16 8 17 14 18 9 19 10 20 13 21 15 22 11 23 12 24
REMARK SMILES IDX 23 25 24 26 25 27 26 28 27 29 28 30 29 31 30 32 82 33 31 34
REMARK SMILES IDX 81 35 32 36 33 37 34 38 75 39 35 40 80 41 74 42 76 43 36 44
REMARK SMILES IDX 79 45 73 46 72 47 37 49 63 50 46 51 62 52 47 53 50 54 61 55
REMARK SMILES IDX 77 56 48 57 49 58 60 60 78 61 51 62 38 63 39 64 44 65 40 66
REMARK SMILES IDX 41 67 43 68 45 69 42 70 64 71 65 72 70 73 66 74 67 75 69 76
REMARK SMILES IDX 71 77 68 78 52 79 53 80 58 81 54 82 55 83 57 84 59 85 56 86
REMARK H PARENT 6 15 76 48 50 59
REMARK Flexibility Score: inf
ROOT
ATOM      1  C   UNL A   1      32.099  28.954  25.191  1.00  0.00     0.202 C 
ENDROOT
BRANCH   1   2
ATOM      2  C   UNL A   1      32.223  27.845  26.221  1.00  0.00     0.261 C 
BRANCH   2   3
ATOM      3  O   UNL A   1      31.742  26.599  25.746  1.00  0.00    -0.463 OA
BRANCH   3   4
ATOM      4  C   UNL A   1      32.440  25.462  26.055  1.00  0.00     0.310 C 
ATOM      5  O   UNL A   1      32.035  24.499  26.684  1.00  0.00    -0.252 OA
BRANCH   4   6
ATOM      6  C   UNL A   1      33.857  25.566  25.512  1.00  0.00     0.160 C 
BRANCH   6   7
ATOM      7  C   UNL A   1      33.925  24.922  24.138  1.00  0.00    -0.013 A 
ATOM      8  C   UNL A   1      32.457  26.125  20.817  1.00  0.00     0.044 C 
ATOM      9  C   UNL A   1      33.078  25.239  21.856  1.00  0.00    -0.051 A 
ATOM     10  C   UNL A   1      33.157  23.864  21.671  1.00  0.00     0.005 A 
ATOM     11  C   UNL A   1      33.533  25.765  23.062  1.00  0.00     0.009 A 
ATOM     12  C   UNL A   1      33.622  23.030  22.700  1.00  0.00     0.026 A 
ATOM     13  C   UNL A   1      33.989  23.524  23.968  1.00  0.00     0.042 A 
BRANCH  13  14
ATOM     14  N   UNL A   1      34.361  22.647  25.027  1.00  0.00    -0.353 N 
ATOM     15  H   UNL A   1      34.741  23.080  25.824  1.00  0.00     0.167 HD
BRANCH  14  16
ATOM     16  C   UNL A   1      34.255  21.227  25.088  1.00  0.00     0.076 A 
ATOM     17  C   UNL A   1      35.372  20.381  24.967  1.00  0.00     0.067 A 
ATOM     18  C   UNL A   1      32.990  20.598  25.103  1.00  0.00     0.067 A 
ATOM     19  Cl  UNL A   1      36.977  20.941  25.312  1.00  0.00    -0.082 Cl
ATOM     20  C   UNL A   1      35.230  19.026  24.652  1.00  0.00     0.043 A 
ATOM     21  C   UNL A   1      32.836  19.257  24.732  1.00  0.00     0.043 A 
ATOM     22  Cl  UNL A   1      31.578  21.416  25.677  1.00  0.00    -0.082 Cl
ATOM     23  C   UNL A   1      33.962  18.489  24.472  1.00  0.00     0.044 A 
ATOM     24  Cl  UNL A   1      33.791  16.849  23.991  1.00  0.00    -0.084 Cl
ENDBRANCH  14  16
ENDBRANCH  13  14
ENDBRANCH   6   7
ENDBRANCH   4   6
ENDBRANCH   3   4
ENDBRANCH   2   3
ENDBRANCH   1   2
BRANCH   1  25
ATOM     25  O   UNL A   1      32.238  30.203  25.835  1.00  0.00    -0.374 OA
BRANCH  25  26
ATOM     26  C   UNL A   1      32.740  30.139  27.156  1.00  0.00     0.202 C 
BRANCH  26  27
ATOM     27  C   UNL A   1      33.268  31.508  27.587  1.00  0.00     0.261 C 
BRANCH  27  28
ATOM     28  O   UNL A   1      34.707  31.551  27.484  1.00  0.00    -0.460 OA
BRANCH  28  29
ATOM     29  C   UNL A   1      35.353  31.413  28.673  1.00  0.00     0.338 C 
ATOM     30  O   UNL A   1      35.462  32.298  29.518  1.00  0.00    -0.246 OA
BRANCH  29  31
ATOM     31  C   UNL A   1      36.152  30.156  28.684  1.00  0.00     0.060 A 
ATOM     32  C   UNL A   1      36.480  29.595  29.932  1.00  0.00     0.016 A 
ATOM     33  C   UNL A   1      36.894  29.831  27.549  1.00  0.00     0.016 A 
ATOM     34  C   UNL A   1      37.683  28.905  30.088  1.00  0.00     0.010 A 
ATOM     35  C   UNL A   1      38.141  29.270  27.738  1.00  0.00     0.010 A 
ATOM     36  C   UNL A   1      38.564  28.855  29.012  1.00  0.00    -0.014 A 
BRANCH  36  37
ATOM     37  C   UNL A   1      39.985  28.519  29.104  1.00  0.00     0.031 A 
ATOM     38  C   UNL A   1      40.424  27.153  28.769  1.00  0.00     0.074 A 
ATOM     39  C   UNL A   1      40.915  29.497  29.222  1.00  0.00     0.049 A 
ATOM     40  N   UNL A   1      41.644  26.762  28.862  1.00  0.00    -0.248 NA
ATOM     41  C   UNL A   1      39.521  26.079  28.363  1.00  0.00     0.031 C 
ATOM     42  C   UNL A   1      42.310  29.487  28.772  1.00  0.00     0.029 A 
ATOM     43  N   UNL A   1      40.795  30.740  29.823  1.00  0.00    -0.354 N 
ATOM     44  C   UNL A   1      41.748  25.571  28.200  1.00  0.00     0.074 A 
ATOM     45  C   UNL A   1      40.391  25.116  28.041  1.00  0.00     0.031 C 
ATOM     46  C   UNL A   1      42.958  30.540  29.296  1.00  0.00     0.029 A 
ATOM     47  C   UNL A   1      42.057  31.172  30.239  1.00  0.00     0.049 A 
ATOM     48  H   UNL A   1      39.954  31.239  29.936  1.00  0.00     0.167 HD
ATOM     49  C   UNL A   1      42.982  25.192  27.772  1.00  0.00     0.037 A 
ATOM     50  C   UNL A   1      42.316  31.456  31.547  1.00  0.00     0.037 A 
ATOM     51  C   UNL A   1      44.027  26.034  28.379  1.00  0.00     0.049 A 
ATOM     52  C   UNL A   1      43.197  30.364  32.133  1.00  0.00     0.074 A 
ATOM     53  C   UNL A   1      44.905  27.007  27.937  1.00  0.00     0.029 A 
ATOM     54  N   UNL A   1      44.059  26.113  29.765  1.00  0.00    -0.354 N 
ATOM     55  N   UNL A   1      43.705  29.398  31.414  1.00  0.00    -0.248 NA
ATOM     56  C   UNL A   1      43.539  30.214  33.544  1.00  0.00     0.031 C 
ATOM     57  C   UNL A   1      45.397  27.712  29.090  1.00  0.00     0.029 A 
ATOM     58  C   UNL A   1      44.859  27.136  30.231  1.00  0.00     0.049 A 
ATOM     59  H   UNL A   1      43.562  25.501  30.354  1.00  0.00     0.167 HD
ATOM     60  C   UNL A   1      44.354  28.496  32.193  1.00  0.00     0.074 A 
ATOM     61  C   UNL A   1      44.211  29.046  33.535  1.00  0.00     0.031 C 
ATOM     62  C   UNL A   1      44.932  27.368  31.676  1.00  0.00     0.037 A 
BRANCH  49  63
ATOM     63  C   UNL A   1      43.244  24.123  26.738  1.00  0.00     0.057 A 
ATOM     64  C   UNL A   1      43.141  22.764  27.092  1.00  0.00     0.134 A 
ATOM     65  C   UNL A   1      43.687  24.344  25.416  1.00  0.00     0.134 A 
ATOM     66  F   UNL A   1      42.753  22.393  28.321  1.00  0.00    -0.206 F 
ATOM     67  C   UNL A   1      43.444  21.721  26.206  1.00  0.00     0.040 A 
ATOM     68  C   UNL A   1      43.942  23.310  24.505  1.00  0.00     0.040 A 
ATOM     69  F   UNL A   1      43.957  25.566  24.943  1.00  0.00    -0.206 F 
ATOM     70  C   UNL A   1      43.833  21.989  24.901  1.00  0.00     0.006 A 
ENDBRANCH  49  63
BRANCH  50  71
ATOM     71  C   UNL A   1      41.157  32.182  32.158  1.00  0.00     0.057 A 
ATOM     72  C   UNL A   1      40.982  33.517  31.722  1.00  0.00     0.134 A 
ATOM     73  C   UNL A   1      40.004  31.494  32.555  1.00  0.00     0.134 A 
ATOM     74  F   UNL A   1      42.045  34.240  31.330  1.00  0.00    -0.206 F 
ATOM     75  C   UNL A   1      39.714  34.052  31.473  1.00  0.00     0.040 A 
ATOM     76  C   UNL A   1      38.727  32.033  32.322  1.00  0.00     0.040 A 
ATOM     77  F   UNL A   1      40.078  30.211  32.935  1.00  0.00    -0.206 F 
ATOM     78  C   UNL A   1      38.582  33.286  31.723  1.00  0.00     0.006 A 
ENDBRANCH  50  71
BRANCH  62  79
ATOM     79  C   UNL A   1      45.603  26.358  32.560  1.00  0.00     0.057 A 
ATOM     80  C   UNL A   1      44.876  25.525  33.419  1.00  0.00     0.134 A 
ATOM     81  C   UNL A   1      47.004  26.223  32.620  1.00  0.00     0.134 A 
ATOM     82  F   UNL A   1      43.545  25.646  33.535  1.00  0.00    -0.206 F 
ATOM     83  C   UNL A   1      45.491  24.540  34.195  1.00  0.00     0.040 A 
ATOM     84  C   UNL A   1      47.636  25.292  33.444  1.00  0.00     0.040 A 
ATOM     85  F   UNL A   1      47.826  26.957  31.859  1.00  0.00    -0.206 F 
ATOM     86  C   UNL A   1      46.877  24.419  34.209  1.00  0.00     0.006 A 
ENDBRANCH  62  79
ENDBRANCH  36  37
ENDBRANCH  29  31
ENDBRANCH  28  29
ENDBRANCH  27  28
ENDBRANCH  26  27
ENDBRANCH  25  26
ENDBRANCH   1  25
TORSDOF 17
ENDMDL
