MODEL 1
REMARK VINA RESULT:     -11.6      0.000      0.000
REMARK SMILES Cc1cc(C)cc(-c2ccc([C@@H](C)C(=O)OCCOCCOC(=O)c3ccc(-c4c5nc(c(-c6c(F)cccc6F)c6ccc([nH]6)c(-c6c(F)cccc6F)c6nc(c(-c7c(F)cccc7F)c7ccc4[nH]7)C=C6)C=C5)cc3)cc2F)c1
REMARK SMILES IDX 19 1 18 2 17 3 16 4 14 5 15 6 12 7 13 8 11 9 8 10 9 11 80 12
REMARK SMILES IDX 10 13 79 14 81 15 7 16 1 17 2 18 3 19 82 20 4 21 5 22 6 23
REMARK SMILES IDX 20 24 21 25 22 26 23 27 24 28 25 29 26 30 78 31 27 32 77 33
REMARK SMILES IDX 28 34 29 35 30 36 71 37 31 38 76 39 70 40 72 41 32 42 75 43
REMARK SMILES IDX 69 44 68 45 33 47 59 48 42 49 58 50 43 51 46 52 57 53 73 54
REMARK SMILES IDX 44 55 45 56 56 58 74 59 47 60 34 61 35 62 40 63 36 64 37 65
REMARK SMILES IDX 39 66 41 67 38 68 60 69 61 70 66 71 62 72 63 73 65 74 67 75
REMARK SMILES IDX 64 76 48 77 49 78 54 79 50 80 51 81 53 82 55 83 52 84
REMARK H PARENT 72 46 46 57
REMARK Flexibility Score: inf
ROOT
ATOM      1  O   UNL A   1      45.539  20.710  25.382  1.00  0.00    -0.374 OA
ENDROOT
BRANCH   1   2
ATOM      2  C   UNL A   1      45.218  19.570  24.588  1.00  0.00     0.202 C 
BRANCH   2   3
ATOM      3  C   UNL A   1      43.893  18.880  24.917  1.00  0.00     0.261 C 
BRANCH   3   4
ATOM      4  O   UNL A   1      42.827  19.838  25.053  1.00  0.00    -0.463 OA
BRANCH   4   5
ATOM      5  C   UNL A   1      42.269  19.932  26.289  1.00  0.00     0.313 C 
ATOM      6  O   UNL A   1      42.258  19.024  27.115  1.00  0.00    -0.252 OA
BRANCH   5   7
ATOM      7  C   UNL A   1      41.598  21.268  26.563  1.00  0.00     0.126 C 
ATOM      8  C   UNL A   1      41.928  21.708  27.988  1.00  0.00     0.025 C 
BRANCH   7   9
ATOM      9  C   UNL A   1      40.108  21.398  26.259  1.00  0.00    -0.031 A 
ATOM     10  C   UNL A   1      37.393  21.650  25.406  1.00  0.00     0.017 A 
ATOM     11  C   UNL A   1      38.059  22.707  26.049  1.00  0.00     0.012 A 
ATOM     12  C   UNL A   1      38.099  20.452  25.251  1.00  0.00     0.131 A 
ATOM     13  C   UNL A   1      39.393  22.584  26.470  1.00  0.00     0.005 A 
ATOM     14  C   UNL A   1      39.428  20.322  25.665  1.00  0.00     0.044 A 
ATOM     15  F   UNL A   1      37.523  19.398  24.652  1.00  0.00    -0.206 F 
BRANCH  10  16
ATOM     16  C   UNL A   1      36.033  21.826  24.865  1.00  0.00    -0.015 A 
ATOM     17  C   UNL A   1      32.715  19.939  24.609  1.00  0.00     0.044 C 
ATOM     18  C   UNL A   1      33.764  21.003  24.465  1.00  0.00    -0.050 A 
ATOM     19  C   UNL A   1      33.458  22.184  23.777  1.00  0.00     0.006 A 
ATOM     20  C   UNL A   1      35.050  20.832  25.000  1.00  0.00     0.012 A 
ATOM     21  C   UNL A   1      34.419  23.187  23.618  1.00  0.00    -0.050 A 
ATOM     22  C   UNL A   1      34.077  24.437  22.861  1.00  0.00     0.044 C 
ATOM     23  C   UNL A   1      35.695  23.001  24.168  1.00  0.00     0.012 A 
ENDBRANCH  10  16
ENDBRANCH   7   9
ENDBRANCH   5   7
ENDBRANCH   4   5
ENDBRANCH   3   4
ENDBRANCH   2   3
ENDBRANCH   1   2
BRANCH   1  24
ATOM     24  C   UNL A   1      45.764  21.943  24.696  1.00  0.00     0.202 C 
BRANCH  24  25
ATOM     25  C   UNL A   1      44.529  22.606  24.076  1.00  0.00     0.261 C 
BRANCH  25  26
ATOM     26  O   UNL A   1      43.864  23.484  25.002  1.00  0.00    -0.460 OA
BRANCH  26  27
ATOM     27  C   UNL A   1      44.494  24.660  25.231  1.00  0.00     0.338 C 
ATOM     28  O   UNL A   1      45.486  25.095  24.662  1.00  0.00    -0.246 OA
BRANCH  27  29
ATOM     29  C   UNL A   1      43.709  25.477  26.174  1.00  0.00     0.060 A 
ATOM     30  C   UNL A   1      43.987  26.850  26.226  1.00  0.00     0.016 A 
ATOM     31  C   UNL A   1      42.775  24.908  27.042  1.00  0.00     0.016 A 
ATOM     32  C   UNL A   1      43.359  27.653  27.175  1.00  0.00     0.010 A 
ATOM     33  C   UNL A   1      42.155  25.716  28.001  1.00  0.00     0.010 A 
ATOM     34  C   UNL A   1      42.465  27.085  28.092  1.00  0.00    -0.014 A 
BRANCH  34  35
ATOM     35  C   UNL A   1      41.949  27.903  29.216  1.00  0.00     0.031 A 
ATOM     36  C   UNL A   1      42.672  27.880  30.533  1.00  0.00     0.074 A 
ATOM     37  C   UNL A   1      40.862  28.678  29.057  1.00  0.00     0.049 A 
ATOM     38  N   UNL A   1      42.366  28.480  31.654  1.00  0.00    -0.248 NA
ATOM     39  C   UNL A   1      43.906  27.080  30.594  1.00  0.00     0.031 C 
ATOM     40  C   UNL A   1      40.105  28.824  27.815  1.00  0.00     0.029 A 
ATOM     41  N   UNL A   1      40.205  29.485  29.951  1.00  0.00    -0.354 N 
ATOM     42  C   UNL A   1      43.364  28.129  32.555  1.00  0.00     0.074 A 
ATOM     43  C   UNL A   1      44.274  27.246  31.856  1.00  0.00     0.031 C 
ATOM     44  C   UNL A   1      39.077  29.664  28.030  1.00  0.00     0.029 A 
ATOM     45  C   UNL A   1      39.085  30.086  29.430  1.00  0.00     0.049 A 
ATOM     46  H   UNL A   1      40.507  29.621  30.878  1.00  0.00     0.167 HD
ATOM     47  C   UNL A   1      43.512  28.515  33.844  1.00  0.00     0.037 A 
ATOM     48  C   UNL A   1      38.160  30.867  30.020  1.00  0.00     0.037 A 
ATOM     49  C   UNL A   1      42.612  29.399  34.535  1.00  0.00     0.049 A 
ATOM     50  C   UNL A   1      38.299  31.213  31.478  1.00  0.00     0.074 A 
ATOM     51  C   UNL A   1      42.697  29.868  35.835  1.00  0.00     0.029 A 
ATOM     52  N   UNL A   1      41.461  29.943  33.987  1.00  0.00    -0.354 N 
ATOM     53  N   UNL A   1      39.252  30.885  32.316  1.00  0.00    -0.248 NA
ATOM     54  C   UNL A   1      37.232  32.031  32.075  1.00  0.00     0.031 C 
ATOM     55  C   UNL A   1      41.573  30.656  36.089  1.00  0.00     0.029 A 
ATOM     56  C   UNL A   1      40.810  30.716  34.933  1.00  0.00     0.049 A 
ATOM     57  H   UNL A   1      41.152  29.800  33.063  1.00  0.00     0.167 HD
ATOM     58  C   UNL A   1      38.911  31.468  33.530  1.00  0.00     0.074 A 
ATOM     59  C   UNL A   1      37.668  32.179  33.319  1.00  0.00     0.031 C 
ATOM     60  C   UNL A   1      39.572  31.418  34.712  1.00  0.00     0.037 A 
BRANCH  47  61
ATOM     61  C   UNL A   1      44.684  27.974  34.605  1.00  0.00     0.057 A 
ATOM     62  C   UNL A   1      45.906  28.657  34.608  1.00  0.00     0.134 A 
ATOM     63  C   UNL A   1      44.625  26.744  35.270  1.00  0.00     0.134 A 
ATOM     64  F   UNL A   1      46.028  29.838  33.985  1.00  0.00    -0.206 F 
ATOM     65  C   UNL A   1      47.035  28.128  35.236  1.00  0.00     0.040 A 
ATOM     66  C   UNL A   1      45.741  26.214  35.918  1.00  0.00     0.040 A 
ATOM     67  F   UNL A   1      43.478  26.048  35.311  1.00  0.00    -0.206 F 
ATOM     68  C   UNL A   1      46.952  26.902  35.895  1.00  0.00     0.006 A 
ENDBRANCH  47  61
BRANCH  48  69
ATOM     69  C   UNL A   1      37.004  31.359  29.230  1.00  0.00     0.057 A 
ATOM     70  C   UNL A   1      35.912  30.530  28.945  1.00  0.00     0.134 A 
ATOM     71  C   UNL A   1      36.971  32.666  28.733  1.00  0.00     0.134 A 
ATOM     72  F   UNL A   1      35.885  29.267  29.396  1.00  0.00    -0.206 F 
ATOM     73  C   UNL A   1      34.836  30.977  28.178  1.00  0.00     0.040 A 
ATOM     74  C   UNL A   1      35.890  33.133  27.982  1.00  0.00     0.040 A 
ATOM     75  F   UNL A   1      37.976  33.514  28.994  1.00  0.00    -0.206 F 
ATOM     76  C   UNL A   1      34.823  32.283  27.696  1.00  0.00     0.006 A 
ENDBRANCH  48  69
BRANCH  60  77
ATOM     77  C   UNL A   1      38.982  32.156  35.876  1.00  0.00     0.057 A 
ATOM     78  C   UNL A   1      39.300  33.501  36.106  1.00  0.00     0.134 A 
ATOM     79  C   UNL A   1      38.177  31.510  36.821  1.00  0.00     0.134 A 
ATOM     80  F   UNL A   1      40.077  34.175  35.244  1.00  0.00    -0.206 F 
ATOM     81  C   UNL A   1      38.855  34.172  37.245  1.00  0.00     0.040 A 
ATOM     82  C   UNL A   1      37.708  32.176  37.955  1.00  0.00     0.040 A 
ATOM     83  F   UNL A   1      37.830  30.225  36.653  1.00  0.00    -0.206 F 
ATOM     84  C   UNL A   1      38.055  33.507  38.174  1.00  0.00     0.006 A 
ENDBRANCH  60  77
ENDBRANCH  34  35
ENDBRANCH  27  29
ENDBRANCH  26  27
ENDBRANCH  25  26
ENDBRANCH  24  25
ENDBRANCH   1  24
TORSDOF 16
ENDMDL
MODEL 2
REMARK VINA RESULT:     -11.6      4.890     11.540
REMARK SMILES Cc1cc(C)cc(-c2ccc([C@@H](C)C(=O)OCCOCCOC(=O)c3ccc(-c4c5nc(c(-c6c(F)cccc6F)c6ccc([nH]6)c(-c6c(F)cccc6F)c6nc(c(-c7c(F)cccc7F)c7ccc4[nH]7)C=C6)C=C5)cc3)cc2F)c1
REMARK SMILES IDX 19 1 18 2 17 3 16 4 14 5 15 6 12 7 13 8 11 9 8 10 9 11 80 12
REMARK SMILES IDX 10 13 79 14 81 15 7 16 1 17 2 18 3 19 82 20 4 21 5 22 6 23
REMARK SMILES IDX 20 24 21 25 22 26 23 27 24 28 25 29 26 30 78 31 27 32 77 33
REMARK SMILES IDX 28 34 29 35 30 36 71 37 31 38 76 39 70 40 72 41 32 42 75 43
REMARK SMILES IDX 69 44 68 45 33 47 59 48 42 49 58 50 43 51 46 52 57 53 73 54
REMARK SMILES IDX 44 55 45 56 56 58 74 59 47 60 34 61 35 62 40 63 36 64 37 65
REMARK SMILES IDX 39 66 41 67 38 68 60 69 61 70 66 71 62 72 63 73 65 74 67 75
REMARK SMILES IDX 64 76 48 77 49 78 54 79 50 80 51 81 53 82 55 83 52 84
REMARK H PARENT 72 46 46 57
REMARK Flexibility Score: inf
ROOT
ATOM      1  O   UNL A   1      32.776  35.036  28.752  1.00  0.00    -0.374 OA
ENDROOT
BRANCH   1   2
ATOM      2  C   UNL A   1      33.169  36.176  29.513  1.00  0.00     0.202 C 
BRANCH   2   3
ATOM      3  C   UNL A   1      32.727  36.184  30.978  1.00  0.00     0.261 C 
BRANCH   3   4
ATOM      4  O   UNL A   1      33.219  35.025  31.675  1.00  0.00    -0.463 OA
BRANCH   4   5
ATOM      5  C   UNL A   1      34.381  35.195  32.361  1.00  0.00     0.313 C 
ATOM      6  O   UNL A   1      34.782  36.274  32.787  1.00  0.00    -0.252 OA
BRANCH   5   7
ATOM      7  C   UNL A   1      35.194  33.921  32.522  1.00  0.00     0.126 C 
ATOM      8  C   UNL A   1      35.242  33.545  34.002  1.00  0.00     0.025 C 
BRANCH   7   9
ATOM      9  C   UNL A   1      36.576  33.865  31.877  1.00  0.00    -0.031 A 
ATOM     10  C   UNL A   1      39.152  34.054  30.656  1.00  0.00     0.017 A 
ATOM     11  C   UNL A   1      38.042  33.564  29.948  1.00  0.00     0.012 A 
ATOM     12  C   UNL A   1      38.953  34.393  31.999  1.00  0.00     0.131 A 
ATOM     13  C   UNL A   1      36.775  33.469  30.547  1.00  0.00     0.005 A 
ATOM     14  C   UNL A   1      37.695  34.305  32.603  1.00  0.00     0.044 A 
ATOM     15  F   UNL A   1      39.971  34.862  32.738  1.00  0.00    -0.206 F 
BRANCH  10  16
ATOM     16  C   UNL A   1      40.449  34.259  29.987  1.00  0.00    -0.015 A 
ATOM     17  C   UNL A   1      42.076  36.549  27.390  1.00  0.00     0.044 C 
ATOM     18  C   UNL A   1      41.874  35.457  28.399  1.00  0.00    -0.050 A 
ATOM     19  C   UNL A   1      42.933  34.590  28.698  1.00  0.00     0.006 A 
ATOM     20  C   UNL A   1      40.640  35.281  29.043  1.00  0.00     0.012 A 
ATOM     21  C   UNL A   1      42.771  33.557  29.626  1.00  0.00    -0.050 A 
ATOM     22  C   UNL A   1      43.913  32.628  29.918  1.00  0.00     0.044 C 
ATOM     23  C   UNL A   1      41.533  33.405  30.265  1.00  0.00     0.012 A 
ENDBRANCH  10  16
ENDBRANCH   7   9
ENDBRANCH   5   7
ENDBRANCH   4   5
ENDBRANCH   3   4
ENDBRANCH   2   3
ENDBRANCH   1   2
BRANCH   1  24
ATOM     24  C   UNL A   1      33.814  34.269  28.139  1.00  0.00     0.202 C 
BRANCH  24  25
ATOM     25  C   UNL A   1      33.793  32.762  28.417  1.00  0.00     0.261 C 
BRANCH  25  26
ATOM     26  O   UNL A   1      34.527  32.019  27.427  1.00  0.00    -0.460 OA
BRANCH  26  27
ATOM     27  C   UNL A   1      34.601  30.686  27.650  1.00  0.00     0.338 C 
ATOM     28  O   UNL A   1      33.842  29.820  27.238  1.00  0.00    -0.246 OA
BRANCH  27  29
ATOM     29  C   UNL A   1      35.862  30.360  28.340  1.00  0.00     0.060 A 
ATOM     30  C   UNL A   1      37.059  30.668  27.679  1.00  0.00     0.016 A 
ATOM     31  C   UNL A   1      35.881  29.703  29.572  1.00  0.00     0.016 A 
ATOM     32  C   UNL A   1      38.279  30.283  28.228  1.00  0.00     0.010 A 
ATOM     33  C   UNL A   1      37.107  29.307  30.116  1.00  0.00     0.010 A 
ATOM     34  C   UNL A   1      38.309  29.569  29.434  1.00  0.00    -0.014 A 
BRANCH  34  35
ATOM     35  C   UNL A   1      39.589  28.996  29.915  1.00  0.00     0.031 A 
ATOM     36  C   UNL A   1      40.257  29.598  31.120  1.00  0.00     0.074 A 
ATOM     37  C   UNL A   1      40.138  27.932  29.302  1.00  0.00     0.049 A 
ATOM     38  N   UNL A   1      41.398  29.283  31.676  1.00  0.00    -0.248 NA
ATOM     39  C   UNL A   1      39.543  30.698  31.787  1.00  0.00     0.031 C 
ATOM     40  C   UNL A   1      39.561  27.228  28.159  1.00  0.00     0.029 A 
ATOM     41  N   UNL A   1      41.309  27.263  29.557  1.00  0.00    -0.354 N 
ATOM     42  C   UNL A   1      41.542  30.145  32.756  1.00  0.00     0.074 A 
ATOM     43  C   UNL A   1      40.382  31.012  32.764  1.00  0.00     0.031 C 
ATOM     44  C   UNL A   1      40.388  26.230  27.802  1.00  0.00     0.029 A 
ATOM     45  C   UNL A   1      41.565  26.247  28.670  1.00  0.00     0.049 A 
ATOM     46  H   UNL A   1      41.908  27.490  30.304  1.00  0.00     0.167 HD
ATOM     47  C   UNL A   1      42.545  30.203  33.662  1.00  0.00     0.037 A 
ATOM     48  C   UNL A   1      42.636  25.438  28.555  1.00  0.00     0.037 A 
ATOM     49  C   UNL A   1      43.693  29.337  33.658  1.00  0.00     0.049 A 
ATOM     50  C   UNL A   1      43.781  25.578  29.523  1.00  0.00     0.074 A 
ATOM     51  C   UNL A   1      44.748  29.304  34.554  1.00  0.00     0.029 A 
ATOM     52  N   UNL A   1      43.941  28.356  32.711  1.00  0.00    -0.354 N 
ATOM     53  N   UNL A   1      43.900  26.388  30.546  1.00  0.00    -0.248 NA
ATOM     54  C   UNL A   1      44.941  24.697  29.317  1.00  0.00     0.031 C 
ATOM     55  C   UNL A   1      45.658  28.336  34.122  1.00  0.00     0.029 A 
ATOM     56  C   UNL A   1      45.148  27.734  32.983  1.00  0.00     0.049 A 
ATOM     57  H   UNL A   1      43.347  28.134  31.957  1.00  0.00     0.167 HD
ATOM     58  C   UNL A   1      45.136  26.105  31.115  1.00  0.00     0.074 A 
ATOM     59  C   UNL A   1      45.725  25.042  30.330  1.00  0.00     0.031 C 
ATOM     60  C   UNL A   1      45.725  26.677  32.193  1.00  0.00     0.037 A 
BRANCH  47  61
ATOM     61  C   UNL A   1      42.461  31.248  34.732  1.00  0.00     0.057 A 
ATOM     62  C   UNL A   1      41.911  30.943  35.983  1.00  0.00     0.134 A 
ATOM     63  C   UNL A   1      42.853  32.572  34.501  1.00  0.00     0.134 A 
ATOM     64  F   UNL A   1      41.511  29.694  36.265  1.00  0.00    -0.206 F 
ATOM     65  C   UNL A   1      41.741  31.921  36.964  1.00  0.00     0.040 A 
ATOM     66  C   UNL A   1      42.707  33.555  35.480  1.00  0.00     0.040 A 
ATOM     67  F   UNL A   1      43.397  32.924  33.326  1.00  0.00    -0.206 F 
ATOM     68  C   UNL A   1      42.142  33.233  36.712  1.00  0.00     0.006 A 
ENDBRANCH  47  61
BRANCH  48  69
ATOM     69  C   UNL A   1      42.684  24.434  27.464  1.00  0.00     0.057 A 
ATOM     70  C   UNL A   1      43.152  24.769  26.187  1.00  0.00     0.134 A 
ATOM     71  C   UNL A   1      42.252  23.120  27.669  1.00  0.00     0.134 A 
ATOM     72  F   UNL A   1      43.582  26.013  25.928  1.00  0.00    -0.206 F 
ATOM     73  C   UNL A   1      43.173  23.838  25.148  1.00  0.00     0.040 A 
ATOM     74  C   UNL A   1      42.286  22.172  26.645  1.00  0.00     0.040 A 
ATOM     75  F   UNL A   1      41.816  22.733  28.877  1.00  0.00    -0.206 F 
ATOM     76  C   UNL A   1      42.740  22.534  25.377  1.00  0.00     0.006 A 
ENDBRANCH  48  69
BRANCH  60  77
ATOM     77  C   UNL A   1      47.074  26.167  32.606  1.00  0.00     0.057 A 
ATOM     78  C   UNL A   1      48.237  26.642  31.988  1.00  0.00     0.134 A 
ATOM     79  C   UNL A   1      47.213  25.140  33.547  1.00  0.00     0.134 A 
ATOM     80  F   UNL A   1      48.171  27.619  31.069  1.00  0.00    -0.206 F 
ATOM     81  C   UNL A   1      49.490  26.100  32.276  1.00  0.00     0.040 A 
ATOM     82  C   UNL A   1      48.463  24.603  33.858  1.00  0.00     0.040 A 
ATOM     83  F   UNL A   1      46.137  24.649  34.179  1.00  0.00    -0.206 F 
ATOM     84  C   UNL A   1      49.604  25.076  33.214  1.00  0.00     0.006 A 
ENDBRANCH  60  77
ENDBRANCH  34  35
ENDBRANCH  27  29
ENDBRANCH  26  27
ENDBRANCH  25  26
ENDBRANCH  24  25
ENDBRANCH   1  24
TORSDOF 16
ENDMDL
MODEL 3
REMARK VINA RESULT:     -11.6      0.981      6.216
REMARK SMILES Cc1cc(C)cc(-c2ccc([C@@H](C)C(=O)OCCOCCOC(=O)c3ccc(-c4c5nc(c(-c6c(F)cccc6F)c6ccc([nH]6)c(-c6c(F)cccc6F)c6nc(c(-c7c(F)cccc7F)c7ccc4[nH]7)C=C6)C=C5)cc3)cc2F)c1
REMARK SMILES IDX 19 1 18 2 17 3 16 4 14 5 15 6 12 7 13 8 11 9 8 10 9 11 80 12
REMARK SMILES IDX 10 13 79 14 81 15 7 16 1 17 2 18 3 19 82 20 4 21 5 22 6 23
REMARK SMILES IDX 20 24 21 25 22 26 23 27 24 28 25 29 26 30 78 31 27 32 77 33
REMARK SMILES IDX 28 34 29 35 30 36 71 37 31 38 76 39 70 40 72 41 32 42 75 43
REMARK SMILES IDX 69 44 68 45 33 47 59 48 42 49 58 50 43 51 46 52 57 53 73 54
REMARK SMILES IDX 44 55 45 56 56 58 74 59 47 60 34 61 35 62 40 63 36 64 37 65
REMARK SMILES IDX 39 66 41 67 38 68 60 69 61 70 66 71 62 72 63 73 65 74 67 75
REMARK SMILES IDX 64 76 48 77 49 78 54 79 50 80 51 81 53 82 55 83 52 84
REMARK H PARENT 72 46 46 57
REMARK Flexibility Score: inf
ROOT
ATOM      1  O   UNL A   1      45.434  20.985  25.356  1.00  0.00    -0.374 OA
ENDROOT
BRANCH   1   2
ATOM      2  C   UNL A   1      45.082  19.695  24.863  1.00  0.00     0.202 C 
BRANCH   2   3
ATOM      3  C   UNL A   1      43.709  19.171  25.288  1.00  0.00     0.261 C 
BRANCH   3   4
ATOM      4  O   UNL A   1      42.751  20.241  25.386  1.00  0.00    -0.463 OA
BRANCH   4   5
ATOM      5  C   UNL A   1      42.045  20.300  26.546  1.00  0.00     0.313 C 
ATOM      6  O   UNL A   1      41.861  19.344  27.294  1.00  0.00    -0.252 OA
BRANCH   5   7
ATOM      7  C   UNL A   1      41.442  21.665  26.833  1.00  0.00     0.126 C 
ATOM      8  C   UNL A   1      41.561  21.959  28.327  1.00  0.00     0.025 C 
BRANCH   7   9
ATOM      9  C   UNL A   1      40.038  21.953  26.307  1.00  0.00    -0.031 A 
ATOM     10  C   UNL A   1      37.320  22.483  25.602  1.00  0.00     0.017 A 
ATOM     11  C   UNL A   1      37.923  21.247  25.314  1.00  0.00     0.012 A 
ATOM     12  C   UNL A   1      38.124  23.461  26.199  1.00  0.00     0.131 A 
ATOM     13  C   UNL A   1      39.258  20.985  25.659  1.00  0.00     0.005 A 
ATOM     14  C   UNL A   1      39.455  23.208  26.548  1.00  0.00     0.044 A 
ATOM     15  F   UNL A   1      37.617  24.667  26.497  1.00  0.00    -0.206 F 
BRANCH  10  16
ATOM     16  C   UNL A   1      35.887  22.709  25.343  1.00  0.00    -0.015 A 
ATOM     17  C   UNL A   1      32.611  23.225  27.251  1.00  0.00     0.044 C 
ATOM     18  C   UNL A   1      33.597  23.060  26.132  1.00  0.00    -0.050 A 
ATOM     19  C   UNL A   1      33.148  23.094  24.806  1.00  0.00     0.006 A 
ATOM     20  C   UNL A   1      34.963  22.864  26.390  1.00  0.00     0.012 A 
ATOM     21  C   UNL A   1      34.042  22.933  23.744  1.00  0.00    -0.050 A 
ATOM     22  C   UNL A   1      33.537  22.954  22.331  1.00  0.00     0.044 C 
ATOM     23  C   UNL A   1      35.403  22.748  24.022  1.00  0.00     0.012 A 
ENDBRANCH  10  16
ENDBRANCH   7   9
ENDBRANCH   5   7
ENDBRANCH   4   5
ENDBRANCH   3   4
ENDBRANCH   2   3
ENDBRANCH   1   2
BRANCH   1  24
ATOM     24  C   UNL A   1      45.622  22.025  24.394  1.00  0.00     0.202 C 
BRANCH  24  25
ATOM     25  C   UNL A   1      44.409  22.920  24.121  1.00  0.00     0.261 C 
BRANCH  25  26
ATOM     26  O   UNL A   1      43.999  23.649  25.292  1.00  0.00    -0.460 OA
BRANCH  26  27
ATOM     27  C   UNL A   1      44.448  24.924  25.359  1.00  0.00     0.338 C 
ATOM     28  O   UNL A   1      45.269  25.462  24.630  1.00  0.00    -0.246 OA
BRANCH  27  29
ATOM     29  C   UNL A   1      43.668  25.680  26.355  1.00  0.00     0.060 A 
ATOM     30  C   UNL A   1      44.028  27.017  26.579  1.00  0.00     0.016 A 
ATOM     31  C   UNL A   1      42.656  25.083  27.109  1.00  0.00     0.016 A 
ATOM     32  C   UNL A   1      43.404  27.749  27.586  1.00  0.00     0.010 A 
ATOM     33  C   UNL A   1      42.039  25.817  28.127  1.00  0.00     0.010 A 
ATOM     34  C   UNL A   1      42.429  27.143  28.390  1.00  0.00    -0.014 A 
BRANCH  34  35
ATOM     35  C   UNL A   1      41.908  27.861  29.578  1.00  0.00     0.031 A 
ATOM     36  C   UNL A   1      40.684  28.721  29.437  1.00  0.00     0.074 A 
ATOM     37  C   UNL A   1      42.503  27.727  30.776  1.00  0.00     0.049 A 
ATOM     38  N   UNL A   1      40.092  29.469  30.332  1.00  0.00    -0.248 NA
ATOM     39  C   UNL A   1      40.039  28.738  28.114  1.00  0.00     0.031 C 
ATOM     40  C   UNL A   1      43.664  26.883  31.050  1.00  0.00     0.029 A 
ATOM     41  N   UNL A   1      42.212  28.307  31.985  1.00  0.00    -0.354 N 
ATOM     42  C   UNL A   1      39.008  30.048  29.684  1.00  0.00     0.074 A 
ATOM     43  C   UNL A   1      39.037  29.583  28.313  1.00  0.00     0.031 C 
ATOM     44  C   UNL A   1      43.995  27.008  32.348  1.00  0.00     0.029 A 
ATOM     45  C   UNL A   1      43.090  27.965  32.984  1.00  0.00     0.049 A 
ATOM     46  H   UNL A   1      41.447  28.910  32.124  1.00  0.00     0.167 HD
ATOM     47  C   UNL A   1      38.071  30.884  30.187  1.00  0.00     0.037 A 
ATOM     48  C   UNL A   1      43.172  28.393  34.259  1.00  0.00     0.037 A 
ATOM     49  C   UNL A   1      38.039  31.341  31.551  1.00  0.00     0.049 A 
ATOM     50  C   UNL A   1      42.168  29.391  34.773  1.00  0.00     0.074 A 
ATOM     51  C   UNL A   1      37.110  32.168  32.159  1.00  0.00     0.029 A 
ATOM     52  N   UNL A   1      38.978  31.014  32.517  1.00  0.00    -0.354 N 
ATOM     53  N   UNL A   1      41.142  29.922  34.155  1.00  0.00    -0.248 NA
ATOM     54  C   UNL A   1      42.338  29.854  36.160  1.00  0.00     0.031 C 
ATOM     55  C   UNL A   1      37.513  32.381  33.479  1.00  0.00     0.029 A 
ATOM     56  C   UNL A   1      38.668  31.649  33.707  1.00  0.00     0.049 A 
ATOM     57  H   UNL A   1      39.749  30.418  32.377  1.00  0.00     0.167 HD
ATOM     58  C   UNL A   1      40.535  30.765  35.076  1.00  0.00     0.074 A 
ATOM     59  C   UNL A   1      41.301  30.669  36.301  1.00  0.00     0.031 C 
ATOM     60  C   UNL A   1      39.440  31.547  34.920  1.00  0.00     0.037 A 
BRANCH  47  61
ATOM     61  C   UNL A   1      37.005  31.379  29.259  1.00  0.00     0.057 A 
ATOM     62  C   UNL A   1      37.050  32.685  28.755  1.00  0.00     0.134 A 
ATOM     63  C   UNL A   1      35.897  30.592  28.923  1.00  0.00     0.134 A 
ATOM     64  F   UNL A   1      38.082  33.492  29.045  1.00  0.00    -0.206 F 
ATOM     65  C   UNL A   1      36.022  33.196  27.961  1.00  0.00     0.040 A 
ATOM     66  C   UNL A   1      34.873  31.085  28.113  1.00  0.00     0.040 A 
ATOM     67  F   UNL A   1      35.803  29.329  29.365  1.00  0.00    -0.206 F 
ATOM     68  C   UNL A   1      34.930  32.393  27.637  1.00  0.00     0.006 A 
ENDBRANCH  47  61
BRANCH  48  69
ATOM     69  C   UNL A   1      44.260  27.892  35.133  1.00  0.00     0.057 A 
ATOM     70  C   UNL A   1      45.519  28.505  35.151  1.00  0.00     0.134 A 
ATOM     71  C   UNL A   1      44.070  26.782  35.962  1.00  0.00     0.134 A 
ATOM     72  F   UNL A   1      45.762  29.575  34.379  1.00  0.00    -0.206 F 
ATOM     73  C   UNL A   1      46.557  28.021  35.948  1.00  0.00     0.040 A 
ATOM     74  C   UNL A   1      45.093  26.300  36.782  1.00  0.00     0.040 A 
ATOM     75  F   UNL A   1      42.879  26.168  36.007  1.00  0.00    -0.206 F 
ATOM     76  C   UNL A   1      46.343  26.916  36.769  1.00  0.00     0.006 A 
ENDBRANCH  48  69
BRANCH  60  77
ATOM     77  C   UNL A   1      38.984  32.359  36.095  1.00  0.00     0.057 A 
ATOM     78  C   UNL A   1      39.459  33.663  36.289  1.00  0.00     0.134 A 
ATOM     79  C   UNL A   1      38.153  31.818  37.082  1.00  0.00     0.134 A 
ATOM     80  F   UNL A   1      40.268  34.236  35.385  1.00  0.00    -0.206 F 
ATOM     81  C   UNL A   1      39.138  34.393  37.434  1.00  0.00     0.040 A 
ATOM     82  C   UNL A   1      37.809  32.545  38.223  1.00  0.00     0.040 A 
ATOM     83  F   UNL A   1      37.660  30.577  36.950  1.00  0.00    -0.206 F 
ATOM     84  C   UNL A   1      38.310  33.832  38.406  1.00  0.00     0.006 A 
ENDBRANCH  60  77
ENDBRANCH  34  35
ENDBRANCH  27  29
ENDBRANCH  26  27
ENDBRANCH  25  26
ENDBRANCH  24  25
ENDBRANCH   1  24
TORSDOF 16
ENDMDL
