MODEL 1
REMARK VINA RESULT:     -11.8      0.000      0.000
REMARK SMILES O=C(OCCOCCOC(=O)[C@]12C[NH2+]C[C@H]1CN(C(=O)c1ccccc1-n1cncn1)C2)c1ccc(-c2c3nc(c(-c4c(F)cccc4F)c4ccc([nH]4)c(-c4c(F)cccc4F)c4nc(c(-c5c(F)cccc5F)c5ccc2[nH]5)C=C4)C=C3)cc1
REMARK SMILES IDX 7 1 6 2 5 3 4 4 3 5 2 6 1 7 33 8 34 9 86 10 35 11 85 12
REMARK SMILES IDX 36 13 37 14 38 15 79 16 39 17 84 18 78 19 80 20 40 21 83 22
REMARK SMILES IDX 77 23 76 24 41 26 67 27 50 28 66 29 51 30 54 31 65 32 81 33
REMARK SMILES IDX 52 34 53 35 64 37 82 38 55 39 42 40 43 41 48 42 44 43 45 44
REMARK SMILES IDX 47 45 49 46 46 47 68 48 69 49 74 50 70 51 71 52 73 53 75 54
REMARK SMILES IDX 72 55 56 56 57 57 62 58 58 59 59 60 61 61 63 62 60 63 8 64
REMARK SMILES IDX 9 65 10 66 11 67 12 68 13 69 16 70 32 71 14 72 15 73 17 74
REMARK SMILES IDX 18 75 19 78 20 79 21 80 22 81 26 82 23 83 25 84 24 85 27 86
REMARK SMILES IDX 28 87 31 88 29 89 30 90
REMARK H PARENT 80 25 54 36 14 76 14 77
REMARK Flexibility Score: inf
ROOT
ATOM      1  C   UNL A   1      40.493  20.706  26.809  1.00  0.00     0.202 C 
ENDROOT
BRANCH   1   2
ATOM      2  O   UNL A   1      41.500  19.966  26.110  1.00  0.00    -0.374 OA
BRANCH   2   3
ATOM      3  C   UNL A   1      42.433  19.174  26.838  1.00  0.00     0.202 C 
BRANCH   3   4
ATOM      4  C   UNL A   1      43.423  18.283  26.073  1.00  0.00     0.261 C 
BRANCH   4   5
ATOM      5  O   UNL A   1      43.742  18.771  24.763  1.00  0.00    -0.460 OA
BRANCH   5   6
ATOM      6  C   UNL A   1      44.764  19.564  24.376  1.00  0.00     0.338 C 
ATOM      7  O   UNL A   1      45.634  19.078  23.654  1.00  0.00    -0.246 OA
BRANCH   6   8
ATOM      8  C   UNL A   1      44.910  20.995  24.785  1.00  0.00     0.060 A 
ATOM      9  C   UNL A   1      45.863  21.496  25.670  1.00  0.00     0.016 A 
ATOM     10  C   UNL A   1      43.972  21.894  24.249  1.00  0.00     0.016 A 
ATOM     11  C   UNL A   1      45.756  22.769  26.182  1.00  0.00     0.010 A 
ATOM     12  C   UNL A   1      43.895  23.202  24.713  1.00  0.00     0.010 A 
ATOM     13  C   UNL A   1      44.725  23.594  25.757  1.00  0.00    -0.014 A 
BRANCH  13  14
ATOM     14  C   UNL A   1      44.548  24.804  26.542  1.00  0.00     0.031 A 
ATOM     15  C   UNL A   1      45.696  25.753  26.584  1.00  0.00     0.074 A 
ATOM     16  C   UNL A   1      43.434  25.010  27.265  1.00  0.00     0.049 A 
ATOM     17  N   UNL A   1      46.370  26.166  27.612  1.00  0.00    -0.248 NA
ATOM     18  C   UNL A   1      46.210  26.233  25.293  1.00  0.00     0.031 C 
ATOM     19  C   UNL A   1      42.149  24.312  27.194  1.00  0.00     0.029 A 
ATOM     20  N   UNL A   1      43.210  25.988  28.181  1.00  0.00    -0.354 N 
ATOM     21  C   UNL A   1      47.299  27.077  27.118  1.00  0.00     0.074 A 
ATOM     22  C   UNL A   1      47.216  27.017  25.680  1.00  0.00     0.031 C 
ATOM     23  C   UNL A   1      41.218  25.040  27.846  1.00  0.00     0.029 A 
ATOM     24  C   UNL A   1      41.876  26.162  28.490  1.00  0.00     0.049 A 
ATOM     25  H   UNL A   1      43.931  26.523  28.585  1.00  0.00     0.167 HD
ATOM     26  C   UNL A   1      47.987  27.944  27.911  1.00  0.00     0.037 A 
ATOM     27  C   UNL A   1      41.344  27.216  29.145  1.00  0.00     0.037 A 
ATOM     28  C   UNL A   1      48.056  27.515  29.277  1.00  0.00     0.049 A 
ATOM     29  C   UNL A   1      42.424  27.878  29.913  1.00  0.00     0.074 A 
ATOM     30  C   UNL A   1      48.625  26.439  29.930  1.00  0.00     0.029 A 
ATOM     31  N   UNL A   1      47.230  28.104  30.200  1.00  0.00    -0.354 N 
ATOM     32  N   UNL A   1      43.007  27.358  30.958  1.00  0.00    -0.248 NA
ATOM     33  C   UNL A   1      43.150  28.966  29.275  1.00  0.00     0.031 C 
ATOM     34  C   UNL A   1      47.753  26.160  31.023  1.00  0.00     0.029 A 
ATOM     35  C   UNL A   1      46.714  27.089  30.966  1.00  0.00     0.049 A 
ATOM     36  H   UNL A   1      47.043  29.067  30.295  1.00  0.00     0.167 HD
ATOM     37  C   UNL A   1      44.330  27.770  30.875  1.00  0.00     0.074 A 
ATOM     38  C   UNL A   1      44.332  28.840  29.882  1.00  0.00     0.031 C 
ATOM     39  C   UNL A   1      45.344  27.032  31.415  1.00  0.00     0.037 A 
BRANCH  26  40
ATOM     40  C   UNL A   1      48.388  29.320  27.462  1.00  0.00     0.057 A 
ATOM     41  C   UNL A   1      49.737  29.707  27.446  1.00  0.00     0.134 A 
ATOM     42  C   UNL A   1      47.456  30.363  27.283  1.00  0.00     0.134 A 
ATOM     43  F   UNL A   1      50.714  28.811  27.654  1.00  0.00    -0.206 F 
ATOM     44  C   UNL A   1      50.128  31.042  27.278  1.00  0.00     0.040 A 
ATOM     45  C   UNL A   1      47.834  31.689  27.065  1.00  0.00     0.040 A 
ATOM     46  F   UNL A   1      46.137  30.158  27.399  1.00  0.00    -0.206 F 
ATOM     47  C   UNL A   1      49.177  32.037  27.083  1.00  0.00     0.006 A 
ENDBRANCH  26  40
BRANCH  27  48
ATOM     48  C   UNL A   1      40.046  27.849  28.844  1.00  0.00     0.057 A 
ATOM     49  C   UNL A   1      39.028  27.906  29.800  1.00  0.00     0.134 A 
ATOM     50  C   UNL A   1      39.854  28.621  27.682  1.00  0.00     0.134 A 
ATOM     51  F   UNL A   1      39.148  27.246  30.960  1.00  0.00    -0.206 F 
ATOM     52  C   UNL A   1      37.881  28.686  29.611  1.00  0.00     0.040 A 
ATOM     53  C   UNL A   1      38.711  29.391  27.474  1.00  0.00     0.040 A 
ATOM     54  F   UNL A   1      40.810  28.718  26.745  1.00  0.00    -0.206 F 
ATOM     55  C   UNL A   1      37.721  29.434  28.446  1.00  0.00     0.006 A 
ENDBRANCH  27  48
BRANCH  39  56
ATOM     56  C   UNL A   1      44.969  25.879  32.303  1.00  0.00     0.057 A 
ATOM     57  C   UNL A   1      44.728  26.017  33.678  1.00  0.00     0.134 A 
ATOM     58  C   UNL A   1      44.696  24.629  31.736  1.00  0.00     0.134 A 
ATOM     59  F   UNL A   1      44.852  27.205  34.285  1.00  0.00    -0.206 F 
ATOM     60  C   UNL A   1      44.287  24.947  34.462  1.00  0.00     0.040 A 
ATOM     61  C   UNL A   1      44.224  23.560  32.502  1.00  0.00     0.040 A 
ATOM     62  F   UNL A   1      44.836  24.442  30.414  1.00  0.00    -0.206 F 
ATOM     63  C   UNL A   1      44.030  23.713  33.873  1.00  0.00     0.006 A 
ENDBRANCH  39  56
ENDBRANCH  13  14
ENDBRANCH   6   8
ENDBRANCH   5   6
ENDBRANCH   4   5
ENDBRANCH   3   4
ENDBRANCH   2   3
ENDBRANCH   1   2
BRANCH   1  64
ATOM     64  C   UNL A   1      39.891  21.926  26.117  1.00  0.00     0.261 C 
BRANCH  64  65
ATOM     65  O   UNL A   1      38.542  21.643  25.694  1.00  0.00    -0.463 OA
BRANCH  65  66
ATOM     66  C   UNL A   1      37.674  22.699  25.655  1.00  0.00     0.320 C 
ATOM     67  O   UNL A   1      38.002  23.872  25.800  1.00  0.00    -0.251 OA
BRANCH  66  68
ATOM     68  C   UNL A   1      36.225  22.144  25.495  1.00  0.00     0.144 C 
ATOM     69  C   UNL A   1      36.952  20.770  25.224  1.00  0.00     0.281 C 
ATOM     70  C   UNL A   1      35.138  21.715  24.429  1.00  0.00     0.088 C 
ATOM     71  C   UNL A   1      36.005  23.640  25.021  1.00  0.00     0.145 C 
ATOM     72  N   UNL A   1      35.982  19.671  25.143  1.00  0.00    -0.345 N 
ATOM     73  C   UNL A   1      34.750  20.275  24.687  1.00  0.00     0.267 C 
ATOM     74  C   UNL A   1      33.944  22.650  24.591  1.00  0.00     0.130 C 
ATOM     75  N   UNL A   1      34.590  23.881  24.925  1.00  0.00    -0.337 N 
ATOM     76  H   UNL A   1      35.852  19.241  26.059  1.00  0.00     0.346 HD
ATOM     77  H   UNL A   1      36.298  18.933  24.512  1.00  0.00     0.346 HD
BRANCH  75  78
ATOM     78  C   UNL A   1      33.943  25.079  25.141  1.00  0.00     0.256 C 
ATOM     79  O   UNL A   1      34.107  25.776  26.136  1.00  0.00    -0.269 OA
BRANCH  78  80
ATOM     80  C   UNL A   1      33.025  25.553  24.069  1.00  0.00     0.065 A 
ATOM     81  C   UNL A   1      33.661  26.142  22.963  1.00  0.00     0.016 A 
ATOM     82  C   UNL A   1      31.654  25.237  24.000  1.00  0.00     0.079 A 
ATOM     83  C   UNL A   1      32.950  26.398  21.789  1.00  0.00     0.001 A 
ATOM     84  C   UNL A   1      30.957  25.482  22.801  1.00  0.00     0.029 A 
ATOM     85  C   UNL A   1      31.601  26.063  21.707  1.00  0.00     0.002 A 
BRANCH  82  86
ATOM     86  N   UNL A   1      30.957  24.592  25.053  1.00  0.00    -0.220 N 
ATOM     87  C   UNL A   1      30.358  25.108  26.178  1.00  0.00     0.225 A 
ATOM     88  N   UNL A   1      30.879  23.235  25.102  1.00  0.00    -0.155 NA
ATOM     89  N   UNL A   1      30.027  24.144  27.007  1.00  0.00    -0.223 NA
ATOM     90  C   UNL A   1      30.380  23.024  26.320  1.00  0.00     0.246 A 
ENDBRANCH  82  86
ENDBRANCH  78  80
ENDBRANCH  75  78
ENDBRANCH  66  68
ENDBRANCH  65  66
ENDBRANCH  64  65
ENDBRANCH   1  64
TORSDOF 17
ENDMDL
MODEL 2
REMARK VINA RESULT:     -11.6      1.655      2.484
REMARK SMILES O=C(OCCOCCOC(=O)[C@]12C[NH2+]C[C@H]1CN(C(=O)c1ccccc1-n1cncn1)C2)c1ccc(-c2c3nc(c(-c4c(F)cccc4F)c4ccc([nH]4)c(-c4c(F)cccc4F)c4nc(c(-c5c(F)cccc5F)c5ccc2[nH]5)C=C4)C=C3)cc1
REMARK SMILES IDX 7 1 6 2 5 3 4 4 3 5 2 6 1 7 33 8 34 9 86 10 35 11 85 12
REMARK SMILES IDX 36 13 37 14 38 15 79 16 39 17 84 18 78 19 80 20 40 21 83 22
REMARK SMILES IDX 77 23 76 24 41 26 67 27 50 28 66 29 51 30 54 31 65 32 81 33
REMARK SMILES IDX 52 34 53 35 64 37 82 38 55 39 42 40 43 41 48 42 44 43 45 44
REMARK SMILES IDX 47 45 49 46 46 47 68 48 69 49 74 50 70 51 71 52 73 53 75 54
REMARK SMILES IDX 72 55 56 56 57 57 62 58 58 59 59 60 61 61 63 62 60 63 8 64
REMARK SMILES IDX 9 65 10 66 11 67 12 68 13 69 16 70 32 71 14 72 15 73 17 74
REMARK SMILES IDX 18 75 19 78 20 79 21 80 22 81 26 82 23 83 25 84 24 85 27 86
REMARK SMILES IDX 28 87 31 88 29 89 30 90
REMARK H PARENT 80 25 54 36 14 76 14 77
REMARK Flexibility Score: inf
ROOT
ATOM      1  C   UNL A   1      39.602  22.037  26.870  1.00  0.00     0.202 C 
ENDROOT
BRANCH   1   2
ATOM      2  O   UNL A   1      40.730  21.499  26.171  1.00  0.00    -0.374 OA
BRANCH   2   3
ATOM      3  C   UNL A   1      41.694  20.721  26.871  1.00  0.00     0.202 C 
BRANCH   3   4
ATOM      4  C   UNL A   1      42.369  19.538  26.160  1.00  0.00     0.261 C 
BRANCH   4   5
ATOM      5  O   UNL A   1      43.173  19.926  25.038  1.00  0.00    -0.460 OA
BRANCH   5   6
ATOM      6  C   UNL A   1      44.319  20.640  25.019  1.00  0.00     0.338 C 
ATOM      7  O   UNL A   1      45.356  20.063  24.690  1.00  0.00    -0.246 OA
BRANCH   6   8
ATOM      8  C   UNL A   1      44.408  22.085  25.389  1.00  0.00     0.060 A 
ATOM      9  C   UNL A   1      45.166  22.615  26.431  1.00  0.00     0.016 A 
ATOM     10  C   UNL A   1      43.620  22.970  24.632  1.00  0.00     0.016 A 
ATOM     11  C   UNL A   1      44.983  23.911  26.856  1.00  0.00     0.010 A 
ATOM     12  C   UNL A   1      43.477  24.299  25.014  1.00  0.00     0.010 A 
ATOM     13  C   UNL A   1      44.080  24.728  26.191  1.00  0.00    -0.014 A 
BRANCH  13  14
ATOM     14  C   UNL A   1      43.770  25.975  26.871  1.00  0.00     0.031 A 
ATOM     15  C   UNL A   1      44.769  27.073  26.751  1.00  0.00     0.074 A 
ATOM     16  C   UNL A   1      42.675  26.096  27.641  1.00  0.00     0.049 A 
ATOM     17  N   UNL A   1      45.427  27.677  27.691  1.00  0.00    -0.248 NA
ATOM     18  C   UNL A   1      45.142  27.488  25.391  1.00  0.00     0.031 C 
ATOM     19  C   UNL A   1      41.503  25.222  27.718  1.00  0.00     0.029 A 
ATOM     20  N   UNL A   1      42.358  27.120  28.475  1.00  0.00    -0.354 N 
ATOM     21  C   UNL A   1      46.189  28.655  27.057  1.00  0.00     0.074 A 
ATOM     22  C   UNL A   1      46.042  28.439  25.639  1.00  0.00     0.031 C 
ATOM     23  C   UNL A   1      40.511  25.875  28.358  1.00  0.00     0.029 A 
ATOM     24  C   UNL A   1      41.031  27.137  28.853  1.00  0.00     0.049 A 
ATOM     25  H   UNL A   1      43.014  27.788  28.782  1.00  0.00     0.167 HD
ATOM     26  C   UNL A   1      46.783  29.683  27.720  1.00  0.00     0.037 A 
ATOM     27  C   UNL A   1      40.386  28.167  29.439  1.00  0.00     0.037 A 
ATOM     28  C   UNL A   1      46.982  29.408  29.113  1.00  0.00     0.049 A 
ATOM     29  C   UNL A   1      41.396  29.047  30.073  1.00  0.00     0.074 A 
ATOM     30  C   UNL A   1      47.733  28.493  29.825  1.00  0.00     0.029 A 
ATOM     31  N   UNL A   1      46.127  29.966  30.028  1.00  0.00    -0.354 N 
ATOM     32  N   UNL A   1      42.100  28.721  31.121  1.00  0.00    -0.248 NA
ATOM     33  C   UNL A   1      41.923  30.156  29.291  1.00  0.00     0.031 C 
ATOM     34  C   UNL A   1      46.967  28.207  30.993  1.00  0.00     0.029 A 
ATOM     35  C   UNL A   1      45.803  28.972  30.916  1.00  0.00     0.049 A 
ATOM     36  H   UNL A   1      45.808  30.898  30.046  1.00  0.00     0.167 HD
ATOM     37  C   UNL A   1      43.343  29.302  30.916  1.00  0.00     0.074 A 
ATOM     38  C   UNL A   1      43.141  30.256  29.830  1.00  0.00     0.031 C 
ATOM     39  C   UNL A   1      44.479  28.771  31.456  1.00  0.00     0.037 A 
BRANCH  26  40
ATOM     40  C   UNL A   1      46.957  31.050  27.121  1.00  0.00     0.057 A 
ATOM     41  C   UNL A   1      48.222  31.656  27.068  1.00  0.00     0.134 A 
ATOM     42  C   UNL A   1      45.869  31.894  26.821  1.00  0.00     0.134 A 
ATOM     43  F   UNL A   1      49.331  30.967  27.380  1.00  0.00    -0.206 F 
ATOM     44  C   UNL A   1      48.388  33.011  26.752  1.00  0.00     0.040 A 
ATOM     45  C   UNL A   1      46.024  33.233  26.457  1.00  0.00     0.040 A 
ATOM     46  F   UNL A   1      44.600  31.483  26.954  1.00  0.00    -0.206 F 
ATOM     47  C   UNL A   1      47.288  33.803  26.442  1.00  0.00     0.006 A 
ENDBRANCH  26  40
BRANCH  27  48
ATOM     48  C   UNL A   1      38.996  28.580  29.165  1.00  0.00     0.057 A 
ATOM     49  C   UNL A   1      38.045  28.649  30.187  1.00  0.00     0.134 A 
ATOM     50  C   UNL A   1      38.625  29.141  27.928  1.00  0.00     0.134 A 
ATOM     51  F   UNL A   1      38.331  28.188  31.413  1.00  0.00    -0.206 F 
ATOM     52  C   UNL A   1      36.792  29.242  29.990  1.00  0.00     0.040 A 
ATOM     53  C   UNL A   1      37.375  29.722  27.714  1.00  0.00     0.040 A 
ATOM     54  F   UNL A   1      39.495  29.219  26.910  1.00  0.00    -0.206 F 
ATOM     55  C   UNL A   1      36.456  29.784  28.751  1.00  0.00     0.006 A 
ENDBRANCH  27  48
BRANCH  39  56
ATOM     56  C   UNL A   1      44.320  27.672  32.469  1.00  0.00     0.057 A 
ATOM     57  C   UNL A   1      44.287  26.312  32.126  1.00  0.00     0.134 A 
ATOM     58  C   UNL A   1      44.356  27.979  33.834  1.00  0.00     0.134 A 
ATOM     59  F   UNL A   1      44.365  25.920  30.848  1.00  0.00    -0.206 F 
ATOM     60  C   UNL A   1      44.235  25.307  33.096  1.00  0.00     0.040 A 
ATOM     61  C   UNL A   1      44.337  26.983  34.814  1.00  0.00     0.040 A 
ATOM     62  F   UNL A   1      44.460  29.256  34.237  1.00  0.00    -0.206 F 
ATOM     63  C   UNL A   1      44.264  25.641  34.447  1.00  0.00     0.006 A 
ENDBRANCH  39  56
ENDBRANCH  13  14
ENDBRANCH   6   8
ENDBRANCH   5   6
ENDBRANCH   4   5
ENDBRANCH   3   4
ENDBRANCH   2   3
ENDBRANCH   1   2
BRANCH   1  64
ATOM     64  C   UNL A   1      38.698  23.015  26.125  1.00  0.00     0.261 C 
BRANCH  64  65
ATOM     65  O   UNL A   1      37.433  22.393  25.824  1.00  0.00    -0.463 OA
BRANCH  65  66
ATOM     66  C   UNL A   1      36.347  23.219  25.727  1.00  0.00     0.320 C 
ATOM     67  O   UNL A   1      36.395  24.441  25.816  1.00  0.00    -0.251 OA
BRANCH  66  68
ATOM     68  C   UNL A   1      35.066  22.339  25.585  1.00  0.00     0.144 C 
ATOM     69  C   UNL A   1      36.088  21.188  25.241  1.00  0.00     0.281 C 
ATOM     70  C   UNL A   1      34.075  21.697  24.534  1.00  0.00     0.088 C 
ATOM     71  C   UNL A   1      34.481  23.754  25.175  1.00  0.00     0.145 C 
ATOM     72  N   UNL A   1      35.405  19.892  25.144  1.00  0.00    -0.345 N 
ATOM     73  C   UNL A   1      34.049  20.199  24.746  1.00  0.00     0.267 C 
ATOM     74  C   UNL A   1      32.699  22.315  24.765  1.00  0.00     0.130 C 
ATOM     75  N   UNL A   1      33.046  23.654  25.128  1.00  0.00    -0.337 N 
ATOM     76  H   UNL A   1      35.413  19.415  26.047  1.00  0.00     0.346 HD
ATOM     77  H   UNL A   1      35.864  19.270  24.477  1.00  0.00     0.346 HD
BRANCH  75  78
ATOM     78  C   UNL A   1      32.142  24.655  25.407  1.00  0.00     0.256 C 
ATOM     79  O   UNL A   1      30.983  24.454  25.752  1.00  0.00    -0.269 OA
BRANCH  78  80
ATOM     80  C   UNL A   1      32.637  26.056  25.318  1.00  0.00     0.065 A 
ATOM     81  C   UNL A   1      32.938  26.657  26.552  1.00  0.00     0.016 A 
ATOM     82  C   UNL A   1      33.029  26.686  24.120  1.00  0.00     0.079 A 
ATOM     83  C   UNL A   1      33.641  27.863  26.601  1.00  0.00     0.001 A 
ATOM     84  C   UNL A   1      33.756  27.890  24.189  1.00  0.00     0.029 A 
ATOM     85  C   UNL A   1      34.054  28.475  25.421  1.00  0.00     0.002 A 
BRANCH  82  86
ATOM     86  N   UNL A   1      32.810  26.114  22.841  1.00  0.00    -0.220 N 
ATOM     87  C   UNL A   1      33.602  25.280  22.087  1.00  0.00     0.225 A 
ATOM     88  N   UNL A   1      31.708  26.442  22.116  1.00  0.00    -0.155 NA
ATOM     89  N   UNL A   1      33.126  25.173  20.866  1.00  0.00    -0.223 NA
ATOM     90  C   UNL A   1      31.985  25.912  20.925  1.00  0.00     0.246 A 
ENDBRANCH  82  86
ENDBRANCH  78  80
ENDBRANCH  75  78
ENDBRANCH  66  68
ENDBRANCH  65  66
ENDBRANCH  64  65
ENDBRANCH   1  64
TORSDOF 17
ENDMDL
MODEL 3
REMARK VINA RESULT:     -11.6      5.054     10.238
REMARK SMILES O=C(OCCOCCOC(=O)[C@]12C[NH2+]C[C@H]1CN(C(=O)c1ccccc1-n1cncn1)C2)c1ccc(-c2c3nc(c(-c4c(F)cccc4F)c4ccc([nH]4)c(-c4c(F)cccc4F)c4nc(c(-c5c(F)cccc5F)c5ccc2[nH]5)C=C4)C=C3)cc1
REMARK SMILES IDX 7 1 6 2 5 3 4 4 3 5 2 6 1 7 33 8 34 9 86 10 35 11 85 12
REMARK SMILES IDX 36 13 37 14 38 15 79 16 39 17 84 18 78 19 80 20 40 21 83 22
REMARK SMILES IDX 77 23 76 24 41 26 67 27 50 28 66 29 51 30 54 31 65 32 81 33
REMARK SMILES IDX 52 34 53 35 64 37 82 38 55 39 42 40 43 41 48 42 44 43 45 44
REMARK SMILES IDX 47 45 49 46 46 47 68 48 69 49 74 50 70 51 71 52 73 53 75 54
REMARK SMILES IDX 72 55 56 56 57 57 62 58 58 59 59 60 61 61 63 62 60 63 8 64
REMARK SMILES IDX 9 65 10 66 11 67 12 68 13 69 16 70 32 71 14 72 15 73 17 74
REMARK SMILES IDX 18 75 19 78 20 79 21 80 22 81 26 82 23 83 25 84 24 85 27 86
REMARK SMILES IDX 28 87 31 88 29 89 30 90
REMARK H PARENT 80 25 54 36 14 76 14 77
REMARK Flexibility Score: inf
ROOT
ATOM      1  C   UNL A   1      34.533  31.921  27.753  1.00  0.00     0.202 C 
ENDROOT
BRANCH   1   2
ATOM      2  O   UNL A   1      34.247  32.974  28.680  1.00  0.00    -0.374 OA
BRANCH   2   3
ATOM      3  C   UNL A   1      33.393  34.045  28.295  1.00  0.00     0.202 C 
BRANCH   3   4
ATOM      4  C   UNL A   1      33.308  35.298  29.181  1.00  0.00     0.261 C 
BRANCH   4   5
ATOM      5  O   UNL A   1      32.559  35.099  30.387  1.00  0.00    -0.460 OA
BRANCH   5   6
ATOM      6  C   UNL A   1      33.005  34.985  31.657  1.00  0.00     0.338 C 
ATOM      7  O   UNL A   1      32.283  35.400  32.564  1.00  0.00    -0.246 OA
BRANCH   6   8
ATOM      8  C   UNL A   1      34.330  34.402  32.026  1.00  0.00     0.060 A 
ATOM      9  C   UNL A   1      35.525  35.108  32.151  1.00  0.00     0.016 A 
ATOM     10  C   UNL A   1      34.364  33.010  32.224  1.00  0.00     0.016 A 
ATOM     11  C   UNL A   1      36.732  34.452  32.238  1.00  0.00     0.010 A 
ATOM     12  C   UNL A   1      35.573  32.343  32.376  1.00  0.00     0.010 A 
ATOM     13  C   UNL A   1      36.757  33.065  32.273  1.00  0.00    -0.014 A 
BRANCH  13  14
ATOM     14  C   UNL A   1      38.073  32.473  32.100  1.00  0.00     0.031 A 
ATOM     15  C   UNL A   1      39.038  32.638  33.224  1.00  0.00     0.074 A 
ATOM     16  C   UNL A   1      38.427  31.885  30.945  1.00  0.00     0.049 A 
ATOM     17  N   UNL A   1      40.199  33.214  33.219  1.00  0.00    -0.248 NA
ATOM     18  C   UNL A   1      38.603  32.168  34.547  1.00  0.00     0.031 C 
ATOM     19  C   UNL A   1      37.577  31.459  29.832  1.00  0.00     0.029 A 
ATOM     20  N   UNL A   1      39.664  31.462  30.576  1.00  0.00    -0.354 N 
ATOM     21  C   UNL A   1      40.713  33.050  34.502  1.00  0.00     0.074 A 
ATOM     22  C   UNL A   1      39.658  32.477  35.301  1.00  0.00     0.031 C 
ATOM     23  C   UNL A   1      38.282  30.628  29.036  1.00  0.00     0.029 A 
ATOM     24  C   UNL A   1      39.655  30.589  29.507  1.00  0.00     0.049 A 
ATOM     25  H   UNL A   1      40.489  31.751  31.028  1.00  0.00     0.167 HD
ATOM     26  C   UNL A   1      42.021  33.254  34.813  1.00  0.00     0.037 A 
ATOM     27  C   UNL A   1      40.684  29.813  29.107  1.00  0.00     0.037 A 
ATOM     28  C   UNL A   1      42.692  34.104  33.873  1.00  0.00     0.049 A 
ATOM     29  C   UNL A   1      41.938  30.398  29.636  1.00  0.00     0.074 A 
ATOM     30  C   UNL A   1      42.560  35.425  33.492  1.00  0.00     0.029 A 
ATOM     31  N   UNL A   1      43.517  33.537  32.935  1.00  0.00    -0.354 N 
ATOM     32  N   UNL A   1      42.456  31.522  29.223  1.00  0.00    -0.248 NA
ATOM     33  C   UNL A   1      42.420  29.929  30.927  1.00  0.00     0.031 C 
ATOM     34  C   UNL A   1      42.903  35.452  32.108  1.00  0.00     0.029 A 
ATOM     35  C   UNL A   1      43.226  34.146  31.740  1.00  0.00     0.049 A 
ATOM     36  H   UNL A   1      44.187  32.831  33.089  1.00  0.00     0.167 HD
ATOM     37  C   UNL A   1      43.016  32.097  30.355  1.00  0.00     0.074 A 
ATOM     38  C   UNL A   1      43.055  31.026  31.346  1.00  0.00     0.031 C 
ATOM     39  C   UNL A   1      43.148  33.451  30.478  1.00  0.00     0.037 A 
BRANCH  26  40
ATOM     40  C   UNL A   1      42.746  32.459  35.861  1.00  0.00     0.057 A 
ATOM     41  C   UNL A   1      42.985  31.087  35.686  1.00  0.00     0.134 A 
ATOM     42  C   UNL A   1      42.995  32.956  37.157  1.00  0.00     0.134 A 
ATOM     43  F   UNL A   1      42.739  30.489  34.510  1.00  0.00    -0.206 F 
ATOM     44  C   UNL A   1      43.428  30.267  36.733  1.00  0.00     0.040 A 
ATOM     45  C   UNL A   1      43.483  32.160  38.195  1.00  0.00     0.040 A 
ATOM     46  F   UNL A   1      42.693  34.216  37.499  1.00  0.00    -0.206 F 
ATOM     47  C   UNL A   1      43.682  30.803  37.990  1.00  0.00     0.006 A 
ENDBRANCH  26  40
BRANCH  27  48
ATOM     48  C   UNL A   1      40.574  28.432  28.600  1.00  0.00     0.057 A 
ATOM     49  C   UNL A   1      40.014  27.416  29.379  1.00  0.00     0.134 A 
ATOM     50  C   UNL A   1      40.808  28.124  27.246  1.00  0.00     0.134 A 
ATOM     51  F   UNL A   1      39.708  27.636  30.665  1.00  0.00    -0.206 F 
ATOM     52  C   UNL A   1      39.704  26.161  28.842  1.00  0.00     0.040 A 
ATOM     53  C   UNL A   1      40.517  26.873  26.701  1.00  0.00     0.040 A 
ATOM     54  F   UNL A   1      41.249  29.054  26.386  1.00  0.00    -0.206 F 
ATOM     55  C   UNL A   1      39.952  25.888  27.498  1.00  0.00     0.006 A 
ENDBRANCH  27  48
BRANCH  39  56
ATOM     56  C   UNL A   1      42.885  34.290  29.259  1.00  0.00     0.057 A 
ATOM     57  C   UNL A   1      41.640  34.877  28.987  1.00  0.00     0.134 A 
ATOM     58  C   UNL A   1      43.947  34.641  28.418  1.00  0.00     0.134 A 
ATOM     59  F   UNL A   1      40.595  34.690  29.803  1.00  0.00    -0.206 F 
ATOM     60  C   UNL A   1      41.449  35.731  27.896  1.00  0.00     0.040 A 
ATOM     61  C   UNL A   1      43.777  35.518  27.343  1.00  0.00     0.040 A 
ATOM     62  F   UNL A   1      45.183  34.173  28.658  1.00  0.00    -0.206 F 
ATOM     63  C   UNL A   1      42.521  36.057  27.072  1.00  0.00     0.006 A 
ENDBRANCH  39  56
ENDBRANCH  13  14
ENDBRANCH   6   8
ENDBRANCH   5   6
ENDBRANCH   4   5
ENDBRANCH   3   4
ENDBRANCH   2   3
ENDBRANCH   1   2
BRANCH   1  64
ATOM     64  C   UNL A   1      33.508  30.800  27.605  1.00  0.00     0.261 C 
BRANCH  64  65
ATOM     65  O   UNL A   1      33.915  29.888  26.565  1.00  0.00    -0.463 OA
BRANCH  65  66
ATOM     66  C   UNL A   1      33.350  28.642  26.581  1.00  0.00     0.320 C 
ATOM     67  O   UNL A   1      32.722  28.178  27.527  1.00  0.00    -0.251 OA
BRANCH  66  68
ATOM     68  C   UNL A   1      33.727  27.910  25.255  1.00  0.00     0.144 C 
ATOM     69  C   UNL A   1      33.358  29.286  24.578  1.00  0.00     0.281 C 
ATOM     70  C   UNL A   1      33.121  27.187  23.987  1.00  0.00     0.088 C 
ATOM     71  C   UNL A   1      33.217  26.682  26.119  1.00  0.00     0.145 C 
ATOM     72  N   UNL A   1      33.701  29.276  23.150  1.00  0.00    -0.345 N 
ATOM     73  C   UNL A   1      33.622  27.890  22.744  1.00  0.00     0.267 C 
ATOM     74  C   UNL A   1      33.581  25.732  24.026  1.00  0.00     0.130 C 
ATOM     75  N   UNL A   1      33.569  25.469  25.431  1.00  0.00    -0.337 N 
ATOM     76  H   UNL A   1      34.644  29.637  23.006  1.00  0.00     0.346 HD
ATOM     77  H   UNL A   1      33.072  29.866  22.605  1.00  0.00     0.346 HD
BRANCH  75  78
ATOM     78  C   UNL A   1      33.876  24.256  26.009  1.00  0.00     0.256 C 
ATOM     79  O   UNL A   1      33.208  23.728  26.891  1.00  0.00    -0.269 OA
BRANCH  78  80
ATOM     80  C   UNL A   1      35.073  23.542  25.485  1.00  0.00     0.065 A 
ATOM     81  C   UNL A   1      36.303  24.157  25.779  1.00  0.00     0.016 A 
ATOM     82  C   UNL A   1      35.053  22.236  24.958  1.00  0.00     0.079 A 
ATOM     83  C   UNL A   1      37.504  23.475  25.571  1.00  0.00     0.001 A 
ATOM     84  C   UNL A   1      36.273  21.555  24.775  1.00  0.00     0.029 A 
ATOM     85  C   UNL A   1      37.487  22.174  25.075  1.00  0.00     0.002 A 
BRANCH  82  86
ATOM     86  N   UNL A   1      33.852  21.532  24.689  1.00  0.00    -0.220 N 
ATOM     87  C   UNL A   1      33.248  20.503  25.372  1.00  0.00     0.225 A 
ATOM     88  N   UNL A   1      33.146  21.775  23.553  1.00  0.00    -0.155 NA
ATOM     89  N   UNL A   1      32.273  19.986  24.658  1.00  0.00    -0.223 NA
ATOM     90  C   UNL A   1      32.260  20.779  23.552  1.00  0.00     0.246 A 
ENDBRANCH  82  86
ENDBRANCH  78  80
ENDBRANCH  75  78
ENDBRANCH  66  68
ENDBRANCH  65  66
ENDBRANCH  64  65
ENDBRANCH   1  64
TORSDOF 17
ENDMDL
