MODEL 1
REMARK VINA RESULT:     -11.2      0.000      0.000
REMARK SMILES CC[C@](C)(NC(=O)N1Cc2ccccc2C1)C(=O)OCCOCCOC(=O)c1ccc(-c2c3nc(c(-c4c(F)cccc4F)c4ccc([nH]4)c(-c4c(F)cccc4F)c4nc(c(-c5c(F)cccc5F)c5ccc2[nH]5)C=C4)C=C3)cc1
REMARK SMILES IDX 23 1 22 2 21 3 20 4 19 5 17 6 18 7 3 8 4 9 2 10 1 11 5 12
REMARK SMILES IDX 6 13 7 15 8 16 9 17 16 18 10 19 15 20 11 21 14 22 12 23
REMARK SMILES IDX 13 24 24 25 25 26 26 27 27 28 28 29 29 30 81 31 30 32 80 33
REMARK SMILES IDX 31 34 32 35 33 36 74 37 34 38 79 39 73 40 75 41 35 42 78 43
REMARK SMILES IDX 72 44 71 45 36 47 62 48 45 49 61 50 46 51 49 52 60 53 76 54
REMARK SMILES IDX 47 55 48 56 59 58 77 59 50 60 37 61 38 62 43 63 39 64 40 65
REMARK SMILES IDX 42 66 44 67 41 68 63 69 64 70 69 71 65 72 66 73 68 74 70 75
REMARK SMILES IDX 67 76 51 77 52 78 57 79 53 80 54 81 56 82 58 83 55 84
REMARK H PARENT 5 14 75 46 49 57
REMARK Flexibility Score: inf
ROOT
ATOM      1  C   UNL A   1      31.757  31.454  26.786  1.00  0.00     0.202 C 
ENDROOT
BRANCH   1   2
ATOM      2  O   UNL A   1      32.658  30.466  27.348  1.00  0.00    -0.374 OA
BRANCH   2   3
ATOM      3  C   UNL A   1      33.742  29.811  26.645  1.00  0.00     0.202 C 
BRANCH   3   4
ATOM      4  C   UNL A   1      33.847  28.278  26.394  1.00  0.00     0.261 C 
BRANCH   4   5
ATOM      5  O   UNL A   1      33.315  27.927  25.136  1.00  0.00    -0.462 OA
BRANCH   5   6
ATOM      6  C   UNL A   1      32.208  27.174  25.058  1.00  0.00     0.331 C 
ATOM      7  O   UNL A   1      31.622  26.678  26.019  1.00  0.00    -0.249 OA
BRANCH   6   8
ATOM      8  C   UNL A   1      31.630  27.286  23.635  1.00  0.00     0.136 C 
ATOM      9  C   UNL A   1      31.620  28.836  23.424  1.00  0.00     0.047 C 
BRANCH   8  10
ATOM     10  C   UNL A   1      30.157  26.792  23.609  1.00  0.00     0.037 C 
ATOM     11  C   UNL A   1      29.126  27.862  23.229  1.00  0.00     0.007 C 
ENDBRANCH   8  10
BRANCH   8  12
ATOM     12  N   UNL A   1      32.379  26.609  22.494  1.00  0.00    -0.322 N 
ATOM     13  C   UNL A   1      32.921  25.417  22.124  1.00  0.00     0.318 C 
ATOM     14  H   UNL A   1      32.519  27.262  21.773  1.00  0.00     0.166 HD
ATOM     15  O   UNL A   1      33.313  25.353  20.956  1.00  0.00    -0.249 OA
ATOM     16  N   UNL A   1      33.110  24.378  22.997  1.00  0.00    -0.316 N 
ATOM     17  C   UNL A   1      34.472  24.008  23.336  1.00  0.00     0.157 C 
ATOM     18  C   UNL A   1      32.411  23.105  22.802  1.00  0.00     0.157 C 
ATOM     19  C   UNL A   1      34.443  22.660  23.935  1.00  0.00    -0.023 A 
ATOM     20  C   UNL A   1      33.211  22.107  23.613  1.00  0.00    -0.023 A 
ATOM     21  C   UNL A   1      35.448  21.990  24.624  1.00  0.00     0.006 A 
ATOM     22  C   UNL A   1      32.952  20.812  24.005  1.00  0.00     0.006 A 
ATOM     23  C   UNL A   1      35.178  20.696  25.041  1.00  0.00     0.000 A 
ATOM     24  C   UNL A   1      33.937  20.114  24.732  1.00  0.00     0.000 A 
ENDBRANCH   8  12
ENDBRANCH   6   8
ENDBRANCH   5   6
ENDBRANCH   4   5
ENDBRANCH   3   4
ENDBRANCH   2   3
ENDBRANCH   1   2
BRANCH   1  25
ATOM     25  C   UNL A   1      32.108  33.011  26.738  1.00  0.00     0.261 C 
BRANCH  25  26
ATOM     26  O   UNL A   1      32.121  33.675  28.077  1.00  0.00    -0.460 OA
BRANCH  26  27
ATOM     27  C   UNL A   1      33.217  34.429  28.452  1.00  0.00     0.338 C 
ATOM     28  O   UNL A   1      33.139  35.598  28.802  1.00  0.00    -0.246 OA
BRANCH  27  29
ATOM     29  C   UNL A   1      34.505  33.630  28.705  1.00  0.00     0.060 A 
ATOM     30  C   UNL A   1      34.367  32.369  29.324  1.00  0.00     0.016 A 
ATOM     31  C   UNL A   1      35.807  34.018  28.364  1.00  0.00     0.016 A 
ATOM     32  C   UNL A   1      35.464  31.496  29.529  1.00  0.00     0.010 A 
ATOM     33  C   UNL A   1      36.927  33.169  28.646  1.00  0.00     0.010 A 
ATOM     34  C   UNL A   1      36.776  31.896  29.238  1.00  0.00    -0.014 A 
BRANCH  34  35
ATOM     35  C   UNL A   1      37.935  31.128  29.851  1.00  0.00     0.031 A 
ATOM     36  C   UNL A   1      38.226  31.384  31.321  1.00  0.00     0.074 A 
ATOM     37  C   UNL A   1      38.684  30.181  29.238  1.00  0.00     0.049 A 
ATOM     38  N   UNL A   1      39.150  30.881  32.105  1.00  0.00    -0.248 NA
ATOM     39  C   UNL A   1      37.324  32.329  31.993  1.00  0.00     0.031 C 
ATOM     40  C   UNL A   1      38.506  29.693  27.874  1.00  0.00     0.029 A 
ATOM     41  N   UNL A   1      39.759  29.439  29.708  1.00  0.00    -0.354 N 
ATOM     42  C   UNL A   1      38.937  31.451  33.358  1.00  0.00     0.074 A 
ATOM     43  C   UNL A   1      37.800  32.337  33.226  1.00  0.00     0.031 C 
ATOM     44  C   UNL A   1      39.437  28.751  27.614  1.00  0.00     0.029 A 
ATOM     45  C   UNL A   1      40.312  28.581  28.779  1.00  0.00     0.049 A 
ATOM     46  H   UNL A   1      40.100  29.519  30.628  1.00  0.00     0.167 HD
ATOM     47  C   UNL A   1      39.616  31.279  34.519  1.00  0.00     0.037 A 
ATOM     48  C   UNL A   1      41.397  27.772  28.843  1.00  0.00     0.037 A 
ATOM     49  C   UNL A   1      40.773  30.440  34.686  1.00  0.00     0.049 A 
ATOM     50  C   UNL A   1      42.232  27.699  30.109  1.00  0.00     0.074 A 
ATOM     51  C   UNL A   1      41.537  30.247  35.825  1.00  0.00     0.029 A 
ATOM     52  N   UNL A   1      41.344  29.672  33.688  1.00  0.00    -0.354 N 
ATOM     53  N   UNL A   1      42.025  28.258  31.276  1.00  0.00    -0.248 NA
ATOM     54  C   UNL A   1      43.461  26.883  30.060  1.00  0.00     0.031 C 
ATOM     55  C   UNL A   1      42.607  29.406  35.500  1.00  0.00     0.029 A 
ATOM     56  C   UNL A   1      42.470  29.024  34.176  1.00  0.00     0.049 A 
ATOM     57  H   UNL A   1      41.002  29.595  32.768  1.00  0.00     0.167 HD
ATOM     58  C   UNL A   1      43.067  27.834  32.100  1.00  0.00     0.074 A 
ATOM     59  C   UNL A   1      43.903  26.963  31.307  1.00  0.00     0.031 C 
ATOM     60  C   UNL A   1      43.300  28.140  33.400  1.00  0.00     0.037 A 
BRANCH  47  61
ATOM     61  C   UNL A   1      39.155  32.090  35.696  1.00  0.00     0.057 A 
ATOM     62  C   UNL A   1      38.256  31.584  36.644  1.00  0.00     0.134 A 
ATOM     63  C   UNL A   1      39.606  33.405  35.868  1.00  0.00     0.134 A 
ATOM     64  F   UNL A   1      37.771  30.339  36.525  1.00  0.00    -0.206 F 
ATOM     65  C   UNL A   1      37.793  32.371  37.701  1.00  0.00     0.040 A 
ATOM     66  C   UNL A   1      39.173  34.191  36.937  1.00  0.00     0.040 A 
ATOM     67  F   UNL A   1      40.470  33.949  34.999  1.00  0.00    -0.206 F 
ATOM     68  C   UNL A   1      38.255  33.677  37.851  1.00  0.00     0.006 A 
ENDBRANCH  47  61
BRANCH  48  69
ATOM     69  C   UNL A   1      41.829  26.963  27.660  1.00  0.00     0.057 A 
ATOM     70  C   UNL A   1      42.602  27.518  26.630  1.00  0.00     0.134 A 
ATOM     71  C   UNL A   1      41.391  25.645  27.480  1.00  0.00     0.134 A 
ATOM     72  F   UNL A   1      43.012  28.794  26.706  1.00  0.00    -0.206 F 
ATOM     73  C   UNL A   1      42.914  26.802  25.469  1.00  0.00     0.040 A 
ATOM     74  C   UNL A   1      41.717  24.907  26.338  1.00  0.00     0.040 A 
ATOM     75  F   UNL A   1      40.620  25.055  28.405  1.00  0.00    -0.206 F 
ATOM     76  C   UNL A   1      42.475  25.489  25.324  1.00  0.00     0.006 A 
ENDBRANCH  48  69
BRANCH  60  77
ATOM     77  C   UNL A   1      44.475  27.492  34.084  1.00  0.00     0.057 A 
ATOM     78  C   UNL A   1      45.731  28.107  34.162  1.00  0.00     0.134 A 
ATOM     79  C   UNL A   1      44.331  26.250  34.720  1.00  0.00     0.134 A 
ATOM     80  F   UNL A   1      45.945  29.293  33.573  1.00  0.00    -0.206 F 
ATOM     81  C   UNL A   1      46.804  27.502  34.824  1.00  0.00     0.040 A 
ATOM     82  C   UNL A   1      45.387  25.649  35.407  1.00  0.00     0.040 A 
ATOM     83  F   UNL A   1      43.154  25.607  34.699  1.00  0.00    -0.206 F 
ATOM     84  C   UNL A   1      46.632  26.272  35.454  1.00  0.00     0.006 A 
ENDBRANCH  60  77
ENDBRANCH  34  35
ENDBRANCH  27  29
ENDBRANCH  26  27
ENDBRANCH  25  26
ENDBRANCH   1  25
TORSDOF 16
ENDMDL
MODEL 2
REMARK VINA RESULT:     -11.2      2.841      8.314
REMARK SMILES CC[C@](C)(NC(=O)N1Cc2ccccc2C1)C(=O)OCCOCCOC(=O)c1ccc(-c2c3nc(c(-c4c(F)cccc4F)c4ccc([nH]4)c(-c4c(F)cccc4F)c4nc(c(-c5c(F)cccc5F)c5ccc2[nH]5)C=C4)C=C3)cc1
REMARK SMILES IDX 23 1 22 2 21 3 20 4 19 5 17 6 18 7 3 8 4 9 2 10 1 11 5 12
REMARK SMILES IDX 6 13 7 15 8 16 9 17 16 18 10 19 15 20 11 21 14 22 12 23
REMARK SMILES IDX 13 24 24 25 25 26 26 27 27 28 28 29 29 30 81 31 30 32 80 33
REMARK SMILES IDX 31 34 32 35 33 36 74 37 34 38 79 39 73 40 75 41 35 42 78 43
REMARK SMILES IDX 72 44 71 45 36 47 62 48 45 49 61 50 46 51 49 52 60 53 76 54
REMARK SMILES IDX 47 55 48 56 59 58 77 59 50 60 37 61 38 62 43 63 39 64 40 65
REMARK SMILES IDX 42 66 44 67 41 68 63 69 64 70 69 71 65 72 66 73 68 74 70 75
REMARK SMILES IDX 67 76 51 77 52 78 57 79 53 80 54 81 56 82 58 83 55 84
REMARK H PARENT 5 14 75 46 49 57
REMARK Flexibility Score: inf
ROOT
ATOM      1  C   UNL A   1      41.763  20.768  26.818  1.00  0.00     0.202 C 
ENDROOT
BRANCH   1   2
ATOM      2  O   UNL A   1      40.474  20.437  26.240  1.00  0.00    -0.374 OA
BRANCH   2   3
ATOM      3  C   UNL A   1      39.380  21.360  26.024  1.00  0.00     0.202 C 
BRANCH   3   4
ATOM      4  C   UNL A   1      38.048  21.013  25.295  1.00  0.00     0.261 C 
BRANCH   4   5
ATOM      5  O   UNL A   1      36.989  21.830  25.744  1.00  0.00    -0.462 OA
BRANCH   5   6
ATOM      6  C   UNL A   1      36.107  22.331  24.868  1.00  0.00     0.331 C 
ATOM      7  O   UNL A   1      36.360  22.631  23.702  1.00  0.00    -0.249 OA
BRANCH   6   8
ATOM      8  C   UNL A   1      34.689  22.184  25.452  1.00  0.00     0.136 C 
ATOM      9  C   UNL A   1      34.830  22.949  26.809  1.00  0.00     0.047 C 
BRANCH   8  10
ATOM     10  C   UNL A   1      34.387  20.694  25.772  1.00  0.00     0.037 C 
ATOM     11  C   UNL A   1      33.820  19.886  24.597  1.00  0.00     0.007 C 
ENDBRANCH   8  10
BRANCH   8  12
ATOM     12  N   UNL A   1      33.517  22.746  24.657  1.00  0.00    -0.322 N 
ATOM     13  C   UNL A   1      32.867  23.910  24.381  1.00  0.00     0.318 C 
ATOM     14  H   UNL A   1      33.076  22.011  24.175  1.00  0.00     0.166 HD
ATOM     15  O   UNL A   1      32.004  23.838  23.501  1.00  0.00    -0.249 OA
ATOM     16  N   UNL A   1      33.077  25.069  25.081  1.00  0.00    -0.316 N 
ATOM     17  C   UNL A   1      31.998  25.570  25.914  1.00  0.00     0.157 C 
ATOM     18  C   UNL A   1      33.619  26.254  24.413  1.00  0.00     0.157 C 
ATOM     19  C   UNL A   1      32.285  26.982  26.229  1.00  0.00    -0.023 A 
ATOM     20  C   UNL A   1      33.253  27.404  25.328  1.00  0.00    -0.023 A 
ATOM     21  C   UNL A   1      31.681  27.805  27.174  1.00  0.00     0.006 A 
ATOM     22  C   UNL A   1      33.656  28.720  25.368  1.00  0.00     0.006 A 
ATOM     23  C   UNL A   1      32.105  29.123  27.232  1.00  0.00     0.000 A 
ATOM     24  C   UNL A   1      33.086  29.575  26.334  1.00  0.00     0.000 A 
ENDBRANCH   8  12
ENDBRANCH   6   8
ENDBRANCH   5   6
ENDBRANCH   4   5
ENDBRANCH   3   4
ENDBRANCH   2   3
ENDBRANCH   1   2
BRANCH   1  25
ATOM     25  C   UNL A   1      43.033  21.148  25.928  1.00  0.00     0.261 C 
BRANCH  25  26
ATOM     26  O   UNL A   1      42.791  22.264  24.965  1.00  0.00    -0.460 OA
BRANCH  26  27
ATOM     27  C   UNL A   1      43.454  23.465  25.134  1.00  0.00     0.338 C 
ATOM     28  O   UNL A   1      44.417  23.801  24.460  1.00  0.00    -0.246 OA
BRANCH  27  29
ATOM     29  C   UNL A   1      42.726  24.496  26.010  1.00  0.00     0.060 A 
ATOM     30  C   UNL A   1      43.435  25.670  26.345  1.00  0.00     0.016 A 
ATOM     31  C   UNL A   1      41.415  24.399  26.495  1.00  0.00     0.016 A 
ATOM     32  C   UNL A   1      42.846  26.737  27.068  1.00  0.00     0.010 A 
ATOM     33  C   UNL A   1      40.847  25.444  27.296  1.00  0.00     0.010 A 
ATOM     34  C   UNL A   1      41.554  26.628  27.601  1.00  0.00    -0.014 A 
BRANCH  34  35
ATOM     35  C   UNL A   1      41.127  27.585  28.701  1.00  0.00     0.031 A 
ATOM     36  C   UNL A   1      41.922  27.539  29.996  1.00  0.00     0.074 A 
ATOM     37  C   UNL A   1      40.159  28.527  28.614  1.00  0.00     0.049 A 
ATOM     38  N   UNL A   1      41.784  28.228  31.104  1.00  0.00    -0.248 NA
ATOM     39  C   UNL A   1      43.043  26.589  30.022  1.00  0.00     0.031 C 
ATOM     40  C   UNL A   1      39.352  28.827  27.435  1.00  0.00     0.029 A 
ATOM     41  N   UNL A   1      39.695  29.431  29.560  1.00  0.00    -0.354 N 
ATOM     42  C   UNL A   1      42.798  27.793  31.952  1.00  0.00     0.074 A 
ATOM     43  C   UNL A   1      43.539  26.780  31.232  1.00  0.00     0.031 C 
ATOM     44  C   UNL A   1      38.493  29.826  27.726  1.00  0.00     0.029 A 
ATOM     45  C   UNL A   1      38.653  30.227  29.127  1.00  0.00     0.049 A 
ATOM     46  H   UNL A   1      40.076  29.499  30.465  1.00  0.00     0.167 HD
ATOM     47  C   UNL A   1      43.098  28.175  33.218  1.00  0.00     0.037 A 
ATOM     48  C   UNL A   1      37.904  31.151  29.777  1.00  0.00     0.037 A 
ATOM     49  C   UNL A   1      42.367  29.147  33.986  1.00  0.00     0.049 A 
ATOM     50  C   UNL A   1      38.161  31.464  31.239  1.00  0.00     0.074 A 
ATOM     51  C   UNL A   1      42.589  29.557  35.291  1.00  0.00     0.029 A 
ATOM     52  N   UNL A   1      41.265  29.848  33.531  1.00  0.00    -0.354 N 
ATOM     53  N   UNL A   1      39.113  31.029  32.029  1.00  0.00    -0.248 NA
ATOM     54  C   UNL A   1      37.229  32.397  31.904  1.00  0.00     0.031 C 
ATOM     55  C   UNL A   1      41.584  30.463  35.644  1.00  0.00     0.029 A 
ATOM     56  C   UNL A   1      40.777  30.668  34.538  1.00  0.00     0.049 A 
ATOM     57  H   UNL A   1      40.884  29.777  32.626  1.00  0.00     0.167 HD
ATOM     58  C   UNL A   1      38.916  31.659  33.257  1.00  0.00     0.074 A 
ATOM     59  C   UNL A   1      37.762  32.515  33.113  1.00  0.00     0.031 C 
ATOM     60  C   UNL A   1      39.637  31.538  34.400  1.00  0.00     0.037 A 
BRANCH  47  61
ATOM     61  C   UNL A   1      44.242  27.465  33.884  1.00  0.00     0.057 A 
ATOM     62  C   UNL A   1      45.553  27.957  33.838  1.00  0.00     0.134 A 
ATOM     63  C   UNL A   1      44.027  26.259  34.563  1.00  0.00     0.134 A 
ATOM     64  F   UNL A   1      45.830  29.096  33.186  1.00  0.00    -0.206 F 
ATOM     65  C   UNL A   1      46.615  27.255  34.412  1.00  0.00     0.040 A 
ATOM     66  C   UNL A   1      45.076  25.564  35.167  1.00  0.00     0.040 A 
ATOM     67  F   UNL A   1      42.796  25.734  34.648  1.00  0.00    -0.206 F 
ATOM     68  C   UNL A   1      46.376  26.057  35.082  1.00  0.00     0.006 A 
ENDBRANCH  47  61
BRANCH  48  69
ATOM     69  C   UNL A   1      36.776  31.854  29.088  1.00  0.00     0.057 A 
ATOM     70  C   UNL A   1      36.860  33.208  28.730  1.00  0.00     0.134 A 
ATOM     71  C   UNL A   1      35.549  31.217  28.864  1.00  0.00     0.134 A 
ATOM     72  F   UNL A   1      37.985  33.900  28.965  1.00  0.00    -0.206 F 
ATOM     73  C   UNL A   1      35.770  33.900  28.190  1.00  0.00     0.040 A 
ATOM     74  C   UNL A   1      34.460  31.888  28.299  1.00  0.00     0.040 A 
ATOM     75  F   UNL A   1      35.380  29.933  29.210  1.00  0.00    -0.206 F 
ATOM     76  C   UNL A   1      34.567  33.237  27.967  1.00  0.00     0.006 A 
ENDBRANCH  48  69
BRANCH  60  77
ATOM     77  C   UNL A   1      39.247  32.386  35.581  1.00  0.00     0.057 A 
ATOM     78  C   UNL A   1      39.700  33.701  35.743  1.00  0.00     0.134 A 
ATOM     79  C   UNL A   1      38.361  31.891  36.549  1.00  0.00     0.134 A 
ATOM     80  F   UNL A   1      40.554  34.240  34.860  1.00  0.00    -0.206 F 
ATOM     81  C   UNL A   1      39.306  34.484  36.833  1.00  0.00     0.040 A 
ATOM     82  C   UNL A   1      37.938  32.672  37.627  1.00  0.00     0.040 A 
ATOM     83  F   UNL A   1      37.874  30.645  36.453  1.00  0.00    -0.206 F 
ATOM     84  C   UNL A   1      38.418  33.971  37.775  1.00  0.00     0.006 A 
ENDBRANCH  60  77
ENDBRANCH  34  35
ENDBRANCH  27  29
ENDBRANCH  26  27
ENDBRANCH  25  26
ENDBRANCH   1  25
TORSDOF 16
ENDMDL
MODEL 3
REMARK VINA RESULT:     -11.0      4.559      9.612
REMARK SMILES CC[C@](C)(NC(=O)N1Cc2ccccc2C1)C(=O)OCCOCCOC(=O)c1ccc(-c2c3nc(c(-c4c(F)cccc4F)c4ccc([nH]4)c(-c4c(F)cccc4F)c4nc(c(-c5c(F)cccc5F)c5ccc2[nH]5)C=C4)C=C3)cc1
REMARK SMILES IDX 23 1 22 2 21 3 20 4 19 5 17 6 18 7 3 8 4 9 2 10 1 11 5 12
REMARK SMILES IDX 6 13 7 15 8 16 9 17 16 18 10 19 15 20 11 21 14 22 12 23
REMARK SMILES IDX 13 24 24 25 25 26 26 27 27 28 28 29 29 30 81 31 30 32 80 33
REMARK SMILES IDX 31 34 32 35 33 36 74 37 34 38 79 39 73 40 75 41 35 42 78 43
REMARK SMILES IDX 72 44 71 45 36 47 62 48 45 49 61 50 46 51 49 52 60 53 76 54
REMARK SMILES IDX 47 55 48 56 59 58 77 59 50 60 37 61 38 62 43 63 39 64 40 65
REMARK SMILES IDX 42 66 44 67 41 68 63 69 64 70 69 71 65 72 66 73 68 74 70 75
REMARK SMILES IDX 67 76 51 77 52 78 57 79 53 80 54 81 56 82 58 83 55 84
REMARK H PARENT 5 14 75 46 49 57
REMARK Flexibility Score: inf
ROOT
ATOM      1  C   UNL A   1      38.683  20.055  24.990  1.00  0.00     0.202 C 
ENDROOT
BRANCH   1   2
ATOM      2  O   UNL A   1      38.209  21.425  24.997  1.00  0.00    -0.374 OA
BRANCH   2   3
ATOM      3  C   UNL A   1      36.888  21.868  24.605  1.00  0.00     0.202 C 
BRANCH   3   4
ATOM      4  C   UNL A   1      36.593  23.026  23.605  1.00  0.00     0.261 C 
BRANCH   4   5
ATOM      5  O   UNL A   1      35.442  23.749  23.984  1.00  0.00    -0.462 OA
BRANCH   5   6
ATOM      6  C   UNL A   1      34.441  23.927  23.110  1.00  0.00     0.331 C 
ATOM      7  O   UNL A   1      34.387  23.433  21.985  1.00  0.00    -0.249 OA
BRANCH   6   8
ATOM      8  C   UNL A   1      33.254  24.581  23.842  1.00  0.00     0.136 C 
ATOM      9  C   UNL A   1      32.327  24.974  22.645  1.00  0.00     0.047 C 
BRANCH   8  10
ATOM     10  C   UNL A   1      33.707  25.891  24.544  1.00  0.00     0.037 C 
ATOM     11  C   UNL A   1      33.545  25.893  26.070  1.00  0.00     0.007 C 
ENDBRANCH   8  10
BRANCH   8  12
ATOM     12  N   UNL A   1      32.476  23.746  24.851  1.00  0.00    -0.322 N 
ATOM     13  C   UNL A   1      32.354  22.477  25.327  1.00  0.00     0.318 C 
ATOM     14  H   UNL A   1      31.839  24.328  25.324  1.00  0.00     0.166 HD
ATOM     15  O   UNL A   1      31.626  22.350  26.315  1.00  0.00    -0.249 OA
ATOM     16  N   UNL A   1      32.919  21.390  24.713  1.00  0.00    -0.316 N 
ATOM     17  C   UNL A   1      32.035  20.415  24.101  1.00  0.00     0.157 C 
ATOM     18  C   UNL A   1      33.941  20.595  25.399  1.00  0.00     0.157 C 
ATOM     19  C   UNL A   1      32.807  19.178  23.877  1.00  0.00    -0.023 A 
ATOM     20  C   UNL A   1      33.951  19.274  24.659  1.00  0.00    -0.023 A 
ATOM     21  C   UNL A   1      32.471  18.066  23.113  1.00  0.00     0.006 A 
ATOM     22  C   UNL A   1      34.821  18.207  24.680  1.00  0.00     0.006 A 
ATOM     23  C   UNL A   1      33.360  17.002  23.114  1.00  0.00     0.000 A 
ATOM     24  C   UNL A   1      34.527  17.075  23.894  1.00  0.00     0.000 A 
ENDBRANCH   8  12
ENDBRANCH   6   8
ENDBRANCH   5   6
ENDBRANCH   4   5
ENDBRANCH   3   4
ENDBRANCH   2   3
ENDBRANCH   1   2
BRANCH   1  25
ATOM     25  C   UNL A   1      39.644  19.470  26.123  1.00  0.00     0.261 C 
BRANCH  25  26
ATOM     26  O   UNL A   1      40.918  18.889  25.602  1.00  0.00    -0.460 OA
BRANCH  26  27
ATOM     27  C   UNL A   1      42.127  19.361  26.079  1.00  0.00     0.338 C 
ATOM     28  O   UNL A   1      43.193  18.795  25.885  1.00  0.00    -0.246 OA
BRANCH  27  29
ATOM     29  C   UNL A   1      42.103  20.804  26.605  1.00  0.00     0.060 A 
ATOM     30  C   UNL A   1      41.923  21.833  25.654  1.00  0.00     0.016 A 
ATOM     31  C   UNL A   1      42.222  21.206  27.943  1.00  0.00     0.016 A 
ATOM     32  C   UNL A   1      41.791  23.195  26.020  1.00  0.00     0.010 A 
ATOM     33  C   UNL A   1      42.171  22.593  28.303  1.00  0.00     0.010 A 
ATOM     34  C   UNL A   1      41.960  23.612  27.348  1.00  0.00    -0.014 A 
BRANCH  34  35
ATOM     35  C   UNL A   1      42.233  25.079  27.632  1.00  0.00     0.031 A 
ATOM     36  C   UNL A   1      43.575  25.627  27.176  1.00  0.00     0.074 A 
ATOM     37  C   UNL A   1      41.368  25.964  28.182  1.00  0.00     0.049 A 
ATOM     38  N   UNL A   1      44.084  26.832  27.288  1.00  0.00    -0.248 NA
ATOM     39  C   UNL A   1      44.448  24.674  26.477  1.00  0.00     0.031 C 
ATOM     40  C   UNL A   1      39.992  25.687  28.585  1.00  0.00     0.029 A 
ATOM     41  N   UNL A   1      41.529  27.308  28.487  1.00  0.00    -0.354 N 
ATOM     42  C   UNL A   1      45.333  26.776  26.674  1.00  0.00     0.074 A 
ATOM     43  C   UNL A   1      45.502  25.420  26.196  1.00  0.00     0.031 C 
ATOM     44  C   UNL A   1      39.443  26.811  29.090  1.00  0.00     0.029 A 
ATOM     45  C   UNL A   1      40.431  27.895  29.085  1.00  0.00     0.049 A 
ATOM     46  H   UNL A   1      42.357  27.804  28.293  1.00  0.00     0.167 HD
ATOM     47  C   UNL A   1      46.271  27.742  26.520  1.00  0.00     0.037 A 
ATOM     48  C   UNL A   1      40.244  29.139  29.587  1.00  0.00     0.037 A 
ATOM     49  C   UNL A   1      46.161  29.089  27.011  1.00  0.00     0.049 A 
ATOM     50  C   UNL A   1      41.358  30.169  29.534  1.00  0.00     0.074 A 
ATOM     51  C   UNL A   1      47.090  30.114  26.927  1.00  0.00     0.029 A 
ATOM     52  N   UNL A   1      45.070  29.597  27.693  1.00  0.00    -0.354 N 
ATOM     53  N   UNL A   1      42.537  30.091  28.967  1.00  0.00    -0.248 NA
ATOM     54  C   UNL A   1      41.115  31.462  30.204  1.00  0.00     0.031 C 
ATOM     55  C   UNL A   1      46.584  31.224  27.611  1.00  0.00     0.029 A 
ATOM     56  C   UNL A   1      45.313  30.912  28.062  1.00  0.00     0.049 A 
ATOM     57  H   UNL A   1      44.243  29.099  27.888  1.00  0.00     0.167 HD
ATOM     58  C   UNL A   1      43.151  31.325  29.176  1.00  0.00     0.074 A 
ATOM     59  C   UNL A   1      42.216  32.141  29.915  1.00  0.00     0.031 C 
ATOM     60  C   UNL A   1      44.381  31.740  28.783  1.00  0.00     0.037 A 
BRANCH  47  61
ATOM     61  C   UNL A   1      47.551  27.338  25.845  1.00  0.00     0.057 A 
ATOM     62  C   UNL A   1      48.631  26.799  26.555  1.00  0.00     0.134 A 
ATOM     63  C   UNL A   1      47.706  27.513  24.464  1.00  0.00     0.134 A 
ATOM     64  F   UNL A   1      48.554  26.625  27.883  1.00  0.00    -0.206 F 
ATOM     65  C   UNL A   1      49.834  26.483  25.921  1.00  0.00     0.040 A 
ATOM     66  C   UNL A   1      48.893  27.173  23.814  1.00  0.00     0.040 A 
ATOM     67  F   UNL A   1      46.710  28.021  23.724  1.00  0.00    -0.206 F 
ATOM     68  C   UNL A   1      49.966  26.666  24.546  1.00  0.00     0.006 A 
ENDBRANCH  47  61
BRANCH  48  69
ATOM     69  C   UNL A   1      38.955  29.522  30.244  1.00  0.00     0.057 A 
ATOM     70  C   UNL A   1      38.699  29.229  31.592  1.00  0.00     0.134 A 
ATOM     71  C   UNL A   1      37.907  30.097  29.514  1.00  0.00     0.134 A 
ATOM     72  F   UNL A   1      39.635  28.627  32.342  1.00  0.00    -0.206 F 
ATOM     73  C   UNL A   1      37.455  29.481  32.182  1.00  0.00     0.040 A 
ATOM     74  C   UNL A   1      36.668  30.380  30.096  1.00  0.00     0.040 A 
ATOM     75  F   UNL A   1      38.064  30.375  28.211  1.00  0.00    -0.206 F 
ATOM     76  C   UNL A   1      36.437  30.065  31.433  1.00  0.00     0.006 A 
ENDBRANCH  48  69
BRANCH  60  77
ATOM     77  C   UNL A   1      44.784  33.159  29.087  1.00  0.00     0.057 A 
ATOM     78  C   UNL A   1      45.492  33.507  30.244  1.00  0.00     0.134 A 
ATOM     79  C   UNL A   1      44.501  34.188  28.177  1.00  0.00     0.134 A 
ATOM     80  F   UNL A   1      45.794  32.576  31.162  1.00  0.00    -0.206 F 
ATOM     81  C   UNL A   1      45.881  34.826  30.497  1.00  0.00     0.040 A 
ATOM     82  C   UNL A   1      44.908  35.504  28.405  1.00  0.00     0.040 A 
ATOM     83  F   UNL A   1      43.838  33.929  27.040  1.00  0.00    -0.206 F 
ATOM     84  C   UNL A   1      45.594  35.828  29.573  1.00  0.00     0.006 A 
ENDBRANCH  60  77
ENDBRANCH  34  35
ENDBRANCH  27  29
ENDBRANCH  26  27
ENDBRANCH  25  26
ENDBRANCH   1  25
TORSDOF 16
ENDMDL
