MODEL 1
REMARK VINA RESULT:     -11.6      0.000      0.000
REMARK SMILES COc1ccc(C[N@@H+]2C[C@@H](C(=O)OCCOCCOC(=O)c3ccc(-c4c5nc(c(-c6c(F)cccc6F)c6ccc([nH]6)c(-c6c(F)cccc6F)c6nc(c(-c7c(F)cccc7F)c7ccc4[nH]7)C=C6)C=C5)cc3)[C@H](c3ccccc3OC)C2)c(OC)c1
REMARK SMILES IDX 15 1 14 2 13 3 11 4 12 5 10 6 8 7 9 8 85 9 76 11 7 12 6 13
REMARK SMILES IDX 3 14 4 15 89 16 5 17 86 18 2 19 1 20 87 21 88 22 77 23 78 24
REMARK SMILES IDX 82 25 79 26 81 27 80 28 83 29 84 30 16 31 17 32 18 33 19 34
REMARK SMILES IDX 20 35 21 36 22 37 23 38 75 39 24 40 74 41 25 42 26 43 27 44
REMARK SMILES IDX 68 45 28 46 73 47 67 48 69 49 29 50 72 51 66 52 65 53 30 55
REMARK SMILES IDX 56 56 39 57 55 58 40 59 43 60 54 61 70 62 41 63 42 64 53 66
REMARK SMILES IDX 71 67 44 68 31 69 32 70 37 71 33 72 34 73 36 74 38 75 35 76
REMARK SMILES IDX 57 77 58 78 63 79 59 80 60 81 62 82 64 83 61 84 45 85 46 86
REMARK SMILES IDX 51 87 47 88 48 89 50 90 52 91 49 92
REMARK H PARENT 8 10 69 54 43 65
REMARK Flexibility Score: inf
ROOT
ATOM      1  C   UNL A   1      33.952  32.410  28.293  1.00  0.00     0.202 C 
ENDROOT
BRANCH   1   2
ATOM      2  C   UNL A   1      34.126  31.130  27.475  1.00  0.00     0.261 C 
BRANCH   2   3
ATOM      3  O   UNL A   1      33.037  30.203  27.468  1.00  0.00    -0.463 OA
BRANCH   3   4
ATOM      4  C   UNL A   1      32.055  30.479  26.562  1.00  0.00     0.315 C 
ATOM      5  O   UNL A   1      31.529  31.574  26.414  1.00  0.00    -0.252 OA
BRANCH   4   6
ATOM      6  C   UNL A   1      31.744  29.273  25.731  1.00  0.00     0.167 C 
ATOM      7  N   UNL A   1      33.092  27.658  24.597  1.00  0.00    -0.330 N 
ATOM      8  C   UNL A   1      33.037  28.457  25.801  1.00  0.00     0.278 C 
ATOM      9  C   UNL A   1      32.448  28.488  23.566  1.00  0.00     0.272 C 
ATOM     10  H   UNL A   1      34.051  27.451  24.317  1.00  0.00     0.348 HD
ATOM     11  C   UNL A   1      31.485  29.560  24.231  1.00  0.00     0.098 C 
BRANCH   7  12
ATOM     12  C   UNL A   1      32.645  26.259  24.737  1.00  0.00     0.303 C 
BRANCH  12  13
ATOM     13  C   UNL A   1      33.702  25.180  24.625  1.00  0.00     0.048 A 
ATOM     14  C   UNL A   1      35.291  22.874  24.440  1.00  0.00     0.122 A 
ATOM     15  C   UNL A   1      34.894  23.348  25.686  1.00  0.00     0.047 A 
ATOM     16  C   UNL A   1      34.990  23.613  23.292  1.00  0.00     0.093 A 
ATOM     17  C   UNL A   1      34.135  24.510  25.782  1.00  0.00     0.017 A 
ATOM     18  C   UNL A   1      34.216  24.778  23.381  1.00  0.00     0.131 A 
BRANCH  14  19
ATOM     19  O   UNL A   1      35.905  21.653  24.472  1.00  0.00    -0.497 OA
ATOM     20  C   UNL A   1      35.190  20.600  25.100  1.00  0.00     0.278 C 
ENDBRANCH  14  19
BRANCH  18  21
ATOM     21  O   UNL A   1      33.858  25.557  22.310  1.00  0.00    -0.496 OA
ATOM     22  C   UNL A   1      32.706  25.170  21.572  1.00  0.00     0.278 C 
ENDBRANCH  18  21
ENDBRANCH  12  13
ENDBRANCH   7  12
BRANCH  11  23
ATOM     23  C   UNL A   1      30.000  29.617  23.765  1.00  0.00     0.004 A 
ATOM     24  C   UNL A   1      29.418  28.408  23.297  1.00  0.00     0.008 A 
ATOM     25  C   UNL A   1      29.129  30.733  23.685  1.00  0.00     0.122 A 
ATOM     26  C   UNL A   1      28.075  28.265  22.915  1.00  0.00     0.001 A 
ATOM     27  C   UNL A   1      27.759  30.555  23.349  1.00  0.00     0.047 A 
ATOM     28  C   UNL A   1      27.223  29.337  22.985  1.00  0.00     0.004 A 
BRANCH  25  29
ATOM     29  O   UNL A   1      29.269  32.078  23.805  1.00  0.00    -0.496 OA
ATOM     30  C   UNL A   1      28.866  33.016  22.859  1.00  0.00     0.278 C 
ENDBRANCH  25  29
ENDBRANCH  11  23
ENDBRANCH   4   6
ENDBRANCH   3   4
ENDBRANCH   2   3
ENDBRANCH   1   2
BRANCH   1  31
ATOM     31  O   UNL A   1      34.830  32.684  29.375  1.00  0.00    -0.374 OA
BRANCH  31  32
ATOM     32  C   UNL A   1      34.433  33.674  30.323  1.00  0.00     0.202 C 
BRANCH  32  33
ATOM     33  C   UNL A   1      34.629  33.353  31.803  1.00  0.00     0.261 C 
BRANCH  33  34
ATOM     34  O   UNL A   1      35.073  31.999  31.989  1.00  0.00    -0.460 OA
BRANCH  34  35
ATOM     35  C   UNL A   1      36.235  31.887  32.668  1.00  0.00     0.338 C 
ATOM     36  O   UNL A   1      36.457  32.240  33.822  1.00  0.00    -0.246 OA
BRANCH  35  37
ATOM     37  C   UNL A   1      37.191  31.075  31.902  1.00  0.00     0.060 A 
ATOM     38  C   UNL A   1      38.254  30.501  32.616  1.00  0.00     0.016 A 
ATOM     39  C   UNL A   1      37.101  30.934  30.516  1.00  0.00     0.016 A 
ATOM     40  C   UNL A   1      39.285  29.873  31.935  1.00  0.00     0.010 A 
ATOM     41  C   UNL A   1      38.144  30.309  29.830  1.00  0.00     0.010 A 
ATOM     42  C   UNL A   1      39.263  29.834  30.536  1.00  0.00    -0.014 A 
BRANCH  42  43
ATOM     43  C   UNL A   1      40.513  29.485  29.829  1.00  0.00     0.031 A 
ATOM     44  C   UNL A   1      40.644  28.106  29.243  1.00  0.00     0.074 A 
ATOM     45  C   UNL A   1      41.466  30.411  29.637  1.00  0.00     0.049 A 
ATOM     46  N   UNL A   1      41.625  27.587  28.552  1.00  0.00    -0.248 NA
ATOM     47  C   UNL A   1      39.513  27.188  29.465  1.00  0.00     0.031 C 
ATOM     48  C   UNL A   1      41.410  31.789  30.120  1.00  0.00     0.029 A 
ATOM     49  N   UNL A   1      42.662  30.328  28.976  1.00  0.00    -0.354 N 
ATOM     50  C   UNL A   1      41.232  26.286  28.261  1.00  0.00     0.074 A 
ATOM     51  C   UNL A   1      39.942  26.081  28.879  1.00  0.00     0.031 C 
ATOM     52  C   UNL A   1      42.529  32.428  29.736  1.00  0.00     0.029 A 
ATOM     53  C   UNL A   1      43.385  31.494  29.011  1.00  0.00     0.049 A 
ATOM     54  H   UNL A   1      42.972  29.513  28.520  1.00  0.00     0.167 HD
ATOM     55  C   UNL A   1      41.888  25.352  27.531  1.00  0.00     0.037 A 
ATOM     56  C   UNL A   1      44.610  31.763  28.522  1.00  0.00     0.037 A 
ATOM     57  C   UNL A   1      43.172  25.571  26.920  1.00  0.00     0.049 A 
ATOM     58  C   UNL A   1      45.348  30.686  27.774  1.00  0.00     0.074 A 
ATOM     59  C   UNL A   1      43.922  24.701  26.151  1.00  0.00     0.029 A 
ATOM     60  N   UNL A   1      43.900  26.748  27.019  1.00  0.00    -0.354 N 
ATOM     61  N   UNL A   1      44.964  29.464  27.486  1.00  0.00    -0.248 NA
ATOM     62  C   UNL A   1      46.687  31.026  27.277  1.00  0.00     0.031 C 
ATOM     63  C   UNL A   1      45.129  25.333  25.831  1.00  0.00     0.029 A 
ATOM     64  C   UNL A   1      45.105  26.617  26.349  1.00  0.00     0.049 A 
ATOM     65  H   UNL A   1      43.604  27.558  27.494  1.00  0.00     0.167 HD
ATOM     66  C   UNL A   1      46.001  28.898  26.758  1.00  0.00     0.074 A 
ATOM     67  C   UNL A   1      47.021  29.921  26.627  1.00  0.00     0.031 C 
ATOM     68  C   UNL A   1      46.107  27.649  26.241  1.00  0.00     0.037 A 
BRANCH  55  69
ATOM     69  C   UNL A   1      41.241  24.004  27.387  1.00  0.00     0.057 A 
ATOM     70  C   UNL A   1      41.685  22.884  28.102  1.00  0.00     0.134 A 
ATOM     71  C   UNL A   1      40.142  23.830  26.536  1.00  0.00     0.134 A 
ATOM     72  F   UNL A   1      42.745  22.975  28.921  1.00  0.00    -0.206 F 
ATOM     73  C   UNL A   1      41.075  21.636  27.958  1.00  0.00     0.040 A 
ATOM     74  C   UNL A   1      39.506  22.595  26.405  1.00  0.00     0.040 A 
ATOM     75  F   UNL A   1      39.665  24.861  25.821  1.00  0.00    -0.206 F 
ATOM     76  C   UNL A   1      39.977  21.491  27.113  1.00  0.00     0.006 A 
ENDBRANCH  55  69
BRANCH  56  77
ATOM     77  C   UNL A   1      45.216  33.101  28.734  1.00  0.00     0.057 A 
ATOM     78  C   UNL A   1      44.977  34.159  27.850  1.00  0.00     0.134 A 
ATOM     79  C   UNL A   1      46.059  33.351  29.824  1.00  0.00     0.134 A 
ATOM     80  F   UNL A   1      44.194  33.977  26.776  1.00  0.00    -0.206 F 
ATOM     81  C   UNL A   1      45.567  35.411  28.031  1.00  0.00     0.040 A 
ATOM     82  C   UNL A   1      46.634  34.605  30.033  1.00  0.00     0.040 A 
ATOM     83  F   UNL A   1      46.326  32.380  30.711  1.00  0.00    -0.206 F 
ATOM     84  C   UNL A   1      46.394  35.638  29.130  1.00  0.00     0.006 A 
ENDBRANCH  56  77
BRANCH  68  85
ATOM     85  C   UNL A   1      47.358  27.333  25.473  1.00  0.00     0.057 A 
ATOM     86  C   UNL A   1      48.476  26.753  26.085  1.00  0.00     0.134 A 
ATOM     87  C   UNL A   1      47.439  27.601  24.100  1.00  0.00     0.134 A 
ATOM     88  F   UNL A   1      48.469  26.482  27.400  1.00  0.00    -0.206 F 
ATOM     89  C   UNL A   1      49.643  26.482  25.368  1.00  0.00     0.040 A 
ATOM     90  C   UNL A   1      48.588  27.306  23.366  1.00  0.00     0.040 A 
ATOM     91  F   UNL A   1      46.400  28.145  23.449  1.00  0.00    -0.206 F 
ATOM     92  C   UNL A   1      49.698  26.755  24.002  1.00  0.00     0.006 A 
ENDBRANCH  68  85
ENDBRANCH  42  43
ENDBRANCH  35  37
ENDBRANCH  34  35
ENDBRANCH  33  34
ENDBRANCH  32  33
ENDBRANCH  31  32
ENDBRANCH   1  31
TORSDOF 20
ENDMDL
MODEL 2
REMARK VINA RESULT:     -11.1      2.741      7.180
REMARK SMILES COc1ccc(C[N@@H+]2C[C@@H](C(=O)OCCOCCOC(=O)c3ccc(-c4c5nc(c(-c6c(F)cccc6F)c6ccc([nH]6)c(-c6c(F)cccc6F)c6nc(c(-c7c(F)cccc7F)c7ccc4[nH]7)C=C6)C=C5)cc3)[C@H](c3ccccc3OC)C2)c(OC)c1
REMARK SMILES IDX 15 1 14 2 13 3 11 4 12 5 10 6 8 7 9 8 85 9 76 11 7 12 6 13
REMARK SMILES IDX 3 14 4 15 89 16 5 17 86 18 2 19 1 20 87 21 88 22 77 23 78 24
REMARK SMILES IDX 82 25 79 26 81 27 80 28 83 29 84 30 16 31 17 32 18 33 19 34
REMARK SMILES IDX 20 35 21 36 22 37 23 38 75 39 24 40 74 41 25 42 26 43 27 44
REMARK SMILES IDX 68 45 28 46 73 47 67 48 69 49 29 50 72 51 66 52 65 53 30 55
REMARK SMILES IDX 56 56 39 57 55 58 40 59 43 60 54 61 70 62 41 63 42 64 53 66
REMARK SMILES IDX 71 67 44 68 31 69 32 70 37 71 33 72 34 73 36 74 38 75 35 76
REMARK SMILES IDX 57 77 58 78 63 79 59 80 60 81 62 82 64 83 61 84 45 85 46 86
REMARK SMILES IDX 51 87 47 88 48 89 50 90 52 91 49 92
REMARK H PARENT 8 10 69 54 43 65
REMARK Flexibility Score: inf
ROOT
ATOM      1  C   UNL A   1      31.585  28.619  27.335  1.00  0.00     0.202 C 
ENDROOT
BRANCH   1   2
ATOM      2  C   UNL A   1      31.034  27.310  26.770  1.00  0.00     0.261 C 
BRANCH   2   3
ATOM      3  O   UNL A   1      31.740  26.107  27.091  1.00  0.00    -0.463 OA
BRANCH   3   4
ATOM      4  C   UNL A   1      31.254  24.981  26.495  1.00  0.00     0.315 C 
ATOM      5  O   UNL A   1      30.185  24.452  26.767  1.00  0.00    -0.252 OA
BRANCH   4   6
ATOM      6  C   UNL A   1      32.182  24.507  25.420  1.00  0.00     0.167 C 
ATOM      7  N   UNL A   1      33.846  22.795  25.312  1.00  0.00    -0.330 N 
ATOM      8  C   UNL A   1      32.545  23.089  25.869  1.00  0.00     0.278 C 
ATOM      9  C   UNL A   1      34.550  24.088  25.299  1.00  0.00     0.272 C 
ATOM     10  H   UNL A   1      34.367  22.130  25.883  1.00  0.00     0.348 HD
ATOM     11  C   UNL A   1      33.515  25.290  25.314  1.00  0.00     0.098 C 
BRANCH   7  12
ATOM     12  C   UNL A   1      33.844  21.997  24.071  1.00  0.00     0.303 C 
BRANCH  12  13
ATOM     13  C   UNL A   1      33.704  20.495  24.214  1.00  0.00     0.048 A 
ATOM     14  C   UNL A   1      33.582  17.698  24.020  1.00  0.00     0.122 A 
ATOM     15  C   UNL A   1      32.502  18.474  23.609  1.00  0.00     0.047 A 
ATOM     16  C   UNL A   1      34.678  18.311  24.632  1.00  0.00     0.093 A 
ATOM     17  C   UNL A   1      32.546  19.858  23.737  1.00  0.00     0.017 A 
ATOM     18  C   UNL A   1      34.735  19.707  24.753  1.00  0.00     0.131 A 
BRANCH  14  19
ATOM     19  O   UNL A   1      33.472  16.371  23.710  1.00  0.00    -0.497 OA
ATOM     20  C   UNL A   1      33.459  15.464  24.802  1.00  0.00     0.278 C 
ENDBRANCH  14  19
BRANCH  18  21
ATOM     21  O   UNL A   1      35.775  20.396  25.323  1.00  0.00    -0.496 OA
ATOM     22  C   UNL A   1      37.092  20.054  24.915  1.00  0.00     0.278 C 
ENDBRANCH  18  21
ENDBRANCH  12  13
ENDBRANCH   7  12
BRANCH  11  23
ATOM     23  C   UNL A   1      33.615  26.373  24.198  1.00  0.00     0.004 A 
ATOM     24  C   UNL A   1      33.712  27.728  24.612  1.00  0.00     0.008 A 
ATOM     25  C   UNL A   1      33.571  26.213  22.789  1.00  0.00     0.122 A 
ATOM     26  C   UNL A   1      33.887  28.817  23.745  1.00  0.00     0.001 A 
ATOM     27  C   UNL A   1      33.806  27.322  21.931  1.00  0.00     0.047 A 
ATOM     28  C   UNL A   1      33.983  28.610  22.393  1.00  0.00     0.004 A 
BRANCH  25  29
ATOM     29  O   UNL A   1      33.286  25.192  21.942  1.00  0.00    -0.496 OA
ATOM     30  C   UNL A   1      32.549  25.305  20.766  1.00  0.00     0.278 C 
ENDBRANCH  25  29
ENDBRANCH  11  23
ENDBRANCH   4   6
ENDBRANCH   3   4
ENDBRANCH   2   3
ENDBRANCH   1   2
BRANCH   1  31
ATOM     31  O   UNL A   1      31.642  29.776  26.516  1.00  0.00    -0.374 OA
BRANCH  31  32
ATOM     32  C   UNL A   1      32.518  30.831  26.910  1.00  0.00     0.202 C 
BRANCH  32  33
ATOM     33  C   UNL A   1      33.860  30.443  27.527  1.00  0.00     0.261 C 
BRANCH  33  34
ATOM     34  O   UNL A   1      34.620  31.604  27.896  1.00  0.00    -0.460 OA
BRANCH  34  35
ATOM     35  C   UNL A   1      35.255  31.496  29.083  1.00  0.00     0.338 C 
ATOM     36  O   UNL A   1      34.863  31.897  30.174  1.00  0.00    -0.246 OA
BRANCH  35  37
ATOM     37  C   UNL A   1      36.432  30.626  28.948  1.00  0.00     0.060 A 
ATOM     38  C   UNL A   1      36.911  30.016  30.117  1.00  0.00     0.016 A 
ATOM     39  C   UNL A   1      37.100  30.464  27.731  1.00  0.00     0.016 A 
ATOM     40  C   UNL A   1      38.114  29.327  30.096  1.00  0.00     0.010 A 
ATOM     41  C   UNL A   1      38.315  29.779  27.713  1.00  0.00     0.010 A 
ATOM     42  C   UNL A   1      38.850  29.264  28.907  1.00  0.00    -0.014 A 
BRANCH  42  43
ATOM     43  C   UNL A   1      40.264  28.843  28.985  1.00  0.00     0.031 A 
ATOM     44  C   UNL A   1      41.264  29.798  29.576  1.00  0.00     0.074 A 
ATOM     45  C   UNL A   1      40.625  27.603  28.619  1.00  0.00     0.049 A 
ATOM     46  N   UNL A   1      42.546  29.637  29.781  1.00  0.00    -0.248 NA
ATOM     47  C   UNL A   1      40.749  31.113  29.997  1.00  0.00     0.031 C 
ATOM     48  C   UNL A   1      39.721  26.586  28.084  1.00  0.00     0.029 A 
ATOM     49  N   UNL A   1      41.848  26.988  28.655  1.00  0.00    -0.354 N 
ATOM     50  C   UNL A   1      42.988  30.826  30.349  1.00  0.00     0.074 A 
ATOM     51  C   UNL A   1      41.849  31.713  30.424  1.00  0.00     0.031 C 
ATOM     52  C   UNL A   1      40.425  25.468  27.839  1.00  0.00     0.029 A 
ATOM     53  C   UNL A   1      41.827  25.704  28.173  1.00  0.00     0.049 A 
ATOM     54  H   UNL A   1      42.662  27.425  28.994  1.00  0.00     0.167 HD
ATOM     55  C   UNL A   1      44.232  31.142  30.779  1.00  0.00     0.037 A 
ATOM     56  C   UNL A   1      42.835  24.828  28.009  1.00  0.00     0.037 A 
ATOM     57  C   UNL A   1      45.357  30.247  30.700  1.00  0.00     0.049 A 
ATOM     58  C   UNL A   1      44.222  25.229  28.431  1.00  0.00     0.074 A 
ATOM     59  C   UNL A   1      46.659  30.458  31.116  1.00  0.00     0.029 A 
ATOM     60  N   UNL A   1      45.310  28.971  30.158  1.00  0.00    -0.354 N 
ATOM     61  N   UNL A   1      44.630  26.347  28.984  1.00  0.00    -0.248 NA
ATOM     62  C   UNL A   1      45.289  24.243  28.214  1.00  0.00     0.031 C 
ATOM     63  C   UNL A   1      47.412  29.329  30.775  1.00  0.00     0.029 A 
ATOM     64  C   UNL A   1      46.567  28.392  30.202  1.00  0.00     0.049 A 
ATOM     65  H   UNL A   1      44.503  28.539  29.797  1.00  0.00     0.167 HD
ATOM     66  C   UNL A   1      45.993  26.192  29.200  1.00  0.00     0.074 A 
ATOM     67  C   UNL A   1      46.336  24.860  28.741  1.00  0.00     0.031 C 
ATOM     68  C   UNL A   1      46.884  27.067  29.730  1.00  0.00     0.037 A 
BRANCH  55  69
ATOM     69  C   UNL A   1      44.444  32.519  31.340  1.00  0.00     0.057 A 
ATOM     70  C   UNL A   1      44.674  33.631  30.519  1.00  0.00     0.134 A 
ATOM     71  C   UNL A   1      44.395  32.739  32.722  1.00  0.00     0.134 A 
ATOM     72  F   UNL A   1      44.752  33.488  29.186  1.00  0.00    -0.206 F 
ATOM     73  C   UNL A   1      44.870  34.905  31.053  1.00  0.00     0.040 A 
ATOM     74  C   UNL A   1      44.561  34.013  33.267  1.00  0.00     0.040 A 
ATOM     75  F   UNL A   1      44.179  31.719  33.567  1.00  0.00    -0.206 F 
ATOM     76  C   UNL A   1      44.806  35.101  32.432  1.00  0.00     0.006 A 
ENDBRANCH  55  69
BRANCH  56  77
ATOM     77  C   UNL A   1      42.571  23.496  27.408  1.00  0.00     0.057 A 
ATOM     78  C   UNL A   1      42.692  23.280  26.031  1.00  0.00     0.134 A 
ATOM     79  C   UNL A   1      42.180  22.408  28.199  1.00  0.00     0.134 A 
ATOM     80  F   UNL A   1      43.044  24.287  25.218  1.00  0.00    -0.206 F 
ATOM     81  C   UNL A   1      42.419  22.036  25.459  1.00  0.00     0.040 A 
ATOM     82  C   UNL A   1      41.930  21.153  27.645  1.00  0.00     0.040 A 
ATOM     83  F   UNL A   1      42.049  22.549  29.527  1.00  0.00    -0.206 F 
ATOM     84  C   UNL A   1      42.041  20.966  26.269  1.00  0.00     0.006 A 
ENDBRANCH  56  77
BRANCH  68  85
ATOM     85  C   UNL A   1      48.305  26.598  29.857  1.00  0.00     0.057 A 
ATOM     86  C   UNL A   1      49.253  26.826  28.851  1.00  0.00     0.134 A 
ATOM     87  C   UNL A   1      48.733  25.922  31.007  1.00  0.00     0.134 A 
ATOM     88  F   UNL A   1      48.905  27.456  27.718  1.00  0.00    -0.206 F 
ATOM     89  C   UNL A   1      50.566  26.368  28.968  1.00  0.00     0.040 A 
ATOM     90  C   UNL A   1      50.051  25.487  31.150  1.00  0.00     0.040 A 
ATOM     91  F   UNL A   1      47.880  25.682  32.014  1.00  0.00    -0.206 F 
ATOM     92  C   UNL A   1      50.969  25.701  30.124  1.00  0.00     0.006 A 
ENDBRANCH  68  85
ENDBRANCH  42  43
ENDBRANCH  35  37
ENDBRANCH  34  35
ENDBRANCH  33  34
ENDBRANCH  32  33
ENDBRANCH  31  32
ENDBRANCH   1  31
TORSDOF 20
ENDMDL
MODEL 3
REMARK VINA RESULT:     -10.9      4.179      8.069
REMARK SMILES COc1ccc(C[N@@H+]2C[C@@H](C(=O)OCCOCCOC(=O)c3ccc(-c4c5nc(c(-c6c(F)cccc6F)c6ccc([nH]6)c(-c6c(F)cccc6F)c6nc(c(-c7c(F)cccc7F)c7ccc4[nH]7)C=C6)C=C5)cc3)[C@H](c3ccccc3OC)C2)c(OC)c1
REMARK SMILES IDX 15 1 14 2 13 3 11 4 12 5 10 6 8 7 9 8 85 9 76 11 7 12 6 13
REMARK SMILES IDX 3 14 4 15 89 16 5 17 86 18 2 19 1 20 87 21 88 22 77 23 78 24
REMARK SMILES IDX 82 25 79 26 81 27 80 28 83 29 84 30 16 31 17 32 18 33 19 34
REMARK SMILES IDX 20 35 21 36 22 37 23 38 75 39 24 40 74 41 25 42 26 43 27 44
REMARK SMILES IDX 68 45 28 46 73 47 67 48 69 49 29 50 72 51 66 52 65 53 30 55
REMARK SMILES IDX 56 56 39 57 55 58 40 59 43 60 54 61 70 62 41 63 42 64 53 66
REMARK SMILES IDX 71 67 44 68 31 69 32 70 37 71 33 72 34 73 36 74 38 75 35 76
REMARK SMILES IDX 57 77 58 78 63 79 59 80 60 81 62 82 64 83 61 84 45 85 46 86
REMARK SMILES IDX 51 87 47 88 48 89 50 90 52 91 49 92
REMARK H PARENT 8 10 69 54 43 65
REMARK Flexibility Score: inf
ROOT
ATOM      1  C   UNL A   1      32.024  28.636  27.535  1.00  0.00     0.202 C 
ENDROOT
BRANCH   1   2
ATOM      2  C   UNL A   1      31.079  27.463  27.272  1.00  0.00     0.261 C 
BRANCH   2   3
ATOM      3  O   UNL A   1      31.649  26.151  27.258  1.00  0.00    -0.463 OA
BRANCH   3   4
ATOM      4  C   UNL A   1      30.986  25.246  26.482  1.00  0.00     0.315 C 
ATOM      5  O   UNL A   1      29.803  24.958  26.601  1.00  0.00    -0.252 OA
BRANCH   4   6
ATOM      6  C   UNL A   1      31.889  24.690  25.426  1.00  0.00     0.167 C 
ATOM      7  N   UNL A   1      33.431  22.864  25.366  1.00  0.00    -0.330 N 
ATOM      8  C   UNL A   1      32.147  23.258  25.903  1.00  0.00     0.278 C 
ATOM      9  C   UNL A   1      34.224  24.104  25.340  1.00  0.00     0.272 C 
ATOM     10  H   UNL A   1      33.898  22.175  25.954  1.00  0.00     0.348 HD
ATOM     11  C   UNL A   1      33.275  25.376  25.322  1.00  0.00     0.098 C 
BRANCH   7  12
ATOM     12  C   UNL A   1      33.385  22.046  24.139  1.00  0.00     0.303 C 
BRANCH  12  13
ATOM     13  C   UNL A   1      33.531  20.547  24.300  1.00  0.00     0.048 A 
ATOM     14  C   UNL A   1      33.915  17.772  24.134  1.00  0.00     0.122 A 
ATOM     15  C   UNL A   1      32.693  18.330  23.771  1.00  0.00     0.047 A 
ATOM     16  C   UNL A   1      34.908  18.586  24.686  1.00  0.00     0.093 A 
ATOM     17  C   UNL A   1      32.489  19.701  23.885  1.00  0.00     0.017 A 
ATOM     18  C   UNL A   1      34.713  19.970  24.793  1.00  0.00     0.131 A 
BRANCH  14  19
ATOM     19  O   UNL A   1      34.037  16.443  23.840  1.00  0.00    -0.497 OA
ATOM     20  C   UNL A   1      33.267  15.546  24.627  1.00  0.00     0.278 C 
ENDBRANCH  14  19
BRANCH  18  21
ATOM     21  O   UNL A   1      35.634  20.848  25.305  1.00  0.00    -0.496 OA
ATOM     22  C   UNL A   1      36.902  20.916  24.667  1.00  0.00     0.278 C 
ENDBRANCH  18  21
ENDBRANCH  12  13
ENDBRANCH   7  12
BRANCH  11  23
ATOM     23  C   UNL A   1      33.462  26.429  24.190  1.00  0.00     0.004 A 
ATOM     24  C   UNL A   1      33.771  27.759  24.582  1.00  0.00     0.008 A 
ATOM     25  C   UNL A   1      33.316  26.272  22.788  1.00  0.00     0.122 A 
ATOM     26  C   UNL A   1      34.047  28.809  23.693  1.00  0.00     0.001 A 
ATOM     27  C   UNL A   1      33.655  27.333  21.904  1.00  0.00     0.047 A 
ATOM     28  C   UNL A   1      34.036  28.585  22.340  1.00  0.00     0.004 A 
BRANCH  25  29
ATOM     29  O   UNL A   1      32.844  25.297  21.969  1.00  0.00    -0.496 OA
ATOM     30  C   UNL A   1      32.525  25.462  20.624  1.00  0.00     0.278 C 
ENDBRANCH  25  29
ENDBRANCH  11  23
ENDBRANCH   4   6
ENDBRANCH   3   4
ENDBRANCH   2   3
ENDBRANCH   1   2
BRANCH   1  31
ATOM     31  O   UNL A   1      31.650  29.948  27.146  1.00  0.00    -0.374 OA
BRANCH  31  32
ATOM     32  C   UNL A   1      32.663  30.804  26.620  1.00  0.00     0.202 C 
BRANCH  32  33
ATOM     33  C   UNL A   1      33.456  31.652  27.612  1.00  0.00     0.261 C 
BRANCH  33  34
ATOM     34  O   UNL A   1      33.388  33.047  27.278  1.00  0.00    -0.460 OA
BRANCH  34  35
ATOM     35  C   UNL A   1      33.426  33.874  28.344  1.00  0.00     0.338 C 
ATOM     36  O   UNL A   1      32.569  34.682  28.688  1.00  0.00    -0.246 OA
BRANCH  35  37
ATOM     37  C   UNL A   1      34.575  33.543  29.199  1.00  0.00     0.060 A 
ATOM     38  C   UNL A   1      35.849  33.849  28.701  1.00  0.00     0.016 A 
ATOM     39  C   UNL A   1      34.423  32.884  30.422  1.00  0.00     0.016 A 
ATOM     40  C   UNL A   1      36.979  33.409  29.372  1.00  0.00     0.010 A 
ATOM     41  C   UNL A   1      35.561  32.432  31.092  1.00  0.00     0.010 A 
ATOM     42  C   UNL A   1      36.834  32.642  30.534  1.00  0.00    -0.014 A 
BRANCH  42  43
ATOM     43  C   UNL A   1      38.010  31.896  31.028  1.00  0.00     0.031 A 
ATOM     44  C   UNL A   1      38.526  32.201  32.407  1.00  0.00     0.074 A 
ATOM     45  C   UNL A   1      38.543  30.906  30.294  1.00  0.00     0.049 A 
ATOM     46  N   UNL A   1      39.514  31.654  33.065  1.00  0.00    -0.248 NA
ATOM     47  C   UNL A   1      37.830  33.269  33.147  1.00  0.00     0.031 C 
ATOM     48  C   UNL A   1      38.082  30.498  28.969  1.00  0.00     0.029 A 
ATOM     49  N   UNL A   1      39.583  30.059  30.570  1.00  0.00    -0.354 N 
ATOM     50  C   UNL A   1      39.561  32.310  34.289  1.00  0.00     0.074 A 
ATOM     51  C   UNL A   1      38.527  33.320  34.272  1.00  0.00     0.031 C 
ATOM     52  C   UNL A   1      38.841  29.474  28.543  1.00  0.00     0.029 A 
ATOM     53  C   UNL A   1      39.853  29.178  29.553  1.00  0.00     0.049 A 
ATOM     54  H   UNL A   1      40.087  30.080  31.415  1.00  0.00     0.167 HD
ATOM     55  C   UNL A   1      40.386  32.079  35.337  1.00  0.00     0.037 A 
ATOM     56  C   UNL A   1      40.822  28.251  29.451  1.00  0.00     0.037 A 
ATOM     57  C   UNL A   1      41.411  31.068  35.341  1.00  0.00     0.049 A 
ATOM     58  C   UNL A   1      41.772  28.061  30.603  1.00  0.00     0.074 A 
ATOM     59  C   UNL A   1      42.296  30.740  36.351  1.00  0.00     0.029 A 
ATOM     60  N   UNL A   1      41.690  30.227  34.273  1.00  0.00    -0.354 N 
ATOM     61  N   UNL A   1      41.799  28.671  31.764  1.00  0.00    -0.248 NA
ATOM     62  C   UNL A   1      42.822  27.048  30.433  1.00  0.00     0.031 C 
ATOM     63  C   UNL A   1      43.148  29.737  35.873  1.00  0.00     0.029 A 
ATOM     64  C   UNL A   1      42.754  29.399  34.589  1.00  0.00     0.049 A 
ATOM     65  H   UNL A   1      41.203  30.219  33.417  1.00  0.00     0.167 HD
ATOM     66  C   UNL A   1      42.851  28.103  32.471  1.00  0.00     0.074 A 
ATOM     67  C   UNL A   1      43.421  27.082  31.614  1.00  0.00     0.031 C 
ATOM     68  C   UNL A   1      43.308  28.395  33.714  1.00  0.00     0.037 A 
BRANCH  55  69
ATOM     69  C   UNL A   1      40.235  32.957  36.546  1.00  0.00     0.057 A 
ATOM     70  C   UNL A   1      39.282  32.697  37.541  1.00  0.00     0.134 A 
ATOM     71  C   UNL A   1      41.070  34.066  36.730  1.00  0.00     0.134 A 
ATOM     72  F   UNL A   1      38.436  31.662  37.419  1.00  0.00    -0.206 F 
ATOM     73  C   UNL A   1      39.150  33.522  38.659  1.00  0.00     0.040 A 
ATOM     74  C   UNL A   1      40.967  34.881  37.858  1.00  0.00     0.040 A 
ATOM     75  F   UNL A   1      42.004  34.373  35.817  1.00  0.00    -0.206 F 
ATOM     76  C   UNL A   1      40.001  34.614  38.824  1.00  0.00     0.006 A 
ENDBRANCH  55  69
BRANCH  56  77
ATOM     77  C   UNL A   1      40.949  27.443  28.212  1.00  0.00     0.057 A 
ATOM     78  C   UNL A   1      41.720  27.882  27.131  1.00  0.00     0.134 A 
ATOM     79  C   UNL A   1      40.292  26.213  28.077  1.00  0.00     0.134 A 
ATOM     80  F   UNL A   1      42.358  29.061  27.191  1.00  0.00    -0.206 F 
ATOM     81  C   UNL A   1      41.820  27.138  25.954  1.00  0.00     0.040 A 
ATOM     82  C   UNL A   1      40.404  25.446  26.918  1.00  0.00     0.040 A 
ATOM     83  F   UNL A   1      39.539  25.734  29.080  1.00  0.00    -0.206 F 
ATOM     84  C   UNL A   1      41.165  25.912  25.848  1.00  0.00     0.006 A 
ENDBRANCH  56  77
BRANCH  68  85
ATOM     85  C   UNL A   1      44.465  27.584  34.222  1.00  0.00     0.057 A 
ATOM     86  C   UNL A   1      44.277  26.399  34.946  1.00  0.00     0.134 A 
ATOM     87  C   UNL A   1      45.783  27.985  33.970  1.00  0.00     0.134 A 
ATOM     88  F   UNL A   1      43.039  25.965  35.232  1.00  0.00    -0.206 F 
ATOM     89  C   UNL A   1      45.357  25.662  35.433  1.00  0.00     0.040 A 
ATOM     90  C   UNL A   1      46.872  27.240  34.424  1.00  0.00     0.040 A 
ATOM     91  F   UNL A   1      46.034  29.103  33.272  1.00  0.00    -0.206 F 
ATOM     92  C   UNL A   1      46.660  26.080  35.167  1.00  0.00     0.006 A 
ENDBRANCH  68  85
ENDBRANCH  42  43
ENDBRANCH  35  37
ENDBRANCH  34  35
ENDBRANCH  33  34
ENDBRANCH  32  33
ENDBRANCH  31  32
ENDBRANCH   1  31
TORSDOF 20
ENDMDL
