MODEL 1
REMARK VINA RESULT:     -11.3      0.000      0.000
REMARK SMILES C[C@@H]1[C@H](C(=O)OCCOCCOC(=O)c2ccc(-c3c4nc(c(-c5c(F)cccc5F)c5ccc([nH]5)c(-c5c(F)cccc5F)c5nc(c(-c6c(F)cccc6F)c6ccc3[nH]6)C=C5)C=C4)cc2)CC[N@@H+]1Cc1cnn(-c2ccccc2)c1
REMARK SMILES IDX 8 1 7 2 6 3 4 4 5 5 3 6 1 7 2 8 71 9 69 10 70 11 72 13 73 14
REMARK SMILES IDX 74 15 83 16 75 17 76 18 77 19 78 20 82 21 79 22 81 23 80 24
REMARK SMILES IDX 9 25 10 26 11 27 12 28 13 29 14 30 15 31 16 32 68 33 17 34
REMARK SMILES IDX 67 35 18 36 19 37 20 38 61 39 21 40 66 41 60 42 62 43 22 44
REMARK SMILES IDX 65 45 59 46 58 47 23 49 49 50 32 51 48 52 33 53 36 54 47 55
REMARK SMILES IDX 63 56 34 57 35 58 46 60 64 61 37 62 24 63 25 64 30 65 26 66
REMARK SMILES IDX 27 67 29 68 31 69 28 70 50 71 51 72 56 73 52 74 53 75 55 76
REMARK SMILES IDX 57 77 54 78 38 79 39 80 44 81 40 82 41 83 43 84 45 85 42 86
REMARK H PARENT 71 12 62 48 36 59
REMARK Flexibility Score: inf
ROOT
ATOM      1  C   UNL A   1      32.084  29.868  25.736  1.00  0.00     0.202 C 
ENDROOT
BRANCH   1   2
ATOM      2  C   UNL A   1      31.019  30.057  24.654  1.00  0.00     0.261 C 
BRANCH   2   3
ATOM      3  O   UNL A   1      30.531  28.773  24.225  1.00  0.00    -0.463 OA
BRANCH   3   4
ATOM      4  C   UNL A   1      31.370  28.035  23.469  1.00  0.00     0.315 C 
ATOM      5  O   UNL A   1      32.079  28.485  22.576  1.00  0.00    -0.252 OA
BRANCH   4   6
ATOM      6  C   UNL A   1      31.352  26.562  23.805  1.00  0.00     0.162 C 
ATOM      7  C   UNL A   1      33.719  26.553  24.949  1.00  0.00     0.076 C 
ATOM      8  C   UNL A   1      32.600  25.777  24.263  1.00  0.00     0.195 C 
ATOM      9  N   UNL A   1      32.026  24.652  25.030  1.00  0.00    -0.328 N 
ATOM     10  C   UNL A   1      30.310  26.245  24.859  1.00  0.00     0.083 C 
ATOM     11  C   UNL A   1      30.577  24.781  25.131  1.00  0.00     0.263 C 
ATOM     12  H   UNL A   1      32.276  23.866  24.433  1.00  0.00     0.348 HD
BRANCH   9  13
ATOM     13  C   UNL A   1      32.708  24.039  26.159  1.00  0.00     0.302 C 
BRANCH  13  14
ATOM     14  C   UNL A   1      33.410  22.764  25.829  1.00  0.00     0.045 A 
ATOM     15  C   UNL A   1      34.765  22.409  25.985  1.00  0.00     0.145 A 
ATOM     16  C   UNL A   1      32.844  21.614  25.310  1.00  0.00     0.124 A 
ATOM     17  N   UNL A   1      35.031  21.161  25.595  1.00  0.00    -0.176 NA
ATOM     18  N   UNL A   1      33.854  20.707  25.097  1.00  0.00    -0.240 N 
BRANCH  18  19
ATOM     19  C   UNL A   1      33.744  19.443  24.468  1.00  0.00     0.065 A 
ATOM     20  C   UNL A   1      32.649  19.179  23.640  1.00  0.00     0.028 A 
ATOM     21  C   UNL A   1      34.731  18.464  24.656  1.00  0.00     0.028 A 
ATOM     22  C   UNL A   1      32.570  17.964  22.961  1.00  0.00     0.002 A 
ATOM     23  C   UNL A   1      34.629  17.246  23.987  1.00  0.00     0.002 A 
ATOM     24  C   UNL A   1      33.556  16.996  23.138  1.00  0.00     0.000 A 
ENDBRANCH  18  19
ENDBRANCH  13  14
ENDBRANCH   9  13
ENDBRANCH   4   6
ENDBRANCH   3   4
ENDBRANCH   2   3
ENDBRANCH   1   2
BRANCH   1  25
ATOM     25  O   UNL A   1      31.942  30.691  26.894  1.00  0.00    -0.374 OA
BRANCH  25  26
ATOM     26  C   UNL A   1      31.437  32.012  26.699  1.00  0.00     0.202 C 
BRANCH  26  27
ATOM     27  C   UNL A   1      32.446  33.161  26.871  1.00  0.00     0.261 C 
BRANCH  27  28
ATOM     28  O   UNL A   1      32.239  33.921  28.077  1.00  0.00    -0.460 OA
BRANCH  28  29
ATOM     29  C   UNL A   1      33.298  34.669  28.469  1.00  0.00     0.338 C 
ATOM     30  O   UNL A   1      33.309  35.873  28.686  1.00  0.00    -0.246 OA
BRANCH  29  31
ATOM     31  C   UNL A   1      34.448  33.799  28.785  1.00  0.00     0.060 A 
ATOM     32  C   UNL A   1      34.190  32.585  29.437  1.00  0.00     0.016 A 
ATOM     33  C   UNL A   1      35.761  34.177  28.505  1.00  0.00     0.016 A 
ATOM     34  C   UNL A   1      35.244  31.766  29.853  1.00  0.00     0.010 A 
ATOM     35  C   UNL A   1      36.814  33.357  28.933  1.00  0.00     0.010 A 
ATOM     36  C   UNL A   1      36.570  32.158  29.634  1.00  0.00    -0.014 A 
BRANCH  36  37
ATOM     37  C   UNL A   1      37.692  31.396  30.260  1.00  0.00     0.031 A 
ATOM     38  C   UNL A   1      38.051  31.668  31.700  1.00  0.00     0.074 A 
ATOM     39  C   UNL A   1      38.399  30.478  29.571  1.00  0.00     0.049 A 
ATOM     40  N   UNL A   1      39.030  31.184  32.421  1.00  0.00    -0.248 NA
ATOM     41  C   UNL A   1      37.200  32.632  32.415  1.00  0.00     0.031 C 
ATOM     42  C   UNL A   1      38.180  30.106  28.174  1.00  0.00     0.029 A 
ATOM     43  N   UNL A   1      39.477  29.711  29.953  1.00  0.00    -0.354 N 
ATOM     44  C   UNL A   1      38.914  31.784  33.669  1.00  0.00     0.074 A 
ATOM     45  C   UNL A   1      37.814  32.719  33.585  1.00  0.00     0.031 C 
ATOM     46  C   UNL A   1      39.106  29.201  27.810  1.00  0.00     0.029 A 
ATOM     47  C   UNL A   1      39.998  28.942  28.938  1.00  0.00     0.049 A 
ATOM     48  H   UNL A   1      39.841  29.713  30.868  1.00  0.00     0.167 HD
ATOM     49  C   UNL A   1      39.633  31.559  34.795  1.00  0.00     0.037 A 
ATOM     50  C   UNL A   1      41.082  28.140  28.911  1.00  0.00     0.037 A 
ATOM     51  C   UNL A   1      40.714  30.616  34.900  1.00  0.00     0.049 A 
ATOM     52  C   UNL A   1      41.913  27.960  30.155  1.00  0.00     0.074 A 
ATOM     53  C   UNL A   1      41.459  30.280  36.016  1.00  0.00     0.029 A 
ATOM     54  N   UNL A   1      41.209  29.861  33.848  1.00  0.00    -0.354 N 
ATOM     55  N   UNL A   1      41.756  28.493  31.343  1.00  0.00    -0.248 NA
ATOM     56  C   UNL A   1      43.070  27.056  30.055  1.00  0.00     0.031 C 
ATOM     57  C   UNL A   1      42.441  29.361  35.629  1.00  0.00     0.029 A 
ATOM     58  C   UNL A   1      42.269  29.082  34.284  1.00  0.00     0.049 A 
ATOM     59  H   UNL A   1      40.861  29.877  32.927  1.00  0.00     0.167 HD
ATOM     60  C   UNL A   1      42.760  27.952  32.139  1.00  0.00     0.074 A 
ATOM     61  C   UNL A   1      43.523  27.053  31.301  1.00  0.00     0.031 C 
ATOM     62  C   UNL A   1      43.015  28.174  33.452  1.00  0.00     0.037 A 
BRANCH  49  63
ATOM     63  C   UNL A   1      39.263  32.349  36.019  1.00  0.00     0.057 A 
ATOM     64  C   UNL A   1      39.795  33.621  36.266  1.00  0.00     0.134 A 
ATOM     65  C   UNL A   1      38.340  31.844  36.945  1.00  0.00     0.134 A 
ATOM     66  F   UNL A   1      40.692  34.158  35.424  1.00  0.00    -0.206 F 
ATOM     67  C   UNL A   1      39.449  34.350  37.405  1.00  0.00     0.040 A 
ATOM     68  C   UNL A   1      37.963  32.578  38.071  1.00  0.00     0.040 A 
ATOM     69  F   UNL A   1      37.785  30.637  36.766  1.00  0.00    -0.206 F 
ATOM     70  C   UNL A   1      38.525  33.831  38.308  1.00  0.00     0.006 A 
ENDBRANCH  49  63
BRANCH  50  71
ATOM     71  C   UNL A   1      41.468  27.439  27.658  1.00  0.00     0.057 A 
ATOM     72  C   UNL A   1      42.254  28.064  26.684  1.00  0.00     0.134 A 
ATOM     73  C   UNL A   1      41.013  26.146  27.383  1.00  0.00     0.134 A 
ATOM     74  F   UNL A   1      42.686  29.320  26.871  1.00  0.00    -0.206 F 
ATOM     75  C   UNL A   1      42.560  27.434  25.477  1.00  0.00     0.040 A 
ATOM     76  C   UNL A   1      41.337  25.490  26.194  1.00  0.00     0.040 A 
ATOM     77  F   UNL A   1      40.228  25.507  28.259  1.00  0.00    -0.206 F 
ATOM     78  C   UNL A   1      42.107  26.139  25.232  1.00  0.00     0.006 A 
ENDBRANCH  50  71
BRANCH  62  79
ATOM     79  C   UNL A   1      44.128  27.390  34.088  1.00  0.00     0.057 A 
ATOM     80  C   UNL A   1      43.916  26.143  34.690  1.00  0.00     0.134 A 
ATOM     81  C   UNL A   1      45.443  27.874  34.060  1.00  0.00     0.134 A 
ATOM     82  F   UNL A   1      42.679  25.625  34.763  1.00  0.00    -0.206 F 
ATOM     83  C   UNL A   1      44.964  25.418  35.259  1.00  0.00     0.040 A 
ATOM     84  C   UNL A   1      46.505  27.146  34.599  1.00  0.00     0.040 A 
ATOM     85  F   UNL A   1      45.721  29.058  33.491  1.00  0.00    -0.206 F 
ATOM     86  C   UNL A   1      46.265  25.917  35.207  1.00  0.00     0.006 A 
ENDBRANCH  62  79
ENDBRANCH  36  37
ENDBRANCH  29  31
ENDBRANCH  28  29
ENDBRANCH  27  28
ENDBRANCH  26  27
ENDBRANCH  25  26
ENDBRANCH   1  25
TORSDOF 17
ENDMDL
MODEL 2
REMARK VINA RESULT:     -11.2      1.239      2.501
REMARK SMILES C[C@@H]1[C@H](C(=O)OCCOCCOC(=O)c2ccc(-c3c4nc(c(-c5c(F)cccc5F)c5ccc([nH]5)c(-c5c(F)cccc5F)c5nc(c(-c6c(F)cccc6F)c6ccc3[nH]6)C=C5)C=C4)cc2)CC[N@@H+]1Cc1cnn(-c2ccccc2)c1
REMARK SMILES IDX 8 1 7 2 6 3 4 4 5 5 3 6 1 7 2 8 71 9 69 10 70 11 72 13 73 14
REMARK SMILES IDX 74 15 83 16 75 17 76 18 77 19 78 20 82 21 79 22 81 23 80 24
REMARK SMILES IDX 9 25 10 26 11 27 12 28 13 29 14 30 15 31 16 32 68 33 17 34
REMARK SMILES IDX 67 35 18 36 19 37 20 38 61 39 21 40 66 41 60 42 62 43 22 44
REMARK SMILES IDX 65 45 59 46 58 47 23 49 49 50 32 51 48 52 33 53 36 54 47 55
REMARK SMILES IDX 63 56 34 57 35 58 46 60 64 61 37 62 24 63 25 64 30 65 26 66
REMARK SMILES IDX 27 67 29 68 31 69 28 70 50 71 51 72 56 73 52 74 53 75 55 76
REMARK SMILES IDX 57 77 54 78 38 79 39 80 44 81 40 82 41 83 43 84 45 85 42 86
REMARK H PARENT 71 12 62 48 36 59
REMARK Flexibility Score: inf
ROOT
ATOM      1  C   UNL A   1      31.834  29.184  26.980  1.00  0.00     0.202 C 
ENDROOT
BRANCH   1   2
ATOM      2  C   UNL A   1      32.353  27.968  26.210  1.00  0.00     0.261 C 
BRANCH   2   3
ATOM      3  O   UNL A   1      31.328  26.961  26.146  1.00  0.00    -0.463 OA
BRANCH   3   4
ATOM      4  C   UNL A   1      30.795  26.724  24.929  1.00  0.00     0.315 C 
ATOM      5  O   UNL A   1      30.502  27.595  24.118  1.00  0.00    -0.252 OA
BRANCH   4   6
ATOM      6  C   UNL A   1      30.562  25.259  24.644  1.00  0.00     0.162 C 
ATOM      7  C   UNL A   1      31.994  25.218  22.440  1.00  0.00     0.076 C 
ATOM      8  C   UNL A   1      30.899  24.590  23.295  1.00  0.00     0.195 C 
ATOM      9  N   UNL A   1      31.097  23.172  23.664  1.00  0.00    -0.328 N 
ATOM     10  C   UNL A   1      31.242  24.377  25.673  1.00  0.00     0.083 C 
ATOM     11  C   UNL A   1      31.000  22.995  25.107  1.00  0.00     0.263 C 
ATOM     12  H   UNL A   1      30.303  22.739  23.194  1.00  0.00     0.348 HD
BRANCH   9  13
ATOM     13  C   UNL A   1      32.020  22.296  22.958  1.00  0.00     0.302 C 
BRANCH  13  14
ATOM     14  C   UNL A   1      33.216  21.898  23.758  1.00  0.00     0.045 A 
ATOM     15  C   UNL A   1      33.441  20.746  24.540  1.00  0.00     0.145 A 
ATOM     16  C   UNL A   1      34.406  22.591  23.873  1.00  0.00     0.124 A 
ATOM     17  N   UNL A   1      34.651  20.720  25.102  1.00  0.00    -0.176 NA
ATOM     18  N   UNL A   1      35.208  21.906  24.755  1.00  0.00    -0.240 N 
BRANCH  18  19
ATOM     19  C   UNL A   1      36.467  22.318  25.257  1.00  0.00     0.065 A 
ATOM     20  C   UNL A   1      36.620  23.619  25.747  1.00  0.00     0.028 A 
ATOM     21  C   UNL A   1      37.550  21.429  25.283  1.00  0.00     0.028 A 
ATOM     22  C   UNL A   1      37.835  24.009  26.309  1.00  0.00     0.002 A 
ATOM     23  C   UNL A   1      38.766  21.839  25.828  1.00  0.00     0.002 A 
ATOM     24  C   UNL A   1      38.908  23.123  26.345  1.00  0.00     0.000 A 
ENDBRANCH  18  19
ENDBRANCH  13  14
ENDBRANCH   9  13
ENDBRANCH   4   6
ENDBRANCH   3   4
ENDBRANCH   2   3
ENDBRANCH   1   2
BRANCH   1  25
ATOM     25  O   UNL A   1      32.363  30.446  26.571  1.00  0.00    -0.374 OA
BRANCH  25  26
ATOM     26  C   UNL A   1      31.427  31.450  26.180  1.00  0.00     0.202 C 
BRANCH  26  27
ATOM     27  C   UNL A   1      31.528  32.800  26.912  1.00  0.00     0.261 C 
BRANCH  27  28
ATOM     28  O   UNL A   1      32.834  33.399  26.819  1.00  0.00    -0.460 OA
BRANCH  28  29
ATOM     29  C   UNL A   1      33.334  33.864  27.989  1.00  0.00     0.338 C 
ATOM     30  O   UNL A   1      32.812  34.673  28.743  1.00  0.00    -0.246 OA
BRANCH  29  31
ATOM     31  C   UNL A   1      34.558  33.120  28.352  1.00  0.00     0.060 A 
ATOM     32  C   UNL A   1      34.416  31.788  28.762  1.00  0.00     0.016 A 
ATOM     33  C   UNL A   1      35.817  33.720  28.349  1.00  0.00     0.016 A 
ATOM     34  C   UNL A   1      35.522  31.064  29.215  1.00  0.00     0.010 A 
ATOM     35  C   UNL A   1      36.921  32.993  28.813  1.00  0.00     0.010 A 
ATOM     36  C   UNL A   1      36.783  31.668  29.276  1.00  0.00    -0.014 A 
BRANCH  36  37
ATOM     37  C   UNL A   1      37.919  30.973  29.952  1.00  0.00     0.031 A 
ATOM     38  C   UNL A   1      38.218  31.292  31.396  1.00  0.00     0.074 A 
ATOM     39  C   UNL A   1      38.689  30.075  29.306  1.00  0.00     0.049 A 
ATOM     40  N   UNL A   1      39.196  30.869  32.158  1.00  0.00    -0.248 NA
ATOM     41  C   UNL A   1      37.302  32.230  32.064  1.00  0.00     0.031 C 
ATOM     42  C   UNL A   1      38.531  29.663  27.912  1.00  0.00     0.029 A 
ATOM     43  N   UNL A   1      39.788  29.367  29.739  1.00  0.00    -0.354 N 
ATOM     44  C   UNL A   1      39.012  31.489  33.388  1.00  0.00     0.074 A 
ATOM     45  C   UNL A   1      37.874  32.370  33.249  1.00  0.00     0.031 C 
ATOM     46  C   UNL A   1      39.509  28.795  27.597  1.00  0.00     0.029 A 
ATOM     47  C   UNL A   1      40.376  28.602  28.758  1.00  0.00     0.049 A 
ATOM     48  H   UNL A   1      40.123  29.405  30.665  1.00  0.00     0.167 HD
ATOM     49  C   UNL A   1      39.704  31.322  34.541  1.00  0.00     0.037 A 
ATOM     50  C   UNL A   1      41.496  27.851  28.783  1.00  0.00     0.037 A 
ATOM     51  C   UNL A   1      40.824  30.433  34.700  1.00  0.00     0.049 A 
ATOM     52  C   UNL A   1      42.294  27.737  30.056  1.00  0.00     0.074 A 
ATOM     53  C   UNL A   1      41.547  30.155  35.847  1.00  0.00     0.029 A 
ATOM     54  N   UNL A   1      41.386  29.680  33.682  1.00  0.00    -0.354 N 
ATOM     55  N   UNL A   1      42.075  28.286  31.226  1.00  0.00    -0.248 NA
ATOM     56  C   UNL A   1      43.494  26.885  30.012  1.00  0.00     0.031 C 
ATOM     57  C   UNL A   1      42.582  29.276  35.511  1.00  0.00     0.029 A 
ATOM     58  C   UNL A   1      42.466  28.960  34.167  1.00  0.00     0.049 A 
ATOM     59  H   UNL A   1      41.067  29.660  32.751  1.00  0.00     0.167 HD
ATOM     60  C   UNL A   1      43.076  27.810  32.065  1.00  0.00     0.074 A 
ATOM     61  C   UNL A   1      43.907  26.930  31.271  1.00  0.00     0.031 C 
ATOM     62  C   UNL A   1      43.280  28.071  33.379  1.00  0.00     0.037 A 
BRANCH  49  63
ATOM     63  C   UNL A   1      39.259  32.119  35.735  1.00  0.00     0.057 A 
ATOM     64  C   UNL A   1      38.368  31.596  36.682  1.00  0.00     0.134 A 
ATOM     65  C   UNL A   1      39.750  33.412  35.955  1.00  0.00     0.134 A 
ATOM     66  F   UNL A   1      37.852  30.368  36.525  1.00  0.00    -0.206 F 
ATOM     67  C   UNL A   1      37.957  32.341  37.788  1.00  0.00     0.040 A 
ATOM     68  C   UNL A   1      39.371  34.155  37.075  1.00  0.00     0.040 A 
ATOM     69  F   UNL A   1      40.612  33.970  35.093  1.00  0.00    -0.206 F 
ATOM     70  C   UNL A   1      38.465  33.623  37.990  1.00  0.00     0.006 A 
ENDBRANCH  49  63
BRANCH  50  71
ATOM     71  C   UNL A   1      41.953  27.142  27.559  1.00  0.00     0.057 A 
ATOM     72  C   UNL A   1      42.691  27.799  26.568  1.00  0.00     0.134 A 
ATOM     73  C   UNL A   1      41.616  25.805  27.328  1.00  0.00     0.134 A 
ATOM     74  F   UNL A   1      43.009  29.094  26.711  1.00  0.00    -0.206 F 
ATOM     75  C   UNL A   1      43.062  27.155  25.386  1.00  0.00     0.040 A 
ATOM     76  C   UNL A   1      42.007  25.139  26.165  1.00  0.00     0.040 A 
ATOM     77  F   UNL A   1      40.882  25.132  28.222  1.00  0.00    -0.206 F 
ATOM     78  C   UNL A   1      42.727  25.818  25.185  1.00  0.00     0.006 A 
ENDBRANCH  50  71
BRANCH  62  79
ATOM     79  C   UNL A   1      44.407  27.353  34.068  1.00  0.00     0.057 A 
ATOM     80  C   UNL A   1      45.675  27.926  34.224  1.00  0.00     0.134 A 
ATOM     81  C   UNL A   1      44.204  26.081  34.620  1.00  0.00     0.134 A 
ATOM     82  F   UNL A   1      45.941  29.137  33.709  1.00  0.00    -0.206 F 
ATOM     83  C   UNL A   1      46.704  27.253  34.884  1.00  0.00     0.040 A 
ATOM     84  C   UNL A   1      45.216  25.410  35.307  1.00  0.00     0.040 A 
ATOM     85  F   UNL A   1      43.011  25.475  34.515  1.00  0.00    -0.206 F 
ATOM     86  C   UNL A   1      46.474  25.993  35.434  1.00  0.00     0.006 A 
ENDBRANCH  62  79
ENDBRANCH  36  37
ENDBRANCH  29  31
ENDBRANCH  28  29
ENDBRANCH  27  28
ENDBRANCH  26  27
ENDBRANCH  25  26
ENDBRANCH   1  25
TORSDOF 17
ENDMDL
MODEL 3
REMARK VINA RESULT:     -11.1      3.343      5.466
REMARK SMILES C[C@@H]1[C@H](C(=O)OCCOCCOC(=O)c2ccc(-c3c4nc(c(-c5c(F)cccc5F)c5ccc([nH]5)c(-c5c(F)cccc5F)c5nc(c(-c6c(F)cccc6F)c6ccc3[nH]6)C=C5)C=C4)cc2)CC[N@@H+]1Cc1cnn(-c2ccccc2)c1
REMARK SMILES IDX 8 1 7 2 6 3 4 4 5 5 3 6 1 7 2 8 71 9 69 10 70 11 72 13 73 14
REMARK SMILES IDX 74 15 83 16 75 17 76 18 77 19 78 20 82 21 79 22 81 23 80 24
REMARK SMILES IDX 9 25 10 26 11 27 12 28 13 29 14 30 15 31 16 32 68 33 17 34
REMARK SMILES IDX 67 35 18 36 19 37 20 38 61 39 21 40 66 41 60 42 62 43 22 44
REMARK SMILES IDX 65 45 59 46 58 47 23 49 49 50 32 51 48 52 33 53 36 54 47 55
REMARK SMILES IDX 63 56 34 57 35 58 46 60 64 61 37 62 24 63 25 64 30 65 26 66
REMARK SMILES IDX 27 67 29 68 31 69 28 70 50 71 51 72 56 73 52 74 53 75 55 76
REMARK SMILES IDX 57 77 54 78 38 79 39 80 44 81 40 82 41 83 43 84 45 85 42 86
REMARK H PARENT 71 12 62 48 36 59
REMARK Flexibility Score: inf
ROOT
ATOM      1  C   UNL A   1      32.420  32.917  27.257  1.00  0.00     0.202 C 
ENDROOT
BRANCH   1   2
ATOM      2  C   UNL A   1      33.638  32.072  27.635  1.00  0.00     0.261 C 
BRANCH   2   3
ATOM      3  O   UNL A   1      33.336  30.677  27.451  1.00  0.00    -0.463 OA
BRANCH   3   4
ATOM      4  C   UNL A   1      34.388  29.832  27.436  1.00  0.00     0.315 C 
ATOM      5  O   UNL A   1      35.459  30.047  27.992  1.00  0.00    -0.252 OA
BRANCH   4   6
ATOM      6  C   UNL A   1      34.142  28.573  26.638  1.00  0.00     0.162 C 
ATOM      7  C   UNL A   1      31.725  28.162  27.589  1.00  0.00     0.076 C 
ATOM      8  C   UNL A   1      32.975  27.602  26.918  1.00  0.00     0.195 C 
ATOM      9  N   UNL A   1      32.769  26.940  25.612  1.00  0.00    -0.328 N 
ATOM     10  C   UNL A   1      34.029  28.868  25.155  1.00  0.00     0.083 C 
ATOM     11  C   UNL A   1      33.644  27.514  24.598  1.00  0.00     0.263 C 
ATOM     12  H   UNL A   1      33.054  25.987  25.835  1.00  0.00     0.348 HD
BRANCH   9  13
ATOM     13  C   UNL A   1      31.468  26.470  25.164  1.00  0.00     0.302 C 
BRANCH  13  14
ATOM     14  C   UNL A   1      30.869  27.287  24.067  1.00  0.00     0.045 A 
ATOM     15  C   UNL A   1      30.802  27.032  22.682  1.00  0.00     0.145 A 
ATOM     16  C   UNL A   1      30.205  28.492  24.195  1.00  0.00     0.124 A 
ATOM     17  N   UNL A   1      30.165  27.988  22.001  1.00  0.00    -0.176 NA
ATOM     18  N   UNL A   1      29.878  28.929  22.934  1.00  0.00    -0.240 N 
BRANCH  18  19
ATOM     19  C   UNL A   1      29.296  30.173  22.588  1.00  0.00     0.065 A 
ATOM     20  C   UNL A   1      28.977  30.435  21.252  1.00  0.00     0.028 A 
ATOM     21  C   UNL A   1      29.023  31.132  23.574  1.00  0.00     0.028 A 
ATOM     22  C   UNL A   1      28.338  31.627  20.913  1.00  0.00     0.002 A 
ATOM     23  C   UNL A   1      28.403  32.329  23.218  1.00  0.00     0.002 A 
ATOM     24  C   UNL A   1      28.057  32.576  21.893  1.00  0.00     0.000 A 
ENDBRANCH  18  19
ENDBRANCH  13  14
ENDBRANCH   9  13
ENDBRANCH   4   6
ENDBRANCH   3   4
ENDBRANCH   2   3
ENDBRANCH   1   2
BRANCH   1  25
ATOM     25  O   UNL A   1      32.431  34.264  27.733  1.00  0.00    -0.374 OA
BRANCH  25  26
ATOM     26  C   UNL A   1      33.348  34.579  28.779  1.00  0.00     0.202 C 
BRANCH  26  27
ATOM     27  C   UNL A   1      32.942  35.728  29.719  1.00  0.00     0.261 C 
BRANCH  27  28
ATOM     28  O   UNL A   1      32.275  35.276  30.913  1.00  0.00    -0.460 OA
BRANCH  28  29
ATOM     29  C   UNL A   1      32.692  35.866  32.059  1.00  0.00     0.338 C 
ATOM     30  O   UNL A   1      32.148  36.786  32.653  1.00  0.00    -0.246 OA
BRANCH  29  31
ATOM     31  C   UNL A   1      33.837  35.125  32.626  1.00  0.00     0.060 A 
ATOM     32  C   UNL A   1      35.109  35.702  32.514  1.00  0.00     0.016 A 
ATOM     33  C   UNL A   1      33.689  33.867  33.208  1.00  0.00     0.016 A 
ATOM     34  C   UNL A   1      36.243  35.006  32.941  1.00  0.00     0.010 A 
ATOM     35  C   UNL A   1      34.830  33.169  33.625  1.00  0.00     0.010 A 
ATOM     36  C   UNL A   1      36.121  33.717  33.472  1.00  0.00    -0.014 A 
BRANCH  36  37
ATOM     37  C   UNL A   1      37.337  32.890  33.731  1.00  0.00     0.031 A 
ATOM     38  C   UNL A   1      38.150  33.149  34.976  1.00  0.00     0.074 A 
ATOM     39  C   UNL A   1      37.734  31.924  32.879  1.00  0.00     0.049 A 
ATOM     40  N   UNL A   1      39.277  32.608  35.362  1.00  0.00    -0.248 NA
ATOM     41  C   UNL A   1      37.628  34.171  35.897  1.00  0.00     0.031 C 
ATOM     42  C   UNL A   1      37.061  31.556  31.634  1.00  0.00     0.029 A 
ATOM     43  N   UNL A   1      38.831  31.092  32.921  1.00  0.00    -0.354 N 
ATOM     44  C   UNL A   1      39.599  33.224  36.567  1.00  0.00     0.074 A 
ATOM     45  C   UNL A   1      38.585  34.227  36.809  1.00  0.00     0.031 C 
ATOM     46  C   UNL A   1      37.769  30.591  31.021  1.00  0.00     0.029 A 
ATOM     47  C   UNL A   1      38.957  30.284  31.815  1.00  0.00     0.049 A 
ATOM     48  H   UNL A   1      39.467  31.077  33.674  1.00  0.00     0.167 HD
ATOM     49  C   UNL A   1      40.623  32.962  37.413  1.00  0.00     0.037 A 
ATOM     50  C   UNL A   1      39.927  29.414  31.469  1.00  0.00     0.037 A 
ATOM     51  C   UNL A   1      41.625  31.953  37.196  1.00  0.00     0.049 A 
ATOM     52  C   UNL A   1      41.099  29.191  32.390  1.00  0.00     0.074 A 
ATOM     53  C   UNL A   1      42.665  31.578  38.028  1.00  0.00     0.029 A 
ATOM     54  N   UNL A   1      41.716  31.160  36.063  1.00  0.00    -0.354 N 
ATOM     55  N   UNL A   1      41.358  29.741  33.551  1.00  0.00    -0.248 NA
ATOM     56  C   UNL A   1      42.110  28.213  31.954  1.00  0.00     0.031 C 
ATOM     57  C   UNL A   1      43.418  30.596  37.376  1.00  0.00     0.029 A 
ATOM     58  C   UNL A   1      42.811  30.318  36.162  1.00  0.00     0.049 A 
ATOM     59  H   UNL A   1      41.095  31.191  35.300  1.00  0.00     0.167 HD
ATOM     60  C   UNL A   1      42.530  29.143  34.004  1.00  0.00     0.074 A 
ATOM     61  C   UNL A   1      42.933  28.191  32.992  1.00  0.00     0.031 C 
ATOM     62  C   UNL A   1      43.201  29.358  35.162  1.00  0.00     0.037 A 
BRANCH  49  63
ATOM     63  C   UNL A   1      40.708  33.783  38.669  1.00  0.00     0.057 A 
ATOM     64  C   UNL A   1      41.518  34.923  38.753  1.00  0.00     0.134 A 
ATOM     65  C   UNL A   1      39.946  33.448  39.796  1.00  0.00     0.134 A 
ATOM     66  F   UNL A   1      42.281  35.293  37.714  1.00  0.00    -0.206 F 
ATOM     67  C   UNL A   1      41.594  35.682  39.923  1.00  0.00     0.040 A 
ATOM     68  C   UNL A   1      39.990  34.217  40.960  1.00  0.00     0.040 A 
ATOM     69  F   UNL A   1      39.142  32.375  39.781  1.00  0.00    -0.206 F 
ATOM     70  C   UNL A   1      40.822  35.332  41.029  1.00  0.00     0.006 A 
ENDBRANCH  49  63
BRANCH  50  71
ATOM     71  C   UNL A   1      39.854  28.680  30.178  1.00  0.00     0.057 A 
ATOM     72  C   UNL A   1      40.444  29.188  29.015  1.00  0.00     0.134 A 
ATOM     73  C   UNL A   1      39.145  27.481  30.066  1.00  0.00     0.134 A 
ATOM     74  F   UNL A   1      41.102  30.356  29.048  1.00  0.00    -0.206 F 
ATOM     75  C   UNL A   1      40.318  28.536  27.787  1.00  0.00     0.040 A 
ATOM     76  C   UNL A   1      39.037  26.801  28.852  1.00  0.00     0.040 A 
ATOM     77  F   UNL A   1      38.529  26.961  31.135  1.00  0.00    -0.206 F 
ATOM     78  C   UNL A   1      39.618  27.334  27.705  1.00  0.00     0.006 A 
ENDBRANCH  50  71
BRANCH  62  79
ATOM     79  C   UNL A   1      44.411  28.509  35.435  1.00  0.00     0.057 A 
ATOM     80  C   UNL A   1      45.702  28.905  35.064  1.00  0.00     0.134 A 
ATOM     81  C   UNL A   1      44.283  27.292  36.117  1.00  0.00     0.134 A 
ATOM     82  F   UNL A   1      45.896  30.054  34.397  1.00  0.00    -0.206 F 
ATOM     83  C   UNL A   1      46.817  28.113  35.344  1.00  0.00     0.040 A 
ATOM     84  C   UNL A   1      45.392  26.505  36.429  1.00  0.00     0.040 A 
ATOM     85  F   UNL A   1      43.076  26.855  36.510  1.00  0.00    -0.206 F 
ATOM     86  C   UNL A   1      46.665  26.912  36.035  1.00  0.00     0.006 A 
ENDBRANCH  62  79
ENDBRANCH  36  37
ENDBRANCH  29  31
ENDBRANCH  28  29
ENDBRANCH  27  28
ENDBRANCH  26  27
ENDBRANCH  25  26
ENDBRANCH   1  25
TORSDOF 17
ENDMDL
