MODEL 1
REMARK VINA RESULT:     -11.0      0.000      0.000
REMARK SMILES C[C@H](Oc1ccc(C(=O)NCc2ccccc2)cc1)C(=O)OCCOCCOC(=O)c1ccc(-c2c3nc(c(-c4c(F)cccc4F)c4ccc([nH]4)c(-c4c(F)cccc4F)c4nc(c(-c5c(F)cccc5F)c5ccc2[nH]5)C=C4)C=C3)cc1
REMARK SMILES IDX 23 1 22 2 20 3 21 4 2 5 1 6 3 7 4 8 5 9 19 10 6 11 18 12
REMARK SMILES IDX 7 13 8 14 9 15 10 16 11 18 12 19 13 20 17 21 14 22 16 23
REMARK SMILES IDX 15 24 24 25 25 26 26 27 27 28 28 29 29 30 30 31 31 32 32 33
REMARK SMILES IDX 84 34 33 35 83 36 34 37 35 38 36 39 77 40 37 41 82 42 76 43
REMARK SMILES IDX 78 44 38 45 81 46 75 47 74 48 39 50 65 51 48 52 64 53 49 54
REMARK SMILES IDX 52 55 63 56 79 57 50 58 51 59 62 61 80 62 53 63 40 64 41 65
REMARK SMILES IDX 46 66 42 67 43 68 45 69 47 70 44 71 66 72 67 73 72 74 68 75
REMARK SMILES IDX 69 76 71 77 73 78 70 79 54 80 55 81 60 82 56 83 57 84 59 85
REMARK SMILES IDX 61 86 58 87
REMARK H PARENT 10 17 78 49 52 60
REMARK Flexibility Score: inf
ROOT
ATOM      1  C   UNL A   1      39.982  21.312  26.762  1.00  0.00     0.261 C 
ENDROOT
BRANCH   1   2
ATOM      2  O   UNL A   1      39.276  21.915  25.666  1.00  0.00    -0.461 OA
BRANCH   2   3
ATOM      3  C   UNL A   1      38.184  22.666  25.991  1.00  0.00     0.347 C 
ATOM      4  O   UNL A   1      38.197  23.652  26.719  1.00  0.00    -0.248 OA
BRANCH   3   5
ATOM      5  C   UNL A   1      36.903  22.076  25.399  1.00  0.00     0.279 C 
ATOM      6  C   UNL A   1      37.018  22.255  23.882  1.00  0.00     0.066 C 
BRANCH   5   7
ATOM      7  O   UNL A   1      35.761  22.709  25.997  1.00  0.00    -0.479 OA
BRANCH   7   8
ATOM      8  C   UNL A   1      34.884  23.401  25.211  1.00  0.00     0.120 A 
ATOM      9  C   UNL A   1      34.040  22.849  24.254  1.00  0.00     0.047 A 
ATOM     10  C   UNL A   1      34.910  24.791  25.370  1.00  0.00     0.047 A 
ATOM     11  C   UNL A   1      33.336  23.685  23.380  1.00  0.00     0.017 A 
ATOM     12  C   UNL A   1      34.195  25.632  24.501  1.00  0.00     0.017 A 
ATOM     13  C   UNL A   1      33.420  25.082  23.478  1.00  0.00     0.040 A 
BRANCH  13  14
ATOM     14  C   UNL A   1      32.793  25.861  22.375  1.00  0.00     0.251 C 
ATOM     15  O   UNL A   1      33.387  25.929  21.298  1.00  0.00    -0.269 OA
ATOM     16  N   UNL A   1      31.598  26.510  22.479  1.00  0.00    -0.348 N 
ATOM     17  H   UNL A   1      31.361  27.032  21.678  1.00  0.00     0.164 HD
BRANCH  16  18
ATOM     18  C   UNL A   1      30.609  26.583  23.531  1.00  0.00     0.152 C 
BRANCH  18  19
ATOM     19  C   UNL A   1      31.030  27.467  24.683  1.00  0.00    -0.029 A 
ATOM     20  C   UNL A   1      31.420  28.806  24.516  1.00  0.00     0.005 A 
ATOM     21  C   UNL A   1      31.045  26.928  25.980  1.00  0.00     0.005 A 
ATOM     22  C   UNL A   1      31.806  29.583  25.611  1.00  0.00     0.000 A 
ATOM     23  C   UNL A   1      31.431  27.706  27.075  1.00  0.00     0.000 A 
ATOM     24  C   UNL A   1      31.810  29.034  26.889  1.00  0.00     0.000 A 
ENDBRANCH  18  19
ENDBRANCH  16  18
ENDBRANCH  13  14
ENDBRANCH   7   8
ENDBRANCH   5   7
ENDBRANCH   3   5
ENDBRANCH   2   3
ENDBRANCH   1   2
BRANCH   1  25
ATOM     25  C   UNL A   1      41.036  20.317  26.280  1.00  0.00     0.202 C 
BRANCH  25  26
ATOM     26  O   UNL A   1      42.388  20.643  26.592  1.00  0.00    -0.374 OA
BRANCH  26  27
ATOM     27  C   UNL A   1      43.362  20.422  25.572  1.00  0.00     0.202 C 
BRANCH  27  28
ATOM     28  C   UNL A   1      44.415  21.522  25.404  1.00  0.00     0.261 C 
BRANCH  28  29
ATOM     29  O   UNL A   1      44.111  22.683  26.201  1.00  0.00    -0.460 OA
BRANCH  29  30
ATOM     30  C   UNL A   1      43.846  23.806  25.497  1.00  0.00     0.338 C 
ATOM     31  O   UNL A   1      44.039  23.998  24.302  1.00  0.00    -0.246 OA
BRANCH  30  32
ATOM     32  C   UNL A   1      43.114  24.772  26.336  1.00  0.00     0.060 A 
ATOM     33  C   UNL A   1      43.641  26.066  26.442  1.00  0.00     0.016 A 
ATOM     34  C   UNL A   1      41.985  24.402  27.071  1.00  0.00     0.016 A 
ATOM     35  C   UNL A   1      43.073  26.979  27.327  1.00  0.00     0.010 A 
ATOM     36  C   UNL A   1      41.420  25.319  27.963  1.00  0.00     0.010 A 
ATOM     37  C   UNL A   1      41.984  26.597  28.123  1.00  0.00    -0.014 A 
BRANCH  37  38
ATOM     38  C   UNL A   1      41.539  27.485  29.224  1.00  0.00     0.031 A 
ATOM     39  C   UNL A   1      42.271  27.441  30.538  1.00  0.00     0.074 A 
ATOM     40  C   UNL A   1      40.518  28.340  29.049  1.00  0.00     0.049 A 
ATOM     41  N   UNL A   1      42.039  28.107  31.640  1.00  0.00    -0.248 NA
ATOM     42  C   UNL A   1      43.417  26.522  30.618  1.00  0.00     0.031 C 
ATOM     43  C   UNL A   1      39.756  28.505  27.813  1.00  0.00     0.029 A 
ATOM     44  N   UNL A   1      39.945  29.232  29.922  1.00  0.00    -0.354 N 
ATOM     45  C   UNL A   1      43.004  27.685  32.546  1.00  0.00     0.074 A 
ATOM     46  C   UNL A   1      43.806  26.684  31.875  1.00  0.00     0.031 C 
ATOM     47  C   UNL A   1      38.807  29.436  28.008  1.00  0.00     0.029 A 
ATOM     48  C   UNL A   1      38.876  29.910  29.389  1.00  0.00     0.049 A 
ATOM     49  H   UNL A   1      40.269  29.371  30.840  1.00  0.00     0.167 HD
ATOM     50  C   UNL A   1      43.212  28.101  33.818  1.00  0.00     0.037 A 
ATOM     51  C   UNL A   1      38.040  30.798  29.960  1.00  0.00     0.037 A 
ATOM     52  C   UNL A   1      42.416  29.097  34.485  1.00  0.00     0.049 A 
ATOM     53  C   UNL A   1      38.246  31.192  31.398  1.00  0.00     0.074 A 
ATOM     54  C   UNL A   1      42.559  29.601  35.765  1.00  0.00     0.029 A 
ATOM     55  N   UNL A   1      41.319  29.734  33.925  1.00  0.00    -0.354 N 
ATOM     56  N   UNL A   1      39.176  30.806  32.237  1.00  0.00    -0.248 NA
ATOM     57  C   UNL A   1      37.283  32.146  31.968  1.00  0.00     0.031 C 
ATOM     58  C   UNL A   1      41.522  30.510  35.996  1.00  0.00     0.029 A 
ATOM     59  C   UNL A   1      40.759  30.608  34.843  1.00  0.00     0.049 A 
ATOM     60  H   UNL A   1      40.987  29.588  33.010  1.00  0.00     0.167 HD
ATOM     61  C   UNL A   1      38.928  31.487  33.423  1.00  0.00     0.074 A 
ATOM     62  C   UNL A   1      37.766  32.319  33.191  1.00  0.00     0.031 C 
ATOM     63  C   UNL A   1      39.603  31.431  34.597  1.00  0.00     0.037 A 
BRANCH  50  64
ATOM     64  C   UNL A   1      44.331  27.455  34.580  1.00  0.00     0.057 A 
ATOM     65  C   UNL A   1      45.620  28.004  34.607  1.00  0.00     0.134 A 
ATOM     66  C   UNL A   1      44.112  26.282  35.312  1.00  0.00     0.134 A 
ATOM     67  F   UNL A   1      45.901  29.119  33.915  1.00  0.00    -0.206 F 
ATOM     68  C   UNL A   1      46.658  27.396  35.318  1.00  0.00     0.040 A 
ATOM     69  C   UNL A   1      45.135  25.678  36.045  1.00  0.00     0.040 A 
ATOM     70  F   UNL A   1      42.901  25.707  35.330  1.00  0.00    -0.206 F 
ATOM     71  C   UNL A   1      46.413  26.231  36.044  1.00  0.00     0.006 A 
ENDBRANCH  50  64
BRANCH  51  72
ATOM     72  C   UNL A   1      36.920  31.371  29.173  1.00  0.00     0.057 A 
ATOM     73  C   UNL A   1      36.960  32.690  28.708  1.00  0.00     0.134 A 
ATOM     74  C   UNL A   1      35.777  30.617  28.879  1.00  0.00     0.134 A 
ATOM     75  F   UNL A   1      38.017  33.469  28.980  1.00  0.00    -0.206 F 
ATOM     76  C   UNL A   1      35.899  33.244  27.991  1.00  0.00     0.040 A 
ATOM     77  C   UNL A   1      34.719  31.150  28.142  1.00  0.00     0.040 A 
ATOM     78  F   UNL A   1      35.678  29.346  29.296  1.00  0.00    -0.206 F 
ATOM     79  C   UNL A   1      34.775  32.470  27.702  1.00  0.00     0.006 A 
ENDBRANCH  51  72
BRANCH  63  80
ATOM     80  C   UNL A   1      39.121  32.313  35.711  1.00  0.00     0.057 A 
ATOM     81  C   UNL A   1      38.248  31.844  36.700  1.00  0.00     0.134 A 
ATOM     82  C   UNL A   1      39.571  33.635  35.819  1.00  0.00     0.134 A 
ATOM     83  F   UNL A   1      37.771  30.591  36.647  1.00  0.00    -0.206 F 
ATOM     84  C   UNL A   1      37.822  32.666  37.746  1.00  0.00     0.040 A 
ATOM     85  C   UNL A   1      39.171  34.459  36.874  1.00  0.00     0.040 A 
ATOM     86  F   UNL A   1      40.416  34.145  34.910  1.00  0.00    -0.206 F 
ATOM     87  C   UNL A   1      38.290  33.975  37.837  1.00  0.00     0.006 A 
ENDBRANCH  63  80
ENDBRANCH  37  38
ENDBRANCH  30  32
ENDBRANCH  29  30
ENDBRANCH  28  29
ENDBRANCH  27  28
ENDBRANCH  26  27
ENDBRANCH  25  26
ENDBRANCH   1  25
TORSDOF 19
ENDMDL
MODEL 2
REMARK VINA RESULT:     -10.9      3.089      8.776
REMARK SMILES C[C@H](Oc1ccc(C(=O)NCc2ccccc2)cc1)C(=O)OCCOCCOC(=O)c1ccc(-c2c3nc(c(-c4c(F)cccc4F)c4ccc([nH]4)c(-c4c(F)cccc4F)c4nc(c(-c5c(F)cccc5F)c5ccc2[nH]5)C=C4)C=C3)cc1
REMARK SMILES IDX 23 1 22 2 20 3 21 4 2 5 1 6 3 7 4 8 5 9 19 10 6 11 18 12
REMARK SMILES IDX 7 13 8 14 9 15 10 16 11 18 12 19 13 20 17 21 14 22 16 23
REMARK SMILES IDX 15 24 24 25 25 26 26 27 27 28 28 29 29 30 30 31 31 32 32 33
REMARK SMILES IDX 84 34 33 35 83 36 34 37 35 38 36 39 77 40 37 41 82 42 76 43
REMARK SMILES IDX 78 44 38 45 81 46 75 47 74 48 39 50 65 51 48 52 64 53 49 54
REMARK SMILES IDX 52 55 63 56 79 57 50 58 51 59 62 61 80 62 53 63 40 64 41 65
REMARK SMILES IDX 46 66 42 67 43 68 45 69 47 70 44 71 66 72 67 73 72 74 68 75
REMARK SMILES IDX 69 76 71 77 73 78 70 79 54 80 55 81 60 82 56 83 57 84 59 85
REMARK SMILES IDX 61 86 58 87
REMARK H PARENT 10 17 78 49 52 60
REMARK Flexibility Score: inf
ROOT
ATOM      1  C   UNL A   1      32.929  28.989  26.122  1.00  0.00     0.261 C 
ENDROOT
BRANCH   1   2
ATOM      2  O   UNL A   1      32.748  28.991  24.697  1.00  0.00    -0.461 OA
BRANCH   2   3
ATOM      3  C   UNL A   1      31.472  28.811  24.250  1.00  0.00     0.347 C 
ATOM      4  O   UNL A   1      30.603  29.675  24.228  1.00  0.00    -0.248 OA
BRANCH   3   5
ATOM      5  C   UNL A   1      31.220  27.356  23.850  1.00  0.00     0.279 C 
ATOM      6  C   UNL A   1      30.370  27.409  22.578  1.00  0.00     0.066 C 
BRANCH   5   7
ATOM      7  O   UNL A   1      30.620  26.652  24.948  1.00  0.00    -0.479 OA
BRANCH   7   8
ATOM      8  C   UNL A   1      31.312  25.651  25.567  1.00  0.00     0.120 A 
ATOM      9  C   UNL A   1      32.695  25.499  25.571  1.00  0.00     0.047 A 
ATOM     10  C   UNL A   1      30.523  24.678  26.191  1.00  0.00     0.047 A 
ATOM     11  C   UNL A   1      33.266  24.324  26.072  1.00  0.00     0.017 A 
ATOM     12  C   UNL A   1      31.095  23.502  26.706  1.00  0.00     0.017 A 
ATOM     13  C   UNL A   1      32.476  23.305  26.625  1.00  0.00     0.040 A 
BRANCH  13  14
ATOM     14  C   UNL A   1      33.170  22.027  26.938  1.00  0.00     0.251 C 
ATOM     15  O   UNL A   1      33.883  21.980  27.943  1.00  0.00    -0.269 OA
ATOM     16  N   UNL A   1      33.072  20.896  26.182  1.00  0.00    -0.348 N 
ATOM     17  H   UNL A   1      33.648  20.160  26.493  1.00  0.00     0.164 HD
BRANCH  16  18
ATOM     18  C   UNL A   1      32.289  20.562  25.012  1.00  0.00     0.152 C 
BRANCH  18  19
ATOM     19  C   UNL A   1      32.812  19.353  24.270  1.00  0.00    -0.029 A 
ATOM     20  C   UNL A   1      32.211  18.854  23.103  1.00  0.00     0.005 A 
ATOM     21  C   UNL A   1      33.942  18.686  24.773  1.00  0.00     0.005 A 
ATOM     22  C   UNL A   1      32.728  17.730  22.454  1.00  0.00     0.000 A 
ATOM     23  C   UNL A   1      34.458  17.562  24.123  1.00  0.00     0.000 A 
ATOM     24  C   UNL A   1      33.851  17.085  22.964  1.00  0.00     0.000 A 
ENDBRANCH  18  19
ENDBRANCH  16  18
ENDBRANCH  13  14
ENDBRANCH   7   8
ENDBRANCH   5   7
ENDBRANCH   3   5
ENDBRANCH   2   3
ENDBRANCH   1   2
BRANCH   1  25
ATOM     25  C   UNL A   1      33.122  30.402  26.672  1.00  0.00     0.202 C 
BRANCH  25  26
ATOM     26  O   UNL A   1      31.977  30.995  27.280  1.00  0.00    -0.374 OA
BRANCH  26  27
ATOM     27  C   UNL A   1      31.403  32.124  26.619  1.00  0.00     0.202 C 
BRANCH  27  28
ATOM     28  C   UNL A   1      32.143  33.453  26.805  1.00  0.00     0.261 C 
BRANCH  28  29
ATOM     29  O   UNL A   1      32.231  33.828  28.193  1.00  0.00    -0.460 OA
BRANCH  29  30
ATOM     30  C   UNL A   1      33.309  34.578  28.515  1.00  0.00     0.338 C 
ATOM     31  O   UNL A   1      33.343  35.788  28.707  1.00  0.00    -0.246 OA
BRANCH  30  32
ATOM     32  C   UNL A   1      34.472  33.712  28.777  1.00  0.00     0.060 A 
ATOM     33  C   UNL A   1      34.235  32.485  29.411  1.00  0.00     0.016 A 
ATOM     34  C   UNL A   1      35.776  34.122  28.487  1.00  0.00     0.016 A 
ATOM     35  C   UNL A   1      35.306  31.688  29.809  1.00  0.00     0.010 A 
ATOM     36  C   UNL A   1      36.849  33.323  28.893  1.00  0.00     0.010 A 
ATOM     37  C   UNL A   1      36.620  32.122  29.589  1.00  0.00    -0.014 A 
BRANCH  37  38
ATOM     38  C   UNL A   1      37.745  31.391  30.222  1.00  0.00     0.031 A 
ATOM     39  C   UNL A   1      38.069  31.660  31.666  1.00  0.00     0.074 A 
ATOM     40  C   UNL A   1      38.448  30.478  29.531  1.00  0.00     0.049 A 
ATOM     41  N   UNL A   1      39.020  31.158  32.411  1.00  0.00    -0.248 NA
ATOM     42  C   UNL A   1      37.205  32.627  32.361  1.00  0.00     0.031 C 
ATOM     43  C   UNL A   1      38.206  30.101  28.140  1.00  0.00     0.029 A 
ATOM     44  N   UNL A   1      39.516  29.705  29.911  1.00  0.00    -0.354 N 
ATOM     45  C   UNL A   1      38.873  31.749  33.659  1.00  0.00     0.074 A 
ATOM     46  C   UNL A   1      37.761  32.670  33.564  1.00  0.00     0.031 C 
ATOM     47  C   UNL A   1      39.107  29.171  27.779  1.00  0.00     0.029 A 
ATOM     48  C   UNL A   1      40.006  28.912  28.903  1.00  0.00     0.049 A 
ATOM     49  H   UNL A   1      39.895  29.717  30.819  1.00  0.00     0.167 HD
ATOM     50  C   UNL A   1      39.593  31.537  34.787  1.00  0.00     0.037 A 
ATOM     51  C   UNL A   1      41.069  28.086  28.887  1.00  0.00     0.037 A 
ATOM     52  C   UNL A   1      40.698  30.620  34.882  1.00  0.00     0.049 A 
ATOM     53  C   UNL A   1      41.898  27.920  30.131  1.00  0.00     0.074 A 
ATOM     54  C   UNL A   1      41.476  30.319  35.986  1.00  0.00     0.029 A 
ATOM     55  N   UNL A   1      41.187  29.862  33.829  1.00  0.00    -0.354 N 
ATOM     56  N   UNL A   1      41.736  28.464  31.313  1.00  0.00    -0.248 NA
ATOM     57  C   UNL A   1      43.060  27.023  30.039  1.00  0.00     0.031 C 
ATOM     58  C   UNL A   1      42.466  29.413  35.589  1.00  0.00     0.029 A 
ATOM     59  C   UNL A   1      42.274  29.114  34.250  1.00  0.00     0.049 A 
ATOM     60  H   UNL A   1      40.816  29.857  32.917  1.00  0.00     0.167 HD
ATOM     61  C   UNL A   1      42.756  27.958  32.110  1.00  0.00     0.074 A 
ATOM     62  C   UNL A   1      43.525  27.054  31.280  1.00  0.00     0.031 C 
ATOM     63  C   UNL A   1      43.029  28.217  33.412  1.00  0.00     0.037 A 
BRANCH  50  64
ATOM     64  C   UNL A   1      39.220  32.334  36.002  1.00  0.00     0.057 A 
ATOM     65  C   UNL A   1      38.302  31.857  36.946  1.00  0.00     0.134 A 
ATOM     66  C   UNL A   1      39.804  33.585  36.241  1.00  0.00     0.134 A 
ATOM     67  F   UNL A   1      37.696  30.673  36.770  1.00  0.00    -0.206 F 
ATOM     68  C   UNL A   1      37.959  32.606  38.074  1.00  0.00     0.040 A 
ATOM     69  C   UNL A   1      39.487  34.331  37.377  1.00  0.00     0.040 A 
ATOM     70  F   UNL A   1      40.692  34.097  35.378  1.00  0.00    -0.206 F 
ATOM     71  C   UNL A   1      38.558  33.846  38.293  1.00  0.00     0.006 A 
ENDBRANCH  50  64
BRANCH  51  72
ATOM     72  C   UNL A   1      41.420  27.357  27.642  1.00  0.00     0.057 A 
ATOM     73  C   UNL A   1      40.950  26.060  27.404  1.00  0.00     0.134 A 
ATOM     74  C   UNL A   1      42.245  27.934  26.669  1.00  0.00     0.134 A 
ATOM     75  F   UNL A   1      40.177  25.446  28.311  1.00  0.00    -0.206 F 
ATOM     76  C   UNL A   1      41.299  25.358  26.249  1.00  0.00     0.040 A 
ATOM     77  C   UNL A   1      42.582  27.253  25.499  1.00  0.00     0.040 A 
ATOM     78  F   UNL A   1      42.728  29.174  26.839  1.00  0.00    -0.206 F 
ATOM     79  C   UNL A   1      42.113  25.958  25.289  1.00  0.00     0.006 A 
ENDBRANCH  51  72
BRANCH  63  80
ATOM     80  C   UNL A   1      44.189  27.492  34.030  1.00  0.00     0.057 A 
ATOM     81  C   UNL A   1      45.473  28.050  34.068  1.00  0.00     0.134 A 
ATOM     82  C   UNL A   1      44.010  26.239  34.630  1.00  0.00     0.134 A 
ATOM     83  F   UNL A   1      45.714  29.242  33.500  1.00  0.00    -0.206 F 
ATOM     84  C   UNL A   1      46.542  27.377  34.664  1.00  0.00     0.040 A 
ATOM     85  C   UNL A   1      45.066  25.569  35.251  1.00  0.00     0.040 A 
ATOM     86  F   UNL A   1      42.803  25.652  34.636  1.00  0.00    -0.206 F 
ATOM     87  C   UNL A   1      46.337  26.136  35.263  1.00  0.00     0.006 A 
ENDBRANCH  63  80
ENDBRANCH  37  38
ENDBRANCH  30  32
ENDBRANCH  29  30
ENDBRANCH  28  29
ENDBRANCH  27  28
ENDBRANCH  26  27
ENDBRANCH  25  26
ENDBRANCH   1  25
TORSDOF 19
ENDMDL
MODEL 3
REMARK VINA RESULT:     -10.8      4.688      9.902
REMARK SMILES C[C@H](Oc1ccc(C(=O)NCc2ccccc2)cc1)C(=O)OCCOCCOC(=O)c1ccc(-c2c3nc(c(-c4c(F)cccc4F)c4ccc([nH]4)c(-c4c(F)cccc4F)c4nc(c(-c5c(F)cccc5F)c5ccc2[nH]5)C=C4)C=C3)cc1
REMARK SMILES IDX 23 1 22 2 20 3 21 4 2 5 1 6 3 7 4 8 5 9 19 10 6 11 18 12
REMARK SMILES IDX 7 13 8 14 9 15 10 16 11 18 12 19 13 20 17 21 14 22 16 23
REMARK SMILES IDX 15 24 24 25 25 26 26 27 27 28 28 29 29 30 30 31 31 32 32 33
REMARK SMILES IDX 84 34 33 35 83 36 34 37 35 38 36 39 77 40 37 41 82 42 76 43
REMARK SMILES IDX 78 44 38 45 81 46 75 47 74 48 39 50 65 51 48 52 64 53 49 54
REMARK SMILES IDX 52 55 63 56 79 57 50 58 51 59 62 61 80 62 53 63 40 64 41 65
REMARK SMILES IDX 46 66 42 67 43 68 45 69 47 70 44 71 66 72 67 73 72 74 68 75
REMARK SMILES IDX 69 76 71 77 73 78 70 79 54 80 55 81 60 82 56 83 57 84 59 85
REMARK SMILES IDX 61 86 58 87
REMARK H PARENT 10 17 78 49 52 60
REMARK Flexibility Score: inf
ROOT
ATOM      1  C   UNL A   1      34.166  32.055  27.628  1.00  0.00     0.261 C 
ENDROOT
BRANCH   1   2
ATOM      2  O   UNL A   1      33.222  30.978  27.738  1.00  0.00    -0.461 OA
BRANCH   2   3
ATOM      3  C   UNL A   1      32.183  30.994  26.853  1.00  0.00     0.347 C 
ATOM      4  O   UNL A   1      31.435  31.945  26.660  1.00  0.00    -0.248 OA
BRANCH   3   5
ATOM      5  C   UNL A   1      32.004  29.633  26.177  1.00  0.00     0.279 C 
ATOM      6  C   UNL A   1      32.564  28.598  27.157  1.00  0.00     0.066 C 
BRANCH   5   7
ATOM      7  O   UNL A   1      32.637  29.650  24.889  1.00  0.00    -0.479 OA
BRANCH   7   8
ATOM      8  C   UNL A   1      32.774  28.484  24.189  1.00  0.00     0.120 A 
ATOM      9  C   UNL A   1      33.974  27.938  23.747  1.00  0.00     0.047 A 
ATOM     10  C   UNL A   1      31.575  27.844  23.854  1.00  0.00     0.047 A 
ATOM     11  C   UNL A   1      33.963  26.847  22.872  1.00  0.00     0.017 A 
ATOM     12  C   UNL A   1      31.562  26.741  22.985  1.00  0.00     0.017 A 
ATOM     13  C   UNL A   1      32.761  26.249  22.464  1.00  0.00     0.040 A 
BRANCH  13  14
ATOM     14  C   UNL A   1      32.862  25.233  21.381  1.00  0.00     0.251 C 
ATOM     15  O   UNL A   1      32.909  25.626  20.214  1.00  0.00    -0.269 OA
ATOM     16  N   UNL A   1      32.905  23.886  21.595  1.00  0.00    -0.348 N 
ATOM     17  H   UNL A   1      32.904  23.354  20.766  1.00  0.00     0.164 HD
BRANCH  16  18
ATOM     18  C   UNL A   1      32.951  23.085  22.798  1.00  0.00     0.152 C 
BRANCH  18  19
ATOM     19  C   UNL A   1      34.212  23.295  23.606  1.00  0.00    -0.029 A 
ATOM     20  C   UNL A   1      35.488  22.951  23.132  1.00  0.00     0.005 A 
ATOM     21  C   UNL A   1      34.107  23.845  24.894  1.00  0.00     0.005 A 
ATOM     22  C   UNL A   1      36.625  23.159  23.917  1.00  0.00     0.000 A 
ATOM     23  C   UNL A   1      35.244  24.053  25.678  1.00  0.00     0.000 A 
ATOM     24  C   UNL A   1      36.503  23.710  25.189  1.00  0.00     0.000 A 
ENDBRANCH  18  19
ENDBRANCH  16  18
ENDBRANCH  13  14
ENDBRANCH   7   8
ENDBRANCH   5   7
ENDBRANCH   3   5
ENDBRANCH   2   3
ENDBRANCH   1   2
BRANCH   1  25
ATOM     25  C   UNL A   1      33.691  33.304  28.368  1.00  0.00     0.202 C 
BRANCH  25  26
ATOM     26  O   UNL A   1      34.602  33.847  29.321  1.00  0.00    -0.374 OA
BRANCH  26  27
ATOM     27  C   UNL A   1      34.043  34.603  30.396  1.00  0.00     0.202 C 
BRANCH  27  28
ATOM     28  C   UNL A   1      34.559  34.255  31.796  1.00  0.00     0.261 C 
BRANCH  28  29
ATOM     29  O   UNL A   1      35.933  33.823  31.769  1.00  0.00    -0.460 OA
BRANCH  29  30
ATOM     30  C   UNL A   1      36.193  32.701  32.476  1.00  0.00     0.338 C 
ATOM     31  O   UNL A   1      35.634  32.319  33.498  1.00  0.00    -0.246 OA
BRANCH  30  32
ATOM     32  C   UNL A   1      37.167  31.861  31.757  1.00  0.00     0.060 A 
ATOM     33  C   UNL A   1      38.182  31.257  32.511  1.00  0.00     0.016 A 
ATOM     34  C   UNL A   1      37.143  31.731  30.366  1.00  0.00     0.016 A 
ATOM     35  C   UNL A   1      39.209  30.568  31.871  1.00  0.00     0.010 A 
ATOM     36  C   UNL A   1      38.179  31.043  29.726  1.00  0.00     0.010 A 
ATOM     37  C   UNL A   1      39.236  30.492  30.473  1.00  0.00    -0.014 A 
BRANCH  37  38
ATOM     38  C   UNL A   1      40.445  29.968  29.793  1.00  0.00     0.031 A 
ATOM     39  C   UNL A   1      41.614  30.889  29.573  1.00  0.00     0.074 A 
ATOM     40  C   UNL A   1      40.516  28.684  29.405  1.00  0.00     0.049 A 
ATOM     41  N   UNL A   1      42.757  30.653  28.981  1.00  0.00    -0.248 NA
ATOM     42  C   UNL A   1      41.474  32.260  30.088  1.00  0.00     0.031 C 
ATOM     43  C   UNL A   1      39.467  27.684  29.597  1.00  0.00     0.029 A 
ATOM     44  N   UNL A   1      41.519  28.003  28.763  1.00  0.00    -0.354 N 
ATOM     45  C   UNL A   1      43.470  31.844  29.048  1.00  0.00     0.074 A 
ATOM     46  C   UNL A   1      42.619  32.810  29.710  1.00  0.00     0.031 C 
ATOM     47  C   UNL A   1      39.879  26.517  29.075  1.00  0.00     0.029 A 
ATOM     48  C   UNL A   1      41.205  26.695  28.487  1.00  0.00     0.049 A 
ATOM     49  H   UNL A   1      42.381  28.412  28.523  1.00  0.00     0.167 HD
ATOM     50  C   UNL A   1      44.722  32.107  28.606  1.00  0.00     0.037 A 
ATOM     51  C   UNL A   1      41.903  25.757  27.819  1.00  0.00     0.037 A 
ATOM     52  C   UNL A   1      45.568  31.147  27.949  1.00  0.00     0.049 A 
ATOM     53  C   UNL A   1      43.264  26.093  27.274  1.00  0.00     0.074 A 
ATOM     54  C   UNL A   1      46.861  31.311  27.484  1.00  0.00     0.029 A 
ATOM     55  N   UNL A   1      45.200  29.843  27.654  1.00  0.00    -0.354 N 
ATOM     56  N   UNL A   1      43.939  27.213  27.365  1.00  0.00    -0.248 NA
ATOM     57  C   UNL A   1      43.963  25.031  26.534  1.00  0.00     0.031 C 
ATOM     58  C   UNL A   1      47.259  30.120  26.867  1.00  0.00     0.029 A 
ATOM     59  C   UNL A   1      46.231  29.199  26.990  1.00  0.00     0.049 A 
ATOM     60  H   UNL A   1      44.335  29.435  27.884  1.00  0.00     0.167 HD
ATOM     61  C   UNL A   1      45.147  26.986  26.717  1.00  0.00     0.074 A 
ATOM     62  C   UNL A   1      45.118  25.616  26.249  1.00  0.00     0.031 C 
ATOM     63  C   UNL A   1      46.188  27.834  26.531  1.00  0.00     0.037 A 
BRANCH  50  64
ATOM     64  C   UNL A   1      45.242  33.502  28.799  1.00  0.00     0.057 A 
ATOM     65  C   UNL A   1      45.055  34.500  27.833  1.00  0.00     0.134 A 
ATOM     66  C   UNL A   1      45.917  33.855  29.973  1.00  0.00     0.134 A 
ATOM     67  F   UNL A   1      44.429  34.224  26.680  1.00  0.00    -0.206 F 
ATOM     68  C   UNL A   1      45.544  35.796  28.019  1.00  0.00     0.040 A 
ATOM     69  C   UNL A   1      46.388  35.153  30.181  1.00  0.00     0.040 A 
ATOM     70  F   UNL A   1      46.126  32.947  30.938  1.00  0.00    -0.206 F 
ATOM     71  C   UNL A   1      46.208  36.125  29.200  1.00  0.00     0.006 A 
ENDBRANCH  50  64
BRANCH  51  72
ATOM     72  C   UNL A   1      41.321  24.406  27.617  1.00  0.00     0.057 A 
ATOM     73  C   UNL A   1      40.311  24.185  26.673  1.00  0.00     0.134 A 
ATOM     74  C   UNL A   1      41.749  23.309  28.372  1.00  0.00     0.134 A 
ATOM     75  F   UNL A   1      39.841  25.203  25.937  1.00  0.00    -0.206 F 
ATOM     76  C   UNL A   1      39.739  22.925  26.497  1.00  0.00     0.040 A 
ATOM     77  C   UNL A   1      41.204  22.038  28.191  1.00  0.00     0.040 A 
ATOM     78  F   UNL A   1      42.714  23.456  29.293  1.00  0.00    -0.206 F 
ATOM     79  C   UNL A   1      40.191  21.844  27.255  1.00  0.00     0.006 A 
ENDBRANCH  51  72
BRANCH  63  80
ATOM     80  C   UNL A   1      47.393  27.297  25.814  1.00  0.00     0.057 A 
ATOM     81  C   UNL A   1      47.528  27.391  24.424  1.00  0.00     0.134 A 
ATOM     82  C   UNL A   1      48.450  26.719  26.530  1.00  0.00     0.134 A 
ATOM     83  F   UNL A   1      46.547  27.923  23.679  1.00  0.00    -0.206 F 
ATOM     84  C   UNL A   1      48.663  26.908  23.768  1.00  0.00     0.040 A 
ATOM     85  C   UNL A   1      49.600  26.256  25.888  1.00  0.00     0.040 A 
ATOM     86  F   UNL A   1      48.388  26.607  27.866  1.00  0.00    -0.206 F 
ATOM     87  C   UNL A   1      49.705  26.345  24.502  1.00  0.00     0.006 A 
ENDBRANCH  63  80
ENDBRANCH  37  38
ENDBRANCH  30  32
ENDBRANCH  29  30
ENDBRANCH  28  29
ENDBRANCH  27  28
ENDBRANCH  26  27
ENDBRANCH  25  26
ENDBRANCH   1  25
TORSDOF 19
ENDMDL
