MODEL 1
REMARK VINA RESULT:     -12.7      0.000      0.000
REMARK SMILES Cc1nccn1C1(C(=O)OCCOCCOC(=O)c2ccc(-c3c4nc(c(-c5c(F)cccc5F)c5ccc([nH]5)c(-c5c(F)cccc5F)c5nc(c(-c6c(F)cccc6F)c6ccc3[nH]6)C=C5)C=C4)cc2)CCN(C(=O)[C@@H]2C[C@H]2c2ccccc2)CC1
REMARK SMILES IDX 13 1 12 2 11 3 10 4 8 5 9 6 7 7 73 8 88 9 74 10 87 11 75 12
REMARK SMILES IDX 76 13 77 14 6 15 1 16 2 17 3 18 4 19 5 20 78 21 79 22 80 23
REMARK SMILES IDX 81 24 82 25 86 26 83 27 85 28 84 29 14 30 15 31 16 32 17 33
REMARK SMILES IDX 18 34 19 35 20 36 72 37 21 38 71 39 22 40 23 41 24 42 65 43
REMARK SMILES IDX 25 44 70 45 64 46 66 47 26 48 69 49 63 50 62 51 27 53 53 54
REMARK SMILES IDX 36 55 52 56 37 57 40 58 51 59 67 60 38 61 39 62 50 64 68 65
REMARK SMILES IDX 41 66 28 67 29 68 34 69 30 70 31 71 33 72 35 73 32 74 54 75
REMARK SMILES IDX 55 76 60 77 56 78 57 79 59 80 61 81 58 82 42 83 43 84 48 85
REMARK SMILES IDX 44 86 45 87 47 88 49 89 46 90
REMARK H PARENT 66 52 40 63
REMARK Flexibility Score: inf
ROOT
ATOM      1  O   UNL A   1      39.820  21.040  26.096  1.00  0.00    -0.374 OA
ENDROOT
BRANCH   1   2
ATOM      2  C   UNL A   1      38.880  22.106  25.989  1.00  0.00     0.202 C 
BRANCH   2   3
ATOM      3  C   UNL A   1      37.576  21.883  25.220  1.00  0.00     0.261 C 
BRANCH   3   4
ATOM      4  O   UNL A   1      36.834  23.094  24.973  1.00  0.00    -0.461 OA
BRANCH   4   5
ATOM      5  C   UNL A   1      35.869  22.996  24.011  1.00  0.00     0.332 C 
ATOM      6  O   UNL A   1      36.129  22.968  22.811  1.00  0.00    -0.249 OA
BRANCH   5   7
ATOM      7  C   UNL A   1      34.403  23.057  24.564  1.00  0.00     0.146 C 
ATOM      8  C   UNL A   1      34.314  23.716  25.968  1.00  0.00     0.062 C 
ATOM      9  C   UNL A   1      33.862  24.047  23.503  1.00  0.00     0.062 C 
ATOM     10  C   UNL A   1      32.958  24.369  26.264  1.00  0.00     0.122 C 
ATOM     11  C   UNL A   1      32.470  24.444  23.846  1.00  0.00     0.122 C 
ATOM     12  N   UNL A   1      32.428  25.122  25.123  1.00  0.00    -0.342 N 
ATOM     13  C   UNL A   1      31.707  26.288  25.376  1.00  0.00     0.226 C 
ATOM     14  O   UNL A   1      31.244  26.522  26.490  1.00  0.00    -0.275 OA
BRANCH   7  15
ATOM     15  N   UNL A   1      33.786  21.678  24.592  1.00  0.00    -0.318 N 
ATOM     16  C   UNL A   1      32.095  21.249  22.534  1.00  0.00     0.087 C 
ATOM     17  C   UNL A   1      32.872  20.955  23.785  1.00  0.00     0.106 A 
ATOM     18  N   UNL A   1      32.622  19.770  24.319  1.00  0.00    -0.242 NA
ATOM     19  C   UNL A   1      33.267  19.702  25.494  1.00  0.00     0.131 A 
ATOM     20  C   UNL A   1      33.966  20.852  25.700  1.00  0.00     0.108 A 
ENDBRANCH   7  15
BRANCH  13  21
ATOM     21  C   UNL A   1      31.593  27.373  24.345  1.00  0.00     0.087 C 
ATOM     22  C   UNL A   1      32.507  28.572  24.315  1.00  0.00     0.023 C 
ATOM     23  C   UNL A   1      31.041  28.747  24.601  1.00  0.00     0.032 C 
BRANCH  23  24
ATOM     24  C   UNL A   1      30.059  29.464  23.748  1.00  0.00    -0.044 A 
ATOM     25  C   UNL A   1      29.819  30.826  23.986  1.00  0.00     0.004 A 
ATOM     26  C   UNL A   1      29.103  28.732  23.028  1.00  0.00     0.004 A 
ATOM     27  C   UNL A   1      28.611  31.410  23.615  1.00  0.00     0.000 A 
ATOM     28  C   UNL A   1      27.894  29.315  22.654  1.00  0.00     0.000 A 
ATOM     29  C   UNL A   1      27.640  30.647  22.973  1.00  0.00     0.000 A 
ENDBRANCH  23  24
ENDBRANCH  13  21
ENDBRANCH   5   7
ENDBRANCH   4   5
ENDBRANCH   3   4
ENDBRANCH   2   3
ENDBRANCH   1   2
BRANCH   1  30
ATOM     30  C   UNL A   1      40.857  21.071  27.068  1.00  0.00     0.202 C 
BRANCH  30  31
ATOM     31  C   UNL A   1      42.110  20.237  26.856  1.00  0.00     0.261 C 
BRANCH  31  32
ATOM     32  O   UNL A   1      42.476  20.224  25.487  1.00  0.00    -0.460 OA
BRANCH  32  33
ATOM     33  C   UNL A   1      43.815  20.152  25.298  1.00  0.00     0.338 C 
ATOM     34  O   UNL A   1      44.521  19.170  25.394  1.00  0.00    -0.246 OA
BRANCH  33  35
ATOM     35  C   UNL A   1      44.327  21.511  25.070  1.00  0.00     0.060 A 
ATOM     36  C   UNL A   1      45.338  21.877  25.955  1.00  0.00     0.016 A 
ATOM     37  C   UNL A   1      43.510  22.449  24.421  1.00  0.00     0.016 A 
ATOM     38  C   UNL A   1      45.251  23.126  26.508  1.00  0.00     0.010 A 
ATOM     39  C   UNL A   1      43.434  23.704  24.965  1.00  0.00     0.010 A 
ATOM     40  C   UNL A   1      44.208  23.961  26.090  1.00  0.00    -0.014 A 
BRANCH  40  41
ATOM     41  C   UNL A   1      43.958  25.142  26.875  1.00  0.00     0.031 A 
ATOM     42  C   UNL A   1      45.038  26.133  26.737  1.00  0.00     0.074 A 
ATOM     43  C   UNL A   1      42.844  25.297  27.612  1.00  0.00     0.049 A 
ATOM     44  N   UNL A   1      45.948  26.423  27.604  1.00  0.00    -0.248 NA
ATOM     45  C   UNL A   1      45.270  26.685  25.396  1.00  0.00     0.031 C 
ATOM     46  C   UNL A   1      41.613  24.502  27.632  1.00  0.00     0.029 A 
ATOM     47  N   UNL A   1      42.570  26.306  28.478  1.00  0.00    -0.354 N 
ATOM     48  C   UNL A   1      46.770  27.348  26.975  1.00  0.00     0.074 A 
ATOM     49  C   UNL A   1      46.433  27.311  25.577  1.00  0.00     0.031 C 
ATOM     50  C   UNL A   1      40.649  25.194  28.285  1.00  0.00     0.029 A 
ATOM     51  C   UNL A   1      41.234  26.400  28.844  1.00  0.00     0.049 A 
ATOM     52  H   UNL A   1      43.262  26.920  28.817  1.00  0.00     0.167 HD
ATOM     53  C   UNL A   1      47.506  28.237  27.689  1.00  0.00     0.037 A 
ATOM     54  C   UNL A   1      40.689  27.473  29.471  1.00  0.00     0.037 A 
ATOM     55  C   UNL A   1      47.601  27.847  29.072  1.00  0.00     0.049 A 
ATOM     56  C   UNL A   1      41.815  28.221  30.108  1.00  0.00     0.074 A 
ATOM     57  C   UNL A   1      48.179  26.783  29.738  1.00  0.00     0.029 A 
ATOM     58  N   UNL A   1      46.698  28.397  29.952  1.00  0.00    -0.354 N 
ATOM     59  N   UNL A   1      42.514  27.747  31.104  1.00  0.00    -0.248 NA
ATOM     60  C   UNL A   1      42.484  29.240  29.308  1.00  0.00     0.031 C 
ATOM     61  C   UNL A   1      47.265  26.459  30.782  1.00  0.00     0.029 A 
ATOM     62  C   UNL A   1      46.218  27.380  30.739  1.00  0.00     0.049 A 
ATOM     63  H   UNL A   1      46.442  29.345  30.006  1.00  0.00     0.167 HD
ATOM     64  C   UNL A   1      43.830  28.091  30.817  1.00  0.00     0.074 A 
ATOM     65  C   UNL A   1      43.741  29.055  29.721  1.00  0.00     0.031 C 
ATOM     66  C   UNL A   1      44.878  27.349  31.282  1.00  0.00     0.037 A 
BRANCH  53  67
ATOM     67  C   UNL A   1      47.836  29.624  27.214  1.00  0.00     0.057 A 
ATOM     68  C   UNL A   1      49.179  30.032  27.177  1.00  0.00     0.134 A 
ATOM     69  C   UNL A   1      46.887  30.655  27.054  1.00  0.00     0.134 A 
ATOM     70  F   UNL A   1      50.174  29.145  27.326  1.00  0.00    -0.206 F 
ATOM     71  C   UNL A   1      49.546  31.378  27.063  1.00  0.00     0.040 A 
ATOM     72  C   UNL A   1      47.245  31.993  26.883  1.00  0.00     0.040 A 
ATOM     73  F   UNL A   1      45.569  30.448  27.156  1.00  0.00    -0.206 F 
ATOM     74  C   UNL A   1      48.577  32.364  26.922  1.00  0.00     0.006 A 
ENDBRANCH  53  67
BRANCH  54  75
ATOM     75  C   UNL A   1      39.368  28.090  29.210  1.00  0.00     0.057 A 
ATOM     76  C   UNL A   1      38.406  28.217  30.221  1.00  0.00     0.134 A 
ATOM     77  C   UNL A   1      39.120  28.814  28.030  1.00  0.00     0.134 A 
ATOM     78  F   UNL A   1      38.577  27.604  31.401  1.00  0.00    -0.206 F 
ATOM     79  C   UNL A   1      37.270  29.026  30.072  1.00  0.00     0.040 A 
ATOM     80  C   UNL A   1      37.990  29.622  27.866  1.00  0.00     0.040 A 
ATOM     81  F   UNL A   1      40.012  28.834  27.028  1.00  0.00    -0.206 F 
ATOM     82  C   UNL A   1      37.064  29.740  28.894  1.00  0.00     0.006 A 
ENDBRANCH  54  75
BRANCH  66  83
ATOM     83  C   UNL A   1      44.578  26.249  32.266  1.00  0.00     0.057 A 
ATOM     84  C   UNL A   1      44.360  24.911  31.900  1.00  0.00     0.134 A 
ATOM     85  C   UNL A   1      44.687  26.518  33.634  1.00  0.00     0.134 A 
ATOM     86  F   UNL A   1      44.345  24.540  30.614  1.00  0.00    -0.206 F 
ATOM     87  C   UNL A   1      44.220  23.896  32.853  1.00  0.00     0.040 A 
ATOM     88  C   UNL A   1      44.583  25.509  34.595  1.00  0.00     0.040 A 
ATOM     89  F   UNL A   1      44.958  27.762  34.057  1.00  0.00    -0.206 F 
ATOM     90  C   UNL A   1      44.339  24.195  34.206  1.00  0.00     0.006 A 
ENDBRANCH  66  83
ENDBRANCH  40  41
ENDBRANCH  33  35
ENDBRANCH  32  33
ENDBRANCH  31  32
ENDBRANCH  30  31
ENDBRANCH   1  30
TORSDOF 17
ENDMDL
MODEL 2
REMARK VINA RESULT:     -11.2      2.870      4.217
REMARK SMILES Cc1nccn1C1(C(=O)OCCOCCOC(=O)c2ccc(-c3c4nc(c(-c5c(F)cccc5F)c5ccc([nH]5)c(-c5c(F)cccc5F)c5nc(c(-c6c(F)cccc6F)c6ccc3[nH]6)C=C5)C=C4)cc2)CCN(C(=O)[C@@H]2C[C@H]2c2ccccc2)CC1
REMARK SMILES IDX 13 1 12 2 11 3 10 4 8 5 9 6 7 7 73 8 88 9 74 10 87 11 75 12
REMARK SMILES IDX 76 13 77 14 6 15 1 16 2 17 3 18 4 19 5 20 78 21 79 22 80 23
REMARK SMILES IDX 81 24 82 25 86 26 83 27 85 28 84 29 14 30 15 31 16 32 17 33
REMARK SMILES IDX 18 34 19 35 20 36 72 37 21 38 71 39 22 40 23 41 24 42 65 43
REMARK SMILES IDX 25 44 70 45 64 46 66 47 26 48 69 49 63 50 62 51 27 53 53 54
REMARK SMILES IDX 36 55 52 56 37 57 40 58 51 59 67 60 38 61 39 62 50 64 68 65
REMARK SMILES IDX 41 66 28 67 29 68 34 69 30 70 31 71 33 72 35 73 32 74 54 75
REMARK SMILES IDX 55 76 60 77 56 78 57 79 59 80 61 81 58 82 42 83 43 84 48 85
REMARK SMILES IDX 44 86 45 87 47 88 49 89 46 90
REMARK H PARENT 66 52 40 63
REMARK Flexibility Score: inf
ROOT
ATOM      1  O   UNL A   1      39.126  21.530  25.839  1.00  0.00    -0.374 OA
ENDROOT
BRANCH   1   2
ATOM      2  C   UNL A   1      38.441  22.749  26.118  1.00  0.00     0.202 C 
BRANCH   2   3
ATOM      3  C   UNL A   1      37.415  23.280  25.115  1.00  0.00     0.261 C 
BRANCH   3   4
ATOM      4  O   UNL A   1      36.368  22.339  24.803  1.00  0.00    -0.461 OA
BRANCH   4   5
ATOM      5  C   UNL A   1      35.451  22.775  23.889  1.00  0.00     0.332 C 
ATOM      6  O   UNL A   1      35.766  23.159  22.765  1.00  0.00    -0.249 OA
BRANCH   5   7
ATOM      7  C   UNL A   1      33.987  22.868  24.443  1.00  0.00     0.146 C 
ATOM      8  C   UNL A   1      33.908  23.573  25.825  1.00  0.00     0.062 C 
ATOM      9  C   UNL A   1      33.454  23.830  23.352  1.00  0.00     0.062 C 
ATOM     10  C   UNL A   1      32.560  24.249  26.103  1.00  0.00     0.122 C 
ATOM     11  C   UNL A   1      32.067  24.252  23.685  1.00  0.00     0.122 C 
ATOM     12  N   UNL A   1      32.035  24.971  24.940  1.00  0.00    -0.342 N 
ATOM     13  C   UNL A   1      31.326  26.151  25.156  1.00  0.00     0.226 C 
ATOM     14  O   UNL A   1      30.868  26.426  26.263  1.00  0.00    -0.275 OA
BRANCH   7  15
ATOM     15  N   UNL A   1      33.356  21.497  24.517  1.00  0.00    -0.318 N 
ATOM     16  C   UNL A   1      31.912  20.895  22.319  1.00  0.00     0.087 C 
ATOM     17  C   UNL A   1      32.534  20.709  23.672  1.00  0.00     0.106 A 
ATOM     18  N   UNL A   1      32.211  19.574  24.272  1.00  0.00    -0.242 NA
ATOM     19  C   UNL A   1      32.714  19.607  25.517  1.00  0.00     0.131 A 
ATOM     20  C   UNL A   1      33.397  20.770  25.704  1.00  0.00     0.108 A 
ENDBRANCH   7  15
BRANCH  13  21
ATOM     21  C   UNL A   1      31.220  27.204  24.092  1.00  0.00     0.087 C 
ATOM     22  C   UNL A   1      32.295  28.235  23.852  1.00  0.00     0.023 C 
ATOM     23  C   UNL A   1      30.940  28.658  24.346  1.00  0.00     0.032 C 
BRANCH  23  24
ATOM     24  C   UNL A   1      29.959  29.497  23.610  1.00  0.00    -0.044 A 
ATOM     25  C   UNL A   1      29.755  30.823  24.021  1.00  0.00     0.004 A 
ATOM     26  C   UNL A   1      28.972  28.881  22.826  1.00  0.00     0.004 A 
ATOM     27  C   UNL A   1      28.554  31.475  23.753  1.00  0.00     0.000 A 
ATOM     28  C   UNL A   1      27.770  29.532  22.554  1.00  0.00     0.000 A 
ATOM     29  C   UNL A   1      27.554  30.818  23.042  1.00  0.00     0.000 A 
ENDBRANCH  23  24
ENDBRANCH  13  21
ENDBRANCH   5   7
ENDBRANCH   4   5
ENDBRANCH   3   4
ENDBRANCH   2   3
ENDBRANCH   1   2
BRANCH   1  30
ATOM     30  C   UNL A   1      40.400  21.259  26.409  1.00  0.00     0.202 C 
BRANCH  30  31
ATOM     31  C   UNL A   1      41.169  22.376  27.095  1.00  0.00     0.261 C 
BRANCH  31  32
ATOM     32  O   UNL A   1      42.174  22.890  26.239  1.00  0.00    -0.460 OA
BRANCH  32  33
ATOM     33  C   UNL A   1      42.146  24.240  26.140  1.00  0.00     0.338 C 
ATOM     34  O   UNL A   1      42.674  24.929  25.292  1.00  0.00    -0.246 OA
BRANCH  33  35
ATOM     35  C   UNL A   1      41.459  24.779  27.323  1.00  0.00     0.060 A 
ATOM     36  C   UNL A   1      40.245  25.393  27.026  1.00  0.00     0.016 A 
ATOM     37  C   UNL A   1      42.211  25.099  28.464  1.00  0.00     0.016 A 
ATOM     38  C   UNL A   1      40.000  26.598  27.625  1.00  0.00     0.010 A 
ATOM     39  C   UNL A   1      41.956  26.298  29.073  1.00  0.00     0.010 A 
ATOM     40  C   UNL A   1      40.942  27.084  28.539  1.00  0.00    -0.014 A 
BRANCH  40  41
ATOM     41  C   UNL A   1      40.820  28.463  28.938  1.00  0.00     0.031 A 
ATOM     42  C   UNL A   1      41.909  29.291  28.396  1.00  0.00     0.074 A 
ATOM     43  C   UNL A   1      39.800  28.907  29.693  1.00  0.00     0.049 A 
ATOM     44  N   UNL A   1      42.919  29.772  29.038  1.00  0.00    -0.248 NA
ATOM     45  C   UNL A   1      42.008  29.391  26.934  1.00  0.00     0.031 C 
ATOM     46  C   UNL A   1      38.554  28.238  30.077  1.00  0.00     0.029 A 
ATOM     47  N   UNL A   1      39.657  30.148  30.224  1.00  0.00    -0.354 N 
ATOM     48  C   UNL A   1      43.696  30.405  28.078  1.00  0.00     0.074 A 
ATOM     49  C   UNL A   1      43.204  29.964  26.800  1.00  0.00     0.031 C 
ATOM     50  C   UNL A   1      37.691  29.158  30.572  1.00  0.00     0.029 A 
ATOM     51  C   UNL A   1      38.374  30.436  30.670  1.00  0.00     0.049 A 
ATOM     52  H   UNL A   1      40.402  30.790  30.288  1.00  0.00     0.167 HD
ATOM     53  C   UNL A   1      44.535  31.420  28.407  1.00  0.00     0.037 A 
ATOM     54  C   UNL A   1      37.937  31.683  30.981  1.00  0.00     0.037 A 
ATOM     55  C   UNL A   1      44.770  31.465  29.827  1.00  0.00     0.049 A 
ATOM     56  C   UNL A   1      39.150  32.514  31.244  1.00  0.00     0.074 A 
ATOM     57  C   UNL A   1      45.383  30.620  30.731  1.00  0.00     0.029 A 
ATOM     58  N   UNL A   1      43.988  32.315  30.574  1.00  0.00    -0.354 N 
ATOM     59  N   UNL A   1      39.940  32.323  32.266  1.00  0.00    -0.248 NA
ATOM     60  C   UNL A   1      39.759  33.194  30.106  1.00  0.00     0.031 C 
ATOM     61  C   UNL A   1      44.582  30.692  31.907  1.00  0.00     0.029 A 
ATOM     62  C   UNL A   1      43.567  31.621  31.681  1.00  0.00     0.049 A 
ATOM     63  H   UNL A   1      43.772  33.250  30.355  1.00  0.00     0.167 HD
ATOM     64  C   UNL A   1      41.227  32.476  31.762  1.00  0.00     0.074 A 
ATOM     65  C   UNL A   1      41.048  33.063  30.435  1.00  0.00     0.031 C 
ATOM     66  C   UNL A   1      42.295  31.845  32.332  1.00  0.00     0.037 A 
BRANCH  53  67
ATOM     67  C   UNL A   1      44.855  32.571  27.495  1.00  0.00     0.057 A 
ATOM     68  C   UNL A   1      46.081  32.580  26.810  1.00  0.00     0.134 A 
ATOM     69  C   UNL A   1      44.142  33.788  27.471  1.00  0.00     0.134 A 
ATOM     70  F   UNL A   1      46.855  31.486  26.768  1.00  0.00    -0.206 F 
ATOM     71  C   UNL A   1      46.591  33.737  26.210  1.00  0.00     0.040 A 
ATOM     72  C   UNL A   1      44.616  34.931  26.828  1.00  0.00     0.040 A 
ATOM     73  F   UNL A   1      43.003  33.972  28.150  1.00  0.00    -0.206 F 
ATOM     74  C   UNL A   1      45.860  34.919  26.223  1.00  0.00     0.006 A 
ENDBRANCH  53  67
BRANCH  54  75
ATOM     75  C   UNL A   1      36.616  32.275  30.669  1.00  0.00     0.057 A 
ATOM     76  C   UNL A   1      35.863  32.943  31.645  1.00  0.00     0.134 A 
ATOM     77  C   UNL A   1      36.182  32.436  29.340  1.00  0.00     0.134 A 
ATOM     78  F   UNL A   1      36.226  32.891  32.935  1.00  0.00    -0.206 F 
ATOM     79  C   UNL A   1      34.752  33.734  31.318  1.00  0.00     0.040 A 
ATOM     80  C   UNL A   1      35.075  33.218  29.000  1.00  0.00     0.040 A 
ATOM     81  F   UNL A   1      36.874  31.911  28.318  1.00  0.00    -0.206 F 
ATOM     82  C   UNL A   1      34.360  33.881  29.990  1.00  0.00     0.006 A 
ENDBRANCH  54  75
BRANCH  66  83
ATOM     83  C   UNL A   1      42.071  31.120  33.633  1.00  0.00     0.057 A 
ATOM     84  C   UNL A   1      42.064  31.750  34.887  1.00  0.00     0.134 A 
ATOM     85  C   UNL A   1      41.676  29.779  33.600  1.00  0.00     0.134 A 
ATOM     86  F   UNL A   1      42.326  33.058  35.005  1.00  0.00    -0.206 F 
ATOM     87  C   UNL A   1      41.718  31.067  36.058  1.00  0.00     0.040 A 
ATOM     88  C   UNL A   1      41.295  29.093  34.756  1.00  0.00     0.040 A 
ATOM     89  F   UNL A   1      41.596  29.128  32.429  1.00  0.00    -0.206 F 
ATOM     90  C   UNL A   1      41.325  29.734  35.992  1.00  0.00     0.006 A 
ENDBRANCH  66  83
ENDBRANCH  40  41
ENDBRANCH  33  35
ENDBRANCH  32  33
ENDBRANCH  31  32
ENDBRANCH  30  31
ENDBRANCH   1  30
TORSDOF 17
ENDMDL
MODEL 3
REMARK VINA RESULT:     -10.8      2.405      3.797
REMARK SMILES Cc1nccn1C1(C(=O)OCCOCCOC(=O)c2ccc(-c3c4nc(c(-c5c(F)cccc5F)c5ccc([nH]5)c(-c5c(F)cccc5F)c5nc(c(-c6c(F)cccc6F)c6ccc3[nH]6)C=C5)C=C4)cc2)CCN(C(=O)[C@@H]2C[C@H]2c2ccccc2)CC1
REMARK SMILES IDX 13 1 12 2 11 3 10 4 8 5 9 6 7 7 73 8 88 9 74 10 87 11 75 12
REMARK SMILES IDX 76 13 77 14 6 15 1 16 2 17 3 18 4 19 5 20 78 21 79 22 80 23
REMARK SMILES IDX 81 24 82 25 86 26 83 27 85 28 84 29 14 30 15 31 16 32 17 33
REMARK SMILES IDX 18 34 19 35 20 36 72 37 21 38 71 39 22 40 23 41 24 42 65 43
REMARK SMILES IDX 25 44 70 45 64 46 66 47 26 48 69 49 63 50 62 51 27 53 53 54
REMARK SMILES IDX 36 55 52 56 37 57 40 58 51 59 67 60 38 61 39 62 50 64 68 65
REMARK SMILES IDX 41 66 28 67 29 68 34 69 30 70 31 71 33 72 35 73 32 74 54 75
REMARK SMILES IDX 55 76 60 77 56 78 57 79 59 80 61 81 58 82 42 83 43 84 48 85
REMARK SMILES IDX 44 86 45 87 47 88 49 89 46 90
REMARK H PARENT 66 52 40 63
REMARK Flexibility Score: inf
ROOT
ATOM      1  O   UNL A   1      38.733  23.691  26.199  1.00  0.00    -0.374 OA
ENDROOT
BRANCH   1   2
ATOM      2  C   UNL A   1      38.280  22.417  25.749  1.00  0.00     0.202 C 
BRANCH   2   3
ATOM      3  C   UNL A   1      36.943  22.312  25.011  1.00  0.00     0.261 C 
BRANCH   3   4
ATOM      4  O   UNL A   1      36.361  23.590  24.684  1.00  0.00    -0.461 OA
BRANCH   4   5
ATOM      5  C   UNL A   1      35.287  23.537  23.839  1.00  0.00     0.332 C 
ATOM      6  O   UNL A   1      35.406  23.507  22.617  1.00  0.00    -0.249 OA
BRANCH   5   7
ATOM      7  C   UNL A   1      33.899  23.654  24.559  1.00  0.00     0.146 C 
ATOM      8  C   UNL A   1      33.952  24.540  25.834  1.00  0.00     0.062 C 
ATOM      9  C   UNL A   1      33.187  24.436  23.427  1.00  0.00     0.062 C 
ATOM     10  C   UNL A   1      32.615  25.199  26.191  1.00  0.00     0.122 C 
ATOM     11  C   UNL A   1      31.831  24.851  23.877  1.00  0.00     0.122 C 
ATOM     12  N   UNL A   1      31.915  25.734  25.019  1.00  0.00    -0.342 N 
ATOM     13  C   UNL A   1      31.176  26.908  25.166  1.00  0.00     0.226 C 
ATOM     14  O   UNL A   1      30.843  27.315  26.277  1.00  0.00    -0.275 OA
BRANCH   7  15
ATOM     15  N   UNL A   1      33.355  22.285  24.893  1.00  0.00    -0.318 N 
ATOM     16  C   UNL A   1      33.992  21.491  27.392  1.00  0.00     0.087 C 
ATOM     17  C   UNL A   1      33.387  21.424  26.020  1.00  0.00     0.106 A 
ATOM     18  N   UNL A   1      32.783  20.280  25.742  1.00  0.00    -0.242 NA
ATOM     19  C   UNL A   1      32.421  20.306  24.449  1.00  0.00     0.131 A 
ATOM     20  C   UNL A   1      32.773  21.500  23.900  1.00  0.00     0.108 A 
ENDBRANCH   7  15
BRANCH  13  21
ATOM     21  C   UNL A   1      30.887  27.799  23.995  1.00  0.00     0.087 C 
ATOM     22  C   UNL A   1      31.915  28.730  23.401  1.00  0.00     0.023 C 
ATOM     23  C   UNL A   1      30.690  29.287  24.075  1.00  0.00     0.032 C 
BRANCH  23  24
ATOM     24  C   UNL A   1      29.602  30.058  23.419  1.00  0.00    -0.044 A 
ATOM     25  C   UNL A   1      29.260  29.758  22.092  1.00  0.00     0.004 A 
ATOM     26  C   UNL A   1      29.228  31.306  23.942  1.00  0.00     0.004 A 
ATOM     27  C   UNL A   1      28.664  30.717  21.277  1.00  0.00     0.000 A 
ATOM     28  C   UNL A   1      28.629  32.266  23.128  1.00  0.00     0.000 A 
ATOM     29  C   UNL A   1      28.373  31.978  21.790  1.00  0.00     0.000 A 
ENDBRANCH  23  24
ENDBRANCH  13  21
ENDBRANCH   5   7
ENDBRANCH   4   5
ENDBRANCH   3   4
ENDBRANCH   2   3
ENDBRANCH   1   2
BRANCH   1  30
ATOM     30  C   UNL A   1      39.771  23.801  27.164  1.00  0.00     0.202 C 
BRANCH  30  31
ATOM     31  C   UNL A   1      40.513  22.554  27.614  1.00  0.00     0.261 C 
BRANCH  31  32
ATOM     32  O   UNL A   1      41.897  22.665  27.329  1.00  0.00    -0.460 OA
BRANCH  32  33
ATOM     33  C   UNL A   1      42.256  22.030  26.188  1.00  0.00     0.338 C 
ATOM     34  O   UNL A   1      41.816  20.985  25.757  1.00  0.00    -0.246 OA
BRANCH  33  35
ATOM     35  C   UNL A   1      43.383  22.756  25.586  1.00  0.00     0.060 A 
ATOM     36  C   UNL A   1      44.599  22.517  26.222  1.00  0.00     0.016 A 
ATOM     37  C   UNL A   1      43.130  23.924  24.850  1.00  0.00     0.016 A 
ATOM     38  C   UNL A   1      45.387  23.606  26.476  1.00  0.00     0.010 A 
ATOM     39  C   UNL A   1      43.928  25.010  25.093  1.00  0.00     0.010 A 
ATOM     40  C   UNL A   1      44.954  24.855  26.017  1.00  0.00    -0.014 A 
BRANCH  40  41
ATOM     41  C   UNL A   1      45.633  26.016  26.532  1.00  0.00     0.031 A 
ATOM     42  C   UNL A   1      47.052  26.042  26.141  1.00  0.00     0.074 A 
ATOM     43  C   UNL A   1      45.004  26.958  27.256  1.00  0.00     0.049 A 
ATOM     44  N   UNL A   1      48.074  25.798  26.890  1.00  0.00    -0.248 NA
ATOM     45  C   UNL A   1      47.348  26.112  24.704  1.00  0.00     0.031 C 
ATOM     46  C   UNL A   1      43.572  27.160  27.494  1.00  0.00     0.029 A 
ATOM     47  N   UNL A   1      45.571  28.017  27.889  1.00  0.00    -0.354 N 
ATOM     48  C   UNL A   1      49.172  25.869  26.045  1.00  0.00     0.074 A 
ATOM     49  C   UNL A   1      48.656  25.856  24.702  1.00  0.00     0.031 C 
ATOM     50  C   UNL A   1      43.379  28.396  28.014  1.00  0.00     0.029 A 
ATOM     51  C   UNL A   1      44.672  29.003  28.274  1.00  0.00     0.049 A 
ATOM     52  H   UNL A   1      46.539  28.080  28.060  1.00  0.00     0.167 HD
ATOM     53  C   UNL A   1      50.409  26.164  26.520  1.00  0.00     0.037 A 
ATOM     54  C   UNL A   1      45.032  30.250  28.669  1.00  0.00     0.037 A 
ATOM     55  C   UNL A   1      50.471  26.011  27.950  1.00  0.00     0.049 A 
ATOM     56  C   UNL A   1      46.464  30.177  29.086  1.00  0.00     0.074 A 
ATOM     57  C   UNL A   1      50.359  24.936  28.811  1.00  0.00     0.029 A 
ATOM     58  N   UNL A   1      50.273  27.134  28.720  1.00  0.00    -0.354 N 
ATOM     59  N   UNL A   1      46.870  29.514  30.136  1.00  0.00    -0.248 NA
ATOM     60  C   UNL A   1      47.476  30.393  28.058  1.00  0.00     0.031 C 
ATOM     61  C   UNL A   1      49.637  25.435  29.934  1.00  0.00     0.029 A 
ATOM     62  C   UNL A   1      49.405  26.795  29.727  1.00  0.00     0.049 A 
ATOM     63  H   UNL A   1      50.680  28.018  28.574  1.00  0.00     0.167 HD
ATOM     64  C   UNL A   1      48.040  28.881  29.733  1.00  0.00     0.074 A 
ATOM     65  C   UNL A   1      48.390  29.502  28.457  1.00  0.00     0.031 C 
ATOM     66  C   UNL A   1      48.455  27.716  30.312  1.00  0.00     0.037 A 
BRANCH  53  67
ATOM     67  C   UNL A   1      51.446  26.922  25.740  1.00  0.00     0.057 A 
ATOM     68  C   UNL A   1      52.659  26.290  25.422  1.00  0.00     0.134 A 
ATOM     69  C   UNL A   1      51.419  28.317  25.529  1.00  0.00     0.134 A 
ATOM     70  F   UNL A   1      52.812  24.968  25.588  1.00  0.00    -0.206 F 
ATOM     71  C   UNL A   1      53.783  27.006  24.995  1.00  0.00     0.040 A 
ATOM     72  C   UNL A   1      52.517  29.032  25.050  1.00  0.00     0.040 A 
ATOM     73  F   UNL A   1      50.373  29.079  25.868  1.00  0.00    -0.206 F 
ATOM     74  C   UNL A   1      53.716  28.382  24.813  1.00  0.00     0.006 A 
ENDBRANCH  53  67
BRANCH  54  75
ATOM     75  C   UNL A   1      44.365  31.527  28.326  1.00  0.00     0.057 A 
ATOM     76  C   UNL A   1      43.779  32.335  29.311  1.00  0.00     0.134 A 
ATOM     77  C   UNL A   1      44.524  32.119  27.060  1.00  0.00     0.134 A 
ATOM     78  F   UNL A   1      43.629  31.879  30.563  1.00  0.00    -0.206 F 
ATOM     79  C   UNL A   1      43.385  33.657  29.054  1.00  0.00     0.040 A 
ATOM     80  C   UNL A   1      44.133  33.434  26.789  1.00  0.00     0.040 A 
ATOM     81  F   UNL A   1      45.148  31.470  26.066  1.00  0.00    -0.206 F 
ATOM     82  C   UNL A   1      43.571  34.213  27.791  1.00  0.00     0.006 A 
ENDBRANCH  54  75
BRANCH  66  83
ATOM     83  C   UNL A   1      47.705  27.227  31.523  1.00  0.00     0.057 A 
ATOM     84  C   UNL A   1      47.937  27.695  32.826  1.00  0.00     0.134 A 
ATOM     85  C   UNL A   1      46.599  26.390  31.342  1.00  0.00     0.134 A 
ATOM     86  F   UNL A   1      48.907  28.581  33.080  1.00  0.00    -0.206 F 
ATOM     87  C   UNL A   1      47.128  27.317  33.904  1.00  0.00     0.040 A 
ATOM     88  C   UNL A   1      45.764  26.031  32.402  1.00  0.00     0.040 A 
ATOM     89  F   UNL A   1      46.278  25.955  30.113  1.00  0.00    -0.206 F 
ATOM     90  C   UNL A   1      46.032  26.486  33.690  1.00  0.00     0.006 A 
ENDBRANCH  66  83
ENDBRANCH  40  41
ENDBRANCH  33  35
ENDBRANCH  32  33
ENDBRANCH  31  32
ENDBRANCH  30  31
ENDBRANCH   1  30
TORSDOF 17
ENDMDL
