MODEL 1
REMARK VINA RESULT:      -9.9      0.000      0.000
REMARK SMILES Nc1ccc(-c2cc(Cl)cc3c2O[C@H](C(F)(F)F)C(C(=O)OCCOCCOC(=O)c2ccc(-c4c5nc(c(-c6c(F)cccc6F)c6ccc([nH]6)c(-c6c(F)cccc6F)c6nc(c(-c7c(F)cccc7F)c7ccc4[nH]7)C=C6)C=C5)cc2)=C3)cc1
REMARK SMILES IDX 25 1 24 2 23 3 22 4 20 5 21 6 19 7 6 8 7 9 12 10 8 11 11 12
REMARK SMILES IDX 13 13 9 14 10 15 85 16 14 17 5 18 2 19 3 20 87 21 4 22 86 23
REMARK SMILES IDX 1 24 15 27 16 28 17 29 18 30 26 31 27 32 28 33 29 34 30 35
REMARK SMILES IDX 31 36 32 37 84 38 33 39 83 40 34 41 35 42 36 43 77 44 37 45
REMARK SMILES IDX 82 46 76 47 78 48 38 49 81 50 75 51 74 52 39 54 65 55 48 56
REMARK SMILES IDX 64 57 49 58 52 59 63 60 79 61 50 62 51 63 62 65 80 66 53 67
REMARK SMILES IDX 40 68 41 69 46 70 42 71 43 72 45 73 47 74 44 75 66 76 67 77
REMARK SMILES IDX 72 78 68 79 69 80 71 81 73 82 70 83 54 84 55 85 60 86 56 87
REMARK SMILES IDX 57 88 59 89 61 90 58 91
REMARK H PARENT 1 25 1 26 78 53 52 64
REMARK Flexibility Score: inf
ROOT
ATOM      1  O   UNL A   1      45.614  18.772  24.759  1.00  0.00    -0.374 OA
ENDROOT
BRANCH   1   2
ATOM      2  C   UNL A   1      46.380  19.950  24.992  1.00  0.00     0.202 C 
BRANCH   2   3
ATOM      3  C   UNL A   1      45.658  21.178  25.555  1.00  0.00     0.261 C 
BRANCH   3   4
ATOM      4  O   UNL A   1      46.363  22.396  25.280  1.00  0.00    -0.460 OA
BRANCH   4   5
ATOM      5  C   UNL A   1      45.714  23.237  24.439  1.00  0.00     0.338 C 
ATOM      6  O   UNL A   1      45.248  22.963  23.346  1.00  0.00    -0.246 OA
BRANCH   5   7
ATOM      7  C   UNL A   1      45.529  24.548  25.087  1.00  0.00     0.087 C 
ATOM      8  C   UNL A   1      44.952  28.476  26.405  1.00  0.00     0.026 A 
ATOM      9  C   UNL A   1      43.656  29.020  26.313  1.00  0.00     0.033 A 
ATOM     10  C   UNL A   1      45.130  27.117  26.068  1.00  0.00     0.135 A 
ATOM     11  C   UNL A   1      42.579  28.237  25.906  1.00  0.00     0.042 A 
ATOM     12  C   UNL A   1      44.049  26.350  25.614  1.00  0.00     0.019 A 
ATOM     13  O   UNL A   1      46.383  26.583  26.231  1.00  0.00    -0.475 OA
ATOM     14  Cl  UNL A   1      41.008  28.929  25.797  1.00  0.00    -0.084 Cl
ATOM     15  C   UNL A   1      42.769  26.906  25.554  1.00  0.00     0.032 A 
ATOM     16  C   UNL A   1      44.270  25.002  25.127  1.00  0.00     0.027 C 
ATOM     17  C   UNL A   1      46.709  25.307  25.624  1.00  0.00     0.316 C 
BRANCH   8  18
ATOM     18  C   UNL A   1      46.079  29.351  26.780  1.00  0.00    -0.014 A 
ATOM     19  C   UNL A   1      48.233  31.032  27.546  1.00  0.00     0.031 A 
ATOM     20  C   UNL A   1      46.916  31.482  27.628  1.00  0.00     0.026 A 
ATOM     21  C   UNL A   1      48.463  29.722  27.124  1.00  0.00     0.026 A 
ATOM     22  C   UNL A   1      45.853  30.656  27.243  1.00  0.00     0.011 A 
ATOM     23  C   UNL A   1      47.403  28.895  26.733  1.00  0.00     0.011 A 
BRANCH  19  24
ATOM     24  N   UNL A   1      49.274  31.823  28.000  1.00  0.00    -0.399 N 
ATOM     25  H   UNL A   1      49.425  32.713  27.607  1.00  0.00     0.156 HD
ATOM     26  H   UNL A   1      49.866  31.495  28.716  1.00  0.00     0.156 HD
ENDBRANCH  19  24
ENDBRANCH   8  18
BRANCH  17  27
ATOM     27  C   UNL A   1      47.795  25.538  24.565  1.00  0.00     0.430 C 
ATOM     28  F   UNL A   1      47.602  26.706  23.906  1.00  0.00    -0.167 F 
ATOM     29  F   UNL A   1      49.030  25.607  25.115  1.00  0.00    -0.167 F 
ATOM     30  F   UNL A   1      47.819  24.552  23.639  1.00  0.00    -0.167 F 
ENDBRANCH  17  27
ENDBRANCH   5   7
ENDBRANCH   4   5
ENDBRANCH   3   4
ENDBRANCH   2   3
ENDBRANCH   1   2
BRANCH   1  31
ATOM     31  C   UNL A   1      44.191  18.862  24.789  1.00  0.00     0.202 C 
BRANCH  31  32
ATOM     32  C   UNL A   1      43.417  17.956  25.756  1.00  0.00     0.261 C 
BRANCH  32  33
ATOM     33  O   UNL A   1      42.654  18.690  26.727  1.00  0.00    -0.460 OA
BRANCH  33  34
ATOM     34  C   UNL A   1      41.639  19.427  26.211  1.00  0.00     0.338 C 
ATOM     35  O   UNL A   1      40.716  19.033  25.514  1.00  0.00    -0.246 OA
BRANCH  34  36
ATOM     36  C   UNL A   1      41.684  20.787  26.778  1.00  0.00     0.060 A 
ATOM     37  C   UNL A   1      41.431  21.013  28.131  1.00  0.00     0.016 A 
ATOM     38  C   UNL A   1      42.042  21.845  25.932  1.00  0.00     0.016 A 
ATOM     39  C   UNL A   1      41.575  22.304  28.643  1.00  0.00     0.010 A 
ATOM     40  C   UNL A   1      42.187  23.133  26.446  1.00  0.00     0.010 A 
ATOM     41  C   UNL A   1      41.980  23.366  27.812  1.00  0.00    -0.014 A 
BRANCH  41  42
ATOM     42  C   UNL A   1      42.333  24.677  28.409  1.00  0.00     0.031 A 
ATOM     43  C   UNL A   1      43.723  24.990  28.872  1.00  0.00     0.074 A 
ATOM     44  C   UNL A   1      41.356  25.596  28.541  1.00  0.00     0.049 A 
ATOM     45  N   UNL A   1      44.205  26.123  29.317  1.00  0.00    -0.248 NA
ATOM     46  C   UNL A   1      44.695  23.889  28.840  1.00  0.00     0.031 C 
ATOM     47  C   UNL A   1      39.951  25.386  28.183  1.00  0.00     0.029 A 
ATOM     48  N   UNL A   1      41.395  26.888  28.999  1.00  0.00    -0.354 N 
ATOM     49  C   UNL A   1      45.544  25.883  29.593  1.00  0.00     0.074 A 
ATOM     50  C   UNL A   1      45.781  24.479  29.324  1.00  0.00     0.031 C 
ATOM     51  C   UNL A   1      39.271  26.522  28.394  1.00  0.00     0.029 A 
ATOM     52  C   UNL A   1      40.182  27.528  28.930  1.00  0.00     0.049 A 
ATOM     53  H   UNL A   1      42.212  27.314  29.343  1.00  0.00     0.167 HD
ATOM     54  C   UNL A   1      46.492  26.760  30.011  1.00  0.00     0.037 A 
ATOM     55  C   UNL A   1      39.844  28.788  29.257  1.00  0.00     0.037 A 
ATOM     56  C   UNL A   1      46.240  28.148  30.316  1.00  0.00     0.049 A 
ATOM     57  C   UNL A   1      40.903  29.722  29.770  1.00  0.00     0.074 A 
ATOM     58  C   UNL A   1      47.139  29.122  30.717  1.00  0.00     0.029 A 
ATOM     59  N   UNL A   1      44.992  28.755  30.275  1.00  0.00    -0.354 N 
ATOM     60  N   UNL A   1      42.187  29.511  29.933  1.00  0.00    -0.248 NA
ATOM     61  C   UNL A   1      40.464  31.076  30.133  1.00  0.00     0.031 C 
ATOM     62  C   UNL A   1      46.427  30.300  30.975  1.00  0.00     0.029 A 
ATOM     63  C   UNL A   1      45.093  30.079  30.675  1.00  0.00     0.049 A 
ATOM     64  H   UNL A   1      44.158  28.310  30.002  1.00  0.00     0.167 HD
ATOM     65  C   UNL A   1      42.712  30.709  30.397  1.00  0.00     0.074 A 
ATOM     66  C   UNL A   1      41.613  31.651  30.457  1.00  0.00     0.031 C 
ATOM     67  C   UNL A   1      43.989  31.005  30.745  1.00  0.00     0.037 A 
BRANCH  54  68
ATOM     68  C   UNL A   1      47.892  26.235  30.168  1.00  0.00     0.057 A 
ATOM     69  C   UNL A   1      48.760  26.154  29.072  1.00  0.00     0.134 A 
ATOM     70  C   UNL A   1      48.371  25.779  31.404  1.00  0.00     0.134 A 
ATOM     71  F   UNL A   1      48.364  26.561  27.857  1.00  0.00    -0.206 F 
ATOM     72  C   UNL A   1      50.053  25.643  29.201  1.00  0.00     0.040 A 
ATOM     73  C   UNL A   1      49.672  25.294  31.551  1.00  0.00     0.040 A 
ATOM     74  F   UNL A   1      47.594  25.831  32.496  1.00  0.00    -0.206 F 
ATOM     75  C   UNL A   1      50.515  25.220  30.446  1.00  0.00     0.006 A 
ENDBRANCH  54  68
BRANCH  55  76
ATOM     76  C   UNL A   1      38.443  29.253  29.094  1.00  0.00     0.057 A 
ATOM     77  C   UNL A   1      37.553  29.280  30.175  1.00  0.00     0.134 A 
ATOM     78  C   UNL A   1      37.972  29.714  27.860  1.00  0.00     0.134 A 
ATOM     79  F   UNL A   1      37.940  28.842  31.382  1.00  0.00    -0.206 F 
ATOM     80  C   UNL A   1      36.248  29.752  30.035  1.00  0.00     0.040 A 
ATOM     81  C   UNL A   1      36.680  30.218  27.712  1.00  0.00     0.040 A 
ATOM     82  F   UNL A   1      38.783  29.728  26.790  1.00  0.00    -0.206 F 
ATOM     83  C   UNL A   1      35.812  30.235  28.803  1.00  0.00     0.006 A 
ENDBRANCH  55  76
BRANCH  67  84
ATOM     84  C   UNL A   1      44.258  32.413  31.200  1.00  0.00     0.057 A 
ATOM     85  C   UNL A   1      44.291  32.729  32.565  1.00  0.00     0.134 A 
ATOM     86  C   UNL A   1      44.501  33.454  30.293  1.00  0.00     0.134 A 
ATOM     87  F   UNL A   1      44.060  31.786  33.490  1.00  0.00    -0.206 F 
ATOM     88  C   UNL A   1      44.563  34.024  33.009  1.00  0.00     0.040 A 
ATOM     89  C   UNL A   1      44.808  34.745  30.727  1.00  0.00     0.040 A 
ATOM     90  F   UNL A   1      44.501  33.218  28.972  1.00  0.00    -0.206 F 
ATOM     91  C   UNL A   1      44.836  35.034  32.089  1.00  0.00     0.006 A 
ENDBRANCH  67  84
ENDBRANCH  41  42
ENDBRANCH  34  36
ENDBRANCH  33  34
ENDBRANCH  32  33
ENDBRANCH  31  32
ENDBRANCH   1  31
TORSDOF 17
ENDMDL
MODEL 2
REMARK VINA RESULT:      -9.7      0.519      5.984
REMARK SMILES Nc1ccc(-c2cc(Cl)cc3c2O[C@H](C(F)(F)F)C(C(=O)OCCOCCOC(=O)c2ccc(-c4c5nc(c(-c6c(F)cccc6F)c6ccc([nH]6)c(-c6c(F)cccc6F)c6nc(c(-c7c(F)cccc7F)c7ccc4[nH]7)C=C6)C=C5)cc2)=C3)cc1
REMARK SMILES IDX 25 1 24 2 23 3 22 4 20 5 21 6 19 7 6 8 7 9 12 10 8 11 11 12
REMARK SMILES IDX 13 13 9 14 10 15 85 16 14 17 5 18 2 19 3 20 87 21 4 22 86 23
REMARK SMILES IDX 1 24 15 27 16 28 17 29 18 30 26 31 27 32 28 33 29 34 30 35
REMARK SMILES IDX 31 36 32 37 84 38 33 39 83 40 34 41 35 42 36 43 77 44 37 45
REMARK SMILES IDX 82 46 76 47 78 48 38 49 81 50 75 51 74 52 39 54 65 55 48 56
REMARK SMILES IDX 64 57 49 58 52 59 63 60 79 61 50 62 51 63 62 65 80 66 53 67
REMARK SMILES IDX 40 68 41 69 46 70 42 71 43 72 45 73 47 74 44 75 66 76 67 77
REMARK SMILES IDX 72 78 68 79 69 80 71 81 73 82 70 83 54 84 55 85 60 86 56 87
REMARK SMILES IDX 57 88 59 89 61 90 58 91
REMARK H PARENT 1 25 1 26 78 53 52 64
REMARK Flexibility Score: inf
ROOT
ATOM      1  O   UNL A   1      45.377  18.955  24.392  1.00  0.00    -0.374 OA
ENDROOT
BRANCH   1   2
ATOM      2  C   UNL A   1      46.262  19.907  24.977  1.00  0.00     0.202 C 
BRANCH   2   3
ATOM      3  C   UNL A   1      45.654  21.180  25.575  1.00  0.00     0.261 C 
BRANCH   3   4
ATOM      4  O   UNL A   1      46.387  22.356  25.208  1.00  0.00    -0.460 OA
BRANCH   4   5
ATOM      5  C   UNL A   1      45.707  23.206  24.402  1.00  0.00     0.338 C 
ATOM      6  O   UNL A   1      45.222  22.951  23.312  1.00  0.00    -0.246 OA
BRANCH   5   7
ATOM      7  C   UNL A   1      45.515  24.498  25.085  1.00  0.00     0.087 C 
ATOM      8  C   UNL A   1      44.952  28.391  26.508  1.00  0.00     0.026 A 
ATOM      9  C   UNL A   1      43.674  28.967  26.369  1.00  0.00     0.033 A 
ATOM     10  C   UNL A   1      45.119  27.040  26.133  1.00  0.00     0.135 A 
ATOM     11  C   UNL A   1      42.604  28.223  25.878  1.00  0.00     0.042 A 
ATOM     12  C   UNL A   1      44.048  26.314  25.597  1.00  0.00     0.019 A 
ATOM     13  O   UNL A   1      46.350  26.473  26.343  1.00  0.00    -0.475 OA
ATOM     14  Cl  UNL A   1      41.056  28.954  25.712  1.00  0.00    -0.084 Cl
ATOM     15  C   UNL A   1      42.784  26.901  25.490  1.00  0.00     0.032 A 
ATOM     16  C   UNL A   1      44.266  24.979  25.075  1.00  0.00     0.027 C 
ATOM     17  C   UNL A   1      46.681  25.211  25.709  1.00  0.00     0.316 C 
BRANCH   8  18
ATOM     18  C   UNL A   1      46.075  29.227  26.973  1.00  0.00    -0.014 A 
ATOM     19  C   UNL A   1      48.233  30.815  27.908  1.00  0.00     0.031 A 
ATOM     20  C   UNL A   1      46.943  31.007  28.400  1.00  0.00     0.026 A 
ATOM     21  C   UNL A   1      48.446  29.794  26.981  1.00  0.00     0.026 A 
ATOM     22  C   UNL A   1      45.877  30.229  27.934  1.00  0.00     0.011 A 
ATOM     23  C   UNL A   1      47.380  29.018  26.508  1.00  0.00     0.011 A 
BRANCH  19  24
ATOM     24  N   UNL A   1      49.297  31.532  28.427  1.00  0.00    -0.399 N 
ATOM     25  H   UNL A   1      49.223  31.950  29.315  1.00  0.00     0.156 HD
ATOM     26  H   UNL A   1      50.128  31.625  27.907  1.00  0.00     0.156 HD
ENDBRANCH  19  24
ENDBRANCH   8  18
BRANCH  17  27
ATOM     27  C   UNL A   1      47.827  25.454  24.716  1.00  0.00     0.430 C 
ATOM     28  F   UNL A   1      47.872  24.487  23.769  1.00  0.00    -0.167 F 
ATOM     29  F   UNL A   1      47.686  26.629  24.061  1.00  0.00    -0.167 F 
ATOM     30  F   UNL A   1      49.032  25.474  25.330  1.00  0.00    -0.167 F 
ENDBRANCH  17  27
ENDBRANCH   5   7
ENDBRANCH   4   5
ENDBRANCH   3   4
ENDBRANCH   2   3
ENDBRANCH   1   2
BRANCH   1  31
ATOM     31  C   UNL A   1      43.986  19.032  24.698  1.00  0.00     0.202 C 
BRANCH  31  32
ATOM     32  C   UNL A   1      43.413  18.081  25.758  1.00  0.00     0.261 C 
BRANCH  32  33
ATOM     33  O   UNL A   1      42.618  18.754  26.747  1.00  0.00    -0.460 OA
BRANCH  33  34
ATOM     34  C   UNL A   1      41.583  19.475  26.248  1.00  0.00     0.338 C 
ATOM     35  O   UNL A   1      40.648  19.064  25.577  1.00  0.00    -0.246 OA
BRANCH  34  36
ATOM     36  C   UNL A   1      41.627  20.841  26.801  1.00  0.00     0.060 A 
ATOM     37  C   UNL A   1      41.393  21.079  28.154  1.00  0.00     0.016 A 
ATOM     38  C   UNL A   1      41.963  21.892  25.938  1.00  0.00     0.016 A 
ATOM     39  C   UNL A   1      41.535  22.376  28.651  1.00  0.00     0.010 A 
ATOM     40  C   UNL A   1      42.106  23.187  26.436  1.00  0.00     0.010 A 
ATOM     41  C   UNL A   1      41.919  23.433  27.802  1.00  0.00    -0.014 A 
BRANCH  41  42
ATOM     42  C   UNL A   1      42.271  24.753  28.381  1.00  0.00     0.031 A 
ATOM     43  C   UNL A   1      41.266  25.857  28.507  1.00  0.00     0.074 A 
ATOM     44  C   UNL A   1      43.541  24.947  28.788  1.00  0.00     0.049 A 
ATOM     45  N   UNL A   1      41.398  27.025  29.084  1.00  0.00    -0.248 NA
ATOM     46  C   UNL A   1      39.949  25.625  27.901  1.00  0.00     0.031 C 
ATOM     47  C   UNL A   1      44.623  23.968  28.660  1.00  0.00     0.029 A 
ATOM     48  N   UNL A   1      44.133  26.023  29.398  1.00  0.00    -0.354 N 
ATOM     49  C   UNL A   1      40.173  27.661  28.936  1.00  0.00     0.074 A 
ATOM     50  C   UNL A   1      39.331  26.771  28.160  1.00  0.00     0.031 C 
ATOM     51  C   UNL A   1      45.735  24.471  29.215  1.00  0.00     0.029 A 
ATOM     52  C   UNL A   1      45.455  25.816  29.707  1.00  0.00     0.049 A 
ATOM     53  H   UNL A   1      43.657  26.861  29.595  1.00  0.00     0.167 HD
ATOM     54  C   UNL A   1      39.781  28.865  29.423  1.00  0.00     0.037 A 
ATOM     55  C   UNL A   1      46.340  26.619  30.324  1.00  0.00     0.037 A 
ATOM     56  C   UNL A   1      40.637  29.763  30.161  1.00  0.00     0.049 A 
ATOM     57  C   UNL A   1      45.893  27.970  30.806  1.00  0.00     0.074 A 
ATOM     58  C   UNL A   1      40.324  30.990  30.721  1.00  0.00     0.029 A 
ATOM     59  N   UNL A   1      41.981  29.541  30.422  1.00  0.00    -0.354 N 
ATOM     60  N   UNL A   1      44.703  28.520  30.747  1.00  0.00    -0.248 NA
ATOM     61  C   UNL A   1      46.913  28.809  31.448  1.00  0.00     0.031 C 
ATOM     62  C   UNL A   1      41.491  31.536  31.269  1.00  0.00     0.029 A 
ATOM     63  C   UNL A   1      42.520  30.622  31.105  1.00  0.00     0.049 A 
ATOM     64  H   UNL A   1      42.481  28.734  30.160  1.00  0.00     0.167 HD
ATOM     65  C   UNL A   1      44.827  29.757  31.364  1.00  0.00     0.074 A 
ATOM     66  C   UNL A   1      46.199  29.862  31.818  1.00  0.00     0.031 C 
ATOM     67  C   UNL A   1      43.891  30.723  31.539  1.00  0.00     0.037 A 
BRANCH  54  68
ATOM     68  C   UNL A   1      38.359  29.280  29.166  1.00  0.00     0.057 A 
ATOM     69  C   UNL A   1      37.387  29.190  30.169  1.00  0.00     0.134 A 
ATOM     70  C   UNL A   1      37.945  29.742  27.908  1.00  0.00     0.134 A 
ATOM     71  F   UNL A   1      37.709  28.746  31.393  1.00  0.00    -0.206 F 
ATOM     72  C   UNL A   1      36.058  29.548  29.934  1.00  0.00     0.040 A 
ATOM     73  C   UNL A   1      36.626  30.130  27.669  1.00  0.00     0.040 A 
ATOM     74  F   UNL A   1      38.825  29.857  26.902  1.00  0.00    -0.206 F 
ATOM     75  C   UNL A   1      35.676  30.029  28.682  1.00  0.00     0.006 A 
ENDBRANCH  54  68
BRANCH  55  76
ATOM     76  C   UNL A   1      47.736  26.164  30.544  1.00  0.00     0.057 A 
ATOM     77  C   UNL A   1      48.145  25.633  31.773  1.00  0.00     0.134 A 
ATOM     78  C   UNL A   1      48.685  26.216  29.516  1.00  0.00     0.134 A 
ATOM     79  F   UNL A   1      47.287  25.565  32.801  1.00  0.00    -0.206 F 
ATOM     80  C   UNL A   1      49.446  25.170  31.972  1.00  0.00     0.040 A 
ATOM     81  C   UNL A   1      49.980  25.727  29.691  1.00  0.00     0.040 A 
ATOM     82  F   UNL A   1      48.348  26.699  28.310  1.00  0.00    -0.206 F 
ATOM     83  C   UNL A   1      50.363  25.203  30.924  1.00  0.00     0.006 A 
ENDBRANCH  55  76
BRANCH  67  84
ATOM     84  C   UNL A   1      44.326  31.963  32.270  1.00  0.00     0.057 A 
ATOM     85  C   UNL A   1      44.225  32.043  33.665  1.00  0.00     0.134 A 
ATOM     86  C   UNL A   1      44.859  33.073  31.599  1.00  0.00     0.134 A 
ATOM     87  F   UNL A   1      43.718  31.022  34.373  1.00  0.00    -0.206 F 
ATOM     88  C   UNL A   1      44.646  33.175  34.365  1.00  0.00     0.040 A 
ATOM     89  C   UNL A   1      45.314  34.197  32.292  1.00  0.00     0.040 A 
ATOM     90  F   UNL A   1      44.998  33.058  30.265  1.00  0.00    -0.206 F 
ATOM     91  C   UNL A   1      45.205  34.251  33.679  1.00  0.00     0.006 A 
ENDBRANCH  67  84
ENDBRANCH  41  42
ENDBRANCH  34  36
ENDBRANCH  33  34
ENDBRANCH  32  33
ENDBRANCH  31  32
ENDBRANCH   1  31
TORSDOF 17
ENDMDL
MODEL 3
REMARK VINA RESULT:      -9.2      5.973     11.202
REMARK SMILES Nc1ccc(-c2cc(Cl)cc3c2O[C@H](C(F)(F)F)C(C(=O)OCCOCCOC(=O)c2ccc(-c4c5nc(c(-c6c(F)cccc6F)c6ccc([nH]6)c(-c6c(F)cccc6F)c6nc(c(-c7c(F)cccc7F)c7ccc4[nH]7)C=C6)C=C5)cc2)=C3)cc1
REMARK SMILES IDX 25 1 24 2 23 3 22 4 20 5 21 6 19 7 6 8 7 9 12 10 8 11 11 12
REMARK SMILES IDX 13 13 9 14 10 15 85 16 14 17 5 18 2 19 3 20 87 21 4 22 86 23
REMARK SMILES IDX 1 24 15 27 16 28 17 29 18 30 26 31 27 32 28 33 29 34 30 35
REMARK SMILES IDX 31 36 32 37 84 38 33 39 83 40 34 41 35 42 36 43 77 44 37 45
REMARK SMILES IDX 82 46 76 47 78 48 38 49 81 50 75 51 74 52 39 54 65 55 48 56
REMARK SMILES IDX 64 57 49 58 52 59 63 60 79 61 50 62 51 63 62 65 80 66 53 67
REMARK SMILES IDX 40 68 41 69 46 70 42 71 43 72 45 73 47 74 44 75 66 76 67 77
REMARK SMILES IDX 72 78 68 79 69 80 71 81 73 82 70 83 54 84 55 85 60 86 56 87
REMARK SMILES IDX 57 88 59 89 61 90 58 91
REMARK H PARENT 1 25 1 26 78 53 52 64
REMARK Flexibility Score: inf
ROOT
ATOM      1  O   UNL A   1      37.661  21.170  25.194  1.00  0.00    -0.374 OA
ENDROOT
BRANCH   1   2
ATOM      2  C   UNL A   1      36.269  21.307  24.920  1.00  0.00     0.202 C 
BRANCH   2   3
ATOM      3  C   UNL A   1      35.772  22.651  24.379  1.00  0.00     0.261 C 
BRANCH   3   4
ATOM      4  O   UNL A   1      34.357  22.655  24.150  1.00  0.00    -0.460 OA
BRANCH   4   5
ATOM      5  C   UNL A   1      33.630  23.176  25.168  1.00  0.00     0.338 C 
ATOM      6  O   UNL A   1      33.367  22.638  26.231  1.00  0.00    -0.246 OA
BRANCH   5   7
ATOM      7  C   UNL A   1      33.283  24.577  24.868  1.00  0.00     0.087 C 
ATOM      8  C   UNL A   1      31.981  28.534  24.483  1.00  0.00     0.026 A 
ATOM      9  C   UNL A   1      32.511  29.493  25.368  1.00  0.00     0.033 A 
ATOM     10  C   UNL A   1      32.499  27.222  24.534  1.00  0.00     0.135 A 
ATOM     11  C   UNL A   1      33.521  29.157  26.266  1.00  0.00     0.042 A 
ATOM     12  C   UNL A   1      33.482  26.882  25.472  1.00  0.00     0.019 A 
ATOM     13  O   UNL A   1      32.025  26.319  23.617  1.00  0.00    -0.475 OA
ATOM     14  Cl  UNL A   1      34.144  30.347  27.340  1.00  0.00    -0.084 Cl
ATOM     15  C   UNL A   1      34.008  27.856  26.324  1.00  0.00     0.032 A 
ATOM     16  C   UNL A   1      33.897  25.500  25.619  1.00  0.00     0.027 C 
ATOM     17  C   UNL A   1      32.274  24.902  23.804  1.00  0.00     0.316 C 
BRANCH   8  18
ATOM     18  C   UNL A   1      30.870  28.911  23.589  1.00  0.00    -0.014 A 
ATOM     19  C   UNL A   1      28.715  29.661  21.902  1.00  0.00     0.031 A 
ATOM     20  C   UNL A   1      28.489  28.902  23.049  1.00  0.00     0.026 A 
ATOM     21  C   UNL A   1      30.017  30.082  21.629  1.00  0.00     0.026 A 
ATOM     22  C   UNL A   1      29.552  28.525  23.878  1.00  0.00     0.011 A 
ATOM     23  C   UNL A   1      31.084  29.702  22.452  1.00  0.00     0.011 A 
BRANCH  19  24
ATOM     24  N   UNL A   1      27.653  30.097  21.128  1.00  0.00    -0.399 N 
ATOM     25  H   UNL A   1      26.732  29.853  21.372  1.00  0.00     0.156 HD
ATOM     26  H   UNL A   1      27.820  30.652  20.332  1.00  0.00     0.156 HD
ENDBRANCH  19  24
ENDBRANCH   8  18
BRANCH  17  27
ATOM     27  C   UNL A   1      30.928  24.199  24.030  1.00  0.00     0.430 C 
ATOM     28  F   UNL A   1      30.917  22.963  23.478  1.00  0.00    -0.167 F 
ATOM     29  F   UNL A   1      30.660  24.034  25.347  1.00  0.00    -0.167 F 
ATOM     30  F   UNL A   1      29.899  24.892  23.491  1.00  0.00    -0.167 F 
ENDBRANCH  17  27
ENDBRANCH   5   7
ENDBRANCH   4   5
ENDBRANCH   3   4
ENDBRANCH   2   3
ENDBRANCH   1   2
BRANCH   1  31
ATOM     31  C   UNL A   1      38.366  22.282  25.740  1.00  0.00     0.202 C 
BRANCH  31  32
ATOM     32  C   UNL A   1      39.702  22.029  26.451  1.00  0.00     0.261 C 
BRANCH  32  33
ATOM     33  O   UNL A   1      39.997  23.007  27.461  1.00  0.00    -0.460 OA
BRANCH  33  34
ATOM     34  C   UNL A   1      40.869  23.973  27.078  1.00  0.00     0.338 C 
ATOM     35  O   UNL A   1      41.651  23.936  26.140  1.00  0.00    -0.246 OA
BRANCH  34  36
ATOM     36  C   UNL A   1      40.609  25.201  27.850  1.00  0.00     0.060 A 
ATOM     37  C   UNL A   1      39.446  25.347  28.604  1.00  0.00     0.016 A 
ATOM     38  C   UNL A   1      41.591  26.201  27.850  1.00  0.00     0.016 A 
ATOM     39  C   UNL A   1      39.285  26.488  29.392  1.00  0.00     0.010 A 
ATOM     40  C   UNL A   1      41.429  27.340  28.639  1.00  0.00     0.010 A 
ATOM     41  C   UNL A   1      40.286  27.478  29.437  1.00  0.00    -0.014 A 
BRANCH  41  42
ATOM     42  C   UNL A   1      40.197  28.572  30.435  1.00  0.00     0.031 A 
ATOM     43  C   UNL A   1      39.223  29.701  30.289  1.00  0.00     0.074 A 
ATOM     44  C   UNL A   1      41.035  28.537  31.490  1.00  0.00     0.049 A 
ATOM     45  N   UNL A   1      38.958  30.670  31.129  1.00  0.00    -0.248 NA
ATOM     46  C   UNL A   1      38.454  29.755  29.039  1.00  0.00     0.031 C 
ATOM     47  C   UNL A   1      42.068  27.521  31.708  1.00  0.00     0.029 A 
ATOM     48  N   UNL A   1      41.145  29.364  32.577  1.00  0.00    -0.354 N 
ATOM     49  C   UNL A   1      37.972  31.437  30.524  1.00  0.00     0.074 A 
ATOM     50  C   UNL A   1      37.731  30.853  29.218  1.00  0.00     0.031 C 
ATOM     51  C   UNL A   1      42.677  27.761  32.878  1.00  0.00     0.029 A 
ATOM     52  C   UNL A   1      42.101  28.961  33.476  1.00  0.00     0.049 A 
ATOM     53  H   UNL A   1      40.591  30.169  32.701  1.00  0.00     0.167 HD
ATOM     54  C   UNL A   1      37.313  32.514  31.021  1.00  0.00     0.037 A 
ATOM     55  C   UNL A   1      42.469  29.497  34.654  1.00  0.00     0.037 A 
ATOM     56  C   UNL A   1      37.586  33.113  32.305  1.00  0.00     0.049 A 
ATOM     57  C   UNL A   1      41.758  30.722  35.156  1.00  0.00     0.074 A 
ATOM     58  C   UNL A   1      36.953  34.187  32.910  1.00  0.00     0.029 A 
ATOM     59  N   UNL A   1      38.589  32.706  33.173  1.00  0.00    -0.354 N 
ATOM     60  N   UNL A   1      40.759  31.381  34.618  1.00  0.00    -0.248 NA
ATOM     61  C   UNL A   1      42.224  31.272  36.435  1.00  0.00     0.031 C 
ATOM     62  C   UNL A   1      37.610  34.465  34.115  1.00  0.00     0.029 A 
ATOM     63  C   UNL A   1      38.614  33.527  34.292  1.00  0.00     0.049 A 
ATOM     64  H   UNL A   1      39.194  31.946  33.018  1.00  0.00     0.167 HD
ATOM     65  C   UNL A   1      40.462  32.407  35.504  1.00  0.00     0.074 A 
ATOM     66  C   UNL A   1      41.366  32.264  36.627  1.00  0.00     0.031 C 
ATOM     67  C   UNL A   1      39.527  33.384  35.399  1.00  0.00     0.037 A 
BRANCH  54  68
ATOM     68  C   UNL A   1      36.233  33.115  30.165  1.00  0.00     0.057 A 
ATOM     69  C   UNL A   1      36.543  34.004  29.129  1.00  0.00     0.134 A 
ATOM     70  C   UNL A   1      34.877  32.835  30.390  1.00  0.00     0.134 A 
ATOM     71  F   UNL A   1      37.817  34.326  28.865  1.00  0.00    -0.206 F 
ATOM     72  C   UNL A   1      35.545  34.588  28.345  1.00  0.00     0.040 A 
ATOM     73  C   UNL A   1      33.873  33.391  29.595  1.00  0.00     0.040 A 
ATOM     74  F   UNL A   1      34.510  31.989  31.364  1.00  0.00    -0.206 F 
ATOM     75  C   UNL A   1      34.207  34.275  28.572  1.00  0.00     0.006 A 
ENDBRANCH  54  68
BRANCH  55  76
ATOM     76  C   UNL A   1      43.550  28.870  35.455  1.00  0.00     0.057 A 
ATOM     77  C   UNL A   1      44.889  29.249  35.295  1.00  0.00     0.134 A 
ATOM     78  C   UNL A   1      43.265  27.904  36.426  1.00  0.00     0.134 A 
ATOM     79  F   UNL A   1      45.230  30.162  34.375  1.00  0.00    -0.206 F 
ATOM     80  C   UNL A   1      45.903  28.690  36.072  1.00  0.00     0.040 A 
ATOM     81  C   UNL A   1      44.265  27.360  37.233  1.00  0.00     0.040 A 
ATOM     82  F   UNL A   1      41.999  27.512  36.637  1.00  0.00    -0.206 F 
ATOM     83  C   UNL A   1      45.590  27.752  37.054  1.00  0.00     0.006 A 
ENDBRANCH  55  76
BRANCH  67  84
ATOM     84  C   UNL A   1      39.431  34.355  36.542  1.00  0.00     0.057 A 
ATOM     85  C   UNL A   1      38.697  34.035  37.692  1.00  0.00     0.134 A 
ATOM     86  C   UNL A   1      40.074  35.601  36.517  1.00  0.00     0.134 A 
ATOM     87  F   UNL A   1      38.048  32.865  37.784  1.00  0.00    -0.206 F 
ATOM     88  C   UNL A   1      38.615  34.912  38.775  1.00  0.00     0.040 A 
ATOM     89  C   UNL A   1      40.027  36.471  37.607  1.00  0.00     0.040 A 
ATOM     90  F   UNL A   1      40.807  35.965  35.453  1.00  0.00    -0.206 F 
ATOM     91  C   UNL A   1      39.292  36.129  38.740  1.00  0.00     0.006 A 
ENDBRANCH  67  84
ENDBRANCH  41  42
ENDBRANCH  34  36
ENDBRANCH  33  34
ENDBRANCH  32  33
ENDBRANCH  31  32
ENDBRANCH   1  31
TORSDOF 17
ENDMDL
