MODEL 1
REMARK VINA RESULT:     -11.3      0.000      0.000
REMARK SMILES O=C(NC1(C(=O)OCCOCCOC(=O)c2ccc(-c3c4nc(c(-c5c(F)cccc5F)c5ccc([nH]5)c(-c5c(F)cccc5F)c5nc(c(-c6c(F)cccc6F)c6ccc3[nH]6)C=C5)C=C4)cc2)Cc2ccccc2C1)OCC1c2ccccc2-c2ccccc21
REMARK SMILES IDX 9 1 8 2 7 3 5 4 6 5 4 6 70 7 77 8 71 9 76 10 72 11 75 12
REMARK SMILES IDX 73 13 74 14 3 15 1 16 2 17 78 19 79 20 80 21 81 22 92 23
REMARK SMILES IDX 82 24 86 25 87 26 91 27 83 28 85 29 88 30 90 31 84 32 89 33
REMARK SMILES IDX 10 34 11 35 12 36 13 37 14 38 15 39 16 40 17 41 69 42 18 43
REMARK SMILES IDX 68 44 19 45 20 46 21 47 62 48 22 49 67 50 61 51 63 52 23 53
REMARK SMILES IDX 66 54 60 55 59 56 24 58 50 59 33 60 49 61 34 62 37 63 48 64
REMARK SMILES IDX 64 65 35 66 36 67 47 69 65 70 38 71 25 72 26 73 31 74 27 75
REMARK SMILES IDX 28 76 30 77 32 78 29 79 51 80 52 81 57 82 53 83 54 84 56 85
REMARK SMILES IDX 58 86 55 87 39 88 40 89 45 90 41 91 42 92 44 93 46 94 43 95
REMARK H PARENT 3 18 63 57 37 68
REMARK Flexibility Score: inf
ROOT
ATOM      1  C   UNL A   1      38.989  23.242  26.130  1.00  0.00     0.202 C 
ENDROOT
BRANCH   1   2
ATOM      2  C   UNL A   1      37.534  23.729  26.225  1.00  0.00     0.261 C 
BRANCH   2   3
ATOM      3  O   UNL A   1      36.927  24.065  24.936  1.00  0.00    -0.461 OA
BRANCH   3   4
ATOM      4  C   UNL A   1      36.068  23.279  24.236  1.00  0.00     0.332 C 
ATOM      5  O   UNL A   1      36.478  22.353  23.533  1.00  0.00    -0.249 OA
BRANCH   4   6
ATOM      6  C   UNL A   1      34.464  23.705  24.278  1.00  0.00     0.149 C 
ATOM      7  C   UNL A   1      33.028  23.593  23.635  1.00  0.00     0.076 C 
ATOM      8  C   UNL A   1      34.411  25.217  24.715  1.00  0.00     0.076 C 
ATOM      9  C   UNL A   1      32.746  24.911  23.027  1.00  0.00    -0.042 A 
ATOM     10  C   UNL A   1      33.610  25.851  23.568  1.00  0.00    -0.042 A 
ATOM     11  C   UNL A   1      31.914  25.135  21.932  1.00  0.00     0.004 A 
ATOM     12  C   UNL A   1      33.692  27.081  22.932  1.00  0.00     0.004 A 
ATOM     13  C   UNL A   1      32.042  26.340  21.265  1.00  0.00     0.000 A 
ATOM     14  C   UNL A   1      32.933  27.303  21.758  1.00  0.00     0.000 A 
BRANCH   6  15
ATOM     15  N   UNL A   1      34.310  22.541  25.109  1.00  0.00    -0.305 N 
ATOM     16  O   UNL A   1      33.088  21.605  26.757  1.00  0.00    -0.225 OA
ATOM     17  C   UNL A   1      33.261  22.563  26.033  1.00  0.00     0.408 C 
ATOM     18  H   UNL A   1      34.913  21.768  25.032  1.00  0.00     0.168 HD
BRANCH  17  19
ATOM     19  O   UNL A   1      32.430  23.666  26.081  1.00  0.00    -0.449 OA
BRANCH  19  20
ATOM     20  C   UNL A   1      31.581  24.798  26.772  1.00  0.00     0.248 C 
BRANCH  20  21
ATOM     21  C   UNL A   1      31.458  26.416  26.528  1.00  0.00     0.088 C 
ATOM     22  C   UNL A   1      30.586  26.702  25.273  1.00  0.00    -0.029 A 
ATOM     23  C   UNL A   1      32.387  27.716  26.499  1.00  0.00    -0.029 A 
ATOM     24  C   UNL A   1      29.562  25.946  24.721  1.00  0.00     0.005 A 
ATOM     25  C   UNL A   1      30.826  28.004  24.795  1.00  0.00    -0.014 A 
ATOM     26  C   UNL A   1      31.853  28.637  25.574  1.00  0.00    -0.014 A 
ATOM     27  C   UNL A   1      33.392  28.250  27.316  1.00  0.00     0.005 A 
ATOM     28  C   UNL A   1      28.807  26.497  23.683  1.00  0.00     0.000 A 
ATOM     29  C   UNL A   1      30.093  28.545  23.752  1.00  0.00     0.009 A 
ATOM     30  C   UNL A   1      32.214  29.994  25.543  1.00  0.00     0.009 A 
ATOM     31  C   UNL A   1      33.772  29.604  27.295  1.00  0.00     0.000 A 
ATOM     32  C   UNL A   1      29.072  27.783  23.199  1.00  0.00     0.001 A 
ATOM     33  C   UNL A   1      33.152  30.487  26.438  1.00  0.00     0.001 A 
ENDBRANCH  20  21
ENDBRANCH  19  20
ENDBRANCH  17  19
ENDBRANCH   6  15
ENDBRANCH   4   6
ENDBRANCH   3   4
ENDBRANCH   2   3
ENDBRANCH   1   2
BRANCH   1  34
ATOM     34  O   UNL A   1      39.122  21.877  26.530  1.00  0.00    -0.374 OA
BRANCH  34  35
ATOM     35  C   UNL A   1      38.807  20.952  25.496  1.00  0.00     0.202 C 
BRANCH  35  36
ATOM     36  C   UNL A   1      39.518  19.612  25.671  1.00  0.00     0.261 C 
BRANCH  36  37
ATOM     37  O   UNL A   1      40.618  19.707  26.599  1.00  0.00    -0.460 OA
BRANCH  37  38
ATOM     38  C   UNL A   1      41.837  19.835  26.021  1.00  0.00     0.338 C 
ATOM     39  O   UNL A   1      42.364  19.055  25.245  1.00  0.00    -0.246 OA
BRANCH  38  40
ATOM     40  C   UNL A   1      42.498  21.102  26.405  1.00  0.00     0.060 A 
ATOM     41  C   UNL A   1      42.685  21.339  27.770  1.00  0.00     0.016 A 
ATOM     42  C   UNL A   1      42.792  22.106  25.480  1.00  0.00     0.016 A 
ATOM     43  C   UNL A   1      43.094  22.596  28.215  1.00  0.00     0.010 A 
ATOM     44  C   UNL A   1      43.247  23.358  25.925  1.00  0.00     0.010 A 
ATOM     45  C   UNL A   1      43.344  23.630  27.301  1.00  0.00    -0.014 A 
BRANCH  45  46
ATOM     46  C   UNL A   1      43.539  25.019  27.804  1.00  0.00     0.031 A 
ATOM     47  C   UNL A   1      44.931  25.598  27.870  1.00  0.00     0.074 A 
ATOM     48  C   UNL A   1      42.485  25.795  28.124  1.00  0.00     0.049 A 
ATOM     49  N   UNL A   1      45.319  26.796  28.235  1.00  0.00    -0.248 NA
ATOM     50  C   UNL A   1      46.035  24.709  27.474  1.00  0.00     0.031 C 
ATOM     51  C   UNL A   1      41.084  25.378  28.079  1.00  0.00     0.029 A 
ATOM     52  N   UNL A   1      42.433  27.105  28.535  1.00  0.00    -0.354 N 
ATOM     53  C   UNL A   1      46.705  26.801  28.112  1.00  0.00     0.074 A 
ATOM     54  C   UNL A   1      47.095  25.474  27.688  1.00  0.00     0.031 C 
ATOM     55  C   UNL A   1      40.310  26.417  28.433  1.00  0.00     0.029 A 
ATOM     56  C   UNL A   1      41.158  27.562  28.761  1.00  0.00     0.049 A 
ATOM     57  H   UNL A   1      43.235  27.664  28.658  1.00  0.00     0.167 HD
ATOM     58  C   UNL A   1      47.576  27.819  28.314  1.00  0.00     0.037 A 
ATOM     59  C   UNL A   1      40.722  28.762  29.194  1.00  0.00     0.037 A 
ATOM     60  C   UNL A   1      47.197  29.147  28.722  1.00  0.00     0.049 A 
ATOM     61  C   UNL A   1      41.714  29.861  29.471  1.00  0.00     0.074 A 
ATOM     62  C   UNL A   1      48.009  30.248  28.934  1.00  0.00     0.029 A 
ATOM     63  N   UNL A   1      45.898  29.554  28.983  1.00  0.00    -0.354 N 
ATOM     64  N   UNL A   1      43.016  29.858  29.330  1.00  0.00    -0.248 NA
ATOM     65  C   UNL A   1      41.171  31.137  29.965  1.00  0.00     0.031 C 
ATOM     66  C   UNL A   1      47.207  31.306  29.373  1.00  0.00     0.029 A 
ATOM     67  C   UNL A   1      45.889  30.881  29.380  1.00  0.00     0.049 A 
ATOM     68  H   UNL A   1      45.099  28.983  28.899  1.00  0.00     0.167 HD
ATOM     69  C   UNL A   1      43.445  31.131  29.690  1.00  0.00     0.074 A 
ATOM     70  C   UNL A   1      42.262  31.886  30.041  1.00  0.00     0.031 C 
ATOM     71  C   UNL A   1      44.706  31.628  29.725  1.00  0.00     0.037 A 
BRANCH  58  72
ATOM     72  C   UNL A   1      49.037  27.533  28.110  1.00  0.00     0.057 A 
ATOM     73  C   UNL A   1      49.855  27.073  29.151  1.00  0.00     0.134 A 
ATOM     74  C   UNL A   1      49.623  27.681  26.846  1.00  0.00     0.134 A 
ATOM     75  F   UNL A   1      49.360  26.921  30.388  1.00  0.00    -0.206 F 
ATOM     76  C   UNL A   1      51.209  26.797  28.948  1.00  0.00     0.040 A 
ATOM     77  C   UNL A   1      50.968  27.381  26.624  1.00  0.00     0.040 A 
ATOM     78  F   UNL A   1      48.896  28.108  25.803  1.00  0.00    -0.206 F 
ATOM     79  C   UNL A   1      51.767  26.944  27.680  1.00  0.00     0.006 A 
ENDBRANCH  58  72
BRANCH  59  80
ATOM     80  C   UNL A   1      39.268  28.989  29.406  1.00  0.00     0.057 A 
ATOM     81  C   UNL A   1      38.446  29.476  28.383  1.00  0.00     0.134 A 
ATOM     82  C   UNL A   1      38.671  28.745  30.650  1.00  0.00     0.134 A 
ATOM     83  F   UNL A   1      38.963  29.754  27.178  1.00  0.00    -0.206 F 
ATOM     84  C   UNL A   1      37.089  29.728  28.592  1.00  0.00     0.040 A 
ATOM     85  C   UNL A   1      37.310  28.967  30.865  1.00  0.00     0.040 A 
ATOM     86  F   UNL A   1      39.401  28.277  31.673  1.00  0.00    -0.206 F 
ATOM     87  C   UNL A   1      36.516  29.467  29.835  1.00  0.00     0.006 A 
ENDBRANCH  59  80
BRANCH  71  88
ATOM     88  C   UNL A   1      44.874  33.066  30.127  1.00  0.00     0.057 A 
ATOM     89  C   UNL A   1      45.122  33.442  31.453  1.00  0.00     0.134 A 
ATOM     90  C   UNL A   1      44.830  34.085  29.165  1.00  0.00     0.134 A 
ATOM     91  F   UNL A   1      45.168  32.517  32.424  1.00  0.00    -0.206 F 
ATOM     92  C   UNL A   1      45.296  34.780  31.813  1.00  0.00     0.040 A 
ATOM     93  C   UNL A   1      45.028  35.423  29.509  1.00  0.00     0.040 A 
ATOM     94  F   UNL A   1      44.607  33.795  27.875  1.00  0.00    -0.206 F 
ATOM     95  C   UNL A   1      45.256  35.774  30.838  1.00  0.00     0.006 A 
ENDBRANCH  71  88
ENDBRANCH  45  46
ENDBRANCH  38  40
ENDBRANCH  37  38
ENDBRANCH  36  37
ENDBRANCH  35  36
ENDBRANCH  34  35
ENDBRANCH   1  34
TORSDOF 18
ENDMDL
MODEL 2
REMARK VINA RESULT:     -11.3      3.927      7.287
REMARK SMILES O=C(NC1(C(=O)OCCOCCOC(=O)c2ccc(-c3c4nc(c(-c5c(F)cccc5F)c5ccc([nH]5)c(-c5c(F)cccc5F)c5nc(c(-c6c(F)cccc6F)c6ccc3[nH]6)C=C5)C=C4)cc2)Cc2ccccc2C1)OCC1c2ccccc2-c2ccccc21
REMARK SMILES IDX 9 1 8 2 7 3 5 4 6 5 4 6 70 7 77 8 71 9 76 10 72 11 75 12
REMARK SMILES IDX 73 13 74 14 3 15 1 16 2 17 78 19 79 20 80 21 81 22 92 23
REMARK SMILES IDX 82 24 86 25 87 26 91 27 83 28 85 29 88 30 90 31 84 32 89 33
REMARK SMILES IDX 10 34 11 35 12 36 13 37 14 38 15 39 16 40 17 41 69 42 18 43
REMARK SMILES IDX 68 44 19 45 20 46 21 47 62 48 22 49 67 50 61 51 63 52 23 53
REMARK SMILES IDX 66 54 60 55 59 56 24 58 50 59 33 60 49 61 34 62 37 63 48 64
REMARK SMILES IDX 64 65 35 66 36 67 47 69 65 70 38 71 25 72 26 73 31 74 27 75
REMARK SMILES IDX 28 76 30 77 32 78 29 79 51 80 52 81 57 82 53 83 54 84 56 85
REMARK SMILES IDX 58 86 55 87 39 88 40 89 45 90 41 91 42 92 44 93 46 94 43 95
REMARK H PARENT 3 18 63 57 37 68
REMARK Flexibility Score: inf
ROOT
ATOM      1  C   UNL A   1      38.197  21.596  25.827  1.00  0.00     0.202 C 
ENDROOT
BRANCH   1   2
ATOM      2  C   UNL A   1      37.986  23.098  26.081  1.00  0.00     0.261 C 
BRANCH   2   3
ATOM      3  O   UNL A   1      37.190  23.775  25.056  1.00  0.00    -0.461 OA
BRANCH   3   4
ATOM      4  C   UNL A   1      36.361  23.168  24.168  1.00  0.00     0.332 C 
ATOM      5  O   UNL A   1      36.803  22.440  23.276  1.00  0.00    -0.249 OA
BRANCH   4   6
ATOM      6  C   UNL A   1      34.749  23.554  24.267  1.00  0.00     0.149 C 
ATOM      7  C   UNL A   1      33.292  23.394  23.686  1.00  0.00     0.076 C 
ATOM      8  C   UNL A   1      34.675  25.072  24.681  1.00  0.00     0.076 C 
ATOM      9  C   UNL A   1      32.952  24.694  23.068  1.00  0.00    -0.042 A 
ATOM     10  C   UNL A   1      33.812  25.665  23.556  1.00  0.00    -0.042 A 
ATOM     11  C   UNL A   1      32.071  24.877  22.003  1.00  0.00     0.004 A 
ATOM     12  C   UNL A   1      33.837  26.885  22.897  1.00  0.00     0.004 A 
ATOM     13  C   UNL A   1      32.141  26.072  21.311  1.00  0.00     0.000 A 
ATOM     14  C   UNL A   1      33.026  27.066  21.751  1.00  0.00     0.000 A 
BRANCH   6  15
ATOM     15  N   UNL A   1      34.659  22.402  25.124  1.00  0.00    -0.305 N 
ATOM     16  O   UNL A   1      33.775  21.593  27.035  1.00  0.00    -0.225 OA
ATOM     17  C   UNL A   1      33.884  22.537  26.280  1.00  0.00     0.408 C 
ATOM     18  H   UNL A   1      35.120  21.560  24.908  1.00  0.00     0.168 HD
BRANCH  17  19
ATOM     19  O   UNL A   1      33.240  23.735  26.521  1.00  0.00    -0.449 OA
BRANCH  19  20
ATOM     20  C   UNL A   1      32.002  24.690  26.710  1.00  0.00     0.248 C 
BRANCH  20  21
ATOM     21  C   UNL A   1      31.791  26.306  26.518  1.00  0.00     0.088 C 
ATOM     22  C   UNL A   1      30.840  26.580  25.318  1.00  0.00    -0.029 A 
ATOM     23  C   UNL A   1      32.655  27.650  26.475  1.00  0.00    -0.029 A 
ATOM     24  C   UNL A   1      29.825  25.790  24.800  1.00  0.00     0.005 A 
ATOM     25  C   UNL A   1      30.993  27.904  24.864  1.00  0.00    -0.014 A 
ATOM     26  C   UNL A   1      32.029  28.566  25.606  1.00  0.00    -0.014 A 
ATOM     27  C   UNL A   1      33.676  28.211  27.252  1.00  0.00     0.005 A 
ATOM     28  C   UNL A   1      28.989  26.330  23.818  1.00  0.00     0.000 A 
ATOM     29  C   UNL A   1      30.180  28.435  23.876  1.00  0.00     0.009 A 
ATOM     30  C   UNL A   1      32.325  29.939  25.592  1.00  0.00     0.009 A 
ATOM     31  C   UNL A   1      33.991  29.581  27.249  1.00  0.00     0.000 A 
ATOM     32  C   UNL A   1      29.168  27.640  23.357  1.00  0.00     0.001 A 
ATOM     33  C   UNL A   1      33.285  30.454  26.450  1.00  0.00     0.001 A 
ENDBRANCH  20  21
ENDBRANCH  19  20
ENDBRANCH  17  19
ENDBRANCH   6  15
ENDBRANCH   4   6
ENDBRANCH   3   4
ENDBRANCH   2   3
ENDBRANCH   1   2
BRANCH   1  34
ATOM     34  O   UNL A   1      39.569  21.282  25.589  1.00  0.00    -0.374 OA
BRANCH  34  35
ATOM     35  C   UNL A   1      40.375  21.343  26.761  1.00  0.00     0.202 C 
BRANCH  35  36
ATOM     36  C   UNL A   1      41.724  22.012  26.510  1.00  0.00     0.261 C 
BRANCH  36  37
ATOM     37  O   UNL A   1      41.572  23.345  25.983  1.00  0.00    -0.460 OA
BRANCH  37  38
ATOM     38  C   UNL A   1      42.536  24.218  26.364  1.00  0.00     0.338 C 
ATOM     39  O   UNL A   1      43.725  24.158  26.095  1.00  0.00    -0.246 OA
BRANCH  38  40
ATOM     40  C   UNL A   1      41.983  25.341  27.152  1.00  0.00     0.060 A 
ATOM     41  C   UNL A   1      42.665  26.560  27.097  1.00  0.00     0.016 A 
ATOM     42  C   UNL A   1      40.921  25.180  28.045  1.00  0.00     0.016 A 
ATOM     43  C   UNL A   1      42.335  27.589  27.978  1.00  0.00     0.010 A 
ATOM     44  C   UNL A   1      40.560  26.232  28.902  1.00  0.00     0.010 A 
ATOM     45  C   UNL A   1      41.304  27.424  28.915  1.00  0.00    -0.014 A 
BRANCH  45  46
ATOM     46  C   UNL A   1      41.134  28.433  29.999  1.00  0.00     0.031 A 
ATOM     47  C   UNL A   1      40.014  29.440  29.909  1.00  0.00     0.074 A 
ATOM     48  C   UNL A   1      41.912  28.408  31.098  1.00  0.00     0.049 A 
ATOM     49  N   UNL A   1      39.662  30.374  30.759  1.00  0.00    -0.248 NA
ATOM     50  C   UNL A   1      39.178  29.391  28.698  1.00  0.00     0.031 C 
ATOM     51  C   UNL A   1      43.012  27.473  31.334  1.00  0.00     0.029 A 
ATOM     52  N   UNL A   1      41.884  29.186  32.230  1.00  0.00    -0.354 N 
ATOM     53  C   UNL A   1      38.570  31.018  30.187  1.00  0.00     0.074 A 
ATOM     54  C   UNL A   1      38.348  30.404  28.895  1.00  0.00     0.031 C 
ATOM     55  C   UNL A   1      43.543  27.721  32.543  1.00  0.00     0.029 A 
ATOM     56  C   UNL A   1      42.845  28.852  33.153  1.00  0.00     0.049 A 
ATOM     57  H   UNL A   1      41.236  29.914  32.367  1.00  0.00     0.167 HD
ATOM     58  C   UNL A   1      37.806  32.017  30.692  1.00  0.00     0.037 A 
ATOM     59  C   UNL A   1      43.138  29.400  34.349  1.00  0.00     0.037 A 
ATOM     60  C   UNL A   1      38.010  32.625  31.982  1.00  0.00     0.049 A 
ATOM     61  C   UNL A   1      42.314  30.551  34.865  1.00  0.00     0.074 A 
ATOM     62  C   UNL A   1      37.275  33.631  32.585  1.00  0.00     0.029 A 
ATOM     63  N   UNL A   1      39.023  32.286  32.865  1.00  0.00    -0.354 N 
ATOM     64  N   UNL A   1      41.273  31.134  34.323  1.00  0.00    -0.248 NA
ATOM     65  C   UNL A   1      42.704  31.118  36.166  1.00  0.00     0.031 C 
ATOM     66  C   UNL A   1      37.875  33.937  33.810  1.00  0.00     0.029 A 
ATOM     67  C   UNL A   1      38.949  33.083  33.996  1.00  0.00     0.049 A 
ATOM     68  H   UNL A   1      39.696  31.584  32.710  1.00  0.00     0.167 HD
ATOM     69  C   UNL A   1      40.870  32.114  35.223  1.00  0.00     0.074 A 
ATOM     70  C   UNL A   1      41.768  32.037  36.355  1.00  0.00     0.031 C 
ATOM     71  C   UNL A   1      39.846  32.997  35.121  1.00  0.00     0.037 A 
BRANCH  58  72
ATOM     72  C   UNL A   1      36.681  32.530  29.839  1.00  0.00     0.057 A 
ATOM     73  C   UNL A   1      35.346  32.180  30.083  1.00  0.00     0.134 A 
ATOM     74  C   UNL A   1      36.932  33.416  28.784  1.00  0.00     0.134 A 
ATOM     75  F   UNL A   1      35.036  31.327  31.071  1.00  0.00    -0.206 F 
ATOM     76  C   UNL A   1      34.305  32.673  29.293  1.00  0.00     0.040 A 
ATOM     77  C   UNL A   1      35.899  33.938  28.004  1.00  0.00     0.040 A 
ATOM     78  F   UNL A   1      38.186  33.799  28.500  1.00  0.00    -0.206 F 
ATOM     79  C   UNL A   1      34.580  33.561  28.254  1.00  0.00     0.006 A 
ENDBRANCH  58  72
BRANCH  59  80
ATOM     80  C   UNL A   1      44.278  28.875  35.146  1.00  0.00     0.057 A 
ATOM     81  C   UNL A   1      45.563  29.418  35.030  1.00  0.00     0.134 A 
ATOM     82  C   UNL A   1      44.110  27.800  36.028  1.00  0.00     0.134 A 
ATOM     83  F   UNL A   1      45.793  30.431  34.183  1.00  0.00    -0.206 F 
ATOM     84  C   UNL A   1      46.643  28.900  35.747  1.00  0.00     0.040 A 
ATOM     85  C   UNL A   1      45.176  27.290  36.772  1.00  0.00     0.040 A 
ATOM     86  F   UNL A   1      42.905  27.234  36.187  1.00  0.00    -0.206 F 
ATOM     87  C   UNL A   1      46.449  27.837  36.626  1.00  0.00     0.006 A 
ENDBRANCH  59  80
BRANCH  71  88
ATOM     88  C   UNL A   1      39.618  33.933  36.275  1.00  0.00     0.057 A 
ATOM     89  C   UNL A   1      38.863  33.559  37.394  1.00  0.00     0.134 A 
ATOM     90  C   UNL A   1      40.198  35.208  36.284  1.00  0.00     0.134 A 
ATOM     91  F   UNL A   1      38.273  32.355  37.446  1.00  0.00    -0.206 F 
ATOM     92  C   UNL A   1      38.673  34.429  38.470  1.00  0.00     0.040 A 
ATOM     93  C   UNL A   1      40.037  36.077  37.364  1.00  0.00     0.040 A 
ATOM     94  F   UNL A   1      40.941  35.626  35.249  1.00  0.00    -0.206 F 
ATOM     95  C   UNL A   1      39.267  35.690  38.459  1.00  0.00     0.006 A 
ENDBRANCH  71  88
ENDBRANCH  45  46
ENDBRANCH  38  40
ENDBRANCH  37  38
ENDBRANCH  36  37
ENDBRANCH  35  36
ENDBRANCH  34  35
ENDBRANCH   1  34
TORSDOF 18
ENDMDL
MODEL 3
REMARK VINA RESULT:     -11.3      3.739      5.159
REMARK SMILES O=C(NC1(C(=O)OCCOCCOC(=O)c2ccc(-c3c4nc(c(-c5c(F)cccc5F)c5ccc([nH]5)c(-c5c(F)cccc5F)c5nc(c(-c6c(F)cccc6F)c6ccc3[nH]6)C=C5)C=C4)cc2)Cc2ccccc2C1)OCC1c2ccccc2-c2ccccc21
REMARK SMILES IDX 9 1 8 2 7 3 5 4 6 5 4 6 70 7 77 8 71 9 76 10 72 11 75 12
REMARK SMILES IDX 73 13 74 14 3 15 1 16 2 17 78 19 79 20 80 21 81 22 92 23
REMARK SMILES IDX 82 24 86 25 87 26 91 27 83 28 85 29 88 30 90 31 84 32 89 33
REMARK SMILES IDX 10 34 11 35 12 36 13 37 14 38 15 39 16 40 17 41 69 42 18 43
REMARK SMILES IDX 68 44 19 45 20 46 21 47 62 48 22 49 67 50 61 51 63 52 23 53
REMARK SMILES IDX 66 54 60 55 59 56 24 58 50 59 33 60 49 61 34 62 37 63 48 64
REMARK SMILES IDX 64 65 35 66 36 67 47 69 65 70 38 71 25 72 26 73 31 74 27 75
REMARK SMILES IDX 28 76 30 77 32 78 29 79 51 80 52 81 57 82 53 83 54 84 56 85
REMARK SMILES IDX 58 86 55 87 39 88 40 89 45 90 41 91 42 92 44 93 46 94 43 95
REMARK H PARENT 3 18 63 57 37 68
REMARK Flexibility Score: inf
ROOT
ATOM      1  C   UNL A   1      39.069  22.375  26.212  1.00  0.00     0.202 C 
ENDROOT
BRANCH   1   2
ATOM      2  C   UNL A   1      37.875  21.689  25.527  1.00  0.00     0.261 C 
BRANCH   2   3
ATOM      3  O   UNL A   1      36.683  22.530  25.414  1.00  0.00    -0.461 OA
BRANCH   3   4
ATOM      4  C   UNL A   1      36.059  22.870  24.257  1.00  0.00     0.332 C 
ATOM      5  O   UNL A   1      36.658  22.845  23.179  1.00  0.00    -0.249 OA
BRANCH   4   6
ATOM      6  C   UNL A   1      34.503  23.435  24.384  1.00  0.00     0.149 C 
ATOM      7  C   UNL A   1      33.034  23.462  23.812  1.00  0.00     0.076 C 
ATOM      8  C   UNL A   1      34.607  24.937  24.845  1.00  0.00     0.076 C 
ATOM      9  C   UNL A   1      32.842  24.811  23.238  1.00  0.00    -0.042 A 
ATOM     10  C   UNL A   1      33.811  25.661  23.748  1.00  0.00    -0.042 A 
ATOM     11  C   UNL A   1      31.981  25.128  22.188  1.00  0.00     0.004 A 
ATOM     12  C   UNL A   1      33.972  26.890  23.127  1.00  0.00     0.004 A 
ATOM     13  C   UNL A   1      32.184  26.329  21.534  1.00  0.00     0.000 A 
ATOM     14  C   UNL A   1      33.180  27.200  21.995  1.00  0.00     0.000 A 
BRANCH   6  15
ATOM     15  N   UNL A   1      34.287  22.274  25.205  1.00  0.00    -0.305 N 
ATOM     16  O   UNL A   1      33.271  21.496  27.062  1.00  0.00    -0.225 OA
ATOM     17  C   UNL A   1      33.485  22.446  26.338  1.00  0.00     0.408 C 
ATOM     18  H   UNL A   1      34.683  21.401  24.982  1.00  0.00     0.168 HD
BRANCH  17  19
ATOM     19  O   UNL A   1      32.936  23.687  26.590  1.00  0.00    -0.449 OA
BRANCH  19  20
ATOM     20  C   UNL A   1      31.777  24.721  26.855  1.00  0.00     0.248 C 
BRANCH  20  21
ATOM     21  C   UNL A   1      31.629  26.334  26.591  1.00  0.00     0.088 C 
ATOM     22  C   UNL A   1      30.694  26.590  25.375  1.00  0.00    -0.029 A 
ATOM     23  C   UNL A   1      32.544  27.640  26.494  1.00  0.00    -0.029 A 
ATOM     24  C   UNL A   1      29.651  25.817  24.886  1.00  0.00     0.005 A 
ATOM     25  C   UNL A   1      30.899  27.886  24.864  1.00  0.00    -0.014 A 
ATOM     26  C   UNL A   1      31.957  28.540  25.581  1.00  0.00    -0.014 A 
ATOM     27  C   UNL A   1      33.582  28.196  27.251  1.00  0.00     0.005 A 
ATOM     28  C   UNL A   1      28.841  26.344  23.878  1.00  0.00     0.000 A 
ATOM     29  C   UNL A   1      30.111  28.403  23.849  1.00  0.00     0.009 A 
ATOM     30  C   UNL A   1      32.304  29.899  25.509  1.00  0.00     0.009 A 
ATOM     31  C   UNL A   1      33.949  29.552  27.189  1.00  0.00     0.000 A 
ATOM     32  C   UNL A   1      29.071  27.624  23.359  1.00  0.00     0.001 A 
ATOM     33  C   UNL A   1      33.281  30.415  26.348  1.00  0.00     0.001 A 
ENDBRANCH  20  21
ENDBRANCH  19  20
ENDBRANCH  17  19
ENDBRANCH   6  15
ENDBRANCH   4   6
ENDBRANCH   3   4
ENDBRANCH   2   3
ENDBRANCH   1   2
BRANCH   1  34
ATOM     34  O   UNL A   1      40.146  21.466  26.444  1.00  0.00    -0.374 OA
BRANCH  34  35
ATOM     35  C   UNL A   1      41.339  21.814  25.752  1.00  0.00     0.202 C 
BRANCH  35  36
ATOM     36  C   UNL A   1      42.593  21.592  26.595  1.00  0.00     0.261 C 
BRANCH  36  37
ATOM     37  O   UNL A   1      43.103  22.828  27.133  1.00  0.00    -0.460 OA
BRANCH  37  38
ATOM     38  C   UNL A   1      42.898  23.914  26.349  1.00  0.00     0.338 C 
ATOM     39  O   UNL A   1      43.169  24.022  25.164  1.00  0.00    -0.246 OA
BRANCH  38  40
ATOM     40  C   UNL A   1      42.241  25.013  27.090  1.00  0.00     0.060 A 
ATOM     41  C   UNL A   1      42.853  26.269  27.048  1.00  0.00     0.016 A 
ATOM     42  C   UNL A   1      41.146  24.803  27.932  1.00  0.00     0.016 A 
ATOM     43  C   UNL A   1      42.419  27.290  27.895  1.00  0.00     0.010 A 
ATOM     44  C   UNL A   1      40.682  25.843  28.751  1.00  0.00     0.010 A 
ATOM     45  C   UNL A   1      41.354  27.077  28.782  1.00  0.00    -0.014 A 
BRANCH  45  46
ATOM     46  C   UNL A   1      41.071  28.089  29.839  1.00  0.00     0.031 A 
ATOM     47  C   UNL A   1      41.963  28.164  31.054  1.00  0.00     0.074 A 
ATOM     48  C   UNL A   1      40.082  28.990  29.690  1.00  0.00     0.049 A 
ATOM     49  N   UNL A   1      41.922  28.992  32.069  1.00  0.00    -0.248 NA
ATOM     50  C   UNL A   1      43.047  27.171  31.140  1.00  0.00     0.031 C 
ATOM     51  C   UNL A   1      39.162  29.056  28.556  1.00  0.00     0.029 A 
ATOM     52  N   UNL A   1      39.698  30.036  30.495  1.00  0.00    -0.354 N 
ATOM     53  C   UNL A   1      42.969  28.621  32.907  1.00  0.00     0.074 A 
ATOM     54  C   UNL A   1      43.596  27.462  32.309  1.00  0.00     0.031 C 
ATOM     55  C   UNL A   1      38.331  30.097  28.729  1.00  0.00     0.029 A 
ATOM     56  C   UNL A   1      38.635  30.752  30.000  1.00  0.00     0.049 A 
ATOM     57  H   UNL A   1      40.143  30.252  31.347  1.00  0.00     0.167 HD
ATOM     58  C   UNL A   1      43.386  29.199  34.060  1.00  0.00     0.037 A 
ATOM     59  C   UNL A   1      37.975  31.808  30.515  1.00  0.00     0.037 A 
ATOM     60  C   UNL A   1      42.778  30.361  34.655  1.00  0.00     0.049 A 
ATOM     61  C   UNL A   1      38.418  32.397  31.829  1.00  0.00     0.074 A 
ATOM     62  C   UNL A   1      43.144  31.027  35.812  1.00  0.00     0.029 A 
ATOM     63  N   UNL A   1      41.676  31.027  34.143  1.00  0.00    -0.354 N 
ATOM     64  N   UNL A   1      39.421  32.049  32.597  1.00  0.00    -0.248 NA
ATOM     65  C   UNL A   1      37.637  33.532  32.346  1.00  0.00     0.031 C 
ATOM     66  C   UNL A   1      42.231  32.064  36.028  1.00  0.00     0.029 A 
ATOM     67  C   UNL A   1      41.331  32.080  34.975  1.00  0.00     0.049 A 
ATOM     68  H   UNL A   1      41.206  30.787  33.311  1.00  0.00     0.167 HD
ATOM     69  C   UNL A   1      39.408  32.934  33.670  1.00  0.00     0.074 A 
ATOM     70  C   UNL A   1      38.307  33.846  33.446  1.00  0.00     0.031 C 
ATOM     71  C   UNL A   1      40.235  32.986  34.743  1.00  0.00     0.037 A 
BRANCH  58  72
ATOM     72  C   UNL A   1      44.555  28.572  34.766  1.00  0.00     0.057 A 
ATOM     73  C   UNL A   1      45.874  28.976  34.520  1.00  0.00     0.134 A 
ATOM     74  C   UNL A   1      44.354  27.580  35.735  1.00  0.00     0.134 A 
ATOM     75  F   UNL A   1      46.138  29.913  33.597  1.00  0.00    -0.206 F 
ATOM     76  C   UNL A   1      46.952  28.396  35.192  1.00  0.00     0.040 A 
ATOM     77  C   UNL A   1      45.421  27.014  36.434  1.00  0.00     0.040 A 
ATOM     78  F   UNL A   1      43.116  27.153  36.026  1.00  0.00    -0.206 F 
ATOM     79  C   UNL A   1      46.726  27.417  36.158  1.00  0.00     0.006 A 
ENDBRANCH  58  72
BRANCH  59  80
ATOM     80  C   UNL A   1      36.808  32.377  29.792  1.00  0.00     0.057 A 
ATOM     81  C   UNL A   1      35.497  31.999  30.105  1.00  0.00     0.134 A 
ATOM     82  C   UNL A   1      36.981  33.300  28.751  1.00  0.00     0.134 A 
ATOM     83  F   UNL A   1      35.267  31.101  31.073  1.00  0.00    -0.206 F 
ATOM     84  C   UNL A   1      34.402  32.502  29.399  1.00  0.00     0.040 A 
ATOM     85  C   UNL A   1      35.894  33.831  28.056  1.00  0.00     0.040 A 
ATOM     86  F   UNL A   1      38.210  33.705  28.401  1.00  0.00    -0.206 F 
ATOM     87  C   UNL A   1      34.599  33.426  28.375  1.00  0.00     0.006 A 
ENDBRANCH  59  80
BRANCH  71  88
ATOM     88  C   UNL A   1      40.006  34.083  35.744  1.00  0.00     0.057 A 
ATOM     89  C   UNL A   1      39.264  33.877  36.914  1.00  0.00     0.134 A 
ATOM     90  C   UNL A   1      40.571  35.351  35.554  1.00  0.00     0.134 A 
ATOM     91  F   UNL A   1      38.688  32.688  37.153  1.00  0.00    -0.206 F 
ATOM     92  C   UNL A   1      39.072  34.898  37.847  1.00  0.00     0.040 A 
ATOM     93  C   UNL A   1      40.409  36.372  36.492  1.00  0.00     0.040 A 
ATOM     94  F   UNL A   1      41.302  35.615  34.461  1.00  0.00    -0.206 F 
ATOM     95  C   UNL A   1      39.652  36.148  37.640  1.00  0.00     0.006 A 
ENDBRANCH  71  88
ENDBRANCH  45  46
ENDBRANCH  38  40
ENDBRANCH  37  38
ENDBRANCH  36  37
ENDBRANCH  35  36
ENDBRANCH  34  35
ENDBRANCH   1  34
TORSDOF 18
ENDMDL
