MODEL 1
REMARK VINA RESULT:     -11.1      0.000      0.000
REMARK SMILES O=C(OCCOCCOC(=O)c1cc(Br)ccc1OC(=O)c1ccc(F)cc1)c1ccc(-c2c3nc(c(-c4c(F)cccc4F)c4ccc([nH]4)c(-c4c(F)cccc4F)c4nc(c(-c5c(F)cccc5F)c5ccc2[nH]5)C=C4)C=C3)cc1
REMARK SMILES IDX 7 1 6 2 5 3 4 4 3 5 2 6 1 7 29 8 30 9 82 10 31 11 81 12
REMARK SMILES IDX 32 13 33 14 34 15 75 16 35 17 80 18 74 19 76 20 36 21 79 22
REMARK SMILES IDX 73 23 72 24 37 26 63 27 46 28 62 29 47 30 50 31 61 32 77 33
REMARK SMILES IDX 48 34 49 35 60 37 78 38 51 39 38 40 39 41 44 42 40 43 41 44
REMARK SMILES IDX 43 45 45 46 42 47 64 48 65 49 70 50 66 51 67 52 69 53 71 54
REMARK SMILES IDX 68 55 52 56 53 57 58 58 54 59 55 60 57 61 59 62 56 63 8 64
REMARK SMILES IDX 9 65 10 66 11 67 12 68 13 69 18 70 14 71 17 72 15 73 16 74
REMARK SMILES IDX 19 75 20 76 21 77 22 78 23 79 28 80 24 81 27 82 25 83 26 84
REMARK H PARENT 76 25 50 36
REMARK Flexibility Score: inf
ROOT
ATOM      1  C   UNL A   1      39.357  21.969  26.096  1.00  0.00     0.202 C 
ENDROOT
BRANCH   1   2
ATOM      2  O   UNL A   1      39.836  20.745  26.627  1.00  0.00    -0.374 OA
BRANCH   2   3
ATOM      3  C   UNL A   1      41.176  20.752  27.099  1.00  0.00     0.202 C 
BRANCH   3   4
ATOM      4  C   UNL A   1      42.184  21.088  26.007  1.00  0.00     0.261 C 
BRANCH   4   5
ATOM      5  O   UNL A   1      43.022  22.175  26.393  1.00  0.00    -0.460 OA
BRANCH   5   6
ATOM      6  C   UNL A   1      42.870  23.432  25.909  1.00  0.00     0.338 C 
ATOM      7  O   UNL A   1      43.094  23.653  24.721  1.00  0.00    -0.246 OA
BRANCH   6   8
ATOM      8  C   UNL A   1      42.271  24.539  26.718  1.00  0.00     0.060 A 
ATOM      9  C   UNL A   1      41.221  24.413  27.640  1.00  0.00     0.016 A 
ATOM     10  C   UNL A   1      42.979  25.745  26.681  1.00  0.00     0.016 A 
ATOM     11  C   UNL A   1      40.915  25.431  28.535  1.00  0.00     0.010 A 
ATOM     12  C   UNL A   1      42.700  26.757  27.596  1.00  0.00     0.010 A 
ATOM     13  C   UNL A   1      41.682  26.589  28.545  1.00  0.00    -0.014 A 
BRANCH  13  14
ATOM     14  C   UNL A   1      41.382  27.654  29.514  1.00  0.00     0.031 A 
ATOM     15  C   UNL A   1      42.212  27.724  30.751  1.00  0.00     0.074 A 
ATOM     16  C   UNL A   1      40.398  28.536  29.267  1.00  0.00     0.049 A 
ATOM     17  N   UNL A   1      42.030  28.428  31.831  1.00  0.00    -0.248 NA
ATOM     18  C   UNL A   1      43.414  26.873  30.772  1.00  0.00     0.031 C 
ATOM     19  C   UNL A   1      39.622  28.612  28.027  1.00  0.00     0.029 A 
ATOM     20  N   UNL A   1      39.876  29.535  30.046  1.00  0.00    -0.354 N 
ATOM     21  C   UNL A   1      43.072  28.078  32.677  1.00  0.00     0.074 A 
ATOM     22  C   UNL A   1      43.878  27.095  31.990  1.00  0.00     0.031 C 
ATOM     23  C   UNL A   1      38.728  29.608  28.128  1.00  0.00     0.029 A 
ATOM     24  C   UNL A   1      38.807  30.176  29.469  1.00  0.00     0.049 A 
ATOM     25  H   UNL A   1      40.234  29.771  30.933  1.00  0.00     0.167 HD
ATOM     26  C   UNL A   1      43.309  28.533  33.926  1.00  0.00     0.037 A 
ATOM     27  C   UNL A   1      37.955  31.078  29.993  1.00  0.00     0.037 A 
ATOM     28  C   UNL A   1      42.460  29.493  34.575  1.00  0.00     0.049 A 
ATOM     29  C   UNL A   1      38.160  31.485  31.426  1.00  0.00     0.074 A 
ATOM     30  C   UNL A   1      42.546  29.992  35.859  1.00  0.00     0.029 A 
ATOM     31  N   UNL A   1      41.354  30.087  33.978  1.00  0.00    -0.354 N 
ATOM     32  N   UNL A   1      39.105  31.108  32.256  1.00  0.00    -0.248 NA
ATOM     33  C   UNL A   1      37.181  32.410  32.009  1.00  0.00     0.031 C 
ATOM     34  C   UNL A   1      41.449  30.833  36.062  1.00  0.00     0.029 A 
ATOM     35  C   UNL A   1      40.723  30.922  34.880  1.00  0.00     0.049 A 
ATOM     36  H   UNL A   1      41.062  29.935  33.050  1.00  0.00     0.167 HD
ATOM     37  C   UNL A   1      38.853  31.765  33.451  1.00  0.00     0.074 A 
ATOM     38  C   UNL A   1      37.660  32.564  33.238  1.00  0.00     0.031 C 
ATOM     39  C   UNL A   1      39.545  31.715  34.616  1.00  0.00     0.037 A 
BRANCH  26  40
ATOM     40  C   UNL A   1      44.455  27.918  34.669  1.00  0.00     0.057 A 
ATOM     41  C   UNL A   1      45.711  28.539  34.664  1.00  0.00     0.134 A 
ATOM     42  C   UNL A   1      44.317  26.750  35.430  1.00  0.00     0.134 A 
ATOM     43  F   UNL A   1      45.911  29.666  33.965  1.00  0.00    -0.206 F 
ATOM     44  C   UNL A   1      46.785  28.024  35.390  1.00  0.00     0.040 A 
ATOM     45  C   UNL A   1      45.377  26.242  36.185  1.00  0.00     0.040 A 
ATOM     46  F   UNL A   1      43.134  26.121  35.504  1.00  0.00    -0.206 F 
ATOM     47  C   UNL A   1      46.616  26.878  36.164  1.00  0.00     0.006 A 
ENDBRANCH  26  40
BRANCH  27  48
ATOM     48  C   UNL A   1      36.836  31.601  29.166  1.00  0.00     0.057 A 
ATOM     49  C   UNL A   1      36.839  32.916  28.676  1.00  0.00     0.134 A 
ATOM     50  C   UNL A   1      35.698  30.829  28.911  1.00  0.00     0.134 A 
ATOM     51  F   UNL A   1      37.896  33.713  28.885  1.00  0.00    -0.206 F 
ATOM     52  C   UNL A   1      35.739  33.455  28.004  1.00  0.00     0.040 A 
ATOM     53  C   UNL A   1      34.599  31.347  28.218  1.00  0.00     0.040 A 
ATOM     54  F   UNL A   1      35.637  29.557  29.332  1.00  0.00    -0.206 F 
ATOM     55  C   UNL A   1      34.613  32.668  27.775  1.00  0.00     0.006 A 
ENDBRANCH  27  48
BRANCH  39  56
ATOM     56  C   UNL A   1      39.070  32.573  35.746  1.00  0.00     0.057 A 
ATOM     57  C   UNL A   1      39.565  33.877  35.888  1.00  0.00     0.134 A 
ATOM     58  C   UNL A   1      38.272  32.061  36.774  1.00  0.00     0.134 A 
ATOM     59  F   UNL A   1      40.347  34.415  34.941  1.00  0.00    -0.206 F 
ATOM     60  C   UNL A   1      39.317  34.625  37.037  1.00  0.00     0.040 A 
ATOM     61  C   UNL A   1      37.995  32.811  37.916  1.00  0.00     0.040 A 
ATOM     62  F   UNL A   1      37.764  30.822  36.689  1.00  0.00    -0.206 F 
ATOM     63  C   UNL A   1      38.534  34.090  38.058  1.00  0.00     0.006 A 
ENDBRANCH  39  56
ENDBRANCH  13  14
ENDBRANCH   6   8
ENDBRANCH   5   6
ENDBRANCH   4   5
ENDBRANCH   3   4
ENDBRANCH   2   3
ENDBRANCH   1   2
BRANCH   1  64
ATOM     64  C   UNL A   1      37.969  21.767  25.492  1.00  0.00     0.261 C 
BRANCH  64  65
ATOM     65  O   UNL A   1      37.517  22.983  24.870  1.00  0.00    -0.460 OA
BRANCH  65  66
ATOM     66  C   UNL A   1      36.502  22.881  23.970  1.00  0.00     0.342 C 
ATOM     67  O   UNL A   1      36.581  22.948  22.755  1.00  0.00    -0.246 OA
BRANCH  66  68
ATOM     68  C   UNL A   1      35.281  22.505  24.718  1.00  0.00     0.103 A 
ATOM     69  C   UNL A   1      34.829  21.176  24.625  1.00  0.00     0.035 A 
ATOM     70  C   UNL A   1      34.522  23.446  25.437  1.00  0.00     0.145 A 
ATOM     71  C   UNL A   1      33.631  20.803  25.225  1.00  0.00     0.019 A 
ATOM     72  C   UNL A   1      33.323  23.057  26.048  1.00  0.00     0.049 A 
ATOM     73  Br  UNL A   1      32.995  19.037  25.009  1.00  0.00    -0.051 Br
ATOM     74  C   UNL A   1      32.882  21.733  25.944  1.00  0.00     0.019 A 
BRANCH  70  75
ATOM     75  O   UNL A   1      34.778  24.838  25.375  1.00  0.00    -0.422 OA
BRANCH  75  76
ATOM     76  C   UNL A   1      34.029  25.592  24.487  1.00  0.00     0.343 C 
ATOM     77  O   UNL A   1      33.917  25.374  23.290  1.00  0.00    -0.246 OA
BRANCH  76  78
ATOM     78  C   UNL A   1      33.409  26.785  25.165  1.00  0.00     0.060 A 
ATOM     79  C   UNL A   1      32.382  26.550  26.095  1.00  0.00     0.019 A 
ATOM     80  C   UNL A   1      33.798  28.113  24.933  1.00  0.00     0.019 A 
ATOM     81  C   UNL A   1      31.783  27.609  26.790  1.00  0.00     0.040 A 
ATOM     82  C   UNL A   1      33.212  29.173  25.643  1.00  0.00     0.040 A 
ATOM     83  C   UNL A   1      32.213  28.910  26.570  1.00  0.00     0.123 A 
ATOM     84  F   UNL A   1      31.659  29.921  27.251  1.00  0.00    -0.207 F 
ENDBRANCH  76  78
ENDBRANCH  75  76
ENDBRANCH  70  75
ENDBRANCH  66  68
ENDBRANCH  65  66
ENDBRANCH  64  65
ENDBRANCH   1  64
TORSDOF 17
ENDMDL
MODEL 2
REMARK VINA RESULT:     -11.1      4.334      7.999
REMARK SMILES O=C(OCCOCCOC(=O)c1cc(Br)ccc1OC(=O)c1ccc(F)cc1)c1ccc(-c2c3nc(c(-c4c(F)cccc4F)c4ccc([nH]4)c(-c4c(F)cccc4F)c4nc(c(-c5c(F)cccc5F)c5ccc2[nH]5)C=C4)C=C3)cc1
REMARK SMILES IDX 7 1 6 2 5 3 4 4 3 5 2 6 1 7 29 8 30 9 82 10 31 11 81 12
REMARK SMILES IDX 32 13 33 14 34 15 75 16 35 17 80 18 74 19 76 20 36 21 79 22
REMARK SMILES IDX 73 23 72 24 37 26 63 27 46 28 62 29 47 30 50 31 61 32 77 33
REMARK SMILES IDX 48 34 49 35 60 37 78 38 51 39 38 40 39 41 44 42 40 43 41 44
REMARK SMILES IDX 43 45 45 46 42 47 64 48 65 49 70 50 66 51 67 52 69 53 71 54
REMARK SMILES IDX 68 55 52 56 53 57 58 58 54 59 55 60 57 61 59 62 56 63 8 64
REMARK SMILES IDX 9 65 10 66 11 67 12 68 13 69 18 70 14 71 17 72 15 73 16 74
REMARK SMILES IDX 19 75 20 76 21 77 22 78 23 79 28 80 24 81 27 82 25 83 26 84
REMARK H PARENT 76 25 50 36
REMARK Flexibility Score: inf
ROOT
ATOM      1  C   UNL A   1      34.544  23.617  24.178  1.00  0.00     0.202 C 
ENDROOT
BRANCH   1   2
ATOM      2  O   UNL A   1      35.948  23.688  24.352  1.00  0.00    -0.374 OA
BRANCH   2   3
ATOM      3  C   UNL A   1      36.722  22.811  23.545  1.00  0.00     0.202 C 
BRANCH   3   4
ATOM      4  C   UNL A   1      37.028  21.488  24.237  1.00  0.00     0.261 C 
BRANCH   4   5
ATOM      5  O   UNL A   1      37.393  21.691  25.600  1.00  0.00    -0.460 OA
BRANCH   5   6
ATOM      6  C   UNL A   1      38.675  21.623  26.038  1.00  0.00     0.338 C 
ATOM      7  O   UNL A   1      39.361  20.646  25.747  1.00  0.00    -0.246 OA
BRANCH   6   8
ATOM      8  C   UNL A   1      39.354  22.768  26.719  1.00  0.00     0.060 A 
ATOM      9  C   UNL A   1      40.451  22.679  27.590  1.00  0.00     0.016 A 
ATOM     10  C   UNL A   1      38.969  24.035  26.266  1.00  0.00     0.016 A 
ATOM     11  C   UNL A   1      41.179  23.804  27.959  1.00  0.00     0.010 A 
ATOM     12  C   UNL A   1      39.713  25.163  26.605  1.00  0.00     0.010 A 
ATOM     13  C   UNL A   1      40.838  25.043  27.432  1.00  0.00    -0.014 A 
BRANCH  13  14
ATOM     14  C   UNL A   1      41.628  26.231  27.794  1.00  0.00     0.031 A 
ATOM     15  C   UNL A   1      40.972  27.272  28.636  1.00  0.00     0.074 A 
ATOM     16  C   UNL A   1      42.902  26.348  27.380  1.00  0.00     0.049 A 
ATOM     17  N   UNL A   1      41.373  28.477  28.923  1.00  0.00    -0.248 NA
ATOM     18  C   UNL A   1      39.678  26.900  29.234  1.00  0.00     0.031 C 
ATOM     19  C   UNL A   1      43.654  25.320  26.658  1.00  0.00     0.029 A 
ATOM     20  N   UNL A   1      43.789  27.384  27.503  1.00  0.00    -0.354 N 
ATOM     21  C   UNL A   1      40.364  29.023  29.703  1.00  0.00     0.074 A 
ATOM     22  C   UNL A   1      39.331  28.023  29.839  1.00  0.00     0.031 C 
ATOM     23  C   UNL A   1      44.892  25.776  26.407  1.00  0.00     0.029 A 
ATOM     24  C   UNL A   1      44.987  27.156  26.868  1.00  0.00     0.049 A 
ATOM     25  H   UNL A   1      43.589  28.211  27.998  1.00  0.00     0.167 HD
ATOM     26  C   UNL A   1      40.313  30.263  30.235  1.00  0.00     0.037 A 
ATOM     27  C   UNL A   1      46.016  27.993  26.639  1.00  0.00     0.037 A 
ATOM     28  C   UNL A   1      41.357  31.231  30.047  1.00  0.00     0.049 A 
ATOM     29  C   UNL A   1      45.892  29.408  27.133  1.00  0.00     0.074 A 
ATOM     30  C   UNL A   1      41.406  32.542  30.475  1.00  0.00     0.029 A 
ATOM     31  N   UNL A   1      42.538  30.982  29.356  1.00  0.00    -0.354 N 
ATOM     32  N   UNL A   1      44.911  29.952  27.816  1.00  0.00    -0.248 NA
ATOM     33  C   UNL A   1      46.986  30.332  26.812  1.00  0.00     0.031 C 
ATOM     34  C   UNL A   1      42.584  33.108  29.980  1.00  0.00     0.029 A 
ATOM     35  C   UNL A   1      43.308  32.128  29.312  1.00  0.00     0.049 A 
ATOM     36  H   UNL A   1      42.788  30.118  28.956  1.00  0.00     0.167 HD
ATOM     37  C   UNL A   1      45.276  31.274  28.028  1.00  0.00     0.074 A 
ATOM     38  C   UNL A   1      46.571  31.450  27.396  1.00  0.00     0.031 C 
ATOM     39  C   UNL A   1      44.604  32.251  28.686  1.00  0.00     0.037 A 
BRANCH  26  40
ATOM     40  C   UNL A   1      39.059  30.641  30.962  1.00  0.00     0.057 A 
ATOM     41  C   UNL A   1      37.969  31.170  30.257  1.00  0.00     0.134 A 
ATOM     42  C   UNL A   1      38.898  30.439  32.339  1.00  0.00     0.134 A 
ATOM     43  F   UNL A   1      38.051  31.380  28.935  1.00  0.00    -0.206 F 
ATOM     44  C   UNL A   1      36.767  31.481  30.893  1.00  0.00     0.040 A 
ATOM     45  C   UNL A   1      37.689  30.717  32.981  1.00  0.00     0.040 A 
ATOM     46  F   UNL A   1      39.889  29.906  33.069  1.00  0.00    -0.206 F 
ATOM     47  C   UNL A   1      36.620  31.243  32.258  1.00  0.00     0.006 A 
ENDBRANCH  26  40
BRANCH  27  48
ATOM     48  C   UNL A   1      47.202  27.512  25.883  1.00  0.00     0.057 A 
ATOM     49  C   UNL A   1      48.337  27.013  26.540  1.00  0.00     0.134 A 
ATOM     50  C   UNL A   1      47.265  27.613  24.489  1.00  0.00     0.134 A 
ATOM     51  F   UNL A   1      48.347  26.890  27.875  1.00  0.00    -0.206 F 
ATOM     52  C   UNL A   1      49.501  26.675  25.845  1.00  0.00     0.040 A 
ATOM     53  C   UNL A   1      48.415  27.256  23.779  1.00  0.00     0.040 A 
ATOM     54  F   UNL A   1      46.209  28.063  23.797  1.00  0.00    -0.206 F 
ATOM     55  C   UNL A   1      49.542  26.798  24.459  1.00  0.00     0.006 A 
ENDBRANCH  27  48
BRANCH  39  56
ATOM     56  C   UNL A   1      45.262  33.590  28.804  1.00  0.00     0.057 A 
ATOM     57  C   UNL A   1      45.089  34.544  27.791  1.00  0.00     0.134 A 
ATOM     58  C   UNL A   1      46.189  33.868  29.813  1.00  0.00     0.134 A 
ATOM     59  F   UNL A   1      44.224  34.323  26.789  1.00  0.00    -0.206 F 
ATOM     60  C   UNL A   1      45.850  35.710  27.755  1.00  0.00     0.040 A 
ATOM     61  C   UNL A   1      46.937  35.045  29.802  1.00  0.00     0.040 A 
ATOM     62  F   UNL A   1      46.390  32.996  30.812  1.00  0.00    -0.206 F 
ATOM     63  C   UNL A   1      46.782  35.960  28.760  1.00  0.00     0.006 A 
ENDBRANCH  39  56
ENDBRANCH  13  14
ENDBRANCH   6   8
ENDBRANCH   5   6
ENDBRANCH   4   5
ENDBRANCH   3   4
ENDBRANCH   2   3
ENDBRANCH   1   2
BRANCH   1  64
ATOM     64  C   UNL A   1      34.094  24.646  23.143  1.00  0.00     0.261 C 
BRANCH  64  65
ATOM     65  O   UNL A   1      33.698  25.865  23.796  1.00  0.00    -0.460 OA
BRANCH  65  66
ATOM     66  C   UNL A   1      33.543  26.968  23.012  1.00  0.00     0.342 C 
ATOM     67  O   UNL A   1      33.712  27.048  21.807  1.00  0.00    -0.246 OA
BRANCH  66  68
ATOM     68  C   UNL A   1      32.965  28.036  23.858  1.00  0.00     0.103 A 
ATOM     69  C   UNL A   1      33.744  28.539  24.916  1.00  0.00     0.035 A 
ATOM     70  C   UNL A   1      31.645  28.492  23.692  1.00  0.00     0.145 A 
ATOM     71  C   UNL A   1      33.203  29.467  25.800  1.00  0.00     0.019 A 
ATOM     72  C   UNL A   1      31.115  29.436  24.580  1.00  0.00     0.049 A 
ATOM     73  Br  UNL A   1      34.235  30.061  27.268  1.00  0.00    -0.051 Br
ATOM     74  C   UNL A   1      31.898  29.926  25.631  1.00  0.00     0.019 A 
BRANCH  70  75
ATOM     75  O   UNL A   1      30.727  27.865  22.813  1.00  0.00    -0.422 OA
BRANCH  75  76
ATOM     76  C   UNL A   1      29.636  27.221  23.374  1.00  0.00     0.343 C 
ATOM     77  O   UNL A   1      28.487  27.635  23.365  1.00  0.00    -0.246 OA
BRANCH  76  78
ATOM     78  C   UNL A   1      30.048  25.956  24.079  1.00  0.00     0.060 A 
ATOM     79  C   UNL A   1      30.362  24.838  23.289  1.00  0.00     0.019 A 
ATOM     80  C   UNL A   1      30.145  25.827  25.473  1.00  0.00     0.019 A 
ATOM     81  C   UNL A   1      30.787  23.637  23.874  1.00  0.00     0.040 A 
ATOM     82  C   UNL A   1      30.589  24.631  26.060  1.00  0.00     0.040 A 
ATOM     83  C   UNL A   1      30.911  23.549  25.253  1.00  0.00     0.123 A 
ATOM     84  F   UNL A   1      31.339  22.410  25.813  1.00  0.00    -0.207 F 
ENDBRANCH  76  78
ENDBRANCH  75  76
ENDBRANCH  70  75
ENDBRANCH  66  68
ENDBRANCH  65  66
ENDBRANCH  64  65
ENDBRANCH   1  64
TORSDOF 17
ENDMDL
MODEL 3
REMARK VINA RESULT:     -11.1      3.061      7.946
REMARK SMILES O=C(OCCOCCOC(=O)c1cc(Br)ccc1OC(=O)c1ccc(F)cc1)c1ccc(-c2c3nc(c(-c4c(F)cccc4F)c4ccc([nH]4)c(-c4c(F)cccc4F)c4nc(c(-c5c(F)cccc5F)c5ccc2[nH]5)C=C4)C=C3)cc1
REMARK SMILES IDX 7 1 6 2 5 3 4 4 3 5 2 6 1 7 29 8 30 9 82 10 31 11 81 12
REMARK SMILES IDX 32 13 33 14 34 15 75 16 35 17 80 18 74 19 76 20 36 21 79 22
REMARK SMILES IDX 73 23 72 24 37 26 63 27 46 28 62 29 47 30 50 31 61 32 77 33
REMARK SMILES IDX 48 34 49 35 60 37 78 38 51 39 38 40 39 41 44 42 40 43 41 44
REMARK SMILES IDX 43 45 45 46 42 47 64 48 65 49 70 50 66 51 67 52 69 53 71 54
REMARK SMILES IDX 68 55 52 56 53 57 58 58 54 59 55 60 57 61 59 62 56 63 8 64
REMARK SMILES IDX 9 65 10 66 11 67 12 68 13 69 18 70 14 71 17 72 15 73 16 74
REMARK SMILES IDX 19 75 20 76 21 77 22 78 23 79 28 80 24 81 27 82 25 83 26 84
REMARK H PARENT 76 25 50 36
REMARK Flexibility Score: inf
ROOT
ATOM      1  C   UNL A   1      33.353  29.435  25.766  1.00  0.00     0.202 C 
ENDROOT
BRANCH   1   2
ATOM      2  O   UNL A   1      32.176  30.219  25.677  1.00  0.00    -0.374 OA
BRANCH   2   3
ATOM      3  C   UNL A   1      31.865  31.010  26.816  1.00  0.00     0.202 C 
BRANCH   3   4
ATOM      4  C   UNL A   1      31.815  32.500  26.503  1.00  0.00     0.261 C 
BRANCH   4   5
ATOM      5  O   UNL A   1      31.776  33.278  27.696  1.00  0.00    -0.460 OA
BRANCH   5   6
ATOM      6  C   UNL A   1      32.807  34.061  28.101  1.00  0.00     0.338 C 
ATOM      7  O   UNL A   1      32.606  35.250  28.337  1.00  0.00    -0.246 OA
BRANCH   6   8
ATOM      8  C   UNL A   1      34.152  33.504  28.445  1.00  0.00     0.060 A 
ATOM      9  C   UNL A   1      35.391  34.079  28.121  1.00  0.00     0.016 A 
ATOM     10  C   UNL A   1      34.135  32.430  29.341  1.00  0.00     0.016 A 
ATOM     11  C   UNL A   1      36.571  33.639  28.708  1.00  0.00     0.010 A 
ATOM     12  C   UNL A   1      35.308  32.005  29.958  1.00  0.00     0.010 A 
ATOM     13  C   UNL A   1      36.527  32.630  29.661  1.00  0.00    -0.014 A 
BRANCH  13  14
ATOM     14  C   UNL A   1      37.771  32.186  30.310  1.00  0.00     0.031 A 
ATOM     15  C   UNL A   1      38.496  31.031  29.706  1.00  0.00     0.074 A 
ATOM     16  C   UNL A   1      38.229  32.822  31.402  1.00  0.00     0.049 A 
ATOM     17  N   UNL A   1      39.486  30.333  30.186  1.00  0.00    -0.248 NA
ATOM     18  C   UNL A   1      38.033  30.601  28.376  1.00  0.00     0.031 C 
ATOM     19  C   UNL A   1      37.646  34.033  31.982  1.00  0.00     0.029 A 
ATOM     20  N   UNL A   1      39.288  32.538  32.223  1.00  0.00    -0.354 N 
ATOM     21  C   UNL A   1      39.741  29.357  29.234  1.00  0.00     0.074 A 
ATOM     22  C   UNL A   1      38.800  29.546  28.155  1.00  0.00     0.031 C 
ATOM     23  C   UNL A   1      38.359  34.392  33.062  1.00  0.00     0.029 A 
ATOM     24  C   UNL A   1      39.387  33.386  33.300  1.00  0.00     0.049 A 
ATOM     25  H   UNL A   1      39.917  31.798  32.058  1.00  0.00     0.167 HD
ATOM     26  C   UNL A   1      40.673  28.381  29.283  1.00  0.00     0.037 A 
ATOM     27  C   UNL A   1      40.184  33.316  34.384  1.00  0.00     0.037 A 
ATOM     28  C   UNL A   1      41.569  28.220  30.394  1.00  0.00     0.049 A 
ATOM     29  C   UNL A   1      41.133  32.154  34.482  1.00  0.00     0.074 A 
ATOM     30  C   UNL A   1      42.516  27.238  30.604  1.00  0.00     0.029 A 
ATOM     31  N   UNL A   1      41.610  29.070  31.494  1.00  0.00    -0.354 N 
ATOM     32  N   UNL A   1      41.335  31.188  33.616  1.00  0.00    -0.248 NA
ATOM     33  C   UNL A   1      41.942  32.048  35.702  1.00  0.00     0.031 C 
ATOM     34  C   UNL A   1      43.079  27.453  31.864  1.00  0.00     0.029 A 
ATOM     35  C   UNL A   1      42.541  28.614  32.407  1.00  0.00     0.049 A 
ATOM     36  H   UNL A   1      41.056  29.876  31.607  1.00  0.00     0.167 HD
ATOM     37  C   UNL A   1      42.309  30.370  34.171  1.00  0.00     0.074 A 
ATOM     38  C   UNL A   1      42.655  30.955  35.453  1.00  0.00     0.031 C 
ATOM     39  C   UNL A   1      42.867  29.242  33.666  1.00  0.00     0.037 A 
BRANCH  26  40
ATOM     40  C   UNL A   1      40.678  27.387  28.163  1.00  0.00     0.057 A 
ATOM     41  C   UNL A   1      41.514  27.580  27.054  1.00  0.00     0.134 A 
ATOM     42  C   UNL A   1      39.905  26.218  28.191  1.00  0.00     0.134 A 
ATOM     43  F   UNL A   1      42.288  28.671  26.967  1.00  0.00    -0.206 F 
ATOM     44  C   UNL A   1      41.584  26.647  26.020  1.00  0.00     0.040 A 
ATOM     45  C   UNL A   1      39.990  25.262  27.176  1.00  0.00     0.040 A 
ATOM     46  F   UNL A   1      39.106  25.955  29.236  1.00  0.00    -0.206 F 
ATOM     47  C   UNL A   1      40.829  25.477  26.085  1.00  0.00     0.006 A 
ENDBRANCH  26  40
BRANCH  27  48
ATOM     48  C   UNL A   1      40.072  34.349  35.447  1.00  0.00     0.057 A 
ATOM     49  C   UNL A   1      40.823  35.533  35.400  1.00  0.00     0.134 A 
ATOM     50  C   UNL A   1      39.275  34.144  36.578  1.00  0.00     0.134 A 
ATOM     51  F   UNL A   1      41.610  35.794  34.347  1.00  0.00    -0.206 F 
ATOM     52  C   UNL A   1      40.818  36.452  36.453  1.00  0.00     0.040 A 
ATOM     53  C   UNL A   1      39.241  35.065  37.629  1.00  0.00     0.040 A 
ATOM     54  F   UNL A   1      38.517  33.043  36.678  1.00  0.00    -0.206 F 
ATOM     55  C   UNL A   1      40.025  36.217  37.574  1.00  0.00     0.006 A 
ENDBRANCH  27  48
BRANCH  39  56
ATOM     56  C   UNL A   1      43.942  28.578  34.468  1.00  0.00     0.057 A 
ATOM     57  C   UNL A   1      45.284  28.925  34.257  1.00  0.00     0.134 A 
ATOM     58  C   UNL A   1      43.671  27.492  35.306  1.00  0.00     0.134 A 
ATOM     59  F   UNL A   1      45.605  29.948  33.451  1.00  0.00    -0.206 F 
ATOM     60  C   UNL A   1      46.321  28.184  34.820  1.00  0.00     0.040 A 
ATOM     61  C   UNL A   1      44.700  26.760  35.896  1.00  0.00     0.040 A 
ATOM     62  F   UNL A   1      42.405  27.120  35.549  1.00  0.00    -0.206 F 
ATOM     63  C   UNL A   1      46.030  27.094  35.638  1.00  0.00     0.006 A 
ENDBRANCH  39  56
ENDBRANCH  13  14
ENDBRANCH   6   8
ENDBRANCH   5   6
ENDBRANCH   4   5
ENDBRANCH   3   4
ENDBRANCH   2   3
ENDBRANCH   1   2
BRANCH   1  64
ATOM     64  C   UNL A   1      33.151  28.108  25.039  1.00  0.00     0.261 C 
BRANCH  64  65
ATOM     65  O   UNL A   1      33.071  27.029  25.988  1.00  0.00    -0.460 OA
BRANCH  65  66
ATOM     66  C   UNL A   1      31.842  26.491  26.215  1.00  0.00     0.342 C 
ATOM     67  O   UNL A   1      30.948  26.954  26.904  1.00  0.00    -0.246 OA
BRANCH  66  68
ATOM     68  C   UNL A   1      31.706  25.307  25.337  1.00  0.00     0.103 A 
ATOM     69  C   UNL A   1      32.686  24.301  25.425  1.00  0.00     0.035 A 
ATOM     70  C   UNL A   1      30.692  25.202  24.370  1.00  0.00     0.145 A 
ATOM     71  C   UNL A   1      32.658  23.222  24.548  1.00  0.00     0.019 A 
ATOM     72  C   UNL A   1      30.665  24.105  23.500  1.00  0.00     0.049 A 
ATOM     73  Br  UNL A   1      34.035  21.929  24.622  1.00  0.00    -0.051 Br
ATOM     74  C   UNL A   1      31.647  23.113  23.595  1.00  0.00     0.019 A 
BRANCH  70  75
ATOM     75  O   UNL A   1      29.822  26.277  24.059  1.00  0.00    -0.422 OA
BRANCH  75  76
ATOM     76  C   UNL A   1      30.227  27.170  23.080  1.00  0.00     0.343 C 
ATOM     77  O   UNL A   1      31.131  26.984  22.281  1.00  0.00    -0.246 OA
BRANCH  76  78
ATOM     78  C   UNL A   1      29.457  28.462  23.162  1.00  0.00     0.060 A 
ATOM     79  C   UNL A   1      28.059  28.401  23.030  1.00  0.00     0.019 A 
ATOM     80  C   UNL A   1      30.046  29.718  23.370  1.00  0.00     0.019 A 
ATOM     81  C   UNL A   1      27.275  29.558  23.131  1.00  0.00     0.040 A 
ATOM     82  C   UNL A   1      29.259  30.875  23.491  1.00  0.00     0.040 A 
ATOM     83  C   UNL A   1      27.880  30.782  23.375  1.00  0.00     0.123 A 
ATOM     84  F   UNL A   1      27.130  31.886  23.495  1.00  0.00    -0.207 F 
ENDBRANCH  76  78
ENDBRANCH  75  76
ENDBRANCH  70  75
ENDBRANCH  66  68
ENDBRANCH  65  66
ENDBRANCH  64  65
ENDBRANCH   1  64
TORSDOF 17
ENDMDL
