MODEL 1
REMARK VINA RESULT:      -9.8      0.000      0.000
REMARK SMILES CC[C@@H](Oc1ccc(/C=C2/SC(=S)N(N3CCOCC3)C2=O)cc1OC)C(=O)OCCOCCOC(=O)c1ccc(-c2c3nc(c(-c4c(F)cccc4F)c4ccc([nH]4)c(-c4c(F)cccc4F)c4nc(c(-c5c(F)cccc5F)c5ccc2[nH]5)C=C4)C=C3)cc1
REMARK SMILES IDX 31 1 30 2 29 3 27 4 28 5 3 6 2 7 1 8 4 9 5 10 6 11 24 12
REMARK SMILES IDX 7 13 23 14 8 15 25 16 26 17 9 18 10 19 11 20 21 21 12 22
REMARK SMILES IDX 14 23 22 24 13 25 15 26 16 27 20 28 17 29 19 30 18 31 32 32
REMARK SMILES IDX 33 33 34 34 35 35 36 36 37 37 38 38 39 39 91 40 40 41 90 42
REMARK SMILES IDX 41 43 42 44 43 45 84 46 44 47 89 48 83 49 85 50 45 51 88 52
REMARK SMILES IDX 82 53 81 54 46 56 72 57 55 58 71 59 56 60 59 61 70 62 86 63
REMARK SMILES IDX 57 64 58 65 69 67 87 68 60 69 47 70 48 71 53 72 49 73 50 74
REMARK SMILES IDX 52 75 54 76 51 77 73 78 74 79 79 80 75 81 76 82 78 83 80 84
REMARK SMILES IDX 77 85 61 86 62 87 67 88 63 89 64 90 66 91 68 92 65 93
REMARK H PARENT 85 55 59 66
REMARK Flexibility Score: inf
ROOT
ATOM      1  C   UNL A   1      37.211  21.666  24.769  1.00  0.00     0.202 C 
ENDROOT
BRANCH   1   2
ATOM      2  C   UNL A   1      35.840  22.201  24.342  1.00  0.00     0.261 C 
BRANCH   2   3
ATOM      3  O   UNL A   1      35.077  22.625  25.488  1.00  0.00    -0.461 OA
BRANCH   3   4
ATOM      4  C   UNL A   1      34.414  21.662  26.190  1.00  0.00     0.347 C 
ATOM      5  O   UNL A   1      34.512  21.479  27.398  1.00  0.00    -0.248 OA
BRANCH   4   6
ATOM      6  C   UNL A   1      33.453  20.871  25.296  1.00  0.00     0.282 C 
BRANCH   6   7
ATOM      7  C   UNL A   1      33.761  19.369  25.444  1.00  0.00     0.054 C 
ATOM      8  C   UNL A   1      33.682  18.545  24.166  1.00  0.00     0.008 C 
ENDBRANCH   6   7
BRANCH   6   9
ATOM      9  O   UNL A   1      32.123  21.199  25.718  1.00  0.00    -0.475 OA
BRANCH   9  10
ATOM     10  C   UNL A   1      31.624  22.288  25.067  1.00  0.00     0.162 A 
ATOM     11  C   UNL A   1      31.918  22.485  23.714  1.00  0.00     0.051 A 
ATOM     12  C   UNL A   1      30.836  23.205  25.762  1.00  0.00     0.161 A 
ATOM     13  C   UNL A   1      31.379  23.580  23.035  1.00  0.00     0.012 A 
ATOM     14  C   UNL A   1      30.239  24.246  25.062  1.00  0.00     0.058 A 
ATOM     15  C   UNL A   1      30.547  24.472  23.712  1.00  0.00    -0.020 A 
BRANCH  12  16
ATOM     16  O   UNL A   1      30.513  23.138  27.092  1.00  0.00    -0.493 OA
ATOM     17  C   UNL A   1      29.188  22.678  27.347  1.00  0.00     0.278 C 
ENDBRANCH  12  16
BRANCH  15  18
ATOM     18  C   UNL A   1      29.995  25.647  23.035  1.00  0.00     0.029 C 
ATOM     19  C   UNL A   1      30.343  26.906  23.338  1.00  0.00     0.082 C 
ATOM     20  S   UNL A   1      29.498  28.280  22.730  1.00  0.00    -0.053 SA
ATOM     21  C   UNL A   1      31.406  27.345  24.296  1.00  0.00     0.280 C 
ATOM     22  C   UNL A   1      30.222  29.365  23.919  1.00  0.00     0.163 C 
ATOM     23  N   UNL A   1      31.180  28.673  24.643  1.00  0.00    -0.220 N 
ATOM     24  O   UNL A   1      32.351  26.652  24.650  1.00  0.00    -0.267 OA
ATOM     25  S   UNL A   1      29.741  30.959  24.049  1.00  0.00    -0.050 S 
BRANCH  23  26
ATOM     26  N   UNL A   1      32.002  29.262  25.597  1.00  0.00    -0.208 NA
ATOM     27  C   UNL A   1      33.301  29.816  25.267  1.00  0.00     0.137 C 
ATOM     28  C   UNL A   1      31.641  29.224  27.000  1.00  0.00     0.137 C 
ATOM     29  C   UNL A   1      34.388  29.216  26.176  1.00  0.00     0.177 C 
ATOM     30  C   UNL A   1      32.778  28.575  27.792  1.00  0.00     0.177 C 
ATOM     31  O   UNL A   1      34.018  29.263  27.564  1.00  0.00    -0.379 OA
ENDBRANCH  23  26
ENDBRANCH  15  18
ENDBRANCH   9  10
ENDBRANCH   6   9
ENDBRANCH   4   6
ENDBRANCH   3   4
ENDBRANCH   2   3
ENDBRANCH   1   2
BRANCH   1  32
ATOM     32  O   UNL A   1      37.206  20.327  25.275  1.00  0.00    -0.374 OA
BRANCH  32  33
ATOM     33  C   UNL A   1      38.311  19.517  24.881  1.00  0.00     0.202 C 
BRANCH  33  34
ATOM     34  C   UNL A   1      39.486  19.486  25.862  1.00  0.00     0.261 C 
BRANCH  34  35
ATOM     35  O   UNL A   1      40.738  19.618  25.169  1.00  0.00    -0.460 OA
BRANCH  35  36
ATOM     36  C   UNL A   1      41.825  19.353  25.931  1.00  0.00     0.338 C 
ATOM     37  O   UNL A   1      42.301  18.260  26.186  1.00  0.00    -0.246 OA
BRANCH  36  38
ATOM     38  C   UNL A   1      42.494  20.609  26.319  1.00  0.00     0.060 A 
ATOM     39  C   UNL A   1      42.481  20.937  27.680  1.00  0.00     0.016 A 
ATOM     40  C   UNL A   1      43.045  21.487  25.381  1.00  0.00     0.016 A 
ATOM     41  C   UNL A   1      42.955  22.175  28.103  1.00  0.00     0.010 A 
ATOM     42  C   UNL A   1      43.519  22.733  25.808  1.00  0.00     0.010 A 
ATOM     43  C   UNL A   1      43.433  23.099  27.164  1.00  0.00    -0.014 A 
BRANCH  43  44
ATOM     44  C   UNL A   1      43.685  24.495  27.595  1.00  0.00     0.031 A 
ATOM     45  C   UNL A   1      45.104  24.992  27.661  1.00  0.00     0.074 A 
ATOM     46  C   UNL A   1      42.665  25.329  27.860  1.00  0.00     0.049 A 
ATOM     47  N   UNL A   1      45.555  26.175  27.993  1.00  0.00    -0.248 NA
ATOM     48  C   UNL A   1      46.155  24.026  27.303  1.00  0.00     0.031 C 
ATOM     49  C   UNL A   1      41.248  24.981  27.787  1.00  0.00     0.029 A 
ATOM     50  N   UNL A   1      42.670  26.649  28.239  1.00  0.00    -0.354 N 
ATOM     51  C   UNL A   1      46.939  26.094  27.888  1.00  0.00     0.074 A 
ATOM     52  C   UNL A   1      47.255  24.739  27.491  1.00  0.00     0.031 C 
ATOM     53  C   UNL A   1      40.518  26.061  28.114  1.00  0.00     0.029 A 
ATOM     54  C   UNL A   1      41.416  27.166  28.444  1.00  0.00     0.049 A 
ATOM     55  H   UNL A   1      43.495  27.174  28.353  1.00  0.00     0.167 HD
ATOM     56  C   UNL A   1      47.860  27.064  28.092  1.00  0.00     0.037 A 
ATOM     57  C   UNL A   1      41.037  28.388  28.865  1.00  0.00     0.037 A 
ATOM     58  C   UNL A   1      47.546  28.414  28.479  1.00  0.00     0.049 A 
ATOM     59  C   UNL A   1      42.086  29.429  29.152  1.00  0.00     0.074 A 
ATOM     60  C   UNL A   1      48.410  29.475  28.689  1.00  0.00     0.029 A 
ATOM     61  N   UNL A   1      46.265  28.886  28.721  1.00  0.00    -0.354 N 
ATOM     62  N   UNL A   1      43.388  29.350  29.026  1.00  0.00    -0.248 NA
ATOM     63  C   UNL A   1      41.610  30.733  29.639  1.00  0.00     0.031 C 
ATOM     64  C   UNL A   1      47.655  30.577  29.104  1.00  0.00     0.029 A 
ATOM     65  C   UNL A   1      46.318  30.216  29.104  1.00  0.00     0.049 A 
ATOM     66  H   UNL A   1      45.441  28.355  28.633  1.00  0.00     0.167 HD
ATOM     67  C   UNL A   1      43.884  30.595  29.390  1.00  0.00     0.074 A 
ATOM     68  C   UNL A   1      42.741  31.417  29.733  1.00  0.00     0.031 C 
ATOM     69  C   UNL A   1      45.170  31.022  29.435  1.00  0.00     0.037 A 
BRANCH  56  70
ATOM     70  C   UNL A   1      49.304  26.692  27.923  1.00  0.00     0.057 A 
ATOM     71  C   UNL A   1      49.952  26.781  26.684  1.00  0.00     0.134 A 
ATOM     72  C   UNL A   1      50.064  26.269  29.020  1.00  0.00     0.134 A 
ATOM     73  F   UNL A   1      49.277  27.166  25.590  1.00  0.00    -0.206 F 
ATOM     74  C   UNL A   1      51.298  26.443  26.539  1.00  0.00     0.040 A 
ATOM     75  C   UNL A   1      51.417  25.951  28.894  1.00  0.00     0.040 A 
ATOM     76  F   UNL A   1      49.505  26.165  30.236  1.00  0.00    -0.206 F 
ATOM     77  C   UNL A   1      52.037  26.033  27.648  1.00  0.00     0.006 A 
ENDBRANCH  56  70
BRANCH  57  78
ATOM     78  C   UNL A   1      39.598  28.696  29.051  1.00  0.00     0.057 A 
ATOM     79  C   UNL A   1      38.823  29.213  28.006  1.00  0.00     0.134 A 
ATOM     80  C   UNL A   1      38.967  28.499  30.286  1.00  0.00     0.134 A 
ATOM     81  F   UNL A   1      39.377  29.445  26.807  1.00  0.00    -0.206 F 
ATOM     82  C   UNL A   1      37.478  29.536  28.185  1.00  0.00     0.040 A 
ATOM     83  C   UNL A   1      37.616  28.795  30.472  1.00  0.00     0.040 A 
ATOM     84  F   UNL A   1      39.654  28.008  31.327  1.00  0.00    -0.206 F 
ATOM     85  C   UNL A   1      36.869  29.322  29.421  1.00  0.00     0.006 A 
ENDBRANCH  57  78
BRANCH  69  86
ATOM     86  C   UNL A   1      45.409  32.449  29.837  1.00  0.00     0.057 A 
ATOM     87  C   UNL A   1      45.398  33.492  28.904  1.00  0.00     0.134 A 
ATOM     88  C   UNL A   1      45.609  32.785  31.182  1.00  0.00     0.134 A 
ATOM     89  F   UNL A   1      45.222  33.234  27.598  1.00  0.00    -0.206 F 
ATOM     90  C   UNL A   1      45.600  34.818  29.291  1.00  0.00     0.040 A 
ATOM     91  C   UNL A   1      45.787  34.109  31.584  1.00  0.00     0.040 A 
ATOM     92  F   UNL A   1      45.621  31.834  32.129  1.00  0.00    -0.206 F 
ATOM     93  C   UNL A   1      45.788  35.130  30.635  1.00  0.00     0.006 A 
ENDBRANCH  69  86
ENDBRANCH  43  44
ENDBRANCH  36  38
ENDBRANCH  35  36
ENDBRANCH  34  35
ENDBRANCH  33  34
ENDBRANCH  32  33
ENDBRANCH   1  32
TORSDOF 20
ENDMDL
MODEL 2
REMARK VINA RESULT:      -9.7      3.575      7.911
REMARK SMILES CC[C@@H](Oc1ccc(/C=C2/SC(=S)N(N3CCOCC3)C2=O)cc1OC)C(=O)OCCOCCOC(=O)c1ccc(-c2c3nc(c(-c4c(F)cccc4F)c4ccc([nH]4)c(-c4c(F)cccc4F)c4nc(c(-c5c(F)cccc5F)c5ccc2[nH]5)C=C4)C=C3)cc1
REMARK SMILES IDX 31 1 30 2 29 3 27 4 28 5 3 6 2 7 1 8 4 9 5 10 6 11 24 12
REMARK SMILES IDX 7 13 23 14 8 15 25 16 26 17 9 18 10 19 11 20 21 21 12 22
REMARK SMILES IDX 14 23 22 24 13 25 15 26 16 27 20 28 17 29 19 30 18 31 32 32
REMARK SMILES IDX 33 33 34 34 35 35 36 36 37 37 38 38 39 39 91 40 40 41 90 42
REMARK SMILES IDX 41 43 42 44 43 45 84 46 44 47 89 48 83 49 85 50 45 51 88 52
REMARK SMILES IDX 82 53 81 54 46 56 72 57 55 58 71 59 56 60 59 61 70 62 86 63
REMARK SMILES IDX 57 64 58 65 69 67 87 68 60 69 47 70 48 71 53 72 49 73 50 74
REMARK SMILES IDX 52 75 54 76 51 77 73 78 74 79 79 80 75 81 76 82 78 83 80 84
REMARK SMILES IDX 77 85 61 86 62 87 67 88 63 89 64 90 66 91 68 92 65 93
REMARK H PARENT 85 55 59 66
REMARK Flexibility Score: inf
ROOT
ATOM      1  C   UNL A   1      36.776  23.610  26.277  1.00  0.00     0.202 C 
ENDROOT
BRANCH   1   2
ATOM      2  C   UNL A   1      35.829  24.189  25.220  1.00  0.00     0.261 C 
BRANCH   2   3
ATOM      3  O   UNL A   1      34.636  23.389  25.109  1.00  0.00    -0.461 OA
BRANCH   3   4
ATOM      4  C   UNL A   1      33.473  23.934  25.567  1.00  0.00     0.347 C 
ATOM      5  O   UNL A   1      33.008  23.760  26.688  1.00  0.00    -0.248 OA
BRANCH   4   6
ATOM      6  C   UNL A   1      32.840  24.869  24.532  1.00  0.00     0.282 C 
BRANCH   6   7
ATOM      7  C   UNL A   1      32.462  24.047  23.285  1.00  0.00     0.054 C 
ATOM      8  C   UNL A   1      30.973  23.804  23.075  1.00  0.00     0.008 C 
ENDBRANCH   6   7
BRANCH   6   9
ATOM      9  O   UNL A   1      31.697  25.470  25.154  1.00  0.00    -0.475 OA
BRANCH   9  10
ATOM     10  C   UNL A   1      31.941  26.746  25.569  1.00  0.00     0.162 A 
ATOM     11  C   UNL A   1      31.814  27.073  26.923  1.00  0.00     0.051 A 
ATOM     12  C   UNL A   1      32.302  27.718  24.636  1.00  0.00     0.161 A 
ATOM     13  C   UNL A   1      32.097  28.369  27.359  1.00  0.00     0.012 A 
ATOM     14  C   UNL A   1      32.660  28.982  25.087  1.00  0.00     0.058 A 
ATOM     15  C   UNL A   1      32.510  29.333  26.436  1.00  0.00    -0.020 A 
BRANCH  12  16
ATOM     16  O   UNL A   1      32.422  27.526  23.286  1.00  0.00    -0.493 OA
ATOM     17  C   UNL A   1      33.557  28.164  22.705  1.00  0.00     0.278 C 
ENDBRANCH  12  16
BRANCH  15  18
ATOM     18  C   UNL A   1      32.783  30.708  26.858  1.00  0.00     0.029 C 
ATOM     19  C   UNL A   1      33.895  31.075  27.511  1.00  0.00     0.082 C 
ATOM     20  S   UNL A   1      34.083  32.627  28.237  1.00  0.00    -0.053 SA
ATOM     21  C   UNL A   1      35.085  30.221  27.820  1.00  0.00     0.280 C 
ATOM     22  C   UNL A   1      35.462  32.108  29.207  1.00  0.00     0.163 C 
ATOM     23  N   UNL A   1      35.815  30.817  28.843  1.00  0.00    -0.220 N 
ATOM     24  O   UNL A   1      35.386  29.203  27.210  1.00  0.00    -0.267 OA
ATOM     25  S   UNL A   1      36.148  33.111  30.352  1.00  0.00    -0.050 S 
BRANCH  23  26
ATOM     26  N   UNL A   1      36.921  30.145  29.352  1.00  0.00    -0.208 NA
ATOM     27  C   UNL A   1      36.838  29.286  30.517  1.00  0.00     0.137 C 
ATOM     28  C   UNL A   1      38.241  30.387  28.805  1.00  0.00     0.137 C 
ATOM     29  C   UNL A   1      37.883  29.704  31.567  1.00  0.00     0.177 C 
ATOM     30  C   UNL A   1      39.176  30.831  29.933  1.00  0.00     0.177 C 
ATOM     31  O   UNL A   1      39.191  29.864  30.994  1.00  0.00    -0.379 OA
ENDBRANCH  23  26
ENDBRANCH  15  18
ENDBRANCH   9  10
ENDBRANCH   6   9
ENDBRANCH   4   6
ENDBRANCH   3   4
ENDBRANCH   2   3
ENDBRANCH   1   2
BRANCH   1  32
ATOM     32  O   UNL A   1      38.147  23.523  25.876  1.00  0.00    -0.374 OA
BRANCH  32  33
ATOM     33  C   UNL A   1      38.788  22.278  26.143  1.00  0.00     0.202 C 
BRANCH  33  34
ATOM     34  C   UNL A   1      40.061  22.361  26.988  1.00  0.00     0.261 C 
BRANCH  34  35
ATOM     35  O   UNL A   1      40.765  23.590  26.738  1.00  0.00    -0.460 OA
BRANCH  35  36
ATOM     36  C   UNL A   1      42.019  23.423  26.257  1.00  0.00     0.338 C 
ATOM     37  O   UNL A   1      42.462  22.453  25.666  1.00  0.00    -0.246 OA
BRANCH  36  38
ATOM     38  C   UNL A   1      42.791  24.672  26.402  1.00  0.00     0.060 A 
ATOM     39  C   UNL A   1      43.038  25.402  25.233  1.00  0.00     0.016 A 
ATOM     40  C   UNL A   1      43.334  25.081  27.623  1.00  0.00     0.016 A 
ATOM     41  C   UNL A   1      43.885  26.505  25.266  1.00  0.00     0.010 A 
ATOM     42  C   UNL A   1      44.189  26.190  27.654  1.00  0.00     0.010 A 
ATOM     43  C   UNL A   1      44.503  26.877  26.467  1.00  0.00    -0.014 A 
BRANCH  43  44
ATOM     44  C   UNL A   1      45.594  27.880  26.433  1.00  0.00     0.031 A 
ATOM     45  C   UNL A   1      45.253  29.335  26.608  1.00  0.00     0.074 A 
ATOM     46  C   UNL A   1      46.878  27.497  26.315  1.00  0.00     0.049 A 
ATOM     47  N   UNL A   1      46.045  30.377  26.628  1.00  0.00    -0.248 NA
ATOM     48  C   UNL A   1      43.828  29.657  26.784  1.00  0.00     0.031 C 
ATOM     49  C   UNL A   1      47.339  26.117  26.185  1.00  0.00     0.029 A 
ATOM     50  N   UNL A   1      48.030  28.242  26.291  1.00  0.00    -0.354 N 
ATOM     51  C   UNL A   1      45.216  31.476  26.815  1.00  0.00     0.074 A 
ATOM     52  C   UNL A   1      43.858  30.979  26.872  1.00  0.00     0.031 C 
ATOM     53  C   UNL A   1      48.680  26.114  26.093  1.00  0.00     0.029 A 
ATOM     54  C   UNL A   1      49.167  27.491  26.130  1.00  0.00     0.049 A 
ATOM     55  H   UNL A   1      48.040  29.223  26.381  1.00  0.00     0.167 HD
ATOM     56  C   UNL A   1      45.556  32.780  26.941  1.00  0.00     0.037 A 
ATOM     57  C   UNL A   1      50.453  27.875  26.011  1.00  0.00     0.037 A 
ATOM     58  C   UNL A   1      46.906  33.275  26.893  1.00  0.00     0.049 A 
ATOM     59  C   UNL A   1      50.798  29.338  26.085  1.00  0.00     0.074 A 
ATOM     60  C   UNL A   1      47.354  34.577  27.032  1.00  0.00     0.029 A 
ATOM     61  N   UNL A   1      48.028  32.486  26.684  1.00  0.00    -0.354 N 
ATOM     62  N   UNL A   1      50.010  30.366  26.287  1.00  0.00    -0.248 NA
ATOM     63  C   UNL A   1      52.215  29.694  25.917  1.00  0.00     0.031 C 
ATOM     64  C   UNL A   1      48.742  34.583  26.860  1.00  0.00     0.029 A 
ATOM     65  C   UNL A   1      49.164  33.278  26.662  1.00  0.00     0.049 A 
ATOM     66  H   UNL A   1      48.017  31.509  26.567  1.00  0.00     0.167 HD
ATOM     67  C   UNL A   1      50.835  31.484  26.297  1.00  0.00     0.074 A 
ATOM     68  C   UNL A   1      52.188  31.007  26.091  1.00  0.00     0.031 C 
ATOM     69  C   UNL A   1      50.504  32.788  26.463  1.00  0.00     0.037 A 
BRANCH  56  70
ATOM     70  C   UNL A   1      44.443  33.771  27.120  1.00  0.00     0.057 A 
ATOM     71  C   UNL A   1      43.838  34.410  26.030  1.00  0.00     0.134 A 
ATOM     72  C   UNL A   1      43.950  34.064  28.397  1.00  0.00     0.134 A 
ATOM     73  F   UNL A   1      44.273  34.183  24.781  1.00  0.00    -0.206 F 
ATOM     74  C   UNL A   1      42.796  35.321  26.206  1.00  0.00     0.040 A 
ATOM     75  C   UNL A   1      42.892  34.955  28.584  1.00  0.00     0.040 A 
ATOM     76  F   UNL A   1      44.482  33.484  29.483  1.00  0.00    -0.206 F 
ATOM     77  C   UNL A   1      42.315  35.591  27.486  1.00  0.00     0.006 A 
ENDBRANCH  56  70
BRANCH  57  78
ATOM     78  C   UNL A   1      51.514  26.859  25.800  1.00  0.00     0.057 A 
ATOM     79  C   UNL A   1      52.115  26.201  26.879  1.00  0.00     0.134 A 
ATOM     80  C   UNL A   1      51.964  26.536  24.515  1.00  0.00     0.134 A 
ATOM     81  F   UNL A   1      51.742  26.485  28.136  1.00  0.00    -0.206 F 
ATOM     82  C   UNL A   1      53.137  25.269  26.689  1.00  0.00     0.040 A 
ATOM     83  C   UNL A   1      52.968  25.589  24.308  1.00  0.00     0.040 A 
ATOM     84  F   UNL A   1      51.429  27.133  23.439  1.00  0.00    -0.206 F 
ATOM     85  C   UNL A   1      53.563  24.958  25.398  1.00  0.00     0.006 A 
ENDBRANCH  57  78
BRANCH  69  86
ATOM     86  C   UNL A   1      51.623  33.788  26.463  1.00  0.00     0.057 A 
ATOM     87  C   UNL A   1      52.314  34.124  27.633  1.00  0.00     0.134 A 
ATOM     88  C   UNL A   1      52.040  34.390  25.269  1.00  0.00     0.134 A 
ATOM     89  F   UNL A   1      51.956  33.592  28.812  1.00  0.00    -0.206 F 
ATOM     90  C   UNL A   1      53.368  35.041  27.619  1.00  0.00     0.040 A 
ATOM     91  C   UNL A   1      53.108  35.287  25.238  1.00  0.00     0.040 A 
ATOM     92  F   UNL A   1      51.426  34.104  24.111  1.00  0.00    -0.206 F 
ATOM     93  C   UNL A   1      53.771  35.619  26.418  1.00  0.00     0.006 A 
ENDBRANCH  69  86
ENDBRANCH  43  44
ENDBRANCH  36  38
ENDBRANCH  35  36
ENDBRANCH  34  35
ENDBRANCH  33  34
ENDBRANCH  32  33
ENDBRANCH   1  32
TORSDOF 20
ENDMDL
MODEL 3
REMARK VINA RESULT:      -9.7      4.316     10.335
REMARK SMILES CC[C@@H](Oc1ccc(/C=C2/SC(=S)N(N3CCOCC3)C2=O)cc1OC)C(=O)OCCOCCOC(=O)c1ccc(-c2c3nc(c(-c4c(F)cccc4F)c4ccc([nH]4)c(-c4c(F)cccc4F)c4nc(c(-c5c(F)cccc5F)c5ccc2[nH]5)C=C4)C=C3)cc1
REMARK SMILES IDX 31 1 30 2 29 3 27 4 28 5 3 6 2 7 1 8 4 9 5 10 6 11 24 12
REMARK SMILES IDX 7 13 23 14 8 15 25 16 26 17 9 18 10 19 11 20 21 21 12 22
REMARK SMILES IDX 14 23 22 24 13 25 15 26 16 27 20 28 17 29 19 30 18 31 32 32
REMARK SMILES IDX 33 33 34 34 35 35 36 36 37 37 38 38 39 39 91 40 40 41 90 42
REMARK SMILES IDX 41 43 42 44 43 45 84 46 44 47 89 48 83 49 85 50 45 51 88 52
REMARK SMILES IDX 82 53 81 54 46 56 72 57 55 58 71 59 56 60 59 61 70 62 86 63
REMARK SMILES IDX 57 64 58 65 69 67 87 68 60 69 47 70 48 71 53 72 49 73 50 74
REMARK SMILES IDX 52 75 54 76 51 77 73 78 74 79 79 80 75 81 76 82 78 83 80 84
REMARK SMILES IDX 77 85 61 86 62 87 67 88 63 89 64 90 66 91 68 92 65 93
REMARK H PARENT 85 55 59 66
REMARK Flexibility Score: inf
ROOT
ATOM      1  C   UNL A   1      31.681  25.606  22.002  1.00  0.00     0.202 C 
ENDROOT
BRANCH   1   2
ATOM      2  C   UNL A   1      32.959  24.826  21.673  1.00  0.00     0.261 C 
BRANCH   2   3
ATOM      3  O   UNL A   1      33.362  24.011  22.790  1.00  0.00    -0.461 OA
BRANCH   3   4
ATOM      4  C   UNL A   1      32.982  22.701  22.778  1.00  0.00     0.347 C 
ATOM      5  O   UNL A   1      32.557  22.100  21.797  1.00  0.00    -0.248 OA
BRANCH   4   6
ATOM      6  C   UNL A   1      33.224  22.029  24.134  1.00  0.00     0.282 C 
BRANCH   6   7
ATOM      7  C   UNL A   1      32.090  21.020  24.397  1.00  0.00     0.054 C 
ATOM      8  C   UNL A   1      32.525  19.585  24.664  1.00  0.00     0.008 C 
ENDBRANCH   6   7
BRANCH   6   9
ATOM      9  O   UNL A   1      34.509  21.397  24.064  1.00  0.00    -0.475 OA
BRANCH   9  10
ATOM     10  C   UNL A   1      35.474  22.107  24.716  1.00  0.00     0.162 A 
ATOM     11  C   UNL A   1      36.410  22.843  23.982  1.00  0.00     0.051 A 
ATOM     12  C   UNL A   1      35.527  22.080  26.109  1.00  0.00     0.161 A 
ATOM     13  C   UNL A   1      37.378  23.600  24.646  1.00  0.00     0.012 A 
ATOM     14  C   UNL A   1      36.440  22.898  26.763  1.00  0.00     0.058 A 
ATOM     15  C   UNL A   1      37.403  23.619  26.042  1.00  0.00    -0.020 A 
BRANCH  12  16
ATOM     16  O   UNL A   1      34.691  21.370  26.929  1.00  0.00    -0.493 OA
ATOM     17  C   UNL A   1      33.824  22.179  27.720  1.00  0.00     0.278 C 
ENDBRANCH  12  16
BRANCH  15  18
ATOM     18  C   UNL A   1      38.426  24.376  26.765  1.00  0.00     0.029 C 
ATOM     19  C   UNL A   1      39.653  23.901  27.024  1.00  0.00     0.082 C 
ATOM     20  S   UNL A   1      40.750  24.682  28.100  1.00  0.00    -0.053 SA
ATOM     21  C   UNL A   1      40.243  22.611  26.544  1.00  0.00     0.280 C 
ATOM     22  C   UNL A   1      41.782  23.257  28.229  1.00  0.00     0.163 C 
ATOM     23  N   UNL A   1      41.333  22.288  27.345  1.00  0.00    -0.220 N 
ATOM     24  O   UNL A   1      39.855  21.994  25.561  1.00  0.00    -0.267 OA
ATOM     25  S   UNL A   1      43.071  23.209  29.288  1.00  0.00    -0.050 S 
BRANCH  23  26
ATOM     26  N   UNL A   1      41.981  21.077  27.131  1.00  0.00    -0.208 NA
ATOM     27  C   UNL A   1      43.202  20.977  26.355  1.00  0.00     0.137 C 
ATOM     28  C   UNL A   1      41.379  19.835  27.573  1.00  0.00     0.137 C 
ATOM     29  C   UNL A   1      43.045  19.927  25.241  1.00  0.00     0.177 C 
ATOM     30  C   UNL A   1      41.242  18.892  26.375  1.00  0.00     0.177 C 
ATOM     31  O   UNL A   1      42.511  18.688  25.736  1.00  0.00    -0.379 OA
ENDBRANCH  23  26
ENDBRANCH  15  18
ENDBRANCH   9  10
ENDBRANCH   6   9
ENDBRANCH   4   6
ENDBRANCH   3   4
ENDBRANCH   2   3
ENDBRANCH   1   2
BRANCH   1  32
ATOM     32  O   UNL A   1      30.686  24.863  22.712  1.00  0.00    -0.374 OA
BRANCH  32  33
ATOM     33  C   UNL A   1      30.195  25.475  23.902  1.00  0.00     0.202 C 
BRANCH  33  34
ATOM     34  C   UNL A   1      31.225  25.659  25.019  1.00  0.00     0.261 C 
BRANCH  34  35
ATOM     35  O   UNL A   1      31.080  26.946  25.644  1.00  0.00    -0.460 OA
BRANCH  35  36
ATOM     36  C   UNL A   1      31.662  27.962  24.964  1.00  0.00     0.338 C 
ATOM     37  O   UNL A   1      31.207  28.571  24.012  1.00  0.00    -0.246 OA
BRANCH  36  38
ATOM     38  C   UNL A   1      32.913  28.371  25.631  1.00  0.00     0.060 A 
ATOM     39  C   UNL A   1      33.092  27.948  26.953  1.00  0.00     0.016 A 
ATOM     40  C   UNL A   1      33.849  29.211  25.021  1.00  0.00     0.016 A 
ATOM     41  C   UNL A   1      34.169  28.419  27.696  1.00  0.00     0.010 A 
ATOM     42  C   UNL A   1      34.931  29.687  25.771  1.00  0.00     0.010 A 
ATOM     43  C   UNL A   1      35.069  29.328  27.125  1.00  0.00    -0.014 A 
BRANCH  43  44
ATOM     44  C   UNL A   1      36.048  30.016  28.000  1.00  0.00     0.031 A 
ATOM     45  C   UNL A   1      35.586  31.173  28.843  1.00  0.00     0.074 A 
ATOM     46  C   UNL A   1      37.316  29.576  28.094  1.00  0.00     0.049 A 
ATOM     47  N   UNL A   1      36.264  31.907  29.689  1.00  0.00    -0.248 NA
ATOM     48  C   UNL A   1      34.170  31.552  28.717  1.00  0.00     0.031 C 
ATOM     49  C   UNL A   1      37.871  28.439  27.364  1.00  0.00     0.029 A 
ATOM     50  N   UNL A   1      38.364  30.036  28.851  1.00  0.00    -0.354 N 
ATOM     51  C   UNL A   1      35.359  32.835  30.191  1.00  0.00     0.074 A 
ATOM     52  C   UNL A   1      34.093  32.592  29.534  1.00  0.00     0.031 C 
ATOM     53  C   UNL A   1      39.162  28.290  27.708  1.00  0.00     0.029 A 
ATOM     54  C   UNL A   1      39.528  29.337  28.660  1.00  0.00     0.049 A 
ATOM     55  H   UNL A   1      38.287  30.796  29.473  1.00  0.00     0.167 HD
ATOM     56  C   UNL A   1      35.562  33.794  31.124  1.00  0.00     0.037 A 
ATOM     57  C   UNL A   1      40.754  29.530  29.183  1.00  0.00     0.037 A 
ATOM     58  C   UNL A   1      36.819  34.031  31.784  1.00  0.00     0.049 A 
ATOM     59  C   UNL A   1      40.971  30.649  30.168  1.00  0.00     0.074 A 
ATOM     60  C   UNL A   1      37.118  34.967  32.760  1.00  0.00     0.029 A 
ATOM     61  N   UNL A   1      37.987  33.330  31.530  1.00  0.00    -0.354 N 
ATOM     62  N   UNL A   1      40.104  31.504  30.654  1.00  0.00    -0.248 NA
ATOM     63  C   UNL A   1      42.339  30.827  30.678  1.00  0.00     0.031 C 
ATOM     64  C   UNL A   1      38.480  34.862  33.062  1.00  0.00     0.029 A 
ATOM     65  C   UNL A   1      39.017  33.830  32.311  1.00  0.00     0.049 A 
ATOM     66  H   UNL A   1      38.073  32.588  30.889  1.00  0.00     0.167 HD
ATOM     67  C   UNL A   1      40.812  32.301  31.543  1.00  0.00     0.074 A 
ATOM     68  C   UNL A   1      42.179  31.822  31.539  1.00  0.00     0.031 C 
ATOM     69  C   UNL A   1      40.371  33.337  32.299  1.00  0.00     0.037 A 
BRANCH  56  70
ATOM     70  C   UNL A   1      34.400  34.678  31.471  1.00  0.00     0.057 A 
ATOM     71  C   UNL A   1      33.900  35.630  30.573  1.00  0.00     0.134 A 
ATOM     72  C   UNL A   1      33.754  34.553  32.706  1.00  0.00     0.134 A 
ATOM     73  F   UNL A   1      34.483  35.810  29.378  1.00  0.00    -0.206 F 
ATOM     74  C   UNL A   1      32.812  36.440  30.901  1.00  0.00     0.040 A 
ATOM     75  C   UNL A   1      32.649  35.340  33.036  1.00  0.00     0.040 A 
ATOM     76  F   UNL A   1      34.180  33.658  33.611  1.00  0.00    -0.206 F 
ATOM     77  C   UNL A   1      32.179  36.291  32.134  1.00  0.00     0.006 A 
ENDBRANCH  56  70
BRANCH  57  78
ATOM     78  C   UNL A   1      41.880  28.650  28.782  1.00  0.00     0.057 A 
ATOM     79  C   UNL A   1      42.473  28.759  27.519  1.00  0.00     0.134 A 
ATOM     80  C   UNL A   1      42.376  27.667  29.646  1.00  0.00     0.134 A 
ATOM     81  F   UNL A   1      42.026  29.667  26.639  1.00  0.00    -0.206 F 
ATOM     82  C   UNL A   1      43.510  27.912  27.124  1.00  0.00     0.040 A 
ATOM     83  C   UNL A   1      43.428  26.829  29.273  1.00  0.00     0.040 A 
ATOM     84  F   UNL A   1      41.849  27.511  30.869  1.00  0.00    -0.206 F 
ATOM     85  C   UNL A   1      43.993  26.946  28.005  1.00  0.00     0.006 A 
ENDBRANCH  57  78
BRANCH  69  86
ATOM     86  C   UNL A   1      41.365  33.999  33.208  1.00  0.00     0.057 A 
ATOM     87  C   UNL A   1      41.479  33.652  34.558  1.00  0.00     0.134 A 
ATOM     88  C   UNL A   1      42.247  34.968  32.712  1.00  0.00     0.134 A 
ATOM     89  F   UNL A   1      40.655  32.739  35.098  1.00  0.00    -0.206 F 
ATOM     90  C   UNL A   1      42.421  34.259  35.391  1.00  0.00     0.040 A 
ATOM     91  C   UNL A   1      43.210  35.564  33.527  1.00  0.00     0.040 A 
ATOM     92  F   UNL A   1      42.198  35.340  31.424  1.00  0.00    -0.206 F 
ATOM     93  C   UNL A   1      43.294  35.213  34.873  1.00  0.00     0.006 A 
ENDBRANCH  69  86
ENDBRANCH  43  44
ENDBRANCH  36  38
ENDBRANCH  35  36
ENDBRANCH  34  35
ENDBRANCH  33  34
ENDBRANCH  32  33
ENDBRANCH   1  32
TORSDOF 20
ENDMDL
