MODEL 1
REMARK VINA RESULT:     -10.8      0.000      0.000
REMARK SMILES CCOc1ccc(NC(=O)CC2(CC(=O)OCCOCCOC(=O)c3ccc(-c4c5nc(c(-c6c(F)cccc6F)c6ccc([nH]6)c(-c6c(F)cccc6F)c6nc(c(-c7c(F)cccc7F)c7ccc4[nH]7)C=C6)C=C5)cc3)CCCCC2)cc1
REMARK SMILES IDX 17 1 16 2 14 3 15 4 13 5 12 6 79 7 83 8 80 9 82 10 81 11
REMARK SMILES IDX 11 12 9 13 8 14 10 16 7 17 4 18 5 19 85 20 6 21 84 22 3 23
REMARK SMILES IDX 2 24 1 25 18 26 19 27 20 28 21 29 22 30 23 31 24 32 25 33
REMARK SMILES IDX 26 34 78 35 27 36 77 37 28 38 29 39 30 40 71 41 31 42 76 43
REMARK SMILES IDX 70 44 72 45 32 46 75 47 69 48 68 49 33 51 59 52 42 53 58 54
REMARK SMILES IDX 43 55 46 56 57 57 73 58 44 59 45 60 56 62 74 63 47 64 34 65
REMARK SMILES IDX 35 66 40 67 36 68 37 69 39 70 41 71 38 72 60 73 61 74 66 75
REMARK SMILES IDX 62 76 63 77 65 78 67 79 64 80 48 81 49 82 54 83 50 84 51 85
REMARK SMILES IDX 53 86 55 87 52 88
REMARK H PARENT 8 15 72 50 46 61
REMARK Flexibility Score: inf
ROOT
ATOM      1  C   UNL A   1      36.075  21.464  24.736  1.00  0.00     0.261 C 
ENDROOT
BRANCH   1   2
ATOM      2  O   UNL A   1      35.168  20.940  25.736  1.00  0.00    -0.463 OA
BRANCH   2   3
ATOM      3  C   UNL A   1      33.872  20.877  25.345  1.00  0.00     0.306 C 
ATOM      4  O   UNL A   1      33.173  19.880  25.492  1.00  0.00    -0.252 OA
BRANCH   3   5
ATOM      5  C   UNL A   1      33.418  22.051  24.500  1.00  0.00     0.130 C 
BRANCH   5   6
ATOM      6  C   UNL A   1      32.492  23.207  24.981  1.00  0.00    -0.011 C 
ATOM      7  C   UNL A   1      32.256  24.149  23.738  1.00  0.00     0.008 C 
ATOM      8  C   UNL A   1      33.237  24.096  26.028  1.00  0.00     0.008 C 
ATOM      9  C   UNL A   1      33.506  24.805  23.163  1.00  0.00     0.001 C 
ATOM     10  C   UNL A   1      34.524  24.744  25.492  1.00  0.00     0.001 C 
ATOM     11  C   UNL A   1      34.282  25.566  24.228  1.00  0.00     0.000 C 
BRANCH   6  12
ATOM     12  C   UNL A   1      31.018  22.884  25.471  1.00  0.00     0.108 C 
BRANCH  12  13
ATOM     13  C   UNL A   1      30.255  23.495  26.646  1.00  0.00     0.224 C 
ATOM     14  N   UNL A   1      29.667  24.711  26.615  1.00  0.00    -0.326 N 
ATOM     15  H   UNL A   1      28.943  24.838  27.269  1.00  0.00     0.169 HD
ATOM     16  O   UNL A   1      30.164  22.864  27.707  1.00  0.00    -0.275 OA
BRANCH  14  17
ATOM     17  C   UNL A   1      29.922  25.811  25.805  1.00  0.00     0.041 A 
ATOM     18  C   UNL A   1      30.510  27.796  23.972  1.00  0.00     0.119 A 
ATOM     19  C   UNL A   1      31.208  27.750  25.175  1.00  0.00     0.048 A 
ATOM     20  C   UNL A   1      29.506  26.876  23.689  1.00  0.00     0.048 A 
ATOM     21  C   UNL A   1      30.907  26.753  26.099  1.00  0.00     0.030 A 
ATOM     22  C   UNL A   1      29.165  25.922  24.638  1.00  0.00     0.030 A 
BRANCH  18  23
ATOM     23  O   UNL A   1      30.860  28.726  23.036  1.00  0.00    -0.494 OA
BRANCH  23  24
ATOM     24  C   UNL A   1      30.027  29.887  23.142  1.00  0.00     0.226 C 
ATOM     25  C   UNL A   1      29.122  30.023  21.930  1.00  0.00     0.049 C 
ENDBRANCH  23  24
ENDBRANCH  18  23
ENDBRANCH  14  17
ENDBRANCH  12  13
ENDBRANCH   6  12
ENDBRANCH   5   6
ENDBRANCH   3   5
ENDBRANCH   2   3
ENDBRANCH   1   2
BRANCH   1  26
ATOM     26  C   UNL A   1      37.437  20.782  24.780  1.00  0.00     0.202 C 
BRANCH  26  27
ATOM     27  O   UNL A   1      38.433  21.375  25.606  1.00  0.00    -0.374 OA
BRANCH  27  28
ATOM     28  C   UNL A   1      38.256  22.719  26.029  1.00  0.00     0.202 C 
BRANCH  28  29
ATOM     29  C   UNL A   1      39.490  23.515  26.468  1.00  0.00     0.261 C 
BRANCH  29  30
ATOM     30  O   UNL A   1      39.342  24.915  26.527  1.00  0.00    -0.460 OA
BRANCH  30  31
ATOM     31  C   UNL A   1      40.457  25.621  26.280  1.00  0.00     0.338 C 
ATOM     32  O   UNL A   1      41.112  25.699  25.259  1.00  0.00    -0.246 OA
BRANCH  31  33
ATOM     33  C   UNL A   1      40.619  26.430  27.487  1.00  0.00     0.060 A 
ATOM     34  C   UNL A   1      39.724  26.219  28.536  1.00  0.00     0.016 A 
ATOM     35  C   UNL A   1      41.710  27.304  27.605  1.00  0.00     0.016 A 
ATOM     36  C   UNL A   1      39.880  26.950  29.701  1.00  0.00     0.010 A 
ATOM     37  C   UNL A   1      41.871  28.028  28.774  1.00  0.00     0.010 A 
ATOM     38  C   UNL A   1      40.919  27.888  29.795  1.00  0.00    -0.014 A 
BRANCH  38  39
ATOM     39  C   UNL A   1      40.841  28.907  30.850  1.00  0.00     0.031 A 
ATOM     40  C   UNL A   1      39.775  29.953  30.713  1.00  0.00     0.074 A 
ATOM     41  C   UNL A   1      41.654  28.843  31.915  1.00  0.00     0.049 A 
ATOM     42  N   UNL A   1      39.443  30.911  31.533  1.00  0.00    -0.248 NA
ATOM     43  C   UNL A   1      38.970  29.911  29.477  1.00  0.00     0.031 C 
ATOM     44  C   UNL A   1      42.699  27.840  32.121  1.00  0.00     0.029 A 
ATOM     45  N   UNL A   1      41.712  29.632  33.029  1.00  0.00    -0.354 N 
ATOM     46  C   UNL A   1      38.390  31.576  30.918  1.00  0.00     0.074 A 
ATOM     47  C   UNL A   1      38.172  30.952  29.635  1.00  0.00     0.031 C 
ATOM     48  C   UNL A   1      43.286  28.066  33.309  1.00  0.00     0.029 A 
ATOM     49  C   UNL A   1      42.666  29.234  33.929  1.00  0.00     0.049 A 
ATOM     50  H   UNL A   1      41.125  30.410  33.171  1.00  0.00     0.167 HD
ATOM     51  C   UNL A   1      37.655  32.604  31.398  1.00  0.00     0.037 A 
ATOM     52  C   UNL A   1      42.985  29.765  35.123  1.00  0.00     0.037 A 
ATOM     53  C   UNL A   1      37.903  33.213  32.675  1.00  0.00     0.049 A 
ATOM     54  C   UNL A   1      42.188  30.943  35.614  1.00  0.00     0.074 A 
ATOM     55  C   UNL A   1      37.247  34.271  33.273  1.00  0.00     0.029 A 
ATOM     56  N   UNL A   1      38.904  32.809  33.549  1.00  0.00    -0.354 N 
ATOM     57  N   UNL A   1      41.178  31.555  35.041  1.00  0.00    -0.248 NA
ATOM     58  C   UNL A   1      42.565  31.496  36.921  1.00  0.00     0.031 C 
ATOM     59  C   UNL A   1      37.877  34.532  34.496  1.00  0.00     0.029 A 
ATOM     60  C   UNL A   1      38.894  33.604  34.679  1.00  0.00     0.049 A 
ATOM     61  H   UNL A   1      39.529  32.065  33.388  1.00  0.00     0.167 HD
ATOM     62  C   UNL A   1      40.779  32.547  35.926  1.00  0.00     0.074 A 
ATOM     63  C   UNL A   1      41.652  32.444  37.081  1.00  0.00     0.031 C 
ATOM     64  C   UNL A   1      39.781  33.459  35.806  1.00  0.00     0.037 A 
BRANCH  51  65
ATOM     65  C   UNL A   1      36.556  33.125  30.521  1.00  0.00     0.057 A 
ATOM     66  C   UNL A   1      35.216  32.761  30.718  1.00  0.00     0.134 A 
ATOM     67  C   UNL A   1      36.842  33.969  29.441  1.00  0.00     0.134 A 
ATOM     68  F   UNL A   1      34.876  31.933  31.717  1.00  0.00    -0.206 F 
ATOM     69  C   UNL A   1      34.206  33.193  29.855  1.00  0.00     0.040 A 
ATOM     70  C   UNL A   1      35.838  34.428  28.587  1.00  0.00     0.040 A 
ATOM     71  F   UNL A   1      38.103  34.350  29.190  1.00  0.00    -0.206 F 
ATOM     72  C   UNL A   1      34.517  34.033  28.787  1.00  0.00     0.006 A 
ENDBRANCH  51  65
BRANCH  52  73
ATOM     73  C   UNL A   1      44.072  29.167  35.935  1.00  0.00     0.057 A 
ATOM     74  C   UNL A   1      43.836  28.066  36.766  1.00  0.00     0.134 A 
ATOM     75  C   UNL A   1      45.380  29.666  35.884  1.00  0.00     0.134 A 
ATOM     76  F   UNL A   1      42.603  27.549  36.868  1.00  0.00    -0.206 F 
ATOM     77  C   UNL A   1      44.856  27.493  37.529  1.00  0.00     0.040 A 
ATOM     78  C   UNL A   1      46.414  29.089  36.623  1.00  0.00     0.040 A 
ATOM     79  F   UNL A   1      45.675  30.713  35.099  1.00  0.00    -0.206 F 
ATOM     80  C   UNL A   1      46.151  28.001  37.453  1.00  0.00     0.006 A 
ENDBRANCH  52  73
BRANCH  64  81
ATOM     81  C   UNL A   1      39.568  34.384  36.966  1.00  0.00     0.057 A 
ATOM     82  C   UNL A   1      38.851  33.990  38.102  1.00  0.00     0.134 A 
ATOM     83  C   UNL A   1      40.130  35.667  36.962  1.00  0.00     0.134 A 
ATOM     84  F   UNL A   1      38.281  32.777  38.161  1.00  0.00    -0.206 F 
ATOM     85  C   UNL A   1      38.678  34.852  39.186  1.00  0.00     0.040 A 
ATOM     86  C   UNL A   1      39.987  36.527  38.049  1.00  0.00     0.040 A 
ATOM     87  F   UNL A   1      40.839  36.096  35.906  1.00  0.00    -0.206 F 
ATOM     88  C   UNL A   1      39.253  36.121  39.163  1.00  0.00     0.006 A 
ENDBRANCH  64  81
ENDBRANCH  38  39
ENDBRANCH  31  33
ENDBRANCH  30  31
ENDBRANCH  29  30
ENDBRANCH  28  29
ENDBRANCH  27  28
ENDBRANCH  26  27
ENDBRANCH   1  26
TORSDOF 20
ENDMDL
MODEL 2
REMARK VINA RESULT:     -10.6      4.667      8.174
REMARK SMILES CCOc1ccc(NC(=O)CC2(CC(=O)OCCOCCOC(=O)c3ccc(-c4c5nc(c(-c6c(F)cccc6F)c6ccc([nH]6)c(-c6c(F)cccc6F)c6nc(c(-c7c(F)cccc7F)c7ccc4[nH]7)C=C6)C=C5)cc3)CCCCC2)cc1
REMARK SMILES IDX 17 1 16 2 14 3 15 4 13 5 12 6 79 7 83 8 80 9 82 10 81 11
REMARK SMILES IDX 11 12 9 13 8 14 10 16 7 17 4 18 5 19 85 20 6 21 84 22 3 23
REMARK SMILES IDX 2 24 1 25 18 26 19 27 20 28 21 29 22 30 23 31 24 32 25 33
REMARK SMILES IDX 26 34 78 35 27 36 77 37 28 38 29 39 30 40 71 41 31 42 76 43
REMARK SMILES IDX 70 44 72 45 32 46 75 47 69 48 68 49 33 51 59 52 42 53 58 54
REMARK SMILES IDX 43 55 46 56 57 57 73 58 44 59 45 60 56 62 74 63 47 64 34 65
REMARK SMILES IDX 35 66 40 67 36 68 37 69 39 70 41 71 38 72 60 73 61 74 66 75
REMARK SMILES IDX 62 76 63 77 65 78 67 79 64 80 48 81 49 82 54 83 50 84 51 85
REMARK SMILES IDX 53 86 55 87 52 88
REMARK H PARENT 8 15 72 50 46 61
REMARK Flexibility Score: inf
ROOT
ATOM      1  C   UNL A   1      37.200  23.026  26.168  1.00  0.00     0.261 C 
ENDROOT
BRANCH   1   2
ATOM      2  O   UNL A   1      36.312  22.115  25.478  1.00  0.00    -0.463 OA
BRANCH   2   3
ATOM      3  C   UNL A   1      35.106  21.945  26.071  1.00  0.00     0.306 C 
ATOM      4  O   UNL A   1      34.968  21.465  27.191  1.00  0.00    -0.252 OA
BRANCH   3   5
ATOM      5  C   UNL A   1      33.921  22.176  25.152  1.00  0.00     0.130 C 
BRANCH   5   6
ATOM      6  C   UNL A   1      32.876  23.321  25.295  1.00  0.00    -0.011 C 
ATOM      7  C   UNL A   1      31.724  23.018  24.262  1.00  0.00     0.008 C 
ATOM      8  C   UNL A   1      33.494  24.678  24.827  1.00  0.00     0.008 C 
ATOM      9  C   UNL A   1      32.144  22.994  22.797  1.00  0.00     0.001 C 
ATOM     10  C   UNL A   1      33.963  24.678  23.364  1.00  0.00     0.001 C 
ATOM     11  C   UNL A   1      32.852  24.280  22.394  1.00  0.00     0.000 C 
BRANCH   6  12
ATOM     12  C   UNL A   1      32.091  23.506  26.662  1.00  0.00     0.108 C 
BRANCH  12  13
ATOM     13  C   UNL A   1      30.592  23.714  26.872  1.00  0.00     0.224 C 
ATOM     14  N   UNL A   1      29.877  24.701  26.288  1.00  0.00    -0.326 N 
ATOM     15  H   UNL A   1      28.911  24.528  26.220  1.00  0.00     0.169 HD
ATOM     16  O   UNL A   1      29.971  22.955  27.627  1.00  0.00    -0.275 OA
BRANCH  14  17
ATOM     17  C   UNL A   1      30.291  25.921  25.766  1.00  0.00     0.041 A 
ATOM     18  C   UNL A   1      31.284  28.184  24.526  1.00  0.00     0.119 A 
ATOM     19  C   UNL A   1      31.527  27.986  25.881  1.00  0.00     0.048 A 
ATOM     20  C   UNL A   1      30.528  27.274  23.793  1.00  0.00     0.048 A 
ATOM     21  C   UNL A   1      31.022  26.849  26.506  1.00  0.00     0.030 A 
ATOM     22  C   UNL A   1      29.973  26.174  24.431  1.00  0.00     0.030 A 
BRANCH  18  23
ATOM     23  O   UNL A   1      31.845  29.259  23.899  1.00  0.00    -0.494 OA
BRANCH  23  24
ATOM     24  C   UNL A   1      33.274  29.197  23.975  1.00  0.00     0.226 C 
ATOM     25  C   UNL A   1      33.852  28.436  22.794  1.00  0.00     0.049 C 
ENDBRANCH  23  24
ENDBRANCH  18  23
ENDBRANCH  14  17
ENDBRANCH  12  13
ENDBRANCH   6  12
ENDBRANCH   5   6
ENDBRANCH   3   5
ENDBRANCH   2   3
ENDBRANCH   1   2
BRANCH   1  26
ATOM     26  C   UNL A   1      38.662  22.619  26.032  1.00  0.00     0.202 C 
BRANCH  26  27
ATOM     27  O   UNL A   1      38.934  21.386  25.372  1.00  0.00    -0.374 OA
BRANCH  27  28
ATOM     28  C   UNL A   1      39.131  20.221  26.160  1.00  0.00     0.202 C 
BRANCH  28  29
ATOM     29  C   UNL A   1      40.192  19.210  25.713  1.00  0.00     0.261 C 
BRANCH  29  30
ATOM     30  O   UNL A   1      41.389  19.190  26.458  1.00  0.00    -0.460 OA
BRANCH  30  31
ATOM     31  C   UNL A   1      42.456  19.728  25.847  1.00  0.00     0.338 C 
ATOM     32  O   UNL A   1      43.186  19.247  25.003  1.00  0.00    -0.246 OA
BRANCH  31  33
ATOM     33  C   UNL A   1      42.445  21.116  26.307  1.00  0.00     0.060 A 
ATOM     34  C   UNL A   1      42.385  22.120  25.340  1.00  0.00     0.016 A 
ATOM     35  C   UNL A   1      42.388  21.400  27.679  1.00  0.00     0.016 A 
ATOM     36  C   UNL A   1      42.339  23.440  25.755  1.00  0.00     0.010 A 
ATOM     37  C   UNL A   1      42.334  22.720  28.093  1.00  0.00     0.010 A 
ATOM     38  C   UNL A   1      42.367  23.736  27.126  1.00  0.00    -0.014 A 
BRANCH  38  39
ATOM     39  C   UNL A   1      42.706  25.106  27.534  1.00  0.00     0.031 A 
ATOM     40  C   UNL A   1      44.096  25.584  27.236  1.00  0.00     0.074 A 
ATOM     41  C   UNL A   1      41.774  25.898  28.084  1.00  0.00     0.049 A 
ATOM     42  N   UNL A   1      44.625  26.762  27.419  1.00  0.00    -0.248 NA
ATOM     43  C   UNL A   1      45.018  24.594  26.648  1.00  0.00     0.031 C 
ATOM     44  C   UNL A   1      40.398  25.503  28.382  1.00  0.00     0.029 A 
ATOM     45  N   UNL A   1      41.847  27.206  28.473  1.00  0.00    -0.354 N 
ATOM     46  C   UNL A   1      45.932  26.655  26.962  1.00  0.00     0.074 A 
ATOM     47  C   UNL A   1      46.138  25.289  26.545  1.00  0.00     0.031 C 
ATOM     48  C   UNL A   1      39.746  26.561  28.894  1.00  0.00     0.029 A 
ATOM     49  C   UNL A   1      40.666  27.692  28.971  1.00  0.00     0.049 A 
ATOM     50  H   UNL A   1      42.668  27.746  28.402  1.00  0.00     0.167 HD
ATOM     51  C   UNL A   1      46.870  27.626  26.877  1.00  0.00     0.037 A 
ATOM     52  C   UNL A   1      40.377  28.924  29.428  1.00  0.00     0.037 A 
ATOM     53  C   UNL A   1      46.641  28.975  27.312  1.00  0.00     0.049 A 
ATOM     54  C   UNL A   1      41.454  29.975  29.374  1.00  0.00     0.074 A 
ATOM     55  C   UNL A   1      47.508  30.049  27.299  1.00  0.00     0.029 A 
ATOM     56  N   UNL A   1      45.442  29.428  27.847  1.00  0.00    -0.354 N 
ATOM     57  N   UNL A   1      42.682  29.877  28.920  1.00  0.00    -0.248 NA
ATOM     58  C   UNL A   1      41.103  31.306  29.881  1.00  0.00     0.031 C 
ATOM     59  C   UNL A   1      46.845  31.145  27.863  1.00  0.00     0.029 A 
ATOM     60  C   UNL A   1      45.549  30.764  28.182  1.00  0.00     0.049 A 
ATOM     61  H   UNL A   1      44.634  28.877  27.970  1.00  0.00     0.167 HD
ATOM     62  C   UNL A   1      43.243  31.139  29.060  1.00  0.00     0.074 A 
ATOM     63  C   UNL A   1      42.213  31.987  29.632  1.00  0.00     0.031 C 
ATOM     64  C   UNL A   1      44.491  31.567  28.744  1.00  0.00     0.037 A 
BRANCH  51  65
ATOM     65  C   UNL A   1      48.208  27.233  26.326  1.00  0.00     0.057 A 
ATOM     66  C   UNL A   1      49.258  26.815  27.158  1.00  0.00     0.134 A 
ATOM     67  C   UNL A   1      48.467  27.311  24.953  1.00  0.00     0.134 A 
ATOM     68  F   UNL A   1      49.086  26.744  28.486  1.00  0.00    -0.206 F 
ATOM     69  C   UNL A   1      50.523  26.519  26.646  1.00  0.00     0.040 A 
ATOM     70  C   UNL A   1      49.720  26.992  24.426  1.00  0.00     0.040 A 
ATOM     71  F   UNL A   1      47.512  27.711  24.101  1.00  0.00    -0.206 F 
ATOM     72  C   UNL A   1      50.755  26.603  25.275  1.00  0.00     0.006 A 
ENDBRANCH  51  65
BRANCH  52  73
ATOM     73  C   UNL A   1      39.017  29.228  29.933  1.00  0.00     0.057 A 
ATOM     74  C   UNL A   1      38.000  29.653  29.071  1.00  0.00     0.134 A 
ATOM     75  C   UNL A   1      38.692  29.081  31.288  1.00  0.00     0.134 A 
ATOM     76  F   UNL A   1      38.251  29.825  27.765  1.00  0.00    -0.206 F 
ATOM     77  C   UNL A   1      36.714  29.936  29.538  1.00  0.00     0.040 A 
ATOM     78  C   UNL A   1      37.406  29.337  31.765  1.00  0.00     0.040 A 
ATOM     79  F   UNL A   1      39.618  28.668  32.165  1.00  0.00    -0.206 F 
ATOM     80  C   UNL A   1      36.413  29.771  30.888  1.00  0.00     0.006 A 
ENDBRANCH  52  73
BRANCH  64  81
ATOM     81  C   UNL A   1      44.788  33.017  28.979  1.00  0.00     0.057 A 
ATOM     82  C   UNL A   1      45.419  33.462  30.146  1.00  0.00     0.134 A 
ATOM     83  C   UNL A   1      44.479  33.971  28.000  1.00  0.00     0.134 A 
ATOM     84  F   UNL A   1      45.730  32.598  31.123  1.00  0.00    -0.206 F 
ATOM     85  C   UNL A   1      45.711  34.813  30.343  1.00  0.00     0.040 A 
ATOM     86  C   UNL A   1      44.789  35.318  28.175  1.00  0.00     0.040 A 
ATOM     87  F   UNL A   1      43.884  33.603  26.855  1.00  0.00    -0.206 F 
ATOM     88  C   UNL A   1      45.402  35.743  29.353  1.00  0.00     0.006 A 
ENDBRANCH  64  81
ENDBRANCH  38  39
ENDBRANCH  31  33
ENDBRANCH  30  31
ENDBRANCH  29  30
ENDBRANCH  28  29
ENDBRANCH  27  28
ENDBRANCH  26  27
ENDBRANCH   1  26
TORSDOF 20
ENDMDL
MODEL 3
REMARK VINA RESULT:     -10.2      1.181      6.195
REMARK SMILES CCOc1ccc(NC(=O)CC2(CC(=O)OCCOCCOC(=O)c3ccc(-c4c5nc(c(-c6c(F)cccc6F)c6ccc([nH]6)c(-c6c(F)cccc6F)c6nc(c(-c7c(F)cccc7F)c7ccc4[nH]7)C=C6)C=C5)cc3)CCCCC2)cc1
REMARK SMILES IDX 17 1 16 2 14 3 15 4 13 5 12 6 79 7 83 8 80 9 82 10 81 11
REMARK SMILES IDX 11 12 9 13 8 14 10 16 7 17 4 18 5 19 85 20 6 21 84 22 3 23
REMARK SMILES IDX 2 24 1 25 18 26 19 27 20 28 21 29 22 30 23 31 24 32 25 33
REMARK SMILES IDX 26 34 78 35 27 36 77 37 28 38 29 39 30 40 71 41 31 42 76 43
REMARK SMILES IDX 70 44 72 45 32 46 75 47 69 48 68 49 33 51 59 52 42 53 58 54
REMARK SMILES IDX 43 55 46 56 57 57 73 58 44 59 45 60 56 62 74 63 47 64 34 65
REMARK SMILES IDX 35 66 40 67 36 68 37 69 39 70 41 71 38 72 60 73 61 74 66 75
REMARK SMILES IDX 62 76 63 77 65 78 67 79 64 80 48 81 49 82 54 83 50 84 51 85
REMARK SMILES IDX 53 86 55 87 52 88
REMARK H PARENT 8 15 72 50 46 61
REMARK Flexibility Score: inf
ROOT
ATOM      1  C   UNL A   1      38.051  22.068  25.742  1.00  0.00     0.261 C 
ENDROOT
BRANCH   1   2
ATOM      2  O   UNL A   1      37.207  21.471  24.729  1.00  0.00    -0.463 OA
BRANCH   2   3
ATOM      3  C   UNL A   1      35.878  21.649  24.924  1.00  0.00     0.306 C 
ATOM      4  O   UNL A   1      35.159  20.812  25.461  1.00  0.00    -0.252 OA
BRANCH   3   5
ATOM      5  C   UNL A   1      35.301  22.861  24.219  1.00  0.00     0.130 C 
BRANCH   5   6
ATOM      6  C   UNL A   1      34.040  23.656  24.672  1.00  0.00    -0.011 C 
ATOM      7  C   UNL A   1      32.790  22.913  24.062  1.00  0.00     0.008 C 
ATOM      8  C   UNL A   1      34.030  25.074  24.015  1.00  0.00     0.008 C 
ATOM      9  C   UNL A   1      32.740  22.850  22.540  1.00  0.00     0.001 C 
ATOM     10  C   UNL A   1      34.017  25.048  22.478  1.00  0.00     0.001 C 
ATOM     11  C   UNL A   1      32.854  24.234  21.917  1.00  0.00     0.000 C 
BRANCH   6  12
ATOM     12  C   UNL A   1      33.682  23.752  26.215  1.00  0.00     0.108 C 
BRANCH  12  13
ATOM     13  C   UNL A   1      32.303  23.701  26.872  1.00  0.00     0.224 C 
ATOM     14  N   UNL A   1      31.262  24.480  26.502  1.00  0.00    -0.326 N 
ATOM     15  H   UNL A   1      30.375  24.127  26.743  1.00  0.00     0.169 HD
ATOM     16  O   UNL A   1      32.102  22.918  27.808  1.00  0.00    -0.275 OA
BRANCH  14  17
ATOM     17  C   UNL A   1      31.243  25.698  25.835  1.00  0.00     0.041 A 
ATOM     18  C   UNL A   1      31.041  28.232  24.746  1.00  0.00     0.119 A 
ATOM     19  C   UNL A   1      30.520  27.146  24.049  1.00  0.00     0.048 A 
ATOM     20  C   UNL A   1      31.683  28.058  25.968  1.00  0.00     0.048 A 
ATOM     21  C   UNL A   1      30.628  25.870  24.595  1.00  0.00     0.030 A 
ATOM     22  C   UNL A   1      31.844  26.779  26.481  1.00  0.00     0.030 A 
BRANCH  18  23
ATOM     23  O   UNL A   1      30.867  29.489  24.245  1.00  0.00    -0.494 OA
BRANCH  23  24
ATOM     24  C   UNL A   1      29.723  29.535  23.384  1.00  0.00     0.226 C 
ATOM     25  C   UNL A   1      29.008  30.871  23.494  1.00  0.00     0.049 C 
ENDBRANCH  23  24
ENDBRANCH  18  23
ENDBRANCH  14  17
ENDBRANCH  12  13
ENDBRANCH   6  12
ENDBRANCH   5   6
ENDBRANCH   3   5
ENDBRANCH   2   3
ENDBRANCH   1   2
BRANCH   1  26
ATOM     26  C   UNL A   1      39.286  21.224  26.034  1.00  0.00     0.202 C 
BRANCH  26  27
ATOM     27  O   UNL A   1      40.361  21.860  26.717  1.00  0.00    -0.374 OA
BRANCH  27  28
ATOM     28  C   UNL A   1      41.657  21.816  26.139  1.00  0.00     0.202 C 
BRANCH  28  29
ATOM     29  C   UNL A   1      42.313  23.135  25.715  1.00  0.00     0.261 C 
BRANCH  29  30
ATOM     30  O   UNL A   1      42.073  24.247  26.548  1.00  0.00    -0.460 OA
BRANCH  30  31
ATOM     31  C   UNL A   1      42.042  25.435  25.924  1.00  0.00     0.338 C 
ATOM     32  O   UNL A   1      42.291  25.706  24.766  1.00  0.00    -0.246 OA
BRANCH  31  33
ATOM     33  C   UNL A   1      41.467  26.329  26.928  1.00  0.00     0.060 A 
ATOM     34  C   UNL A   1      41.730  27.694  26.810  1.00  0.00     0.016 A 
ATOM     35  C   UNL A   1      40.596  25.822  27.903  1.00  0.00     0.016 A 
ATOM     36  C   UNL A   1      41.168  28.562  27.729  1.00  0.00     0.010 A 
ATOM     37  C   UNL A   1      40.026  26.692  28.817  1.00  0.00     0.010 A 
ATOM     38  C   UNL A   1      40.362  28.053  28.759  1.00  0.00    -0.014 A 
BRANCH  38  39
ATOM     39  C   UNL A   1      40.100  28.908  29.924  1.00  0.00     0.031 A 
ATOM     40  C   UNL A   1      41.005  28.746  31.109  1.00  0.00     0.074 A 
ATOM     41  C   UNL A   1      39.132  29.835  29.878  1.00  0.00     0.049 A 
ATOM     42  N   UNL A   1      41.039  29.422  32.224  1.00  0.00    -0.248 NA
ATOM     43  C   UNL A   1      42.010  27.670  31.024  1.00  0.00     0.031 C 
ATOM     44  C   UNL A   1      38.230  30.060  28.749  1.00  0.00     0.029 A 
ATOM     45  N   UNL A   1      38.762  30.770  30.803  1.00  0.00    -0.354 N 
ATOM     46  C   UNL A   1      42.072  28.860  32.964  1.00  0.00     0.074 A 
ATOM     47  C   UNL A   1      42.603  27.756  32.202  1.00  0.00     0.031 C 
ATOM     48  C   UNL A   1      37.417  31.089  29.044  1.00  0.00     0.029 A 
ATOM     49  C   UNL A   1      37.735  31.575  30.383  1.00  0.00     0.049 A 
ATOM     50  H   UNL A   1      39.191  30.856  31.686  1.00  0.00     0.167 HD
ATOM     51  C   UNL A   1      42.548  29.253  34.167  1.00  0.00     0.037 A 
ATOM     52  C   UNL A   1      37.136  32.596  31.024  1.00  0.00     0.037 A 
ATOM     53  C   UNL A   1      41.992  30.350  34.909  1.00  0.00     0.049 A 
ATOM     54  C   UNL A   1      37.648  32.981  32.385  1.00  0.00     0.074 A 
ATOM     55  C   UNL A   1      42.365  30.840  36.144  1.00  0.00     0.029 A 
ATOM     56  N   UNL A   1      40.925  31.124  34.470  1.00  0.00    -0.354 N 
ATOM     57  N   UNL A   1      38.639  32.463  33.073  1.00  0.00    -0.248 NA
ATOM     58  C   UNL A   1      36.969  34.097  33.053  1.00  0.00     0.031 C 
ATOM     59  C   UNL A   1      41.499  31.890  36.471  1.00  0.00     0.029 A 
ATOM     60  C   UNL A   1      40.617  32.083  35.416  1.00  0.00     0.049 A 
ATOM     61  H   UNL A   1      40.457  31.008  33.611  1.00  0.00     0.167 HD
ATOM     62  C   UNL A   1      38.724  33.207  34.242  1.00  0.00     0.074 A 
ATOM     63  C   UNL A   1      37.687  34.219  34.162  1.00  0.00     0.031 C 
ATOM     64  C   UNL A   1      39.578  33.074  35.288  1.00  0.00     0.037 A 
BRANCH  51  65
ATOM     65  C   UNL A   1      43.692  28.469  34.736  1.00  0.00     0.057 A 
ATOM     66  C   UNL A   1      43.487  27.347  35.553  1.00  0.00     0.134 A 
ATOM     67  C   UNL A   1      45.016  28.858  34.498  1.00  0.00     0.134 A 
ATOM     68  F   UNL A   1      42.243  26.936  35.844  1.00  0.00    -0.206 F 
ATOM     69  C   UNL A   1      44.555  26.663  36.138  1.00  0.00     0.040 A 
ATOM     70  C   UNL A   1      46.093  28.166  35.056  1.00  0.00     0.040 A 
ATOM     71  F   UNL A   1      45.284  29.925  33.732  1.00  0.00    -0.206 F 
ATOM     72  C   UNL A   1      45.863  27.070  35.886  1.00  0.00     0.006 A 
ENDBRANCH  51  65
BRANCH  52  73
ATOM     73  C   UNL A   1      36.026  33.331  30.371  1.00  0.00     0.057 A 
ATOM     74  C   UNL A   1      34.704  33.185  30.807  1.00  0.00     0.134 A 
ATOM     75  C   UNL A   1      36.260  34.215  29.310  1.00  0.00     0.134 A 
ATOM     76  F   UNL A   1      34.412  32.345  31.811  1.00  0.00    -0.206 F 
ATOM     77  C   UNL A   1      33.653  33.879  30.202  1.00  0.00     0.040 A 
ATOM     78  C   UNL A   1      35.223  34.931  28.711  1.00  0.00     0.040 A 
ATOM     79  F   UNL A   1      37.505  34.407  28.851  1.00  0.00    -0.206 F 
ATOM     80  C   UNL A   1      33.913  34.760  29.154  1.00  0.00     0.006 A 
ENDBRANCH  52  73
BRANCH  64  81
ATOM     81  C   UNL A   1      39.443  34.069  36.400  1.00  0.00     0.057 A 
ATOM     82  C   UNL A   1      38.698  33.792  37.552  1.00  0.00     0.134 A 
ATOM     83  C   UNL A   1      40.109  35.300  36.335  1.00  0.00     0.134 A 
ATOM     84  F   UNL A   1      38.029  32.635  37.669  1.00  0.00    -0.206 F 
ATOM     85  C   UNL A   1      38.598  34.718  38.592  1.00  0.00     0.040 A 
ATOM     86  C   UNL A   1      40.039  36.220  37.379  1.00  0.00     0.040 A 
ATOM     87  F   UNL A   1      40.850  35.616  35.262  1.00  0.00    -0.206 F 
ATOM     88  C   UNL A   1      39.276  35.932  38.509  1.00  0.00     0.006 A 
ENDBRANCH  64  81
ENDBRANCH  38  39
ENDBRANCH  31  33
ENDBRANCH  30  31
ENDBRANCH  29  30
ENDBRANCH  28  29
ENDBRANCH  27  28
ENDBRANCH  26  27
ENDBRANCH   1  26
TORSDOF 20
ENDMDL
