MODEL 1
REMARK VINA RESULT:     -10.6      0.000      0.000
REMARK SMILES C[C@@H]1[C@@H](C(=O)OCCOCCOC(=O)c2ccc(-c3c4nc(c(-c5c(F)cccc5F)c5ccc([nH]5)c(-c5c(F)cccc5F)c5nc(c(-c6c(F)cccc6F)c6ccc3[nH]6)C=C5)C=C4)cc2)CCN1C(=O)N[C@@H](C)Cc1ccco1
REMARK SMILES IDX 8 1 7 2 6 3 4 4 5 5 3 6 1 7 2 8 71 9 69 10 70 11 72 12 73 13
REMARK SMILES IDX 74 14 75 16 76 17 77 18 78 19 79 20 82 21 80 22 81 23 9 24
REMARK SMILES IDX 10 25 11 26 12 27 13 28 14 29 15 30 16 31 68 32 17 33 67 34
REMARK SMILES IDX 18 35 19 36 20 37 61 38 21 39 66 40 60 41 62 42 22 43 65 44
REMARK SMILES IDX 59 45 58 46 23 48 49 49 32 50 48 51 33 52 36 53 47 54 63 55
REMARK SMILES IDX 34 56 35 57 46 59 64 60 37 61 24 62 25 63 30 64 26 65 27 66
REMARK SMILES IDX 29 67 31 68 28 69 50 70 51 71 56 72 52 73 53 74 55 75 57 76
REMARK SMILES IDX 54 77 38 78 39 79 44 80 40 81 41 82 43 83 45 84 42 85
REMARK H PARENT 74 15 62 47 36 58
REMARK Flexibility Score: inf
ROOT
ATOM      1  C   UNL A   1      40.980  20.793  26.753  1.00  0.00     0.202 C 
ENDROOT
BRANCH   1   2
ATOM      2  C   UNL A   1      40.016  21.981  26.667  1.00  0.00     0.261 C 
BRANCH   2   3
ATOM      3  O   UNL A   1      38.834  21.677  25.917  1.00  0.00    -0.463 OA
BRANCH   3   4
ATOM      4  C   UNL A   1      37.982  22.730  25.765  1.00  0.00     0.311 C 
ATOM      5  O   UNL A   1      38.008  23.742  26.450  1.00  0.00    -0.252 OA
BRANCH   4   6
ATOM      6  C   UNL A   1      37.006  22.481  24.626  1.00  0.00     0.123 C 
ATOM      7  C   UNL A   1      35.016  23.594  23.499  1.00  0.00     0.032 C 
ATOM      8  C   UNL A   1      35.768  23.371  24.818  1.00  0.00     0.098 C 
ATOM      9  N   UNL A   1      34.933  22.612  25.750  1.00  0.00    -0.321 N 
ATOM     10  C   UNL A   1      36.440  21.072  24.712  1.00  0.00     0.039 C 
ATOM     11  C   UNL A   1      35.346  21.210  25.766  1.00  0.00     0.122 C 
BRANCH   9  12
ATOM     12  C   UNL A   1      34.098  23.033  26.736  1.00  0.00     0.317 C 
ATOM     13  O   UNL A   1      34.326  22.764  27.922  1.00  0.00    -0.249 OA
ATOM     14  N   UNL A   1      32.993  23.766  26.520  1.00  0.00    -0.335 N 
ATOM     15  H   UNL A   1      32.605  24.088  27.365  1.00  0.00     0.165 HD
BRANCH  14  16
ATOM     16  C   UNL A   1      32.208  24.214  25.368  1.00  0.00     0.088 C 
ATOM     17  C   UNL A   1      30.792  23.650  25.504  1.00  0.00     0.031 C 
BRANCH  16  18
ATOM     18  C   UNL A   1      32.143  25.751  25.264  1.00  0.00     0.100 C 
BRANCH  18  19
ATOM     19  C   UNL A   1      32.665  26.285  23.980  1.00  0.00     0.105 A 
ATOM     20  C   UNL A   1      33.578  27.272  23.678  1.00  0.00     0.045 A 
ATOM     21  O   UNL A   1      32.148  25.756  22.835  1.00  0.00    -0.469 OA
ATOM     22  C   UNL A   1      33.628  27.352  22.268  1.00  0.00     0.042 A 
ATOM     23  C   UNL A   1      32.736  26.415  21.802  1.00  0.00     0.195 A 
ENDBRANCH  18  19
ENDBRANCH  16  18
ENDBRANCH  14  16
ENDBRANCH   9  12
ENDBRANCH   4   6
ENDBRANCH   3   4
ENDBRANCH   2   3
ENDBRANCH   1   2
BRANCH   1  24
ATOM     24  O   UNL A   1      41.959  20.640  25.733  1.00  0.00    -0.374 OA
BRANCH  24  25
ATOM     25  C   UNL A   1      43.299  21.055  25.989  1.00  0.00     0.202 C 
BRANCH  25  26
ATOM     26  C   UNL A   1      43.993  21.943  24.948  1.00  0.00     0.261 C 
BRANCH  26  27
ATOM     27  O   UNL A   1      43.333  23.206  24.743  1.00  0.00    -0.460 OA
BRANCH  27  28
ATOM     28  C   UNL A   1      44.077  24.293  25.058  1.00  0.00     0.338 C 
ATOM     29  O   UNL A   1      45.155  24.622  24.578  1.00  0.00    -0.246 OA
BRANCH  28  30
ATOM     30  C   UNL A   1      43.323  25.179  25.958  1.00  0.00     0.060 A 
ATOM     31  C   UNL A   1      43.741  26.512  26.072  1.00  0.00     0.016 A 
ATOM     32  C   UNL A   1      42.292  24.685  26.758  1.00  0.00     0.016 A 
ATOM     33  C   UNL A   1      43.148  27.352  27.010  1.00  0.00     0.010 A 
ATOM     34  C   UNL A   1      41.708  25.526  27.711  1.00  0.00     0.010 A 
ATOM     35  C   UNL A   1      42.155  26.851  27.861  1.00  0.00    -0.014 A 
BRANCH  35  36
ATOM     36  C   UNL A   1      41.697  27.672  29.006  1.00  0.00     0.031 A 
ATOM     37  C   UNL A   1      42.444  27.587  30.308  1.00  0.00     0.074 A 
ATOM     38  C   UNL A   1      40.649  28.505  28.877  1.00  0.00     0.049 A 
ATOM     39  N   UNL A   1      42.201  28.186  31.445  1.00  0.00    -0.248 NA
ATOM     40  C   UNL A   1      43.626  26.709  30.328  1.00  0.00     0.031 C 
ATOM     41  C   UNL A   1      39.876  28.706  27.653  1.00  0.00     0.029 A 
ATOM     42  N   UNL A   1      40.056  29.334  29.794  1.00  0.00    -0.354 N 
ATOM     43  C   UNL A   1      43.192  27.754  32.317  1.00  0.00     0.074 A 
ATOM     44  C   UNL A   1      44.023  26.821  31.586  1.00  0.00     0.031 C 
ATOM     45  C   UNL A   1      38.897  29.594  27.899  1.00  0.00     0.029 A 
ATOM     46  C   UNL A   1      38.959  29.999  29.303  1.00  0.00     0.049 A 
ATOM     47  H   UNL A   1      40.383  29.441  30.716  1.00  0.00     0.167 HD
ATOM     48  C   UNL A   1      43.396  28.109  33.607  1.00  0.00     0.037 A 
ATOM     49  C   UNL A   1      38.094  30.822  29.924  1.00  0.00     0.037 A 
ATOM     50  C   UNL A   1      42.566  29.037  34.331  1.00  0.00     0.049 A 
ATOM     51  C   UNL A   1      38.299  31.145  31.380  1.00  0.00     0.074 A 
ATOM     52  C   UNL A   1      42.697  29.474  35.637  1.00  0.00     0.029 A 
ATOM     53  N   UNL A   1      41.446  29.666  33.809  1.00  0.00    -0.354 N 
ATOM     54  N   UNL A   1      39.249  30.749  32.190  1.00  0.00    -0.248 NA
ATOM     55  C   UNL A   1      37.308  32.033  32.007  1.00  0.00     0.031 C 
ATOM     56  C   UNL A   1      41.628  30.331  35.921  1.00  0.00     0.029 A 
ATOM     57  C   UNL A   1      40.860  30.467  34.775  1.00  0.00     0.049 A 
ATOM     58  H   UNL A   1      41.114  29.557  32.888  1.00  0.00     0.167 HD
ATOM     59  C   UNL A   1      38.991  31.360  33.411  1.00  0.00     0.074 A 
ATOM     60  C   UNL A   1      37.799  32.163  33.231  1.00  0.00     0.031 C 
ATOM     61  C   UNL A   1      39.678  31.267  34.576  1.00  0.00     0.037 A 
BRANCH  48  62
ATOM     62  C   UNL A   1      44.546  27.471  34.327  1.00  0.00     0.057 A 
ATOM     63  C   UNL A   1      44.412  26.252  35.006  1.00  0.00     0.134 A 
ATOM     64  C   UNL A   1      45.813  28.068  34.318  1.00  0.00     0.134 A 
ATOM     65  F   UNL A   1      43.222  25.636  35.066  1.00  0.00    -0.206 F 
ATOM     66  C   UNL A   1      45.490  25.662  35.667  1.00  0.00     0.040 A 
ATOM     67  C   UNL A   1      46.905  27.476  34.954  1.00  0.00     0.040 A 
ATOM     68  F   UNL A   1      46.011  29.234  33.685  1.00  0.00    -0.206 F 
ATOM     69  C   UNL A   1      46.744  26.271  35.636  1.00  0.00     0.006 A 
ENDBRANCH  48  62
BRANCH  49  70
ATOM     70  C   UNL A   1      36.943  31.392  29.177  1.00  0.00     0.057 A 
ATOM     71  C   UNL A   1      35.810  30.623  28.892  1.00  0.00     0.134 A 
ATOM     72  C   UNL A   1      36.961  32.712  28.712  1.00  0.00     0.134 A 
ATOM     73  F   UNL A   1      35.745  29.344  29.291  1.00  0.00    -0.206 F 
ATOM     74  C   UNL A   1      34.743  31.140  28.156  1.00  0.00     0.040 A 
ATOM     75  C   UNL A   1      35.890  33.250  27.997  1.00  0.00     0.040 A 
ATOM     76  F   UNL A   1      38.018  33.502  28.953  1.00  0.00    -0.206 F 
ATOM     77  C   UNL A   1      34.779  32.459  27.711  1.00  0.00     0.006 A 
ENDBRANCH  49  70
BRANCH  61  78
ATOM     78  C   UNL A   1      39.182  32.082  35.735  1.00  0.00     0.057 A 
ATOM     79  C   UNL A   1      39.559  33.418  35.917  1.00  0.00     0.134 A 
ATOM     80  C   UNL A   1      38.284  31.531  36.659  1.00  0.00     0.134 A 
ATOM     81  F   UNL A   1      40.425  34.001  35.075  1.00  0.00    -0.206 F 
ATOM     82  C   UNL A   1      39.076  34.171  36.989  1.00  0.00     0.040 A 
ATOM     83  C   UNL A   1      37.774  32.282  37.719  1.00  0.00     0.040 A 
ATOM     84  F   UNL A   1      37.874  30.259  36.537  1.00  0.00    -0.206 F 
ATOM     85  C   UNL A   1      38.176  33.605  37.889  1.00  0.00     0.006 A 
ENDBRANCH  61  78
ENDBRANCH  35  36
ENDBRANCH  28  30
ENDBRANCH  27  28
ENDBRANCH  26  27
ENDBRANCH  25  26
ENDBRANCH  24  25
ENDBRANCH   1  24
TORSDOF 18
ENDMDL
MODEL 2
REMARK VINA RESULT:     -10.6      4.086      6.815
REMARK SMILES C[C@@H]1[C@@H](C(=O)OCCOCCOC(=O)c2ccc(-c3c4nc(c(-c5c(F)cccc5F)c5ccc([nH]5)c(-c5c(F)cccc5F)c5nc(c(-c6c(F)cccc6F)c6ccc3[nH]6)C=C5)C=C4)cc2)CCN1C(=O)N[C@@H](C)Cc1ccco1
REMARK SMILES IDX 8 1 7 2 6 3 4 4 5 5 3 6 1 7 2 8 71 9 69 10 70 11 72 12 73 13
REMARK SMILES IDX 74 14 75 16 76 17 77 18 78 19 79 20 82 21 80 22 81 23 9 24
REMARK SMILES IDX 10 25 11 26 12 27 13 28 14 29 15 30 16 31 68 32 17 33 67 34
REMARK SMILES IDX 18 35 19 36 20 37 61 38 21 39 66 40 60 41 62 42 22 43 65 44
REMARK SMILES IDX 59 45 58 46 23 48 49 49 32 50 48 51 33 52 36 53 47 54 63 55
REMARK SMILES IDX 34 56 35 57 46 59 64 60 37 61 24 62 25 63 30 64 26 65 27 66
REMARK SMILES IDX 29 67 31 68 28 69 50 70 51 71 56 72 52 73 53 74 55 75 57 76
REMARK SMILES IDX 54 77 38 78 39 79 44 80 40 81 41 82 43 83 45 84 42 85
REMARK H PARENT 74 15 62 47 36 58
REMARK Flexibility Score: inf
ROOT
ATOM      1  C   UNL A   1      37.714  23.119  25.808  1.00  0.00     0.202 C 
ENDROOT
BRANCH   1   2
ATOM      2  C   UNL A   1      36.791  23.268  24.595  1.00  0.00     0.261 C 
BRANCH   2   3
ATOM      3  O   UNL A   1      35.486  23.743  24.952  1.00  0.00    -0.463 OA
BRANCH   3   4
ATOM      4  C   UNL A   1      34.702  24.075  23.888  1.00  0.00     0.311 C 
ATOM      5  O   UNL A   1      34.876  23.667  22.749  1.00  0.00    -0.252 OA
BRANCH   4   6
ATOM      6  C   UNL A   1      33.580  25.011  24.311  1.00  0.00     0.123 C 
ATOM      7  C   UNL A   1      32.104  25.482  26.328  1.00  0.00     0.032 C 
ATOM      8  C   UNL A   1      32.851  24.410  25.523  1.00  0.00     0.098 C 
ATOM      9  N   UNL A   1      31.897  23.474  24.929  1.00  0.00    -0.321 N 
ATOM     10  C   UNL A   1      32.500  25.059  23.242  1.00  0.00     0.039 C 
ATOM     11  C   UNL A   1      31.695  23.793  23.516  1.00  0.00     0.122 C 
BRANCH   9  12
ATOM     12  C   UNL A   1      31.435  22.277  25.375  1.00  0.00     0.317 C 
ATOM     13  O   UNL A   1      30.532  22.217  26.219  1.00  0.00    -0.249 OA
ATOM     14  N   UNL A   1      31.892  21.089  24.946  1.00  0.00    -0.335 N 
ATOM     15  H   UNL A   1      31.336  20.348  25.280  1.00  0.00     0.165 HD
BRANCH  14  16
ATOM     16  C   UNL A   1      32.994  20.597  24.116  1.00  0.00     0.088 C 
ATOM     17  C   UNL A   1      34.195  20.329  25.025  1.00  0.00     0.031 C 
BRANCH  16  18
ATOM     18  C   UNL A   1      32.625  19.308  23.355  1.00  0.00     0.100 C 
BRANCH  18  19
ATOM     19  C   UNL A   1      32.932  18.064  24.106  1.00  0.00     0.105 A 
ATOM     20  C   UNL A   1      33.859  17.061  23.919  1.00  0.00     0.045 A 
ATOM     21  O   UNL A   1      32.151  17.786  25.188  1.00  0.00    -0.469 OA
ATOM     22  C   UNL A   1      33.636  16.115  24.945  1.00  0.00     0.042 A 
ATOM     23  C   UNL A   1      32.584  16.598  25.686  1.00  0.00     0.195 A 
ENDBRANCH  18  19
ENDBRANCH  16  18
ENDBRANCH  14  16
ENDBRANCH   9  12
ENDBRANCH   4   6
ENDBRANCH   3   4
ENDBRANCH   2   3
ENDBRANCH   1   2
BRANCH   1  24
ATOM     24  O   UNL A   1      38.601  22.008  25.851  1.00  0.00    -0.374 OA
BRANCH  24  25
ATOM     25  C   UNL A   1      38.193  20.771  25.272  1.00  0.00     0.202 C 
BRANCH  25  26
ATOM     26  C   UNL A   1      39.135  19.566  25.398  1.00  0.00     0.261 C 
BRANCH  26  27
ATOM     27  O   UNL A   1      40.007  19.641  26.541  1.00  0.00    -0.460 OA
BRANCH  27  28
ATOM     28  C   UNL A   1      41.329  19.574  26.253  1.00  0.00     0.338 C 
ATOM     29  O   UNL A   1      41.935  18.635  25.752  1.00  0.00    -0.246 OA
BRANCH  28  30
ATOM     30  C   UNL A   1      41.958  20.889  26.452  1.00  0.00     0.060 A 
ATOM     31  C   UNL A   1      42.212  21.305  27.766  1.00  0.00     0.016 A 
ATOM     32  C   UNL A   1      42.196  21.744  25.375  1.00  0.00     0.016 A 
ATOM     33  C   UNL A   1      42.679  22.593  28.012  1.00  0.00     0.010 A 
ATOM     34  C   UNL A   1      42.650  23.043  25.626  1.00  0.00     0.010 A 
ATOM     35  C   UNL A   1      42.862  23.481  26.946  1.00  0.00    -0.014 A 
BRANCH  35  36
ATOM     36  C   UNL A   1      43.129  24.910  27.229  1.00  0.00     0.031 A 
ATOM     37  C   UNL A   1      44.488  25.473  26.920  1.00  0.00     0.074 A 
ATOM     38  C   UNL A   1      42.162  25.703  27.725  1.00  0.00     0.049 A 
ATOM     39  N   UNL A   1      44.952  26.679  27.118  1.00  0.00    -0.248 NA
ATOM     40  C   UNL A   1      45.455  24.548  26.305  1.00  0.00     0.031 C 
ATOM     41  C   UNL A   1      40.794  25.282  28.021  1.00  0.00     0.029 A 
ATOM     42  N   UNL A   1      42.192  27.030  28.069  1.00  0.00    -0.354 N 
ATOM     43  C   UNL A   1      46.262  26.659  26.659  1.00  0.00     0.074 A 
ATOM     44  C   UNL A   1      46.530  25.314  26.199  1.00  0.00     0.031 C 
ATOM     45  C   UNL A   1      40.116  26.331  28.517  1.00  0.00     0.029 A 
ATOM     46  C   UNL A   1      41.010  27.485  28.600  1.00  0.00     0.049 A 
ATOM     47  H   UNL A   1      42.984  27.601  27.949  1.00  0.00     0.167 HD
ATOM     48  C   UNL A   1      47.159  27.673  26.617  1.00  0.00     0.037 A 
ATOM     49  C   UNL A   1      40.696  28.689  29.115  1.00  0.00     0.037 A 
ATOM     50  C   UNL A   1      46.889  29.011  27.076  1.00  0.00     0.049 A 
ATOM     51  C   UNL A   1      41.733  29.780  29.124  1.00  0.00     0.074 A 
ATOM     52  C   UNL A   1      47.726  30.112  27.064  1.00  0.00     0.029 A 
ATOM     53  N   UNL A   1      45.691  29.425  27.637  1.00  0.00    -0.354 N 
ATOM     54  N   UNL A   1      42.963  29.758  28.669  1.00  0.00    -0.248 NA
ATOM     55  C   UNL A   1      41.337  31.065  29.717  1.00  0.00     0.031 C 
ATOM     56  C   UNL A   1      47.050  31.182  27.661  1.00  0.00     0.029 A 
ATOM     57  C   UNL A   1      45.773  30.759  27.999  1.00  0.00     0.049 A 
ATOM     58  H   UNL A   1      44.898  28.854  27.762  1.00  0.00     0.167 HD
ATOM     59  C   UNL A   1      43.476  31.029  28.893  1.00  0.00     0.074 A 
ATOM     60  C   UNL A   1      42.421  31.801  29.515  1.00  0.00     0.031 C 
ATOM     61  C   UNL A   1      44.710  31.515  28.609  1.00  0.00     0.037 A 
BRANCH  48  62
ATOM     62  C   UNL A   1      48.525  27.366  26.080  1.00  0.00     0.057 A 
ATOM     63  C   UNL A   1      48.821  27.455  24.713  1.00  0.00     0.134 A 
ATOM     64  C   UNL A   1      49.566  27.004  26.943  1.00  0.00     0.134 A 
ATOM     65  F   UNL A   1      47.865  27.782  23.830  1.00  0.00    -0.206 F 
ATOM     66  C   UNL A   1      50.098  27.175  24.222  1.00  0.00     0.040 A 
ATOM     67  C   UNL A   1      50.853  26.746  26.468  1.00  0.00     0.040 A 
ATOM     68  F   UNL A   1      49.352  26.902  28.263  1.00  0.00    -0.206 F 
ATOM     69  C   UNL A   1      51.120  26.826  25.103  1.00  0.00     0.006 A 
ENDBRANCH  48  62
BRANCH  49  70
ATOM     70  C   UNL A   1      39.343  28.928  29.677  1.00  0.00     0.057 A 
ATOM     71  C   UNL A   1      39.058  28.662  31.021  1.00  0.00     0.134 A 
ATOM     72  C   UNL A   1      38.297  29.405  28.877  1.00  0.00     0.134 A 
ATOM     73  F   UNL A   1      40.012  28.181  31.831  1.00  0.00    -0.206 F 
ATOM     74  C   UNL A   1      37.777  28.846  31.546  1.00  0.00     0.040 A 
ATOM     75  C   UNL A   1      37.019  29.617  29.396  1.00  0.00     0.040 A 
ATOM     76  F   UNL A   1      38.506  29.679  27.581  1.00  0.00    -0.206 F 
ATOM     77  C   UNL A   1      36.755  29.330  30.733  1.00  0.00     0.006 A 
ENDBRANCH  49  70
BRANCH  61  78
ATOM     78  C   UNL A   1      44.973  32.957  28.931  1.00  0.00     0.057 A 
ATOM     79  C   UNL A   1      44.667  33.986  28.032  1.00  0.00     0.134 A 
ATOM     80  C   UNL A   1      45.502  33.323  30.176  1.00  0.00     0.134 A 
ATOM     81  F   UNL A   1      44.169  33.702  26.819  1.00  0.00    -0.206 F 
ATOM     82  C   UNL A   1      44.899  35.325  28.351  1.00  0.00     0.040 A 
ATOM     83  C   UNL A   1      45.714  34.659  30.516  1.00  0.00     0.040 A 
ATOM     84  F   UNL A   1      45.808  32.387  31.089  1.00  0.00    -0.206 F 
ATOM     85  C   UNL A   1      45.418  35.665  29.598  1.00  0.00     0.006 A 
ENDBRANCH  61  78
ENDBRANCH  35  36
ENDBRANCH  28  30
ENDBRANCH  27  28
ENDBRANCH  26  27
ENDBRANCH  25  26
ENDBRANCH  24  25
ENDBRANCH   1  24
TORSDOF 18
ENDMDL
MODEL 3
REMARK VINA RESULT:     -10.5      3.421      8.133
REMARK SMILES C[C@@H]1[C@@H](C(=O)OCCOCCOC(=O)c2ccc(-c3c4nc(c(-c5c(F)cccc5F)c5ccc([nH]5)c(-c5c(F)cccc5F)c5nc(c(-c6c(F)cccc6F)c6ccc3[nH]6)C=C5)C=C4)cc2)CCN1C(=O)N[C@@H](C)Cc1ccco1
REMARK SMILES IDX 8 1 7 2 6 3 4 4 5 5 3 6 1 7 2 8 71 9 69 10 70 11 72 12 73 13
REMARK SMILES IDX 74 14 75 16 76 17 77 18 78 19 79 20 82 21 80 22 81 23 9 24
REMARK SMILES IDX 10 25 11 26 12 27 13 28 14 29 15 30 16 31 68 32 17 33 67 34
REMARK SMILES IDX 18 35 19 36 20 37 61 38 21 39 66 40 60 41 62 42 22 43 65 44
REMARK SMILES IDX 59 45 58 46 23 48 49 49 32 50 48 51 33 52 36 53 47 54 63 55
REMARK SMILES IDX 34 56 35 57 46 59 64 60 37 61 24 62 25 63 30 64 26 65 27 66
REMARK SMILES IDX 29 67 31 68 28 69 50 70 51 71 56 72 52 73 53 74 55 75 57 76
REMARK SMILES IDX 54 77 38 78 39 79 44 80 40 81 41 82 43 83 45 84 42 85
REMARK H PARENT 74 15 62 47 36 58
REMARK Flexibility Score: inf
ROOT
ATOM      1  C   UNL A   1      32.478  28.810  27.160  1.00  0.00     0.202 C 
ENDROOT
BRANCH   1   2
ATOM      2  C   UNL A   1      31.530  27.623  26.961  1.00  0.00     0.261 C 
BRANCH   2   3
ATOM      3  O   UNL A   1      32.122  26.571  26.189  1.00  0.00    -0.463 OA
BRANCH   3   4
ATOM      4  C   UNL A   1      31.336  25.466  26.055  1.00  0.00     0.311 C 
ATOM      5  O   UNL A   1      30.201  25.368  26.501  1.00  0.00    -0.252 OA
BRANCH   4   6
ATOM      6  C   UNL A   1      32.054  24.378  25.271  1.00  0.00     0.123 C 
ATOM      7  C   UNL A   1      33.948  24.128  23.592  1.00  0.00     0.032 C 
ATOM      8  C   UNL A   1      32.800  25.017  24.089  1.00  0.00     0.098 C 
ATOM      9  N   UNL A   1      31.774  25.139  23.053  1.00  0.00    -0.321 N 
ATOM     10  C   UNL A   1      31.048  23.461  24.594  1.00  0.00     0.039 C 
ATOM     11  C   UNL A   1      30.652  24.249  23.350  1.00  0.00     0.122 C 
BRANCH   9  12
ATOM     12  C   UNL A   1      31.589  26.086  22.096  1.00  0.00     0.317 C 
ATOM     13  O   UNL A   1      32.076  25.954  20.967  1.00  0.00    -0.249 OA
ATOM     14  N   UNL A   1      30.874  27.208  22.281  1.00  0.00    -0.335 N 
ATOM     15  H   UNL A   1      30.740  27.691  21.434  1.00  0.00     0.165 HD
BRANCH  14  16
ATOM     16  C   UNL A   1      30.240  27.907  23.400  1.00  0.00     0.088 C 
ATOM     17  C   UNL A   1      31.010  29.206  23.652  1.00  0.00     0.031 C 
BRANCH  16  18
ATOM     18  C   UNL A   1      28.758  28.232  23.126  1.00  0.00     0.100 C 
BRANCH  18  19
ATOM     19  C   UNL A   1      28.522  29.639  22.713  1.00  0.00     0.105 A 
ATOM     20  C   UNL A   1      28.099  30.758  23.398  1.00  0.00     0.045 A 
ATOM     21  O   UNL A   1      28.713  29.937  21.397  1.00  0.00    -0.469 OA
ATOM     22  C   UNL A   1      28.028  31.803  22.450  1.00  0.00     0.042 A 
ATOM     23  C   UNL A   1      28.404  31.253  21.248  1.00  0.00     0.195 A 
ENDBRANCH  18  19
ENDBRANCH  16  18
ENDBRANCH  14  16
ENDBRANCH   9  12
ENDBRANCH   4   6
ENDBRANCH   3   4
ENDBRANCH   2   3
ENDBRANCH   1   2
BRANCH   1  24
ATOM     24  O   UNL A   1      31.960  30.125  27.000  1.00  0.00    -0.374 OA
BRANCH  24  25
ATOM     25  C   UNL A   1      32.811  31.241  27.247  1.00  0.00     0.202 C 
BRANCH  25  26
ATOM     26  C   UNL A   1      32.181  32.641  27.270  1.00  0.00     0.261 C 
BRANCH  26  27
ATOM     27  O   UNL A   1      33.149  33.704  27.199  1.00  0.00    -0.460 OA
BRANCH  27  28
ATOM     28  C   UNL A   1      33.280  34.430  28.335  1.00  0.00     0.338 C 
ATOM     29  O   UNL A   1      32.528  35.303  28.751  1.00  0.00    -0.246 OA
BRANCH  28  30
ATOM     30  C   UNL A   1      34.387  33.904  29.149  1.00  0.00     0.060 A 
ATOM     31  C   UNL A   1      35.696  34.204  28.751  1.00  0.00     0.016 A 
ATOM     32  C   UNL A   1      34.147  33.043  30.220  1.00  0.00     0.016 A 
ATOM     33  C   UNL A   1      36.776  33.619  29.406  1.00  0.00     0.010 A 
ATOM     34  C   UNL A   1      35.233  32.443  30.867  1.00  0.00     0.010 A 
ATOM     35  C   UNL A   1      36.548  32.705  30.442  1.00  0.00    -0.014 A 
BRANCH  35  36
ATOM     36  C   UNL A   1      37.680  31.912  30.973  1.00  0.00     0.031 A 
ATOM     37  C   UNL A   1      38.176  32.191  32.365  1.00  0.00     0.074 A 
ATOM     38  C   UNL A   1      38.239  30.935  30.237  1.00  0.00     0.049 A 
ATOM     39  N   UNL A   1      39.171  31.648  33.016  1.00  0.00    -0.248 NA
ATOM     40  C   UNL A   1      37.450  33.224  33.123  1.00  0.00     0.031 C 
ATOM     41  C   UNL A   1      37.815  30.543  28.894  1.00  0.00     0.029 A 
ATOM     42  N   UNL A   1      39.288  30.099  30.520  1.00  0.00    -0.354 N 
ATOM     43  C   UNL A   1      39.195  32.274  34.256  1.00  0.00     0.074 A 
ATOM     44  C   UNL A   1      38.135  33.257  34.256  1.00  0.00     0.031 C 
ATOM     45  C   UNL A   1      38.608  29.548  28.462  1.00  0.00     0.029 A 
ATOM     46  C   UNL A   1      39.611  29.256  29.485  1.00  0.00     0.049 A 
ATOM     47  H   UNL A   1      39.765  30.104  31.381  1.00  0.00     0.167 HD
ATOM     48  C   UNL A   1      40.022  32.042  35.303  1.00  0.00     0.037 A 
ATOM     49  C   UNL A   1      40.616  28.367  29.372  1.00  0.00     0.037 A 
ATOM     50  C   UNL A   1      41.076  31.062  35.300  1.00  0.00     0.049 A 
ATOM     51  C   UNL A   1      41.568  28.179  30.523  1.00  0.00     0.074 A 
ATOM     52  C   UNL A   1      41.960  30.741  36.315  1.00  0.00     0.029 A 
ATOM     53  N   UNL A   1      41.393  30.249  34.222  1.00  0.00    -0.354 N 
ATOM     54  N   UNL A   1      41.571  28.760  31.699  1.00  0.00    -0.248 NA
ATOM     55  C   UNL A   1      42.657  27.210  30.331  1.00  0.00     0.031 C 
ATOM     56  C   UNL A   1      42.842  29.767  35.836  1.00  0.00     0.029 A 
ATOM     57  C   UNL A   1      42.476  29.445  34.538  1.00  0.00     0.049 A 
ATOM     58  H   UNL A   1      40.920  30.245  33.358  1.00  0.00     0.167 HD
ATOM     59  C   UNL A   1      42.639  28.207  32.396  1.00  0.00     0.074 A 
ATOM     60  C   UNL A   1      43.254  27.237  31.514  1.00  0.00     0.031 C 
ATOM     61  C   UNL A   1      43.070  28.477  33.652  1.00  0.00     0.037 A 
BRANCH  48  62
ATOM     62  C   UNL A   1      39.835  32.883  36.531  1.00  0.00     0.057 A 
ATOM     63  C   UNL A   1      40.610  34.025  36.773  1.00  0.00     0.134 A 
ATOM     64  C   UNL A   1      38.847  32.562  37.471  1.00  0.00     0.134 A 
ATOM     65  F   UNL A   1      41.583  34.379  35.919  1.00  0.00    -0.206 F 
ATOM     66  C   UNL A   1      40.424  34.806  37.915  1.00  0.00     0.040 A 
ATOM     67  C   UNL A   1      38.634  33.349  38.604  1.00  0.00     0.040 A 
ATOM     68  F   UNL A   1      38.069  31.484  37.300  1.00  0.00    -0.206 F 
ATOM     69  C   UNL A   1      39.428  34.472  38.831  1.00  0.00     0.006 A 
ENDBRANCH  48  62
BRANCH  49  70
ATOM     70  C   UNL A   1      40.786  27.592  28.117  1.00  0.00     0.057 A 
ATOM     71  C   UNL A   1      40.201  26.331  27.958  1.00  0.00     0.134 A 
ATOM     72  C   UNL A   1      41.556  28.085  27.057  1.00  0.00     0.134 A 
ATOM     73  F   UNL A   1      39.472  25.795  28.947  1.00  0.00    -0.206 F 
ATOM     74  C   UNL A   1      40.390  25.580  26.796  1.00  0.00     0.040 A 
ATOM     75  C   UNL A   1      41.732  27.356  25.880  1.00  0.00     0.040 A 
ATOM     76  F   UNL A   1      42.143  29.288  27.147  1.00  0.00    -0.206 F 
ATOM     77  C   UNL A   1      41.153  26.095  25.751  1.00  0.00     0.006 A 
ENDBRANCH  49  70
BRANCH  61  78
ATOM     78  C   UNL A   1      44.239  27.686  34.163  1.00  0.00     0.057 A 
ATOM     79  C   UNL A   1      45.553  28.163  34.074  1.00  0.00     0.134 A 
ATOM     80  C   UNL A   1      44.041  26.448  34.790  1.00  0.00     0.134 A 
ATOM     81  F   UNL A   1      45.812  29.335  33.476  1.00  0.00    -0.206 F 
ATOM     82  C   UNL A   1      46.630  27.426  34.570  1.00  0.00     0.040 A 
ATOM     83  C   UNL A   1      45.107  25.715  35.313  1.00  0.00     0.040 A 
ATOM     84  F   UNL A   1      42.806  25.939  34.918  1.00  0.00    -0.206 F 
ATOM     85  C   UNL A   1      46.407  26.202  35.197  1.00  0.00     0.006 A 
ENDBRANCH  61  78
ENDBRANCH  35  36
ENDBRANCH  28  30
ENDBRANCH  27  28
ENDBRANCH  26  27
ENDBRANCH  25  26
ENDBRANCH  24  25
ENDBRANCH   1  24
TORSDOF 18
ENDMDL
