MODEL 1
REMARK VINA RESULT:     -10.9      0.000      0.000
REMARK SMILES O=C(/C=C/c1ccc(C(=O)NC2CC2)cc1)NC1(C(=O)OCCOCCOC(=O)c2ccc(-c3c4nc(c(-c5c(F)cccc5F)c5ccc([nH]5)c(-c5c(F)cccc5F)c5nc(c(-c6c(F)cccc6F)c6ccc3[nH]6)C=C5)C=C4)cc2)CCCC1
REMARK SMILES IDX 22 1 21 2 19 3 20 4 18 5 84 6 87 7 85 8 86 9 17 10 1 11 2 12
REMARK SMILES IDX 3 14 4 15 5 16 6 17 16 18 7 19 15 20 8 21 9 22 10 23 11 24
REMARK SMILES IDX 12 26 13 27 14 28 23 29 24 30 25 31 26 32 27 33 28 34 29 35
REMARK SMILES IDX 30 36 31 37 83 38 32 39 82 40 33 41 34 42 35 43 76 44 36 45
REMARK SMILES IDX 81 46 75 47 77 48 37 49 80 50 74 51 73 52 38 54 64 55 47 56
REMARK SMILES IDX 63 57 48 58 51 59 62 60 78 61 49 62 50 63 61 65 79 66 52 67
REMARK SMILES IDX 39 68 40 69 45 70 41 71 42 72 44 73 46 74 43 75 65 76 66 77
REMARK SMILES IDX 71 78 67 79 68 80 70 81 72 82 69 83 53 84 54 85 59 86 55 87
REMARK SMILES IDX 56 88 58 89 60 90 57 91
REMARK H PARENT 17 13 11 25 77 53 51 64
REMARK Flexibility Score: inf
ROOT
ATOM      1  C   UNL A   1      33.231  22.549  27.274  1.00  0.00     0.261 C 
ENDROOT
BRANCH   1   2
ATOM      2  O   UNL A   1      32.899  23.376  26.143  1.00  0.00    -0.461 OA
BRANCH   2   3
ATOM      3  C   UNL A   1      31.889  24.267  26.334  1.00  0.00     0.331 C 
ATOM      4  O   UNL A   1      31.059  24.198  27.238  1.00  0.00    -0.249 OA
BRANCH   3   5
ATOM      5  C   UNL A   1      31.872  25.407  25.286  1.00  0.00     0.138 C 
ATOM      6  C   UNL A   1      30.430  25.581  24.786  1.00  0.00     0.040 C 
ATOM      7  C   UNL A   1      32.627  25.158  23.970  1.00  0.00     0.040 C 
ATOM      8  C   UNL A   1      30.284  24.541  23.681  1.00  0.00     0.003 C 
ATOM      9  C   UNL A   1      31.663  24.418  23.046  1.00  0.00     0.003 C 
BRANCH   5  10
ATOM     10  N   UNL A   1      32.310  26.610  26.021  1.00  0.00    -0.337 N 
ATOM     11  O   UNL A   1      31.003  28.181  24.956  1.00  0.00    -0.270 OA
ATOM     12  C   UNL A   1      31.921  27.885  25.710  1.00  0.00     0.244 C 
ATOM     13  H   UNL A   1      32.919  26.489  26.785  1.00  0.00     0.164 HD
BRANCH  12  14
ATOM     14  C   UNL A   1      32.638  28.968  26.415  1.00  0.00     0.072 C 
ATOM     15  C   UNL A   1      32.394  30.280  26.267  1.00  0.00     0.014 C 
BRANCH  15  16
ATOM     16  C   UNL A   1      33.117  31.295  27.051  1.00  0.00    -0.025 A 
ATOM     17  C   UNL A   1      34.351  30.994  27.633  1.00  0.00     0.009 A 
ATOM     18  C   UNL A   1      32.585  32.572  27.257  1.00  0.00     0.009 A 
ATOM     19  C   UNL A   1      35.036  31.959  28.389  1.00  0.00     0.014 A 
ATOM     20  C   UNL A   1      33.279  33.539  27.992  1.00  0.00     0.014 A 
ATOM     21  C   UNL A   1      34.506  33.248  28.587  1.00  0.00     0.039 A 
BRANCH  21  22
ATOM     22  C   UNL A   1      35.316  34.206  29.404  1.00  0.00     0.251 C 
ATOM     23  O   UNL A   1      36.504  34.375  29.115  1.00  0.00    -0.269 OA
ATOM     24  N   UNL A   1      34.824  34.911  30.482  1.00  0.00    -0.349 N 
ATOM     25  H   UNL A   1      35.487  35.495  30.918  1.00  0.00     0.164 HD
BRANCH  24  26
ATOM     26  C   UNL A   1      33.537  34.946  31.080  1.00  0.00     0.082 C 
ATOM     27  C   UNL A   1      33.133  36.050  32.020  1.00  0.00     0.027 C 
ATOM     28  C   UNL A   1      32.528  35.979  30.653  1.00  0.00     0.027 C 
ENDBRANCH  24  26
ENDBRANCH  21  22
ENDBRANCH  15  16
ENDBRANCH  12  14
ENDBRANCH   5  10
ENDBRANCH   3   5
ENDBRANCH   2   3
ENDBRANCH   1   2
BRANCH   1  29
ATOM     29  C   UNL A   1      34.022  21.309  26.844  1.00  0.00     0.202 C 
BRANCH  29  30
ATOM     30  O   UNL A   1      35.375  21.529  26.443  1.00  0.00    -0.374 OA
BRANCH  30  31
ATOM     31  C   UNL A   1      35.740  21.105  25.129  1.00  0.00     0.202 C 
BRANCH  31  32
ATOM     32  C   UNL A   1      37.118  20.453  24.974  1.00  0.00     0.261 C 
BRANCH  32  33
ATOM     33  O   UNL A   1      38.186  21.419  25.018  1.00  0.00    -0.460 OA
BRANCH  33  34
ATOM     34  C   UNL A   1      39.205  21.092  25.843  1.00  0.00     0.338 C 
ATOM     35  O   UNL A   1      39.802  20.024  25.901  1.00  0.00    -0.246 OA
BRANCH  34  36
ATOM     36  C   UNL A   1      39.659  22.271  26.601  1.00  0.00     0.060 A 
ATOM     37  C   UNL A   1      39.114  23.507  26.234  1.00  0.00     0.016 A 
ATOM     38  C   UNL A   1      40.660  22.197  27.573  1.00  0.00     0.016 A 
ATOM     39  C   UNL A   1      39.618  24.681  26.785  1.00  0.00     0.010 A 
ATOM     40  C   UNL A   1      41.169  23.382  28.124  1.00  0.00     0.010 A 
ATOM     41  C   UNL A   1      40.680  24.631  27.700  1.00  0.00    -0.014 A 
BRANCH  41  42
ATOM     42  C   UNL A   1      41.344  25.902  28.079  1.00  0.00     0.031 A 
ATOM     43  C   UNL A   1      42.719  26.203  27.549  1.00  0.00     0.074 A 
ATOM     44  C   UNL A   1      40.689  26.825  28.806  1.00  0.00     0.049 A 
ATOM     45  N   UNL A   1      43.429  27.298  27.655  1.00  0.00    -0.248 NA
ATOM     46  C   UNL A   1      43.384  25.128  26.795  1.00  0.00     0.031 C 
ATOM     47  C   UNL A   1      39.347  26.666  29.361  1.00  0.00     0.029 A 
ATOM     48  N   UNL A   1      41.065  28.089  29.186  1.00  0.00    -0.354 N 
ATOM     49  C   UNL A   1      44.614  27.050  26.975  1.00  0.00     0.074 A 
ATOM     50  C   UNL A   1      44.547  25.686  26.495  1.00  0.00     0.031 C 
ATOM     51  C   UNL A   1      39.003  27.796  30.002  1.00  0.00     0.029 A 
ATOM     52  C   UNL A   1      40.106  28.752  29.912  1.00  0.00     0.049 A 
ATOM     53  H   UNL A   1      41.937  28.483  28.960  1.00  0.00     0.167 HD
ATOM     54  C   UNL A   1      45.658  27.885  26.755  1.00  0.00     0.037 A 
ATOM     55  C   UNL A   1      40.114  29.992  30.438  1.00  0.00     0.037 A 
ATOM     56  C   UNL A   1      45.730  29.243  27.230  1.00  0.00     0.049 A 
ATOM     57  C   UNL A   1      41.302  30.887  30.213  1.00  0.00     0.074 A 
ATOM     58  C   UNL A   1      46.740  30.171  27.041  1.00  0.00     0.029 A 
ATOM     59  N   UNL A   1      44.756  29.864  27.995  1.00  0.00    -0.354 N 
ATOM     60  N   UNL A   1      42.398  30.654  29.533  1.00  0.00    -0.248 NA
ATOM     61  C   UNL A   1      41.246  32.225  30.819  1.00  0.00     0.031 C 
ATOM     62  C   UNL A   1      46.393  31.341  27.727  1.00  0.00     0.029 A 
ATOM     63  C   UNL A   1      45.148  31.156  28.305  1.00  0.00     0.049 A 
ATOM     64  H   UNL A   1      43.908  29.448  28.277  1.00  0.00     0.167 HD
ATOM     65  C   UNL A   1      43.150  31.820  29.609  1.00  0.00     0.074 A 
ATOM     66  C   UNL A   1      42.376  32.766  30.386  1.00  0.00     0.031 C 
ATOM     67  C   UNL A   1      44.371  32.085  29.083  1.00  0.00     0.037 A 
BRANCH  54  68
ATOM     68  C   UNL A   1      46.817  27.345  25.972  1.00  0.00     0.057 A 
ATOM     69  C   UNL A   1      47.856  26.635  26.587  1.00  0.00     0.134 A 
ATOM     70  C   UNL A   1      46.879  27.509  24.582  1.00  0.00     0.134 A 
ATOM     71  F   UNL A   1      47.862  26.455  27.916  1.00  0.00    -0.206 F 
ATOM     72  C   UNL A   1      48.928  26.126  25.850  1.00  0.00     0.040 A 
ATOM     73  C   UNL A   1      47.934  26.985  23.833  1.00  0.00     0.040 A 
ATOM     74  F   UNL A   1      45.914  28.176  23.931  1.00  0.00    -0.206 F 
ATOM     75  C   UNL A   1      48.964  26.296  24.468  1.00  0.00     0.006 A 
ENDBRANCH  54  68
BRANCH  55  76
ATOM     76  C   UNL A   1      38.951  30.470  31.225  1.00  0.00     0.057 A 
ATOM     77  C   UNL A   1      37.952  31.257  30.640  1.00  0.00     0.134 A 
ATOM     78  C   UNL A   1      38.823  30.168  32.585  1.00  0.00     0.134 A 
ATOM     79  F   UNL A   1      38.033  31.599  29.346  1.00  0.00    -0.206 F 
ATOM     80  C   UNL A   1      36.876  31.742  31.385  1.00  0.00     0.040 A 
ATOM     81  C   UNL A   1      37.741  30.627  33.337  1.00  0.00     0.040 A 
ATOM     82  F   UNL A   1      39.747  29.416  33.202  1.00  0.00    -0.206 F 
ATOM     83  C   UNL A   1      36.767  31.423  32.737  1.00  0.00     0.006 A 
ENDBRANCH  55  76
BRANCH  67  84
ATOM     84  C   UNL A   1      44.930  33.459  29.313  1.00  0.00     0.057 A 
ATOM     85  C   UNL A   1      45.752  33.747  30.411  1.00  0.00     0.134 A 
ATOM     86  C   UNL A   1      44.652  34.503  28.422  1.00  0.00     0.134 A 
ATOM     87  F   UNL A   1      46.046  32.794  31.309  1.00  0.00    -0.206 F 
ATOM     88  C   UNL A   1      46.253  35.032  30.631  1.00  0.00     0.040 A 
ATOM     89  C   UNL A   1      45.168  35.786  28.617  1.00  0.00     0.040 A 
ATOM     90  F   UNL A   1      43.880  34.293  27.346  1.00  0.00    -0.206 F 
ATOM     91  C   UNL A   1      45.963  36.055  29.730  1.00  0.00     0.006 A 
ENDBRANCH  67  84
ENDBRANCH  41  42
ENDBRANCH  34  36
ENDBRANCH  33  34
ENDBRANCH  32  33
ENDBRANCH  31  32
ENDBRANCH  30  31
ENDBRANCH  29  30
ENDBRANCH   1  29
TORSDOF 19
ENDMDL
MODEL 2
REMARK VINA RESULT:     -10.9      3.791     10.322
REMARK SMILES O=C(/C=C/c1ccc(C(=O)NC2CC2)cc1)NC1(C(=O)OCCOCCOC(=O)c2ccc(-c3c4nc(c(-c5c(F)cccc5F)c5ccc([nH]5)c(-c5c(F)cccc5F)c5nc(c(-c6c(F)cccc6F)c6ccc3[nH]6)C=C5)C=C4)cc2)CCCC1
REMARK SMILES IDX 22 1 21 2 19 3 20 4 18 5 84 6 87 7 85 8 86 9 17 10 1 11 2 12
REMARK SMILES IDX 3 14 4 15 5 16 6 17 16 18 7 19 15 20 8 21 9 22 10 23 11 24
REMARK SMILES IDX 12 26 13 27 14 28 23 29 24 30 25 31 26 32 27 33 28 34 29 35
REMARK SMILES IDX 30 36 31 37 83 38 32 39 82 40 33 41 34 42 35 43 76 44 36 45
REMARK SMILES IDX 81 46 75 47 77 48 37 49 80 50 74 51 73 52 38 54 64 55 47 56
REMARK SMILES IDX 63 57 48 58 51 59 62 60 78 61 49 62 50 63 61 65 79 66 52 67
REMARK SMILES IDX 39 68 40 69 45 70 41 71 42 72 44 73 46 74 43 75 65 76 66 77
REMARK SMILES IDX 71 78 67 79 68 80 70 81 72 82 69 83 53 84 54 85 59 86 55 87
REMARK SMILES IDX 56 88 58 89 60 90 57 91
REMARK H PARENT 17 13 11 25 77 53 51 64
REMARK Flexibility Score: inf
ROOT
ATOM      1  C   UNL A   1      33.229  28.743  27.290  1.00  0.00     0.261 C 
ENDROOT
BRANCH   1   2
ATOM      2  O   UNL A   1      33.145  27.532  26.516  1.00  0.00    -0.461 OA
BRANCH   2   3
ATOM      3  C   UNL A   1      31.912  26.961  26.437  1.00  0.00     0.331 C 
ATOM      4  O   UNL A   1      31.007  27.140  27.248  1.00  0.00    -0.249 OA
BRANCH   3   5
ATOM      5  C   UNL A   1      31.742  26.040  25.203  1.00  0.00     0.138 C 
ATOM      6  C   UNL A   1      31.868  26.902  23.938  1.00  0.00     0.040 C 
ATOM      7  C   UNL A   1      30.363  25.392  25.000  1.00  0.00     0.040 C 
ATOM      8  C   UNL A   1      30.469  27.470  23.726  1.00  0.00     0.003 C 
ATOM      9  C   UNL A   1      29.509  26.408  24.245  1.00  0.00     0.003 C 
BRANCH   5  10
ATOM     10  N   UNL A   1      32.861  25.079  25.285  1.00  0.00    -0.337 N 
ATOM     11  O   UNL A   1      32.036  23.703  26.939  1.00  0.00    -0.270 OA
ATOM     12  C   UNL A   1      32.949  24.080  26.216  1.00  0.00     0.244 C 
ATOM     13  H   UNL A   1      33.588  25.161  24.627  1.00  0.00     0.164 HD
BRANCH  12  14
ATOM     14  C   UNL A   1      34.243  23.370  26.277  1.00  0.00     0.072 C 
ATOM     15  C   UNL A   1      35.068  23.177  25.235  1.00  0.00     0.014 C 
BRANCH  15  16
ATOM     16  C   UNL A   1      36.370  22.507  25.392  1.00  0.00    -0.025 A 
ATOM     17  C   UNL A   1      36.511  21.153  25.079  1.00  0.00     0.009 A 
ATOM     18  C   UNL A   1      37.488  23.192  25.879  1.00  0.00     0.009 A 
ATOM     19  C   UNL A   1      37.750  20.511  25.238  1.00  0.00     0.014 A 
ATOM     20  C   UNL A   1      38.726  22.556  26.016  1.00  0.00     0.014 A 
ATOM     21  C   UNL A   1      38.878  21.202  25.717  1.00  0.00     0.039 A 
BRANCH  21  22
ATOM     22  C   UNL A   1      40.155  20.430  25.845  1.00  0.00     0.251 C 
ATOM     23  O   UNL A   1      40.115  19.199  25.758  1.00  0.00    -0.269 OA
ATOM     24  N   UNL A   1      41.387  21.004  26.073  1.00  0.00    -0.349 N 
ATOM     25  H   UNL A   1      42.127  20.358  26.140  1.00  0.00     0.164 HD
BRANCH  24  26
ATOM     26  C   UNL A   1      41.782  22.359  26.233  1.00  0.00     0.082 C 
ATOM     27  C   UNL A   1      43.052  22.732  26.951  1.00  0.00     0.027 C 
ATOM     28  C   UNL A   1      42.959  22.903  25.468  1.00  0.00     0.027 C 
ENDBRANCH  24  26
ENDBRANCH  21  22
ENDBRANCH  15  16
ENDBRANCH  12  14
ENDBRANCH   5  10
ENDBRANCH   3   5
ENDBRANCH   2   3
ENDBRANCH   1   2
BRANCH   1  29
ATOM     29  C   UNL A   1      34.539  29.489  27.017  1.00  0.00     0.202 C 
BRANCH  29  30
ATOM     30  O   UNL A   1      34.565  30.873  27.369  1.00  0.00    -0.374 OA
BRANCH  30  31
ATOM     31  C   UNL A   1      33.309  31.501  27.628  1.00  0.00     0.202 C 
BRANCH  31  32
ATOM     32  C   UNL A   1      33.189  32.982  27.249  1.00  0.00     0.261 C 
BRANCH  32  33
ATOM     33  O   UNL A   1      32.358  33.714  28.170  1.00  0.00    -0.460 OA
BRANCH  33  34
ATOM     34  C   UNL A   1      32.941  34.811  28.702  1.00  0.00     0.338 C 
ATOM     35  O   UNL A   1      32.515  35.959  28.691  1.00  0.00    -0.246 OA
BRANCH  34  36
ATOM     36  C   UNL A   1      34.133  34.439  29.484  1.00  0.00     0.060 A 
ATOM     37  C   UNL A   1      35.378  34.671  28.888  1.00  0.00     0.016 A 
ATOM     38  C   UNL A   1      34.046  33.789  30.719  1.00  0.00     0.016 A 
ATOM     39  C   UNL A   1      36.538  34.191  29.490  1.00  0.00     0.010 A 
ATOM     40  C   UNL A   1      35.216  33.303  31.321  1.00  0.00     0.010 A 
ATOM     41  C   UNL A   1      36.461  33.465  30.688  1.00  0.00    -0.014 A 
BRANCH  41  42
ATOM     42  C   UNL A   1      37.681  32.770  31.168  1.00  0.00     0.031 A 
ATOM     43  C   UNL A   1      38.307  33.192  32.469  1.00  0.00     0.074 A 
ATOM     44  C   UNL A   1      38.169  31.707  30.503  1.00  0.00     0.049 A 
ATOM     45  N   UNL A   1      39.297  32.646  33.130  1.00  0.00    -0.248 NA
ATOM     46  C   UNL A   1      37.740  34.386  33.116  1.00  0.00     0.031 C 
ATOM     47  C   UNL A   1      37.642  31.184  29.244  1.00  0.00     0.029 A 
ATOM     48  N   UNL A   1      39.209  30.867  30.810  1.00  0.00    -0.354 N 
ATOM     49  C   UNL A   1      39.465  33.421  34.271  1.00  0.00     0.074 A 
ATOM     50  C   UNL A   1      38.502  34.499  34.194  1.00  0.00     0.031 C 
ATOM     51  C   UNL A   1      38.355  30.102  28.890  1.00  0.00     0.029 A 
ATOM     52  C   UNL A   1      39.395  29.865  29.890  1.00  0.00     0.049 A 
ATOM     53  H   UNL A   1      39.770  30.972  31.612  1.00  0.00     0.167 HD
ATOM     54  C   UNL A   1      40.329  33.244  35.298  1.00  0.00     0.037 A 
ATOM     55  C   UNL A   1      40.297  28.865  29.862  1.00  0.00     0.037 A 
ATOM     56  C   UNL A   1      41.289  32.173  35.381  1.00  0.00     0.049 A 
ATOM     57  C   UNL A   1      41.273  28.712  30.996  1.00  0.00     0.074 A 
ATOM     58  C   UNL A   1      42.194  31.902  36.392  1.00  0.00     0.029 A 
ATOM     59  N   UNL A   1      41.472  31.201  34.410  1.00  0.00    -0.354 N 
ATOM     60  N   UNL A   1      41.393  29.426  32.089  1.00  0.00    -0.248 NA
ATOM     61  C   UNL A   1      42.232  27.601  30.898  1.00  0.00     0.031 C 
ATOM     62  C   UNL A   1      42.953  30.788  36.013  1.00  0.00     0.029 A 
ATOM     63  C   UNL A   1      42.490  30.340  34.787  1.00  0.00     0.049 A 
ATOM     64  H   UNL A   1      40.954  31.132  33.575  1.00  0.00     0.167 HD
ATOM     65  C   UNL A   1      42.420  28.840  32.818  1.00  0.00     0.074 A 
ATOM     66  C   UNL A   1      42.878  27.699  32.051  1.00  0.00     0.031 C 
ATOM     67  C   UNL A   1      42.939  29.212  34.014  1.00  0.00     0.037 A 
BRANCH  54  68
ATOM     68  C   UNL A   1      40.282  34.242  36.416  1.00  0.00     0.057 A 
ATOM     69  C   UNL A   1      41.080  35.394  36.409  1.00  0.00     0.134 A 
ATOM     70  C   UNL A   1      39.409  34.067  37.496  1.00  0.00     0.134 A 
ATOM     71  F   UNL A   1      41.947  35.615  35.410  1.00  0.00    -0.206 F 
ATOM     72  C   UNL A   1      41.024  36.326  37.448  1.00  0.00     0.040 A 
ATOM     73  C   UNL A   1      39.329  35.002  38.529  1.00  0.00     0.040 A 
ATOM     74  F   UNL A   1      38.616  32.987  37.562  1.00  0.00    -0.206 F 
ATOM     75  C   UNL A   1      40.142  36.133  38.509  1.00  0.00     0.006 A 
ENDBRANCH  54  68
BRANCH  55  76
ATOM     76  C   UNL A   1      40.315  27.916  28.721  1.00  0.00     0.057 A 
ATOM     77  C   UNL A   1      39.607  26.710  28.767  1.00  0.00     0.134 A 
ATOM     78  C   UNL A   1      41.059  28.186  27.567  1.00  0.00     0.134 A 
ATOM     79  F   UNL A   1      38.895  26.386  29.856  1.00  0.00    -0.206 F 
ATOM     80  C   UNL A   1      39.653  25.797  27.713  1.00  0.00     0.040 A 
ATOM     81  C   UNL A   1      41.096  27.292  26.496  1.00  0.00     0.040 A 
ATOM     82  F   UNL A   1      41.759  29.325  27.462  1.00  0.00    -0.206 F 
ATOM     83  C   UNL A   1      40.396  26.089  26.571  1.00  0.00     0.006 A 
ENDBRANCH  55  76
BRANCH  67  84
ATOM     84  C   UNL A   1      44.043  28.363  34.573  1.00  0.00     0.057 A 
ATOM     85  C   UNL A   1      45.392  28.645  34.321  1.00  0.00     0.134 A 
ATOM     86  C   UNL A   1      43.754  27.256  35.382  1.00  0.00     0.134 A 
ATOM     87  F   UNL A   1      45.735  29.683  33.543  1.00  0.00    -0.206 F 
ATOM     88  C   UNL A   1      46.413  27.839  34.828  1.00  0.00     0.040 A 
ATOM     89  C   UNL A   1      44.767  26.458  35.915  1.00  0.00     0.040 A 
ATOM     90  F   UNL A   1      42.484  26.936  35.670  1.00  0.00    -0.206 F 
ATOM     91  C   UNL A   1      46.101  26.743  35.630  1.00  0.00     0.006 A 
ENDBRANCH  67  84
ENDBRANCH  41  42
ENDBRANCH  34  36
ENDBRANCH  33  34
ENDBRANCH  32  33
ENDBRANCH  31  32
ENDBRANCH  30  31
ENDBRANCH  29  30
ENDBRANCH   1  29
TORSDOF 19
ENDMDL
MODEL 3
REMARK VINA RESULT:     -10.5      4.111      9.926
REMARK SMILES O=C(/C=C/c1ccc(C(=O)NC2CC2)cc1)NC1(C(=O)OCCOCCOC(=O)c2ccc(-c3c4nc(c(-c5c(F)cccc5F)c5ccc([nH]5)c(-c5c(F)cccc5F)c5nc(c(-c6c(F)cccc6F)c6ccc3[nH]6)C=C5)C=C4)cc2)CCCC1
REMARK SMILES IDX 22 1 21 2 19 3 20 4 18 5 84 6 87 7 85 8 86 9 17 10 1 11 2 12
REMARK SMILES IDX 3 14 4 15 5 16 6 17 16 18 7 19 15 20 8 21 9 22 10 23 11 24
REMARK SMILES IDX 12 26 13 27 14 28 23 29 24 30 25 31 26 32 27 33 28 34 29 35
REMARK SMILES IDX 30 36 31 37 83 38 32 39 82 40 33 41 34 42 35 43 76 44 36 45
REMARK SMILES IDX 81 46 75 47 77 48 37 49 80 50 74 51 73 52 38 54 64 55 47 56
REMARK SMILES IDX 63 57 48 58 51 59 62 60 78 61 49 62 50 63 61 65 79 66 52 67
REMARK SMILES IDX 39 68 40 69 45 70 41 71 42 72 44 73 46 74 43 75 65 76 66 77
REMARK SMILES IDX 71 78 67 79 68 80 70 81 72 82 69 83 53 84 54 85 59 86 55 87
REMARK SMILES IDX 56 88 58 89 60 90 57 91
REMARK H PARENT 17 13 11 25 77 53 51 64
REMARK Flexibility Score: inf
ROOT
ATOM      1  C   UNL A   1      37.018  34.074  29.514  1.00  0.00     0.261 C 
ENDROOT
BRANCH   1   2
ATOM      2  O   UNL A   1      37.794  33.346  30.485  1.00  0.00    -0.461 OA
BRANCH   2   3
ATOM      3  C   UNL A   1      37.557  33.656  31.788  1.00  0.00     0.331 C 
ATOM      4  O   UNL A   1      37.765  34.757  32.293  1.00  0.00    -0.249 OA
BRANCH   3   5
ATOM      5  C   UNL A   1      36.988  32.469  32.606  1.00  0.00     0.138 C 
ATOM      6  C   UNL A   1      35.841  31.838  31.802  1.00  0.00     0.040 C 
ATOM      7  C   UNL A   1      36.287  32.808  33.931  1.00  0.00     0.040 C 
ATOM      8  C   UNL A   1      34.622  32.685  32.152  1.00  0.00     0.003 C 
ATOM      9  C   UNL A   1      34.839  33.146  33.587  1.00  0.00     0.003 C 
BRANCH   5  10
ATOM     10  N   UNL A   1      38.111  31.519  32.734  1.00  0.00    -0.337 N 
ATOM     11  O   UNL A   1      36.907  29.576  33.024  1.00  0.00    -0.270 OA
ATOM     12  C   UNL A   1      37.963  30.193  33.043  1.00  0.00     0.244 C 
ATOM     13  H   UNL A   1      39.022  31.858  32.587  1.00  0.00     0.164 HD
BRANCH  12  14
ATOM     14  C   UNL A   1      39.210  29.461  33.346  1.00  0.00     0.072 C 
ATOM     15  C   UNL A   1      40.208  29.922  34.117  1.00  0.00     0.014 C 
BRANCH  15  16
ATOM     16  C   UNL A   1      41.395  29.104  34.417  1.00  0.00    -0.025 A 
ATOM     17  C   UNL A   1      42.132  28.520  33.384  1.00  0.00     0.009 A 
ATOM     18  C   UNL A   1      41.803  28.867  35.734  1.00  0.00     0.009 A 
ATOM     19  C   UNL A   1      43.259  27.733  33.671  1.00  0.00     0.014 A 
ATOM     20  C   UNL A   1      42.938  28.100  36.016  1.00  0.00     0.014 A 
ATOM     21  C   UNL A   1      43.677  27.503  34.995  1.00  0.00     0.039 A 
BRANCH  21  22
ATOM     22  C   UNL A   1      44.893  26.654  35.195  1.00  0.00     0.251 C 
ATOM     23  O   UNL A   1      46.005  27.182  35.116  1.00  0.00    -0.269 OA
ATOM     24  N   UNL A   1      44.857  25.299  35.450  1.00  0.00    -0.349 N 
ATOM     25  H   UNL A   1      45.744  24.884  35.550  1.00  0.00     0.164 HD
BRANCH  24  26
ATOM     26  C   UNL A   1      43.773  24.393  35.593  1.00  0.00     0.082 C 
ATOM     27  C   UNL A   1      43.126  23.742  34.400  1.00  0.00     0.027 C 
ATOM     28  C   UNL A   1      43.968  22.925  35.328  1.00  0.00     0.027 C 
ENDBRANCH  24  26
ENDBRANCH  21  22
ENDBRANCH  15  16
ENDBRANCH  12  14
ENDBRANCH   5  10
ENDBRANCH   3   5
ENDBRANCH   2   3
ENDBRANCH   1   2
BRANCH   1  29
ATOM     29  C   UNL A   1      36.838  33.266  28.225  1.00  0.00     0.202 C 
BRANCH  29  30
ATOM     30  O   UNL A   1      35.563  33.362  27.589  1.00  0.00    -0.374 OA
BRANCH  30  31
ATOM     31  C   UNL A   1      34.415  33.081  28.391  1.00  0.00     0.202 C 
BRANCH  31  32
ATOM     32  C   UNL A   1      33.618  31.821  28.034  1.00  0.00     0.261 C 
BRANCH  32  33
ATOM     33  O   UNL A   1      34.339  30.959  27.134  1.00  0.00    -0.460 OA
BRANCH  33  34
ATOM     34  C   UNL A   1      34.647  29.746  27.645  1.00  0.00     0.338 C 
ATOM     35  O   UNL A   1      33.955  28.735  27.633  1.00  0.00    -0.246 OA
BRANCH  34  36
ATOM     36  C   UNL A   1      36.047  29.715  28.103  1.00  0.00     0.060 A 
ATOM     37  C   UNL A   1      37.027  30.054  27.163  1.00  0.00     0.016 A 
ATOM     38  C   UNL A   1      36.410  29.272  29.378  1.00  0.00     0.016 A 
ATOM     39  C   UNL A   1      38.374  29.884  27.469  1.00  0.00     0.010 A 
ATOM     40  C   UNL A   1      37.767  29.098  29.683  1.00  0.00     0.010 A 
ATOM     41  C   UNL A   1      38.753  29.362  28.714  1.00  0.00    -0.014 A 
BRANCH  41  42
ATOM     42  C   UNL A   1      40.171  28.973  28.913  1.00  0.00     0.031 A 
ATOM     43  C   UNL A   1      41.084  29.883  29.689  1.00  0.00     0.074 A 
ATOM     44  C   UNL A   1      40.616  27.775  28.493  1.00  0.00     0.049 A 
ATOM     45  N   UNL A   1      42.318  29.683  30.081  1.00  0.00    -0.248 NA
ATOM     46  C   UNL A   1      40.535  31.190  30.080  1.00  0.00     0.031 C 
ATOM     47  C   UNL A   1      39.827  26.795  27.749  1.00  0.00     0.029 A 
ATOM     48  N   UNL A   1      41.840  27.176  28.650  1.00  0.00    -0.354 N 
ATOM     49  C   UNL A   1      42.687  30.830  30.772  1.00  0.00     0.074 A 
ATOM     50  C   UNL A   1      41.562  31.740  30.710  1.00  0.00     0.031 C 
ATOM     51  C   UNL A   1      40.584  25.708  27.525  1.00  0.00     0.029 A 
ATOM     52  C   UNL A   1      41.913  25.922  28.097  1.00  0.00     0.049 A 
ATOM     53  H   UNL A   1      42.595  27.604  29.115  1.00  0.00     0.167 HD
ATOM     54  C   UNL A   1      43.849  31.098  31.413  1.00  0.00     0.037 A 
ATOM     55  C   UNL A   1      42.932  25.042  28.063  1.00  0.00     0.037 A 
ATOM     56  C   UNL A   1      44.972  30.198  31.477  1.00  0.00     0.049 A 
ATOM     57  C   UNL A   1      44.228  25.379  28.750  1.00  0.00     0.074 A 
ATOM     58  C   UNL A   1      46.185  30.375  32.119  1.00  0.00     0.029 A 
ATOM     59  N   UNL A   1      45.019  28.952  30.871  1.00  0.00    -0.354 N 
ATOM     60  N   UNL A   1      44.549  26.450  29.434  1.00  0.00    -0.248 NA
ATOM     61  C   UNL A   1      45.299  24.375  28.669  1.00  0.00     0.031 C 
ATOM     62  C   UNL A   1      46.982  29.252  31.867  1.00  0.00     0.029 A 
ATOM     63  C   UNL A   1      46.249  28.358  31.105  1.00  0.00     0.049 A 
ATOM     64  H   UNL A   1      44.287  28.548  30.350  1.00  0.00     0.167 HD
ATOM     65  C   UNL A   1      45.846  26.240  29.886  1.00  0.00     0.074 A 
ATOM     66  C   UNL A   1      46.246  24.931  29.411  1.00  0.00     0.031 C 
ATOM     67  C   UNL A   1      46.636  27.057  30.624  1.00  0.00     0.037 A 
BRANCH  54  68
ATOM     68  C   UNL A   1      43.970  32.431  32.089  1.00  0.00     0.057 A 
ATOM     69  C   UNL A   1      43.698  32.593  33.453  1.00  0.00     0.134 A 
ATOM     70  C   UNL A   1      44.392  33.559  31.375  1.00  0.00     0.134 A 
ATOM     71  F   UNL A   1      43.278  31.555  34.191  1.00  0.00    -0.206 F 
ATOM     72  C   UNL A   1      43.822  33.836  34.080  1.00  0.00     0.040 A 
ATOM     73  C   UNL A   1      44.541  34.801  31.995  1.00  0.00     0.040 A 
ATOM     74  F   UNL A   1      44.671  33.472  30.066  1.00  0.00    -0.206 F 
ATOM     75  C   UNL A   1      44.251  34.942  33.350  1.00  0.00     0.006 A 
ENDBRANCH  54  68
BRANCH  55  76
ATOM     76  C   UNL A   1      42.768  23.745  27.361  1.00  0.00     0.057 A 
ATOM     77  C   UNL A   1      42.989  23.631  25.984  1.00  0.00     0.134 A 
ATOM     78  C   UNL A   1      42.366  22.595  28.050  1.00  0.00     0.134 A 
ATOM     79  F   UNL A   1      43.353  24.704  25.267  1.00  0.00    -0.206 F 
ATOM     80  C   UNL A   1      42.798  22.422  25.313  1.00  0.00     0.040 A 
ATOM     81  C   UNL A   1      42.193  21.375  27.395  1.00  0.00     0.040 A 
ATOM     82  F   UNL A   1      42.140  22.641  29.371  1.00  0.00    -0.206 F 
ATOM     83  C   UNL A   1      42.404  21.289  26.021  1.00  0.00     0.006 A 
ENDBRANCH  55  76
BRANCH  67  84
ATOM     84  C   UNL A   1      48.001  26.546  30.983  1.00  0.00     0.057 A 
ATOM     85  C   UNL A   1      48.215  25.739  32.108  1.00  0.00     0.134 A 
ATOM     86  C   UNL A   1      49.112  26.856  30.189  1.00  0.00     0.134 A 
ATOM     87  F   UNL A   1      47.194  25.416  32.917  1.00  0.00    -0.206 F 
ATOM     88  C   UNL A   1      49.490  25.283  32.448  1.00  0.00     0.040 A 
ATOM     89  C   UNL A   1      50.388  26.385  30.504  1.00  0.00     0.040 A 
ATOM     90  F   UNL A   1      48.976  27.616  29.093  1.00  0.00    -0.206 F 
ATOM     91  C   UNL A   1      50.581  25.605  31.643  1.00  0.00     0.006 A 
ENDBRANCH  67  84
ENDBRANCH  41  42
ENDBRANCH  34  36
ENDBRANCH  33  34
ENDBRANCH  32  33
ENDBRANCH  31  32
ENDBRANCH  30  31
ENDBRANCH  29  30
ENDBRANCH   1  29
TORSDOF 19
ENDMDL
