MODEL 1
REMARK VINA RESULT:     -12.5      0.000      0.000
REMARK SMILES O=C(OCCOCCOC(=O)c1ccc(-c2c3nc(c(-c4c(F)cccc4F)c4ccc([nH]4)c(-c4c(F)cccc4F)c4nc(c(-c5c(F)cccc5F)c5ccc2[nH]5)C=C4)C=C3)cc1)C1=Cc2cc(S(F)(F)(F)(F)F)cc(Br)c2O[C@@H]1C(F)(F)F
REMARK SMILES IDX 7 1 6 2 5 3 4 4 3 5 2 6 1 7 66 8 67 9 82 10 68 11 81 12
REMARK SMILES IDX 69 13 80 14 70 15 78 16 77 17 79 18 83 19 84 20 85 21 86 22
REMARK SMILES IDX 71 23 72 24 73 25 74 26 75 27 76 28 8 29 9 30 10 31 11 32
REMARK SMILES IDX 12 33 13 34 65 35 14 36 64 37 15 38 16 39 17 40 58 41 18 42
REMARK SMILES IDX 63 43 57 44 59 45 19 46 62 47 56 48 55 49 20 51 46 52 29 53
REMARK SMILES IDX 45 54 30 55 33 56 44 57 60 58 31 59 32 60 43 62 61 63 34 64
REMARK SMILES IDX 21 65 22 66 27 67 23 68 24 69 26 70 28 71 25 72 47 73 48 74
REMARK SMILES IDX 53 75 49 76 50 77 52 78 54 79 51 80 35 81 36 82 41 83 37 84
REMARK SMILES IDX 38 85 40 86 42 87 39 88
REMARK H PARENT 59 50 33 61
REMARK Flexibility Score: inf
ROOT
ATOM      1  C   UNL A   1      38.141  19.718  25.081  1.00  0.00     0.202 C 
ENDROOT
BRANCH   1   2
ATOM      2  O   UNL A   1      37.232  20.771  25.365  1.00  0.00    -0.374 OA
BRANCH   2   3
ATOM      3  C   UNL A   1      37.778  22.001  24.913  1.00  0.00     0.202 C 
BRANCH   3   4
ATOM      4  C   UNL A   1      37.000  23.156  25.524  1.00  0.00     0.261 C 
BRANCH   4   5
ATOM      5  O   UNL A   1      36.230  23.793  24.516  1.00  0.00    -0.460 OA
BRANCH   5   6
ATOM      6  C   UNL A   1      35.256  23.053  23.793  1.00  0.00     0.338 C 
ATOM      7  O   UNL A   1      35.341  22.958  22.528  1.00  0.00    -0.246 OA
BRANCH   6   8
ATOM      8  C   UNL A   1      34.114  22.375  24.531  1.00  0.00     0.087 C 
ATOM      9  C   UNL A   1      33.176  23.125  25.169  1.00  0.00     0.027 C 
ATOM     10  C   UNL A   1      34.021  20.858  24.557  1.00  0.00     0.316 C 
ATOM     11  C   UNL A   1      33.269  24.642  25.142  1.00  0.00     0.020 A 
ATOM     12  O   UNL A   1      34.015  24.395  22.900  1.00  0.00    -0.474 OA
ATOM     13  C   UNL A   1      32.954  25.413  26.250  1.00  0.00     0.036 A 
ATOM     14  C   UNL A   1      33.542  25.201  23.969  1.00  0.00     0.142 A 
ATOM     15  C   UNL A   1      32.670  26.764  25.945  1.00  0.00     0.109 A 
ATOM     16  C   UNL A   1      33.370  26.551  23.780  1.00  0.00     0.062 A 
ATOM     17  C   UNL A   1      33.003  27.364  24.816  1.00  0.00     0.044 A 
ATOM     18  Br  UNL A   1      33.655  27.321  22.001  1.00  0.00    -0.047 Br
BRANCH  10  19
ATOM     19  C   UNL A   1      32.709  20.420  23.925  1.00  0.00     0.430 C 
ATOM     20  F   UNL A   1      32.808  19.153  23.533  1.00  0.00    -0.167 F 
ATOM     21  F   UNL A   1      31.728  20.534  24.815  1.00  0.00    -0.167 F 
ATOM     22  F   UNL A   1      32.445  21.191  22.873  1.00  0.00    -0.167 F 
ENDBRANCH  10  19
BRANCH  15  23
ATOM     23  S   UNL A   1      31.786  27.740  27.187  1.00  0.00     0.310 S 
ATOM     24  F   UNL A   1      31.445  28.884  26.142  1.00  0.00    -0.094 F 
ATOM     25  F   UNL A   1      33.127  28.511  27.489  1.00  0.00    -0.094 F 
ATOM     26  F   UNL A   1      31.031  28.578  28.258  1.00  0.00    -0.094 F 
ATOM     27  F   UNL A   1      30.423  27.057  26.773  1.00  0.00    -0.094 F 
ATOM     28  F   UNL A   1      32.514  26.963  26.020  1.00  0.00    -0.094 F 
ENDBRANCH  15  23
ENDBRANCH   6   8
ENDBRANCH   5   6
ENDBRANCH   4   5
ENDBRANCH   3   4
ENDBRANCH   2   3
ENDBRANCH   1   2
BRANCH   1  29
ATOM     29  C   UNL A   1      39.461  19.983  25.786  1.00  0.00     0.261 C 
BRANCH  29  30
ATOM     30  O   UNL A   1      40.276  18.821  25.716  1.00  0.00    -0.460 OA
BRANCH  30  31
ATOM     31  C   UNL A   1      41.673  18.920  25.950  1.00  0.00     0.338 C 
ATOM     32  O   UNL A   1      42.424  17.915  25.748  1.00  0.00    -0.246 OA
BRANCH  31  33
ATOM     33  C   UNL A   1      42.270  20.228  26.442  1.00  0.00     0.060 A 
ATOM     34  C   UNL A   1      42.150  20.608  27.769  1.00  0.00     0.016 A 
ATOM     35  C   UNL A   1      42.752  21.063  25.528  1.00  0.00     0.016 A 
ATOM     36  C   UNL A   1      42.299  21.999  27.985  1.00  0.00     0.010 A 
ATOM     37  C   UNL A   1      43.003  22.377  25.844  1.00  0.00     0.010 A 
ATOM     38  C   UNL A   1      42.849  22.834  27.123  1.00  0.00    -0.014 A 
BRANCH  38  39
ATOM     39  C   UNL A   1      43.288  24.231  27.533  1.00  0.00     0.031 A 
ATOM     40  C   UNL A   1      44.653  24.491  27.390  1.00  0.00     0.074 A 
ATOM     41  C   UNL A   1      42.349  25.191  27.866  1.00  0.00     0.049 A 
ATOM     42  N   UNL A   1      45.273  25.665  27.509  1.00  0.00    -0.248 NA
ATOM     43  C   UNL A   1      45.657  23.466  27.071  1.00  0.00     0.031 C 
ATOM     44  C   UNL A   1      40.969  24.938  28.003  1.00  0.00     0.029 A 
ATOM     45  N   UNL A   1      42.560  26.528  28.120  1.00  0.00    -0.354 N 
ATOM     46  C   UNL A   1      46.582  25.519  27.283  1.00  0.00     0.074 A 
ATOM     47  C   UNL A   1      46.848  24.102  27.005  1.00  0.00     0.031 C 
ATOM     48  C   UNL A   1      40.360  26.104  28.346  1.00  0.00     0.029 A 
ATOM     49  C   UNL A   1      41.347  27.104  28.428  1.00  0.00     0.049 A 
ATOM     50  H   UNL A   1      43.427  26.992  28.087  1.00  0.00     0.167 HD
ATOM     51  C   UNL A   1      47.561  26.514  27.297  1.00  0.00     0.037 A 
ATOM     52  C   UNL A   1      41.096  28.425  28.767  1.00  0.00     0.037 A 
ATOM     53  C   UNL A   1      47.303  27.843  27.593  1.00  0.00     0.049 A 
ATOM     54  C   UNL A   1      42.086  29.407  28.837  1.00  0.00     0.074 A 
ATOM     55  C   UNL A   1      48.278  28.859  27.604  1.00  0.00     0.029 A 
ATOM     56  N   UNL A   1      46.095  28.413  27.925  1.00  0.00    -0.354 N 
ATOM     57  N   UNL A   1      43.386  29.270  28.573  1.00  0.00    -0.248 NA
ATOM     58  C   UNL A   1      41.837  30.802  29.226  1.00  0.00     0.031 C 
ATOM     59  C   UNL A   1      47.668  30.024  27.947  1.00  0.00     0.029 A 
ATOM     60  C   UNL A   1      46.302  29.756  28.157  1.00  0.00     0.049 A 
ATOM     61  H   UNL A   1      45.231  27.944  27.987  1.00  0.00     0.167 HD
ATOM     62  C   UNL A   1      44.014  30.437  28.732  1.00  0.00     0.074 A 
ATOM     63  C   UNL A   1      43.027  31.438  29.162  1.00  0.00     0.031 C 
ATOM     64  C   UNL A   1      45.368  30.708  28.533  1.00  0.00     0.037 A 
BRANCH  51  65
ATOM     65  C   UNL A   1      48.990  26.116  26.969  1.00  0.00     0.057 A 
ATOM     66  C   UNL A   1      49.857  25.691  27.962  1.00  0.00     0.134 A 
ATOM     67  C   UNL A   1      49.384  26.205  25.704  1.00  0.00     0.134 A 
ATOM     68  F   UNL A   1      49.450  25.346  29.181  1.00  0.00    -0.206 F 
ATOM     69  C   UNL A   1      51.214  25.657  27.564  1.00  0.00     0.040 A 
ATOM     70  C   UNL A   1      50.705  26.027  25.368  1.00  0.00     0.040 A 
ATOM     71  F   UNL A   1      48.493  26.470  24.754  1.00  0.00    -0.206 F 
ATOM     72  C   UNL A   1      51.628  25.663  26.310  1.00  0.00     0.006 A 
ENDBRANCH  51  65
BRANCH  52  73
ATOM     73  C   UNL A   1      39.663  28.825  29.078  1.00  0.00     0.057 A 
ATOM     74  C   UNL A   1      39.245  28.786  30.397  1.00  0.00     0.134 A 
ATOM     75  C   UNL A   1      38.842  29.207  28.106  1.00  0.00     0.134 A 
ATOM     76  F   UNL A   1      40.085  28.658  31.421  1.00  0.00    -0.206 F 
ATOM     77  C   UNL A   1      37.844  28.892  30.558  1.00  0.00     0.040 A 
ATOM     78  C   UNL A   1      37.510  29.426  28.362  1.00  0.00     0.040 A 
ATOM     79  F   UNL A   1      39.314  29.379  26.875  1.00  0.00    -0.206 F 
ATOM     80  C   UNL A   1      37.016  29.346  29.634  1.00  0.00     0.006 A 
ENDBRANCH  52  73
BRANCH  64  81
ATOM     81  C   UNL A   1      45.848  32.136  28.740  1.00  0.00     0.057 A 
ATOM     82  C   UNL A   1      45.854  33.049  27.698  1.00  0.00     0.134 A 
ATOM     83  C   UNL A   1      46.369  32.438  29.923  1.00  0.00     0.134 A 
ATOM     84  F   UNL A   1      45.131  32.893  26.593  1.00  0.00    -0.206 F 
ATOM     85  C   UNL A   1      46.700  34.162  27.917  1.00  0.00     0.040 A 
ATOM     86  C   UNL A   1      47.068  33.607  30.102  1.00  0.00     0.040 A 
ATOM     87  F   UNL A   1      46.214  31.600  30.945  1.00  0.00    -0.206 F 
ATOM     88  C   UNL A   1      47.165  34.529  29.097  1.00  0.00     0.006 A 
ENDBRANCH  64  81
ENDBRANCH  38  39
ENDBRANCH  31  33
ENDBRANCH  30  31
ENDBRANCH  29  30
ENDBRANCH   1  29
TORSDOF 16
ENDMDL
MODEL 2
REMARK VINA RESULT:     -12.4      5.163      8.732
REMARK SMILES O=C(OCCOCCOC(=O)c1ccc(-c2c3nc(c(-c4c(F)cccc4F)c4ccc([nH]4)c(-c4c(F)cccc4F)c4nc(c(-c5c(F)cccc5F)c5ccc2[nH]5)C=C4)C=C3)cc1)C1=Cc2cc(S(F)(F)(F)(F)F)cc(Br)c2O[C@@H]1C(F)(F)F
REMARK SMILES IDX 7 1 6 2 5 3 4 4 3 5 2 6 1 7 66 8 67 9 82 10 68 11 81 12
REMARK SMILES IDX 69 13 80 14 70 15 78 16 77 17 79 18 83 19 84 20 85 21 86 22
REMARK SMILES IDX 71 23 72 24 73 25 74 26 75 27 76 28 8 29 9 30 10 31 11 32
REMARK SMILES IDX 12 33 13 34 65 35 14 36 64 37 15 38 16 39 17 40 58 41 18 42
REMARK SMILES IDX 63 43 57 44 59 45 19 46 62 47 56 48 55 49 20 51 46 52 29 53
REMARK SMILES IDX 45 54 30 55 33 56 44 57 60 58 31 59 32 60 43 62 61 63 34 64
REMARK SMILES IDX 21 65 22 66 27 67 23 68 24 69 26 70 28 71 25 72 47 73 48 74
REMARK SMILES IDX 53 75 49 76 50 77 52 78 54 79 51 80 35 81 36 82 41 83 37 84
REMARK SMILES IDX 38 85 40 86 42 87 39 88
REMARK H PARENT 59 50 33 61
REMARK Flexibility Score: inf
ROOT
ATOM      1  C   UNL A   1      36.441  23.124  25.470  1.00  0.00     0.202 C 
ENDROOT
BRANCH   1   2
ATOM      2  O   UNL A   1      35.538  23.175  26.564  1.00  0.00    -0.374 OA
BRANCH   2   3
ATOM      3  C   UNL A   1      34.971  21.890  26.770  1.00  0.00     0.202 C 
BRANCH   3   4
ATOM      4  C   UNL A   1      33.611  22.036  27.434  1.00  0.00     0.261 C 
BRANCH   4   5
ATOM      5  O   UNL A   1      33.079  23.319  27.142  1.00  0.00    -0.460 OA
BRANCH   5   6
ATOM      6  C   UNL A   1      31.799  23.436  26.536  1.00  0.00     0.338 C 
ATOM      7  O   UNL A   1      30.839  23.966  27.178  1.00  0.00    -0.246 OA
BRANCH   6   8
ATOM      8  C   UNL A   1      31.580  22.928  25.121  1.00  0.00     0.087 C 
ATOM      9  C   UNL A   1      31.228  23.795  24.134  1.00  0.00     0.027 C 
ATOM     10  C   UNL A   1      31.755  21.451  24.809  1.00  0.00     0.316 C 
ATOM     11  C   UNL A   1      31.054  25.272  24.446  1.00  0.00     0.020 A 
ATOM     12  O   UNL A   1      32.913  25.017  25.904  1.00  0.00    -0.474 OA
ATOM     13  C   UNL A   1      30.046  26.027  23.869  1.00  0.00     0.036 A 
ATOM     14  C   UNL A   1      31.992  25.835  25.199  1.00  0.00     0.142 A 
ATOM     15  C   UNL A   1      30.281  27.422  23.910  1.00  0.00     0.109 A 
ATOM     16  C   UNL A   1      32.079  27.203  25.302  1.00  0.00     0.062 A 
ATOM     17  C   UNL A   1      31.151  28.012  24.708  1.00  0.00     0.044 A 
ATOM     18  Br  UNL A   1      33.555  28.003  26.313  1.00  0.00    -0.047 Br
BRANCH  10  19
ATOM     19  C   UNL A   1      32.845  21.279  23.763  1.00  0.00     0.430 C 
ATOM     20  F   UNL A   1      33.657  22.332  23.793  1.00  0.00    -0.167 F 
ATOM     21  F   UNL A   1      33.540  20.175  24.024  1.00  0.00    -0.167 F 
ATOM     22  F   UNL A   1      32.292  21.180  22.557  1.00  0.00    -0.167 F 
ENDBRANCH  10  19
BRANCH  15  23
ATOM     23  S   UNL A   1      29.321  28.470  22.789  1.00  0.00     0.310 S 
ATOM     24  F   UNL A   1      29.441  29.724  23.752  1.00  0.00    -0.094 F 
ATOM     25  F   UNL A   1      28.019  28.072  23.581  1.00  0.00    -0.094 F 
ATOM     26  F   UNL A   1      28.493  29.367  21.825  1.00  0.00    -0.094 F 
ATOM     27  F   UNL A   1      30.651  28.967  22.096  1.00  0.00    -0.094 F 
ATOM     28  F   UNL A   1      30.186  27.653  23.829  1.00  0.00    -0.094 F 
ENDBRANCH  15  23
ENDBRANCH   6   8
ENDBRANCH   5   6
ENDBRANCH   4   5
ENDBRANCH   3   4
ENDBRANCH   2   3
ENDBRANCH   1   2
BRANCH   1  29
ATOM     29  C   UNL A   1      37.853  22.902  25.987  1.00  0.00     0.261 C 
BRANCH  29  30
ATOM     30  O   UNL A   1      38.643  24.050  25.714  1.00  0.00    -0.460 OA
BRANCH  30  31
ATOM     31  C   UNL A   1      39.745  24.369  26.550  1.00  0.00     0.338 C 
ATOM     32  O   UNL A   1      40.768  23.616  26.569  1.00  0.00    -0.246 OA
BRANCH  31  33
ATOM     33  C   UNL A   1      39.700  25.612  27.424  1.00  0.00     0.060 A 
ATOM     34  C   UNL A   1      40.490  26.712  27.133  1.00  0.00     0.016 A 
ATOM     35  C   UNL A   1      39.014  25.538  28.559  1.00  0.00     0.016 A 
ATOM     36  C   UNL A   1      40.720  27.563  28.240  1.00  0.00     0.010 A 
ATOM     37  C   UNL A   1      39.187  26.481  29.543  1.00  0.00     0.010 A 
ATOM     38  C   UNL A   1      39.999  27.563  29.346  1.00  0.00    -0.014 A 
BRANCH  38  39
ATOM     39  C   UNL A   1      40.068  28.705  30.347  1.00  0.00     0.031 A 
ATOM     40  C   UNL A   1      39.118  29.713  30.166  1.00  0.00     0.074 A 
ATOM     41  C   UNL A   1      40.922  28.633  31.434  1.00  0.00     0.049 A 
ATOM     42  N   UNL A   1      38.844  30.727  30.986  1.00  0.00    -0.248 NA
ATOM     43  C   UNL A   1      38.234  29.810  28.995  1.00  0.00     0.031 C 
ATOM     44  C   UNL A   1      41.877  27.615  31.628  1.00  0.00     0.029 A 
ATOM     45  N   UNL A   1      41.009  29.501  32.499  1.00  0.00    -0.354 N 
ATOM     46  C   UNL A   1      37.858  31.474  30.481  1.00  0.00     0.074 A 
ATOM     47  C   UNL A   1      37.457  30.898  29.191  1.00  0.00     0.031 C 
ATOM     48  C   UNL A   1      42.538  27.873  32.787  1.00  0.00     0.029 A 
ATOM     49  C   UNL A   1      42.007  29.055  33.338  1.00  0.00     0.049 A 
ATOM     50  H   UNL A   1      40.454  30.302  32.638  1.00  0.00     0.167 HD
ATOM     51  C   UNL A   1      37.278  32.609  31.048  1.00  0.00     0.037 A 
ATOM     52  C   UNL A   1      42.445  29.633  34.519  1.00  0.00     0.037 A 
ATOM     53  C   UNL A   1      37.687  33.163  32.251  1.00  0.00     0.049 A 
ATOM     54  C   UNL A   1      41.903  30.802  35.056  1.00  0.00     0.074 A 
ATOM     55  C   UNL A   1      37.107  34.303  32.840  1.00  0.00     0.029 A 
ATOM     56  N   UNL A   1      38.701  32.731  33.076  1.00  0.00    -0.354 N 
ATOM     57  N   UNL A   1      40.892  31.525  34.573  1.00  0.00    -0.248 NA
ATOM     58  C   UNL A   1      42.380  31.442  36.290  1.00  0.00     0.031 C 
ATOM     59  C   UNL A   1      37.768  34.560  33.999  1.00  0.00     0.029 A 
ATOM     60  C   UNL A   1      38.772  33.585  34.154  1.00  0.00     0.049 A 
ATOM     61  H   UNL A   1      39.275  31.945  32.923  1.00  0.00     0.167 HD
ATOM     62  C   UNL A   1      40.645  32.565  35.372  1.00  0.00     0.074 A 
ATOM     63  C   UNL A   1      41.604  32.530  36.485  1.00  0.00     0.031 C 
ATOM     64  C   UNL A   1      39.657  33.538  35.221  1.00  0.00     0.037 A 
BRANCH  51  65
ATOM     65  C   UNL A   1      36.133  33.276  30.304  1.00  0.00     0.057 A 
ATOM     66  C   UNL A   1      34.816  32.974  30.605  1.00  0.00     0.134 A 
ATOM     67  C   UNL A   1      36.438  34.145  29.347  1.00  0.00     0.134 A 
ATOM     68  F   UNL A   1      34.455  32.316  31.704  1.00  0.00    -0.206 F 
ATOM     69  C   UNL A   1      33.887  33.427  29.638  1.00  0.00     0.040 A 
ATOM     70  C   UNL A   1      35.461  34.652  28.525  1.00  0.00     0.040 A 
ATOM     71  F   UNL A   1      37.701  34.528  29.183  1.00  0.00    -0.206 F 
ATOM     72  C   UNL A   1      34.143  34.348  28.728  1.00  0.00     0.006 A 
ENDBRANCH  51  65
BRANCH  52  73
ATOM     73  C   UNL A   1      43.578  28.955  35.272  1.00  0.00     0.057 A 
ATOM     74  C   UNL A   1      43.252  28.023  36.243  1.00  0.00     0.134 A 
ATOM     75  C   UNL A   1      44.844  29.249  34.996  1.00  0.00     0.134 A 
ATOM     76  F   UNL A   1      42.031  27.514  36.378  1.00  0.00    -0.206 F 
ATOM     77  C   UNL A   1      44.336  27.662  37.077  1.00  0.00     0.040 A 
ATOM     78  C   UNL A   1      45.862  28.752  35.773  1.00  0.00     0.040 A 
ATOM     79  F   UNL A   1      45.128  30.033  33.960  1.00  0.00    -0.206 F 
ATOM     80  C   UNL A   1      45.607  27.871  36.787  1.00  0.00     0.006 A 
ENDBRANCH  52  73
BRANCH  64  81
ATOM     81  C   UNL A   1      39.542  34.611  36.291  1.00  0.00     0.057 A 
ATOM     82  C   UNL A   1      40.224  35.811  36.181  1.00  0.00     0.134 A 
ATOM     83  C   UNL A   1      38.858  34.306  37.388  1.00  0.00     0.134 A 
ATOM     84  F   UNL A   1      40.703  36.270  35.027  1.00  0.00    -0.206 F 
ATOM     85  C   UNL A   1      40.365  36.506  37.405  1.00  0.00     0.040 A 
ATOM     86  C   UNL A   1      38.935  35.103  38.505  1.00  0.00     0.040 A 
ATOM     87  F   UNL A   1      38.093  33.219  37.407  1.00  0.00    -0.206 F 
ATOM     88  C   UNL A   1      39.640  36.275  38.485  1.00  0.00     0.006 A 
ENDBRANCH  64  81
ENDBRANCH  38  39
ENDBRANCH  31  33
ENDBRANCH  30  31
ENDBRANCH  29  30
ENDBRANCH   1  29
TORSDOF 16
ENDMDL
MODEL 3
REMARK VINA RESULT:     -12.3      0.962      6.100
REMARK SMILES O=C(OCCOCCOC(=O)c1ccc(-c2c3nc(c(-c4c(F)cccc4F)c4ccc([nH]4)c(-c4c(F)cccc4F)c4nc(c(-c5c(F)cccc5F)c5ccc2[nH]5)C=C4)C=C3)cc1)C1=Cc2cc(S(F)(F)(F)(F)F)cc(Br)c2O[C@@H]1C(F)(F)F
REMARK SMILES IDX 7 1 6 2 5 3 4 4 3 5 2 6 1 7 66 8 67 9 82 10 68 11 81 12
REMARK SMILES IDX 69 13 80 14 70 15 78 16 77 17 79 18 83 19 84 20 85 21 86 22
REMARK SMILES IDX 71 23 72 24 73 25 74 26 75 27 76 28 8 29 9 30 10 31 11 32
REMARK SMILES IDX 12 33 13 34 65 35 14 36 64 37 15 38 16 39 17 40 58 41 18 42
REMARK SMILES IDX 63 43 57 44 59 45 19 46 62 47 56 48 55 49 20 51 46 52 29 53
REMARK SMILES IDX 45 54 30 55 33 56 44 57 60 58 31 59 32 60 43 62 61 63 34 64
REMARK SMILES IDX 21 65 22 66 27 67 23 68 24 69 26 70 28 71 25 72 47 73 48 74
REMARK SMILES IDX 53 75 49 76 50 77 52 78 54 79 51 80 35 81 36 82 41 83 37 84
REMARK SMILES IDX 38 85 40 86 42 87 39 88
REMARK H PARENT 59 50 33 61
REMARK Flexibility Score: inf
ROOT
ATOM      1  C   UNL A   1      38.162  19.893  25.052  1.00  0.00     0.202 C 
ENDROOT
BRANCH   1   2
ATOM      2  O   UNL A   1      37.214  20.914  25.327  1.00  0.00    -0.374 OA
BRANCH   2   3
ATOM      3  C   UNL A   1      37.849  22.182  25.253  1.00  0.00     0.202 C 
BRANCH   3   4
ATOM      4  C   UNL A   1      36.879  23.262  25.704  1.00  0.00     0.261 C 
BRANCH   4   5
ATOM      5  O   UNL A   1      36.280  23.864  24.567  1.00  0.00    -0.460 OA
BRANCH   5   6
ATOM      6  C   UNL A   1      35.322  23.144  23.803  1.00  0.00     0.338 C 
ATOM      7  O   UNL A   1      35.453  23.053  22.542  1.00  0.00    -0.246 OA
BRANCH   6   8
ATOM      8  C   UNL A   1      34.143  22.482  24.494  1.00  0.00     0.087 C 
ATOM      9  C   UNL A   1      33.207  23.243  25.122  1.00  0.00     0.027 C 
ATOM     10  C   UNL A   1      34.008  20.967  24.483  1.00  0.00     0.316 C 
ATOM     11  C   UNL A   1      33.341  24.756  25.133  1.00  0.00     0.020 A 
ATOM     12  O   UNL A   1      34.144  24.539  22.907  1.00  0.00    -0.474 OA
ATOM     13  C   UNL A   1      33.016  25.512  26.248  1.00  0.00     0.036 A 
ATOM     14  C   UNL A   1      33.662  25.333  23.980  1.00  0.00     0.142 A 
ATOM     15  C   UNL A   1      32.776  26.877  25.966  1.00  0.00     0.109 A 
ATOM     16  C   UNL A   1      33.531  26.692  23.818  1.00  0.00     0.062 A 
ATOM     17  C   UNL A   1      33.157  27.492  24.861  1.00  0.00     0.044 A 
ATOM     18  Br  UNL A   1      33.887  27.492  22.064  1.00  0.00    -0.047 Br
BRANCH  10  19
ATOM     19  C   UNL A   1      32.704  20.579  23.805  1.00  0.00     0.430 C 
ATOM     20  F   UNL A   1      31.707  20.658  24.683  1.00  0.00    -0.167 F 
ATOM     21  F   UNL A   1      32.468  21.406  22.791  1.00  0.00    -0.167 F 
ATOM     22  F   UNL A   1      32.795  19.333  23.349  1.00  0.00    -0.167 F 
ENDBRANCH  10  19
BRANCH  15  23
ATOM     23  S   UNL A   1      31.885  27.849  27.205  1.00  0.00     0.310 S 
ATOM     24  F   UNL A   1      31.646  29.046  26.191  1.00  0.00    -0.094 F 
ATOM     25  F   UNL A   1      33.245  28.541  27.596  1.00  0.00    -0.094 F 
ATOM     26  F   UNL A   1      31.122  28.683  28.273  1.00  0.00    -0.094 F 
ATOM     27  F   UNL A   1      30.511  27.249  26.705  1.00  0.00    -0.094 F 
ATOM     28  F   UNL A   1      32.627  27.080  26.042  1.00  0.00    -0.094 F 
ENDBRANCH  15  23
ENDBRANCH   6   8
ENDBRANCH   5   6
ENDBRANCH   4   5
ENDBRANCH   3   4
ENDBRANCH   2   3
ENDBRANCH   1   2
BRANCH   1  29
ATOM     29  C   UNL A   1      39.466  20.205  25.768  1.00  0.00     0.261 C 
BRANCH  29  30
ATOM     30  O   UNL A   1      40.302  19.057  25.750  1.00  0.00    -0.460 OA
BRANCH  30  31
ATOM     31  C   UNL A   1      41.688  19.183  26.033  1.00  0.00     0.338 C 
ATOM     32  O   UNL A   1      42.455  18.177  25.919  1.00  0.00    -0.246 OA
BRANCH  31  33
ATOM     33  C   UNL A   1      42.253  20.524  26.473  1.00  0.00     0.060 A 
ATOM     34  C   UNL A   1      42.164  20.933  27.793  1.00  0.00     0.016 A 
ATOM     35  C   UNL A   1      42.675  21.351  25.523  1.00  0.00     0.016 A 
ATOM     36  C   UNL A   1      42.269  22.334  27.969  1.00  0.00     0.010 A 
ATOM     37  C   UNL A   1      42.889  22.680  25.798  1.00  0.00     0.010 A 
ATOM     38  C   UNL A   1      42.761  23.165  27.069  1.00  0.00    -0.014 A 
BRANCH  38  39
ATOM     39  C   UNL A   1      43.164  24.587  27.429  1.00  0.00     0.031 A 
ATOM     40  C   UNL A   1      42.104  25.452  27.707  1.00  0.00     0.074 A 
ATOM     41  C   UNL A   1      44.497  24.913  27.611  1.00  0.00     0.049 A 
ATOM     42  N   UNL A   1      42.172  26.686  28.208  1.00  0.00    -0.248 NA
ATOM     43  C   UNL A   1      40.689  25.120  27.482  1.00  0.00     0.031 C 
ATOM     44  C   UNL A   1      45.571  24.041  27.341  1.00  0.00     0.029 A 
ATOM     45  N   UNL A   1      45.021  26.099  28.070  1.00  0.00    -0.354 N 
ATOM     46  C   UNL A   1      40.945  27.193  28.352  1.00  0.00     0.074 A 
ATOM     47  C   UNL A   1      39.975  26.196  27.881  1.00  0.00     0.031 C 
ATOM     48  C   UNL A   1      46.727  24.699  27.623  1.00  0.00     0.029 A 
ATOM     49  C   UNL A   1      46.394  25.990  28.075  1.00  0.00     0.049 A 
ATOM     50  H   UNL A   1      44.505  26.890  28.349  1.00  0.00     0.167 HD
ATOM     51  C   UNL A   1      40.599  28.446  28.859  1.00  0.00     0.037 A 
ATOM     52  C   UNL A   1      47.322  26.952  28.445  1.00  0.00     0.037 A 
ATOM     53  C   UNL A   1      41.524  29.392  29.271  1.00  0.00     0.049 A 
ATOM     54  C   UNL A   1      46.976  28.227  28.898  1.00  0.00     0.074 A 
ATOM     55  C   UNL A   1      41.191  30.657  29.791  1.00  0.00     0.029 A 
ATOM     56  N   UNL A   1      42.898  29.291  29.251  1.00  0.00    -0.354 N 
ATOM     57  N   UNL A   1      45.750  28.719  29.079  1.00  0.00    -0.248 NA
ATOM     58  C   UNL A   1      47.950  29.265  29.263  1.00  0.00     0.031 C 
ATOM     59  C   UNL A   1      42.348  31.313  30.074  1.00  0.00     0.029 A 
ATOM     60  C   UNL A   1      43.422  30.470  29.733  1.00  0.00     0.049 A 
ATOM     61  H   UNL A   1      43.416  28.511  28.946  1.00  0.00     0.167 HD
ATOM     62  C   UNL A   1      45.819  29.969  29.542  1.00  0.00     0.074 A 
ATOM     63  C   UNL A   1      47.236  30.340  29.660  1.00  0.00     0.031 C 
ATOM     64  C   UNL A   1      44.758  30.813  29.874  1.00  0.00     0.037 A 
BRANCH  51  65
ATOM     65  C   UNL A   1      39.123  28.793  28.966  1.00  0.00     0.057 A 
ATOM     66  C   UNL A   1      38.464  29.428  27.926  1.00  0.00     0.134 A 
ATOM     67  C   UNL A   1      38.493  28.484  30.093  1.00  0.00     0.134 A 
ATOM     68  F   UNL A   1      38.972  29.529  26.700  1.00  0.00    -0.206 F 
ATOM     69  C   UNL A   1      37.202  29.957  28.284  1.00  0.00     0.040 A 
ATOM     70  C   UNL A   1      37.210  28.921  30.320  1.00  0.00     0.040 A 
ATOM     71  F   UNL A   1      39.109  27.744  31.010  1.00  0.00    -0.206 F 
ATOM     72  C   UNL A   1      36.519  29.605  29.358  1.00  0.00     0.006 A 
ENDBRANCH  51  65
BRANCH  52  73
ATOM     73  C   UNL A   1      48.797  26.597  28.355  1.00  0.00     0.057 A 
ATOM     74  C   UNL A   1      49.450  26.819  27.154  1.00  0.00     0.134 A 
ATOM     75  C   UNL A   1      49.437  26.095  29.405  1.00  0.00     0.134 A 
ATOM     76  F   UNL A   1      48.929  27.544  26.168  1.00  0.00    -0.206 F 
ATOM     77  C   UNL A   1      50.721  26.204  27.071  1.00  0.00     0.040 A 
ATOM     78  C   UNL A   1      50.727  25.636  29.284  1.00  0.00     0.040 A 
ATOM     79  F   UNL A   1      48.824  26.034  30.583  1.00  0.00    -0.206 F 
ATOM     80  C   UNL A   1      51.413  25.770  28.108  1.00  0.00     0.006 A 
ENDBRANCH  52  73
BRANCH  64  81
ATOM     81  C   UNL A   1      45.088  32.191  30.425  1.00  0.00     0.057 A 
ATOM     82  C   UNL A   1      45.230  32.404  31.786  1.00  0.00     0.134 A 
ATOM     83  C   UNL A   1      45.117  33.200  29.563  1.00  0.00     0.134 A 
ATOM     84  F   UNL A   1      45.460  31.422  32.654  1.00  0.00    -0.206 F 
ATOM     85  C   UNL A   1      45.108  33.760  32.169  1.00  0.00     0.040 A 
ATOM     86  C   UNL A   1      45.134  34.500  30.008  1.00  0.00     0.040 A 
ATOM     87  F   UNL A   1      45.130  32.951  28.256  1.00  0.00    -0.206 F 
ATOM     88  C   UNL A   1      45.215  34.785  31.343  1.00  0.00     0.006 A 
ENDBRANCH  64  81
ENDBRANCH  38  39
ENDBRANCH  31  33
ENDBRANCH  30  31
ENDBRANCH  29  30
ENDBRANCH   1  29
TORSDOF 16
ENDMDL
