MODEL 1
REMARK VINA RESULT:      -8.2      0.000      0.000
REMARK SMILES COc1ccc(C(C)(C)C)cc1CC(=O)OCCOCCOC(=O)c1ccc(-c2c3nc(c(-c4c(F)cccc4F)c4ccc([nH]4)c(-c4c(F)cccc4F)c4nc(c(-c5c(F)cccc5F)c5ccc2[nH]5)C=C4)C=C3)cc1
REMARK SMILES IDX 19 1 18 2 17 3 16 4 14 5 15 6 13 7 12 8 3 9 4 10 5 11 11 12
REMARK SMILES IDX 6 13 2 14 1 15 7 16 8 17 9 18 10 19 20 20 21 21 22 22 23 23
REMARK SMILES IDX 24 24 25 25 26 26 78 27 27 28 77 29 28 30 29 31 30 32 71 33
REMARK SMILES IDX 31 34 76 35 70 36 72 37 32 38 75 39 69 40 68 41 33 43 59 44
REMARK SMILES IDX 42 45 58 46 43 47 46 48 57 49 73 50 44 51 45 52 56 54 74 55
REMARK SMILES IDX 47 56 34 57 35 58 40 59 36 60 37 61 39 62 41 63 38 64 60 65
REMARK SMILES IDX 61 66 66 67 62 68 63 69 65 70 67 71 64 72 48 73 49 74 54 75
REMARK SMILES IDX 50 76 51 77 53 78 55 79 52 80
REMARK H PARENT 72 42 46 53
REMARK Flexibility Score: inf
ROOT
ATOM      1  O   UNL A   1      45.791  22.052  25.759  1.00  0.00    -0.374 OA
ENDROOT
BRANCH   1   2
ATOM      2  C   UNL A   1      46.574  23.209  25.443  1.00  0.00     0.202 C 
BRANCH   2   3
ATOM      3  C   UNL A   1      45.789  24.511  25.250  1.00  0.00     0.261 C 
BRANCH   3   4
ATOM      4  O   UNL A   1      46.586  25.483  24.560  1.00  0.00    -0.463 OA
BRANCH   4   5
ATOM      5  C   UNL A   1      46.278  26.782  24.819  1.00  0.00     0.310 C 
ATOM      6  O   UNL A   1      46.274  27.678  23.981  1.00  0.00    -0.252 OA
BRANCH   5   7
ATOM      7  C   UNL A   1      45.739  26.977  26.219  1.00  0.00     0.162 C 
BRANCH   7   8
ATOM      8  C   UNL A   1      45.398  28.390  26.632  1.00  0.00     0.005 A 
ATOM      9  C   UNL A   1      44.076  28.815  26.809  1.00  0.00     0.122 A 
ATOM     10  C   UNL A   1      43.814  30.123  27.203  1.00  0.00     0.047 A 
ATOM     11  C   UNL A   1      44.862  31.019  27.436  1.00  0.00     0.008 A 
ATOM     12  C   UNL A   1      46.447  29.314  26.867  1.00  0.00     0.012 A 
ATOM     13  C   UNL A   1      46.206  30.645  27.254  1.00  0.00    -0.042 A 
BRANCH   9  14
ATOM     14  O   UNL A   1      42.989  28.050  26.492  1.00  0.00    -0.496 OA
ATOM     15  C   UNL A   1      41.947  28.764  25.830  1.00  0.00     0.278 C 
ENDBRANCH   9  14
BRANCH  13  16
ATOM     16  C   UNL A   1      47.326  31.686  27.460  1.00  0.00    -0.013 C 
ATOM     17  C   UNL A   1      48.683  31.065  27.053  1.00  0.00     0.016 C 
ATOM     18  C   UNL A   1      47.053  32.926  26.584  1.00  0.00     0.016 C 
ATOM     19  C   UNL A   1      47.480  32.200  28.910  1.00  0.00     0.016 C 
ENDBRANCH  13  16
ENDBRANCH   7   8
ENDBRANCH   5   7
ENDBRANCH   4   5
ENDBRANCH   3   4
ENDBRANCH   2   3
ENDBRANCH   1   2
BRANCH   1  20
ATOM     20  C   UNL A   1      46.046  20.862  25.013  1.00  0.00     0.202 C 
BRANCH  20  21
ATOM     21  C   UNL A   1      44.997  19.756  25.124  1.00  0.00     0.261 C 
BRANCH  21  22
ATOM     22  O   UNL A   1      43.714  20.147  24.622  1.00  0.00    -0.460 OA
BRANCH  22  23
ATOM     23  C   UNL A   1      42.701  19.924  25.485  1.00  0.00     0.338 C 
ATOM     24  O   UNL A   1      42.167  18.856  25.751  1.00  0.00    -0.246 OA
BRANCH  23  25
ATOM     25  C   UNL A   1      42.393  21.150  26.230  1.00  0.00     0.060 A 
ATOM     26  C   UNL A   1      42.559  22.363  25.557  1.00  0.00     0.016 A 
ATOM     27  C   UNL A   1      42.093  21.119  27.594  1.00  0.00     0.016 A 
ATOM     28  C   UNL A   1      42.497  23.557  26.266  1.00  0.00     0.010 A 
ATOM     29  C   UNL A   1      42.030  22.323  28.306  1.00  0.00     0.010 A 
ATOM     30  C   UNL A   1      42.280  23.541  27.653  1.00  0.00    -0.014 A 
BRANCH  30  31
ATOM     31  C   UNL A   1      42.468  24.807  28.402  1.00  0.00     0.031 A 
ATOM     32  C   UNL A   1      43.834  25.159  28.922  1.00  0.00     0.074 A 
ATOM     33  C   UNL A   1      41.455  25.683  28.514  1.00  0.00     0.049 A 
ATOM     34  N   UNL A   1      44.257  26.282  29.445  1.00  0.00    -0.248 NA
ATOM     35  C   UNL A   1      44.862  24.110  28.838  1.00  0.00     0.031 C 
ATOM     36  C   UNL A   1      40.089  25.455  28.043  1.00  0.00     0.029 A 
ATOM     37  N   UNL A   1      41.426  26.950  29.038  1.00  0.00    -0.354 N 
ATOM     38  C   UNL A   1      45.602  26.082  29.732  1.00  0.00     0.074 A 
ATOM     39  C   UNL A   1      45.913  24.716  29.370  1.00  0.00     0.031 C 
ATOM     40  C   UNL A   1      39.358  26.557  28.283  1.00  0.00     0.029 A 
ATOM     41  C   UNL A   1      40.203  27.561  28.924  1.00  0.00     0.049 A 
ATOM     42  H   UNL A   1      42.208  27.379  29.454  1.00  0.00     0.167 HD
ATOM     43  C   UNL A   1      46.501  26.962  30.234  1.00  0.00     0.037 A 
ATOM     44  C   UNL A   1      39.815  28.800  29.283  1.00  0.00     0.037 A 
ATOM     45  C   UNL A   1      46.189  28.318  30.603  1.00  0.00     0.049 A 
ATOM     46  C   UNL A   1      40.826  29.755  29.856  1.00  0.00     0.074 A 
ATOM     47  C   UNL A   1      47.028  29.289  31.121  1.00  0.00     0.029 A 
ATOM     48  N   UNL A   1      44.931  28.892  30.495  1.00  0.00    -0.354 N 
ATOM     49  N   UNL A   1      42.105  29.568  30.080  1.00  0.00    -0.248 NA
ATOM     50  C   UNL A   1      40.344  31.098  30.207  1.00  0.00     0.031 C 
ATOM     51  C   UNL A   1      46.271  30.441  31.358  1.00  0.00     0.029 A 
ATOM     52  C   UNL A   1      44.968  30.200  30.950  1.00  0.00     0.049 A 
ATOM     53  H   UNL A   1      44.130  28.438  30.148  1.00  0.00     0.167 HD
ATOM     54  C   UNL A   1      42.584  30.774  30.574  1.00  0.00     0.074 A 
ATOM     55  C   UNL A   1      41.462  31.690  30.603  1.00  0.00     0.031 C 
ATOM     56  C   UNL A   1      43.841  31.095  30.969  1.00  0.00     0.037 A 
BRANCH  43  57
ATOM     57  C   UNL A   1      47.908  26.477  30.418  1.00  0.00     0.057 A 
ATOM     58  C   UNL A   1      48.874  26.626  29.414  1.00  0.00     0.134 A 
ATOM     59  C   UNL A   1      48.308  25.873  31.616  1.00  0.00     0.134 A 
ATOM     60  F   UNL A   1      48.550  27.183  28.237  1.00  0.00    -0.206 F 
ATOM     61  C   UNL A   1      50.183  26.173  29.587  1.00  0.00     0.040 A 
ATOM     62  C   UNL A   1      49.619  25.436  31.810  1.00  0.00     0.040 A 
ATOM     63  F   UNL A   1      47.433  25.702  32.619  1.00  0.00    -0.206 F 
ATOM     64  C   UNL A   1      50.560  25.580  30.792  1.00  0.00     0.006 A 
ENDBRANCH  43  57
BRANCH  44  65
ATOM     65  C   UNL A   1      38.406  29.216  29.078  1.00  0.00     0.057 A 
ATOM     66  C   UNL A   1      37.478  29.191  30.127  1.00  0.00     0.134 A 
ATOM     67  C   UNL A   1      37.956  29.652  27.827  1.00  0.00     0.134 A 
ATOM     68  F   UNL A   1      37.847  28.764  31.343  1.00  0.00    -0.206 F 
ATOM     69  C   UNL A   1      36.150  29.573  29.935  1.00  0.00     0.040 A 
ATOM     70  C   UNL A   1      36.636  30.059  27.627  1.00  0.00     0.040 A 
ATOM     71  F   UNL A   1      38.797  29.701  26.785  1.00  0.00    -0.206 F 
ATOM     72  C   UNL A   1      35.727  30.015  28.683  1.00  0.00     0.006 A 
ENDBRANCH  44  65
BRANCH  56  73
ATOM     73  C   UNL A   1      44.070  32.501  31.442  1.00  0.00     0.057 A 
ATOM     74  C   UNL A   1      44.297  33.552  30.545  1.00  0.00     0.134 A 
ATOM     75  C   UNL A   1      44.035  32.809  32.807  1.00  0.00     0.134 A 
ATOM     76  F   UNL A   1      44.354  33.318  29.225  1.00  0.00    -0.206 F 
ATOM     77  C   UNL A   1      44.506  34.858  30.991  1.00  0.00     0.040 A 
ATOM     78  C   UNL A   1      44.220  34.114  33.265  1.00  0.00     0.040 A 
ATOM     79  F   UNL A   1      43.812  31.848  33.717  1.00  0.00    -0.206 F 
ATOM     80  C   UNL A   1      44.463  35.142  32.356  1.00  0.00     0.006 A 
ENDBRANCH  56  73
ENDBRANCH  30  31
ENDBRANCH  23  25
ENDBRANCH  22  23
ENDBRANCH  21  22
ENDBRANCH  20  21
ENDBRANCH   1  20
TORSDOF 17
ENDMDL
MODEL 2
REMARK VINA RESULT:      -7.6      5.876     11.406
REMARK SMILES COc1ccc(C(C)(C)C)cc1CC(=O)OCCOCCOC(=O)c1ccc(-c2c3nc(c(-c4c(F)cccc4F)c4ccc([nH]4)c(-c4c(F)cccc4F)c4nc(c(-c5c(F)cccc5F)c5ccc2[nH]5)C=C4)C=C3)cc1
REMARK SMILES IDX 19 1 18 2 17 3 16 4 14 5 15 6 13 7 12 8 3 9 4 10 5 11 11 12
REMARK SMILES IDX 6 13 2 14 1 15 7 16 8 17 9 18 10 19 20 20 21 21 22 22 23 23
REMARK SMILES IDX 24 24 25 25 26 26 78 27 27 28 77 29 28 30 29 31 30 32 71 33
REMARK SMILES IDX 31 34 76 35 70 36 72 37 32 38 75 39 69 40 68 41 33 43 59 44
REMARK SMILES IDX 42 45 58 46 43 47 46 48 57 49 73 50 44 51 45 52 56 54 74 55
REMARK SMILES IDX 47 56 34 57 35 58 40 59 36 60 37 61 39 62 41 63 38 64 60 65
REMARK SMILES IDX 61 66 66 67 62 68 63 69 65 70 67 71 64 72 48 73 49 74 54 75
REMARK SMILES IDX 50 76 51 77 53 78 55 79 52 80
REMARK H PARENT 72 42 46 53
REMARK Flexibility Score: inf
ROOT
ATOM      1  O   UNL A   1      30.991  28.238  24.620  1.00  0.00    -0.374 OA
ENDROOT
BRANCH   1   2
ATOM      2  C   UNL A   1      31.448  27.125  25.396  1.00  0.00     0.202 C 
BRANCH   2   3
ATOM      3  C   UNL A   1      30.601  25.851  25.298  1.00  0.00     0.261 C 
BRANCH   3   4
ATOM      4  O   UNL A   1      30.578  25.162  26.556  1.00  0.00    -0.463 OA
BRANCH   4   5
ATOM      5  C   UNL A   1      30.674  23.808  26.482  1.00  0.00     0.310 C 
ATOM      6  O   UNL A   1      30.349  23.036  27.378  1.00  0.00    -0.252 OA
BRANCH   5   7
ATOM      7  C   UNL A   1      31.040  23.332  25.093  1.00  0.00     0.162 C 
BRANCH   7   8
ATOM      8  C   UNL A   1      32.303  22.513  24.959  1.00  0.00     0.005 A 
ATOM      9  C   UNL A   1      33.573  23.099  24.965  1.00  0.00     0.122 A 
ATOM     10  C   UNL A   1      34.707  22.300  24.852  1.00  0.00     0.047 A 
ATOM     11  C   UNL A   1      34.591  20.911  24.743  1.00  0.00     0.008 A 
ATOM     12  C   UNL A   1      32.203  21.103  24.843  1.00  0.00     0.012 A 
ATOM     13  C   UNL A   1      33.335  20.277  24.714  1.00  0.00    -0.042 A 
BRANCH   9  14
ATOM     14  O   UNL A   1      33.782  24.450  24.948  1.00  0.00    -0.496 OA
ATOM     15  C   UNL A   1      34.018  24.986  23.647  1.00  0.00     0.278 C 
ENDBRANCH   9  14
BRANCH  13  16
ATOM     16  C   UNL A   1      33.253  18.747  24.528  1.00  0.00    -0.013 C 
ATOM     17  C   UNL A   1      32.557  18.118  25.758  1.00  0.00     0.016 C 
ATOM     18  C   UNL A   1      32.437  18.420  23.260  1.00  0.00     0.016 C 
ATOM     19  C   UNL A   1      34.616  18.035  24.366  1.00  0.00     0.016 C 
ENDBRANCH  13  16
ENDBRANCH   7   8
ENDBRANCH   5   7
ENDBRANCH   4   5
ENDBRANCH   3   4
ENDBRANCH   2   3
ENDBRANCH   1   2
BRANCH   1  20
ATOM     20  C   UNL A   1      31.349  29.544  25.069  1.00  0.00     0.202 C 
BRANCH  20  21
ATOM     21  C   UNL A   1      32.778  29.714  25.587  1.00  0.00     0.261 C 
BRANCH  21  22
ATOM     22  O   UNL A   1      32.837  29.974  26.995  1.00  0.00    -0.460 OA
BRANCH  22  23
ATOM     23  C   UNL A   1      33.412  31.154  27.305  1.00  0.00     0.338 C 
ATOM     24  O   UNL A   1      32.865  32.242  27.431  1.00  0.00    -0.246 OA
BRANCH  23  25
ATOM     25  C   UNL A   1      34.825  30.955  27.645  1.00  0.00     0.060 A 
ATOM     26  C   UNL A   1      35.260  29.637  27.813  1.00  0.00     0.016 A 
ATOM     27  C   UNL A   1      35.665  32.032  27.938  1.00  0.00     0.016 A 
ATOM     28  C   UNL A   1      36.519  29.391  28.347  1.00  0.00     0.010 A 
ATOM     29  C   UNL A   1      36.933  31.782  28.474  1.00  0.00     0.010 A 
ATOM     30  C   UNL A   1      37.344  30.462  28.725  1.00  0.00    -0.014 A 
BRANCH  30  31
ATOM     31  C   UNL A   1      38.563  30.158  29.512  1.00  0.00     0.031 A 
ATOM     32  C   UNL A   1      38.691  30.695  30.911  1.00  0.00     0.074 A 
ATOM     33  C   UNL A   1      39.490  29.316  29.024  1.00  0.00     0.049 A 
ATOM     34  N   UNL A   1      39.579  30.414  31.829  1.00  0.00    -0.248 NA
ATOM     35  C   UNL A   1      37.681  31.678  31.333  1.00  0.00     0.031 C 
ATOM     36  C   UNL A   1      39.470  28.726  27.686  1.00  0.00     0.029 A 
ATOM     37  N   UNL A   1      40.615  28.793  29.609  1.00  0.00    -0.354 N 
ATOM     38  C   UNL A   1      39.224  31.166  32.942  1.00  0.00     0.074 A 
ATOM     39  C   UNL A   1      38.068  31.952  32.570  1.00  0.00     0.031 C 
ATOM     40  C   UNL A   1      40.527  27.904  27.558  1.00  0.00     0.029 A 
ATOM     41  C   UNL A   1      41.294  27.915  28.802  1.00  0.00     0.049 A 
ATOM     42  H   UNL A   1      40.907  29.025  30.520  1.00  0.00     0.167 HD
ATOM     43  C   UNL A   1      39.798  31.185  34.169  1.00  0.00     0.037 A 
ATOM     44  C   UNL A   1      42.401  27.188  29.046  1.00  0.00     0.037 A 
ATOM     45  C   UNL A   1      40.953  30.409  34.536  1.00  0.00     0.049 A 
ATOM     46  C   UNL A   1      43.032  27.239  30.410  1.00  0.00     0.074 A 
ATOM     47  C   UNL A   1      41.611  30.359  35.753  1.00  0.00     0.029 A 
ATOM     48  N   UNL A   1      41.627  29.549  33.681  1.00  0.00    -0.354 N 
ATOM     49  N   UNL A   1      42.660  27.919  31.469  1.00  0.00    -0.248 NA
ATOM     50  C   UNL A   1      44.224  26.406  30.621  1.00  0.00     0.031 C 
ATOM     51  C   UNL A   1      42.703  29.493  35.625  1.00  0.00     0.029 A 
ATOM     52  C   UNL A   1      42.701  28.974  34.340  1.00  0.00     0.049 A 
ATOM     53  H   UNL A   1      41.379  29.374  32.745  1.00  0.00     0.167 HD
ATOM     54  C   UNL A   1      43.555  27.579  32.474  1.00  0.00     0.074 A 
ATOM     55  C   UNL A   1      44.480  26.621  31.903  1.00  0.00     0.031 C 
ATOM     56  C   UNL A   1      43.609  28.021  33.755  1.00  0.00     0.037 A 
BRANCH  43  57
ATOM     57  C   UNL A   1      39.182  32.082  35.201  1.00  0.00     0.057 A 
ATOM     58  C   UNL A   1      38.297  31.589  36.169  1.00  0.00     0.134 A 
ATOM     59  C   UNL A   1      39.491  33.447  35.240  1.00  0.00     0.134 A 
ATOM     60  F   UNL A   1      37.950  30.293  36.175  1.00  0.00    -0.206 F 
ATOM     61  C   UNL A   1      37.724  32.427  37.128  1.00  0.00     0.040 A 
ATOM     62  C   UNL A   1      38.942  34.290  36.208  1.00  0.00     0.040 A 
ATOM     63  F   UNL A   1      40.332  33.982  34.344  1.00  0.00    -0.206 F 
ATOM     64  C   UNL A   1      38.052  33.782  37.153  1.00  0.00     0.006 A 
ENDBRANCH  43  57
BRANCH  44  65
ATOM     65  C   UNL A   1      42.962  26.324  27.980  1.00  0.00     0.057 A 
ATOM     66  C   UNL A   1      42.544  24.997  27.820  1.00  0.00     0.134 A 
ATOM     67  C   UNL A   1      43.929  26.807  27.091  1.00  0.00     0.134 A 
ATOM     68  F   UNL A   1      41.633  24.473  28.653  1.00  0.00    -0.206 F 
ATOM     69  C   UNL A   1      43.076  24.179  26.823  1.00  0.00     0.040 A 
ATOM     70  C   UNL A   1      44.454  26.008  26.076  1.00  0.00     0.040 A 
ATOM     71  F   UNL A   1      44.369  28.071  27.192  1.00  0.00    -0.206 F 
ATOM     72  C   UNL A   1      44.030  24.686  25.943  1.00  0.00     0.006 A 
ENDBRANCH  44  65
BRANCH  56  73
ATOM     73  C   UNL A   1      44.687  27.452  34.629  1.00  0.00     0.057 A 
ATOM     74  C   UNL A   1      44.495  26.275  35.363  1.00  0.00     0.134 A 
ATOM     75  C   UNL A   1      45.938  28.074  34.715  1.00  0.00     0.134 A 
ATOM     76  F   UNL A   1      43.315  25.639  35.331  1.00  0.00    -0.206 F 
ATOM     77  C   UNL A   1      45.504  25.749  36.172  1.00  0.00     0.040 A 
ATOM     78  C   UNL A   1      46.962  27.547  35.503  1.00  0.00     0.040 A 
ATOM     79  F   UNL A   1      46.188  29.200  34.030  1.00  0.00    -0.206 F 
ATOM     80  C   UNL A   1      46.744  26.384  36.239  1.00  0.00     0.006 A 
ENDBRANCH  56  73
ENDBRANCH  30  31
ENDBRANCH  23  25
ENDBRANCH  22  23
ENDBRANCH  21  22
ENDBRANCH  20  21
ENDBRANCH   1  20
TORSDOF 17
ENDMDL
MODEL 3
REMARK VINA RESULT:      -7.5      5.452     11.135
REMARK SMILES COc1ccc(C(C)(C)C)cc1CC(=O)OCCOCCOC(=O)c1ccc(-c2c3nc(c(-c4c(F)cccc4F)c4ccc([nH]4)c(-c4c(F)cccc4F)c4nc(c(-c5c(F)cccc5F)c5ccc2[nH]5)C=C4)C=C3)cc1
REMARK SMILES IDX 19 1 18 2 17 3 16 4 14 5 15 6 13 7 12 8 3 9 4 10 5 11 11 12
REMARK SMILES IDX 6 13 2 14 1 15 7 16 8 17 9 18 10 19 20 20 21 21 22 22 23 23
REMARK SMILES IDX 24 24 25 25 26 26 78 27 27 28 77 29 28 30 29 31 30 32 71 33
REMARK SMILES IDX 31 34 76 35 70 36 72 37 32 38 75 39 69 40 68 41 33 43 59 44
REMARK SMILES IDX 42 45 58 46 43 47 46 48 57 49 73 50 44 51 45 52 56 54 74 55
REMARK SMILES IDX 47 56 34 57 35 58 40 59 36 60 37 61 39 62 41 63 38 64 60 65
REMARK SMILES IDX 61 66 66 67 62 68 63 69 65 70 67 71 64 72 48 73 49 74 54 75
REMARK SMILES IDX 50 76 51 77 53 78 55 79 52 80
REMARK H PARENT 72 42 46 53
REMARK Flexibility Score: inf
ROOT
ATOM      1  O   UNL A   1      32.336  30.206  27.227  1.00  0.00    -0.374 OA
ENDROOT
BRANCH   1   2
ATOM      2  C   UNL A   1      33.719  29.971  26.941  1.00  0.00     0.202 C 
BRANCH   2   3
ATOM      3  C   UNL A   1      34.034  28.663  26.206  1.00  0.00     0.261 C 
BRANCH   3   4
ATOM      4  O   UNL A   1      33.094  28.441  25.145  1.00  0.00    -0.463 OA
BRANCH   4   5
ATOM      5  C   UNL A   1      32.472  27.232  25.160  1.00  0.00     0.310 C 
ATOM      6  O   UNL A   1      31.806  26.780  24.234  1.00  0.00    -0.252 OA
BRANCH   5   7
ATOM      7  C   UNL A   1      32.851  26.404  26.367  1.00  0.00     0.162 C 
BRANCH   7   8
ATOM      8  C   UNL A   1      33.166  24.946  26.127  1.00  0.00     0.005 A 
ATOM      9  C   UNL A   1      32.235  23.932  26.385  1.00  0.00     0.122 A 
ATOM     10  C   UNL A   1      32.568  22.604  26.135  1.00  0.00     0.047 A 
ATOM     11  C   UNL A   1      33.823  22.271  25.617  1.00  0.00     0.008 A 
ATOM     12  C   UNL A   1      34.435  24.588  25.607  1.00  0.00     0.012 A 
ATOM     13  C   UNL A   1      34.798  23.251  25.359  1.00  0.00    -0.042 A 
BRANCH   9  14
ATOM     14  O   UNL A   1      31.034  24.149  27.000  1.00  0.00    -0.496 OA
ATOM     15  C   UNL A   1      30.158  23.023  26.980  1.00  0.00     0.278 C 
ENDBRANCH   9  14
BRANCH  13  16
ATOM     16  C   UNL A   1      36.192  22.831  24.848  1.00  0.00    -0.013 C 
ATOM     17  C   UNL A   1      37.272  23.710  25.523  1.00  0.00     0.016 C 
ATOM     18  C   UNL A   1      36.451  21.351  25.198  1.00  0.00     0.016 C 
ATOM     19  C   UNL A   1      36.393  22.960  23.321  1.00  0.00     0.016 C 
ENDBRANCH  13  16
ENDBRANCH   7   8
ENDBRANCH   5   7
ENDBRANCH   4   5
ENDBRANCH   3   4
ENDBRANCH   2   3
ENDBRANCH   1   2
BRANCH   1  20
ATOM     20  C   UNL A   1      31.683  31.249  26.505  1.00  0.00     0.202 C 
BRANCH  20  21
ATOM     21  C   UNL A   1      31.742  32.644  27.127  1.00  0.00     0.261 C 
BRANCH  21  22
ATOM     22  O   UNL A   1      33.077  33.150  27.244  1.00  0.00    -0.460 OA
BRANCH  22  23
ATOM     23  C   UNL A   1      33.230  34.056  28.233  1.00  0.00     0.338 C 
ATOM     24  O   UNL A   1      32.499  34.999  28.503  1.00  0.00    -0.246 OA
BRANCH  23  25
ATOM     25  C   UNL A   1      34.352  33.675  29.098  1.00  0.00     0.060 A 
ATOM     26  C   UNL A   1      35.597  34.244  28.814  1.00  0.00     0.016 A 
ATOM     27  C   UNL A   1      34.222  32.677  30.066  1.00  0.00     0.016 A 
ATOM     28  C   UNL A   1      36.735  33.761  29.449  1.00  0.00     0.010 A 
ATOM     29  C   UNL A   1      35.369  32.193  30.706  1.00  0.00     0.010 A 
ATOM     30  C   UNL A   1      36.634  32.701  30.363  1.00  0.00    -0.014 A 
BRANCH  30  31
ATOM     31  C   UNL A   1      37.887  32.058  30.826  1.00  0.00     0.031 A 
ATOM     32  C   UNL A   1      38.400  32.354  32.208  1.00  0.00     0.074 A 
ATOM     33  C   UNL A   1      38.493  31.132  30.063  1.00  0.00     0.049 A 
ATOM     34  N   UNL A   1      39.368  31.777  32.874  1.00  0.00    -0.248 NA
ATOM     35  C   UNL A   1      37.732  33.441  32.940  1.00  0.00     0.031 C 
ATOM     36  C   UNL A   1      38.083  30.756  28.711  1.00  0.00     0.029 A 
ATOM     37  N   UNL A   1      39.569  30.324  30.329  1.00  0.00    -0.354 N 
ATOM     38  C   UNL A   1      39.411  32.415  34.107  1.00  0.00     0.074 A 
ATOM     39  C   UNL A   1      38.405  33.455  34.081  1.00  0.00     0.031 C 
ATOM     40  C   UNL A   1      38.889  29.774  28.271  1.00  0.00     0.029 A 
ATOM     41  C   UNL A   1      39.868  29.457  29.308  1.00  0.00     0.049 A 
ATOM     42  H   UNL A   1      40.077  30.362  31.171  1.00  0.00     0.167 HD
ATOM     43  C   UNL A   1      40.204  32.147  35.172  1.00  0.00     0.037 A 
ATOM     44  C   UNL A   1      40.815  28.504  29.227  1.00  0.00     0.037 A 
ATOM     45  C   UNL A   1      41.211  31.119  35.194  1.00  0.00     0.049 A 
ATOM     46  C   UNL A   1      41.697  28.236  30.416  1.00  0.00     0.074 A 
ATOM     47  C   UNL A   1      42.067  30.768  36.224  1.00  0.00     0.029 A 
ATOM     48  N   UNL A   1      41.500  30.277  34.130  1.00  0.00    -0.354 N 
ATOM     49  N   UNL A   1      41.697  28.815  31.593  1.00  0.00    -0.248 NA
ATOM     50  C   UNL A   1      42.696  27.167  30.272  1.00  0.00     0.031 C 
ATOM     51  C   UNL A   1      42.897  29.736  35.771  1.00  0.00     0.029 A 
ATOM     52  C   UNL A   1      42.529  29.418  34.473  1.00  0.00     0.049 A 
ATOM     53  H   UNL A   1      41.041  30.290  33.260  1.00  0.00     0.167 HD
ATOM     54  C   UNL A   1      42.676  28.168  32.335  1.00  0.00     0.074 A 
ATOM     55  C   UNL A   1      43.239  27.142  31.481  1.00  0.00     0.031 C 
ATOM     56  C   UNL A   1      43.074  28.402  33.610  1.00  0.00     0.037 A 
BRANCH  43  57
ATOM     57  C   UNL A   1      40.013  32.988  36.399  1.00  0.00     0.057 A 
ATOM     58  C   UNL A   1      40.782  34.136  36.629  1.00  0.00     0.134 A 
ATOM     59  C   UNL A   1      39.038  32.660  37.349  1.00  0.00     0.134 A 
ATOM     60  F   UNL A   1      41.742  34.496  35.764  1.00  0.00    -0.206 F 
ATOM     61  C   UNL A   1      40.604  34.917  37.773  1.00  0.00     0.040 A 
ATOM     62  C   UNL A   1      38.835  33.446  38.485  1.00  0.00     0.040 A 
ATOM     63  F   UNL A   1      38.266  31.576  37.188  1.00  0.00    -0.206 F 
ATOM     64  C   UNL A   1      39.622  34.575  38.702  1.00  0.00     0.006 A 
ENDBRANCH  43  57
BRANCH  44  65
ATOM     65  C   UNL A   1      40.954  27.710  27.982  1.00  0.00     0.057 A 
ATOM     66  C   UNL A   1      41.759  28.148  26.924  1.00  0.00     0.134 A 
ATOM     67  C   UNL A   1      40.287  26.490  27.824  1.00  0.00     0.134 A 
ATOM     68  F   UNL A   1      42.408  29.318  27.010  1.00  0.00    -0.206 F 
ATOM     69  C   UNL A   1      41.885  27.408  25.748  1.00  0.00     0.040 A 
ATOM     70  C   UNL A   1      40.421  25.728  26.663  1.00  0.00     0.040 A 
ATOM     71  F   UNL A   1      39.503  26.016  28.804  1.00  0.00    -0.206 F 
ATOM     72  C   UNL A   1      41.219  26.190  25.618  1.00  0.00     0.006 A 
ENDBRANCH  44  65
BRANCH  56  73
ATOM     73  C   UNL A   1      44.153  27.517  34.162  1.00  0.00     0.057 A 
ATOM     74  C   UNL A   1      43.859  26.285  34.760  1.00  0.00     0.134 A 
ATOM     75  C   UNL A   1      45.498  27.889  34.069  1.00  0.00     0.134 A 
ATOM     76  F   UNL A   1      42.587  25.878  34.889  1.00  0.00    -0.206 F 
ATOM     77  C   UNL A   1      44.867  25.464  35.269  1.00  0.00     0.040 A 
ATOM     78  C   UNL A   1      46.517  27.068  34.554  1.00  0.00     0.040 A 
ATOM     79  F   UNL A   1      45.847  29.053  33.499  1.00  0.00    -0.206 F 
ATOM     80  C   UNL A   1      46.202  25.854  35.162  1.00  0.00     0.006 A 
ENDBRANCH  56  73
ENDBRANCH  30  31
ENDBRANCH  23  25
ENDBRANCH  22  23
ENDBRANCH  21  22
ENDBRANCH  20  21
ENDBRANCH   1  20
TORSDOF 17
ENDMDL
