MODEL 1
REMARK VINA RESULT:     -11.7      0.000      0.000
REMARK SMILES Cc1cc(C)c2c(C(=O)OCCOCCOC(=O)c3ccc(-c4c5nc(c(-c6c(F)cccc6F)c6ccc([nH]6)c(-c6c(F)cccc6F)c6nc(c(-c7c(F)cccc7F)c7ccc4[nH]7)C=C6)C=C5)cc3)cc(-c3ccco3)nc2c1
REMARK SMILES IDX 14 1 13 2 12 3 11 4 10 5 8 6 9 7 7 8 1 9 2 10 3 11 82 12
REMARK SMILES IDX 4 13 81 14 5 15 6 16 80 17 74 18 73 19 75 20 76 21 79 22
REMARK SMILES IDX 77 23 78 24 15 25 16 26 17 27 18 28 19 29 20 30 72 31 21 32
REMARK SMILES IDX 71 33 22 34 23 35 24 36 65 37 25 38 70 39 64 40 66 41 26 42
REMARK SMILES IDX 69 43 63 44 62 45 27 47 53 48 36 49 52 50 37 51 40 52 51 53
REMARK SMILES IDX 67 54 38 55 39 56 50 58 68 59 41 60 28 61 29 62 34 63 30 64
REMARK SMILES IDX 31 65 33 66 35 67 32 68 54 69 55 70 60 71 56 72 57 73 59 74
REMARK SMILES IDX 61 75 58 76 42 77 43 78 48 79 44 80 45 81 47 82 49 83 46 84
REMARK H PARENT 66 46 40 57
REMARK Flexibility Score: inf
ROOT
ATOM      1  C   UNL A   1      35.776  21.078  25.125  1.00  0.00     0.202 C 
ENDROOT
BRANCH   1   2
ATOM      2  O   UNL A   1      35.485  21.715  26.372  1.00  0.00    -0.374 OA
BRANCH   2   3
ATOM      3  C   UNL A   1      35.162  23.108  26.327  1.00  0.00     0.202 C 
BRANCH   3   4
ATOM      4  C   UNL A   1      33.681  23.401  26.559  1.00  0.00     0.261 C 
BRANCH   4   5
ATOM      5  O   UNL A   1      33.408  24.674  25.955  1.00  0.00    -0.460 OA
BRANCH   5   6
ATOM      6  C   UNL A   1      32.240  25.253  26.261  1.00  0.00     0.338 C 
ATOM      7  O   UNL A   1      31.376  24.796  26.994  1.00  0.00    -0.246 OA
BRANCH   6   8
ATOM      8  C   UNL A   1      32.251  26.660  25.803  1.00  0.00     0.072 A 
ATOM      9  C   UNL A   1      28.569  29.637  22.507  1.00  0.00     0.044 C 
ATOM     10  C   UNL A   1      29.580  28.805  23.234  1.00  0.00    -0.049 A 
ATOM     11  C   UNL A   1      29.552  27.420  23.155  1.00  0.00     0.007 A 
ATOM     12  C   UNL A   1      30.544  29.397  24.046  1.00  0.00     0.032 A 
ATOM     13  C   UNL A   1      30.441  26.628  23.908  1.00  0.00    -0.041 A 
ATOM     14  C   UNL A   1      31.440  28.663  24.806  1.00  0.00     0.072 A 
ATOM     15  C   UNL A   1      30.397  25.153  23.604  1.00  0.00     0.045 C 
ATOM     16  C   UNL A   1      31.371  27.246  24.831  1.00  0.00     0.018 A 
ATOM     17  N   UNL A   1      32.328  29.397  25.491  1.00  0.00    -0.244 NA
ATOM     18  C   UNL A   1      33.204  28.784  26.303  1.00  0.00     0.107 A 
ATOM     19  C   UNL A   1      33.187  27.429  26.511  1.00  0.00     0.048 A 
BRANCH  18  20
ATOM     20  C   UNL A   1      34.189  29.635  26.938  1.00  0.00     0.152 A 
ATOM     21  C   UNL A   1      35.479  29.435  27.390  1.00  0.00     0.052 A 
ATOM     22  O   UNL A   1      33.796  30.914  27.210  1.00  0.00    -0.463 OA
ATOM     23  C   UNL A   1      35.897  30.660  27.966  1.00  0.00     0.043 A 
ATOM     24  C   UNL A   1      34.837  31.526  27.834  1.00  0.00     0.196 A 
ENDBRANCH  18  20
ENDBRANCH   6   8
ENDBRANCH   5   6
ENDBRANCH   4   5
ENDBRANCH   3   4
ENDBRANCH   2   3
ENDBRANCH   1   2
BRANCH   1  25
ATOM     25  C   UNL A   1      37.223  20.601  24.968  1.00  0.00     0.261 C 
BRANCH  25  26
ATOM     26  O   UNL A   1      38.156  21.684  25.139  1.00  0.00    -0.460 OA
BRANCH  26  27
ATOM     27  C   UNL A   1      39.188  21.421  25.970  1.00  0.00     0.338 C 
ATOM     28  O   UNL A   1      39.820  20.381  26.068  1.00  0.00    -0.246 OA
BRANCH  27  29
ATOM     29  C   UNL A   1      39.586  22.653  26.671  1.00  0.00     0.060 A 
ATOM     30  C   UNL A   1      38.951  23.846  26.299  1.00  0.00     0.016 A 
ATOM     31  C   UNL A   1      40.633  22.660  27.594  1.00  0.00     0.016 A 
ATOM     32  C   UNL A   1      39.398  25.061  26.810  1.00  0.00     0.010 A 
ATOM     33  C   UNL A   1      41.095  23.882  28.089  1.00  0.00     0.010 A 
ATOM     34  C   UNL A   1      40.506  25.087  27.665  1.00  0.00    -0.014 A 
BRANCH  34  35
ATOM     35  C   UNL A   1      41.181  26.378  27.935  1.00  0.00     0.031 A 
ATOM     36  C   UNL A   1      42.601  26.553  27.471  1.00  0.00     0.074 A 
ATOM     37  C   UNL A   1      40.539  27.383  28.554  1.00  0.00     0.049 A 
ATOM     38  N   UNL A   1      43.407  27.571  27.626  1.00  0.00    -0.248 NA
ATOM     39  C   UNL A   1      43.187  25.427  26.725  1.00  0.00     0.031 C 
ATOM     40  C   UNL A   1      39.147  27.357  28.995  1.00  0.00     0.029 A 
ATOM     41  N   UNL A   1      40.989  28.625  28.921  1.00  0.00    -0.354 N 
ATOM     42  C   UNL A   1      44.590  27.213  26.993  1.00  0.00     0.074 A 
ATOM     43  C   UNL A   1      44.408  25.873  26.477  1.00  0.00     0.031 C 
ATOM     44  C   UNL A   1      38.860  28.526  29.593  1.00  0.00     0.029 A 
ATOM     45  C   UNL A   1      40.055  29.368  29.599  1.00  0.00     0.049 A 
ATOM     46  H   UNL A   1      41.894  28.953  28.717  1.00  0.00     0.167 HD
ATOM     47  C   UNL A   1      45.724  27.937  26.847  1.00  0.00     0.037 A 
ATOM     48  C   UNL A   1      40.169  30.578  30.179  1.00  0.00     0.037 A 
ATOM     49  C   UNL A   1      45.916  29.257  27.382  1.00  0.00     0.049 A 
ATOM     50  C   UNL A   1      41.481  31.316  30.105  1.00  0.00     0.074 A 
ATOM     51  C   UNL A   1      47.034  30.069  27.302  1.00  0.00     0.029 A 
ATOM     52  N   UNL A   1      44.966  29.954  28.111  1.00  0.00    -0.354 N 
ATOM     53  N   UNL A   1      42.590  30.975  29.496  1.00  0.00    -0.248 NA
ATOM     54  C   UNL A   1      41.554  32.606  30.805  1.00  0.00     0.031 C 
ATOM     55  C   UNL A   1      46.773  31.242  28.019  1.00  0.00     0.029 A 
ATOM     56  C   UNL A   1      45.478  31.178  28.507  1.00  0.00     0.049 A 
ATOM     57  H   UNL A   1      44.059  29.628  28.316  1.00  0.00     0.167 HD
ATOM     58  C   UNL A   1      43.480  32.022  29.709  1.00  0.00     0.074 A 
ATOM     59  C   UNL A   1      42.779  33.011  30.500  1.00  0.00     0.031 C 
ATOM     60  C   UNL A   1      44.760  32.155  29.285  1.00  0.00     0.037 A 
BRANCH  47  61
ATOM     61  C   UNL A   1      46.854  27.291  26.102  1.00  0.00     0.057 A 
ATOM     62  C   UNL A   1      47.803  26.512  26.776  1.00  0.00     0.134 A 
ATOM     63  C   UNL A   1      47.007  27.443  24.718  1.00  0.00     0.134 A 
ATOM     64  F   UNL A   1      47.713  26.326  28.102  1.00  0.00    -0.206 F 
ATOM     65  C   UNL A   1      48.863  25.907  26.100  1.00  0.00     0.040 A 
ATOM     66  C   UNL A   1      48.050  26.824  24.028  1.00  0.00     0.040 A 
ATOM     67  F   UNL A   1      46.121  28.162  24.012  1.00  0.00    -0.206 F 
ATOM     68  C   UNL A   1      48.984  26.057  24.720  1.00  0.00     0.006 A 
ENDBRANCH  47  61
BRANCH  48  69
ATOM     69  C   UNL A   1      39.019  31.171  30.906  1.00  0.00     0.057 A 
ATOM     70  C   UNL A   1      38.166  32.094  30.289  1.00  0.00     0.134 A 
ATOM     71  C   UNL A   1      38.720  30.792  32.220  1.00  0.00     0.134 A 
ATOM     72  F   UNL A   1      38.397  32.494  29.030  1.00  0.00    -0.206 F 
ATOM     73  C   UNL A   1      37.057  32.620  30.953  1.00  0.00     0.040 A 
ATOM     74  C   UNL A   1      37.601  31.294  32.888  1.00  0.00     0.040 A 
ATOM     75  F   UNL A   1      39.487  29.893  32.853  1.00  0.00    -0.206 F 
ATOM     76  C   UNL A   1      36.768  32.213  32.254  1.00  0.00     0.006 A 
ENDBRANCH  48  69
BRANCH  60  77
ATOM     77  C   UNL A   1      45.468  33.432  29.626  1.00  0.00     0.057 A 
ATOM     78  C   UNL A   1      46.209  33.539  30.811  1.00  0.00     0.134 A 
ATOM     79  C   UNL A   1      45.390  34.565  28.808  1.00  0.00     0.134 A 
ATOM     80  F   UNL A   1      46.317  32.493  31.644  1.00  0.00    -0.206 F 
ATOM     81  C   UNL A   1      46.845  34.728  31.170  1.00  0.00     0.040 A 
ATOM     82  C   UNL A   1      46.042  35.753  29.144  1.00  0.00     0.040 A 
ATOM     83  F   UNL A   1      44.708  34.524  27.653  1.00  0.00    -0.206 F 
ATOM     84  C   UNL A   1      46.767  35.838  30.332  1.00  0.00     0.006 A 
ENDBRANCH  60  77
ENDBRANCH  34  35
ENDBRANCH  27  29
ENDBRANCH  26  27
ENDBRANCH  25  26
ENDBRANCH   1  25
TORSDOF 15
ENDMDL
MODEL 2
REMARK VINA RESULT:     -11.7      4.178      7.056
REMARK SMILES Cc1cc(C)c2c(C(=O)OCCOCCOC(=O)c3ccc(-c4c5nc(c(-c6c(F)cccc6F)c6ccc([nH]6)c(-c6c(F)cccc6F)c6nc(c(-c7c(F)cccc7F)c7ccc4[nH]7)C=C6)C=C5)cc3)cc(-c3ccco3)nc2c1
REMARK SMILES IDX 14 1 13 2 12 3 11 4 10 5 8 6 9 7 7 8 1 9 2 10 3 11 82 12
REMARK SMILES IDX 4 13 81 14 5 15 6 16 80 17 74 18 73 19 75 20 76 21 79 22
REMARK SMILES IDX 77 23 78 24 15 25 16 26 17 27 18 28 19 29 20 30 72 31 21 32
REMARK SMILES IDX 71 33 22 34 23 35 24 36 65 37 25 38 70 39 64 40 66 41 26 42
REMARK SMILES IDX 69 43 63 44 62 45 27 47 53 48 36 49 52 50 37 51 40 52 51 53
REMARK SMILES IDX 67 54 38 55 39 56 50 58 68 59 41 60 28 61 29 62 34 63 30 64
REMARK SMILES IDX 31 65 33 66 35 67 32 68 54 69 55 70 60 71 56 72 57 73 59 74
REMARK SMILES IDX 61 75 58 76 42 77 43 78 48 79 44 80 45 81 47 82 49 83 46 84
REMARK H PARENT 66 46 40 57
REMARK Flexibility Score: inf
ROOT
ATOM      1  C   UNL A   1      41.969  20.399  26.141  1.00  0.00     0.202 C 
ENDROOT
BRANCH   1   2
ATOM      2  O   UNL A   1      40.718  20.760  26.733  1.00  0.00    -0.374 OA
BRANCH   2   3
ATOM      3  C   UNL A   1      39.549  20.606  25.922  1.00  0.00     0.202 C 
BRANCH   3   4
ATOM      4  C   UNL A   1      38.729  21.886  25.781  1.00  0.00     0.261 C 
BRANCH   4   5
ATOM      5  O   UNL A   1      37.355  21.490  25.657  1.00  0.00    -0.460 OA
BRANCH   5   6
ATOM      6  C   UNL A   1      36.699  21.907  24.567  1.00  0.00     0.338 C 
ATOM      7  O   UNL A   1      37.201  22.354  23.547  1.00  0.00    -0.246 OA
BRANCH   6   8
ATOM      8  C   UNL A   1      35.280  21.497  24.658  1.00  0.00     0.072 A 
ATOM      9  C   UNL A   1      30.393  24.369  23.581  1.00  0.00     0.044 C 
ATOM     10  C   UNL A   1      31.667  23.696  23.993  1.00  0.00    -0.049 A 
ATOM     11  C   UNL A   1      32.816  24.434  24.234  1.00  0.00     0.007 A 
ATOM     12  C   UNL A   1      31.741  22.309  24.101  1.00  0.00     0.032 A 
ATOM     13  C   UNL A   1      34.040  23.802  24.532  1.00  0.00    -0.041 A 
ATOM     14  C   UNL A   1      32.919  21.641  24.392  1.00  0.00     0.072 A 
ATOM     15  C   UNL A   1      35.161  24.731  24.918  1.00  0.00     0.045 C 
ATOM     16  C   UNL A   1      34.135  22.357  24.539  1.00  0.00     0.018 A 
ATOM     17  N   UNL A   1      32.797  20.311  24.503  1.00  0.00    -0.244 NA
ATOM     18  C   UNL A   1      33.890  19.565  24.728  1.00  0.00     0.107 A 
ATOM     19  C   UNL A   1      35.148  20.106  24.785  1.00  0.00     0.048 A 
BRANCH  18  20
ATOM     20  C   UNL A   1      33.665  18.147  24.926  1.00  0.00     0.152 A 
ATOM     21  C   UNL A   1      34.398  17.012  24.638  1.00  0.00     0.052 A 
ATOM     22  O   UNL A   1      32.467  17.798  25.478  1.00  0.00    -0.463 OA
ATOM     23  C   UNL A   1      33.603  15.910  25.038  1.00  0.00     0.043 A 
ATOM     24  C   UNL A   1      32.438  16.441  25.540  1.00  0.00     0.196 A 
ENDBRANCH  18  20
ENDBRANCH   6   8
ENDBRANCH   5   6
ENDBRANCH   4   5
ENDBRANCH   3   4
ENDBRANCH   2   3
ENDBRANCH   1   2
BRANCH   1  25
ATOM     25  C   UNL A   1      42.996  21.532  26.066  1.00  0.00     0.261 C 
BRANCH  25  26
ATOM     26  O   UNL A   1      42.686  22.455  25.006  1.00  0.00    -0.460 OA
BRANCH  26  27
ATOM     27  C   UNL A   1      43.434  23.580  24.993  1.00  0.00     0.338 C 
ATOM     28  O   UNL A   1      44.448  23.794  24.347  1.00  0.00    -0.246 OA
BRANCH  27  29
ATOM     29  C   UNL A   1      42.759  24.633  25.770  1.00  0.00     0.060 A 
ATOM     30  C   UNL A   1      43.403  25.872  25.883  1.00  0.00     0.016 A 
ATOM     31  C   UNL A   1      41.575  24.379  26.465  1.00  0.00     0.016 A 
ATOM     32  C   UNL A   1      42.893  26.847  26.735  1.00  0.00     0.010 A 
ATOM     33  C   UNL A   1      41.076  25.350  27.338  1.00  0.00     0.010 A 
ATOM     34  C   UNL A   1      41.759  26.568  27.506  1.00  0.00    -0.014 A 
BRANCH  34  35
ATOM     35  C   UNL A   1      41.418  27.457  28.641  1.00  0.00     0.031 A 
ATOM     36  C   UNL A   1      42.239  27.360  29.898  1.00  0.00     0.074 A 
ATOM     37  C   UNL A   1      40.421  28.354  28.549  1.00  0.00     0.049 A 
ATOM     38  N   UNL A   1      42.108  28.001  31.029  1.00  0.00    -0.248 NA
ATOM     39  C   UNL A   1      43.365  26.410  29.870  1.00  0.00     0.031 C 
ATOM     40  C   UNL A   1      39.596  28.586  27.366  1.00  0.00     0.029 A 
ATOM     41  N   UNL A   1      39.934  29.233  29.482  1.00  0.00    -0.354 N 
ATOM     42  C   UNL A   1      43.134  27.541  31.843  1.00  0.00     0.074 A 
ATOM     43  C   UNL A   1      43.863  26.545  31.088  1.00  0.00     0.031 C 
ATOM     44  C   UNL A   1      38.689  29.536  27.652  1.00  0.00     0.029 A 
ATOM     45  C   UNL A   1      38.853  29.955  29.042  1.00  0.00     0.049 A 
ATOM     46  H   UNL A   1      40.323  29.336  30.380  1.00  0.00     0.167 HD
ATOM     47  C   UNL A   1      43.449  27.919  33.105  1.00  0.00     0.037 A 
ATOM     48  C   UNL A   1      38.074  30.833  29.702  1.00  0.00     0.037 A 
ATOM     49  C   UNL A   1      42.710  28.889  33.866  1.00  0.00     0.049 A 
ATOM     50  C   UNL A   1      38.373  31.150  31.145  1.00  0.00     0.074 A 
ATOM     51  C   UNL A   1      42.938  29.331  35.158  1.00  0.00     0.029 A 
ATOM     52  N   UNL A   1      41.588  29.559  33.405  1.00  0.00    -0.354 N 
ATOM     53  N   UNL A   1      39.352  30.720  31.903  1.00  0.00    -0.248 NA
ATOM     54  C   UNL A   1      37.453  32.075  31.823  1.00  0.00     0.031 C 
ATOM     55  C   UNL A   1      41.926  30.238  35.493  1.00  0.00     0.029 A 
ATOM     56  C   UNL A   1      41.097  30.394  34.395  1.00  0.00     0.049 A 
ATOM     57  H   UNL A   1      41.197  29.457  32.507  1.00  0.00     0.167 HD
ATOM     58  C   UNL A   1      39.185  31.346  33.133  1.00  0.00     0.074 A 
ATOM     59  C   UNL A   1      38.014  32.189  33.018  1.00  0.00     0.031 C 
ATOM     60  C   UNL A   1      39.936  31.236  34.257  1.00  0.00     0.037 A 
BRANCH  47  61
ATOM     61  C   UNL A   1      44.628  27.249  33.744  1.00  0.00     0.057 A 
ATOM     62  C   UNL A   1      44.473  26.052  34.453  1.00  0.00     0.134 A 
ATOM     63  C   UNL A   1      45.917  27.792  33.661  1.00  0.00     0.134 A 
ATOM     64  F   UNL A   1      43.265  25.480  34.569  1.00  0.00    -0.206 F 
ATOM     65  C   UNL A   1      45.559  25.417  35.058  1.00  0.00     0.040 A 
ATOM     66  C   UNL A   1      47.014  27.153  34.241  1.00  0.00     0.040 A 
ATOM     67  F   UNL A   1      46.134  28.926  32.979  1.00  0.00    -0.206 F 
ATOM     68  C   UNL A   1      46.836  25.965  34.946  1.00  0.00     0.006 A 
ENDBRANCH  47  61
BRANCH  48  69
ATOM     69  C   UNL A   1      36.917  31.466  29.022  1.00  0.00     0.057 A 
ATOM     70  C   UNL A   1      35.714  30.774  28.838  1.00  0.00     0.134 A 
ATOM     71  C   UNL A   1      36.973  32.794  28.584  1.00  0.00     0.134 A 
ATOM     72  F   UNL A   1      35.597  29.500  29.239  1.00  0.00    -0.206 F 
ATOM     73  C   UNL A   1      34.608  31.379  28.240  1.00  0.00     0.040 A 
ATOM     74  C   UNL A   1      35.867  33.419  28.005  1.00  0.00     0.040 A 
ATOM     75  F   UNL A   1      38.090  33.515  28.756  1.00  0.00    -0.206 F 
ATOM     76  C   UNL A   1      34.681  32.709  27.830  1.00  0.00     0.006 A 
ENDBRANCH  48  69
BRANCH  60  77
ATOM     77  C   UNL A   1      39.542  32.082  35.431  1.00  0.00     0.057 A 
ATOM     78  C   UNL A   1      40.103  33.353  35.610  1.00  0.00     0.134 A 
ATOM     79  C   UNL A   1      38.640  31.630  36.401  1.00  0.00     0.134 A 
ATOM     80  F   UNL A   1      40.980  33.843  34.721  1.00  0.00    -0.206 F 
ATOM     81  C   UNL A   1      39.782  34.145  36.714  1.00  0.00     0.040 A 
ATOM     82  C   UNL A   1      38.293  32.421  37.498  1.00  0.00     0.040 A 
ATOM     83  F   UNL A   1      38.058  30.426  36.281  1.00  0.00    -0.206 F 
ATOM     84  C   UNL A   1      38.869  33.680  37.659  1.00  0.00     0.006 A 
ENDBRANCH  60  77
ENDBRANCH  34  35
ENDBRANCH  27  29
ENDBRANCH  26  27
ENDBRANCH  25  26
ENDBRANCH   1  25
TORSDOF 15
ENDMDL
MODEL 3
REMARK VINA RESULT:     -11.7      4.277     10.165
REMARK SMILES Cc1cc(C)c2c(C(=O)OCCOCCOC(=O)c3ccc(-c4c5nc(c(-c6c(F)cccc6F)c6ccc([nH]6)c(-c6c(F)cccc6F)c6nc(c(-c7c(F)cccc7F)c7ccc4[nH]7)C=C6)C=C5)cc3)cc(-c3ccco3)nc2c1
REMARK SMILES IDX 14 1 13 2 12 3 11 4 10 5 8 6 9 7 7 8 1 9 2 10 3 11 82 12
REMARK SMILES IDX 4 13 81 14 5 15 6 16 80 17 74 18 73 19 75 20 76 21 79 22
REMARK SMILES IDX 77 23 78 24 15 25 16 26 17 27 18 28 19 29 20 30 72 31 21 32
REMARK SMILES IDX 71 33 22 34 23 35 24 36 65 37 25 38 70 39 64 40 66 41 26 42
REMARK SMILES IDX 69 43 63 44 62 45 27 47 53 48 36 49 52 50 37 51 40 52 51 53
REMARK SMILES IDX 67 54 38 55 39 56 50 58 68 59 41 60 28 61 29 62 34 63 30 64
REMARK SMILES IDX 31 65 33 66 35 67 32 68 54 69 55 70 60 71 56 72 57 73 59 74
REMARK SMILES IDX 61 75 58 76 42 77 43 78 48 79 44 80 45 81 47 82 49 83 46 84
REMARK H PARENT 66 46 40 57
REMARK Flexibility Score: inf
ROOT
ATOM      1  C   UNL A   1      44.449  19.711  25.353  1.00  0.00     0.202 C 
ENDROOT
BRANCH   1   2
ATOM      2  O   UNL A   1      44.377  20.431  24.120  1.00  0.00    -0.374 OA
BRANCH   2   3
ATOM      3  C   UNL A   1      45.390  21.415  23.885  1.00  0.00     0.202 C 
BRANCH   3   4
ATOM      4  C   UNL A   1      44.869  22.849  23.916  1.00  0.00     0.261 C 
BRANCH   4   5
ATOM      5  O   UNL A   1      46.016  23.711  23.872  1.00  0.00    -0.460 OA
BRANCH   5   6
ATOM      6  C   UNL A   1      46.502  24.134  25.046  1.00  0.00     0.338 C 
ATOM      7  O   UNL A   1      46.761  23.436  26.016  1.00  0.00    -0.246 OA
BRANCH   6   8
ATOM      8  C   UNL A   1      46.948  25.539  24.919  1.00  0.00     0.072 A 
ATOM      9  C   UNL A   1      44.758  30.448  27.017  1.00  0.00     0.044 C 
ATOM     10  C   UNL A   1      45.220  29.180  26.365  1.00  0.00    -0.049 A 
ATOM     11  C   UNL A   1      44.383  28.077  26.281  1.00  0.00     0.007 A 
ATOM     12  C   UNL A   1      46.515  29.061  25.869  1.00  0.00     0.032 A 
ATOM     13  C   UNL A   1      44.839  26.853  25.753  1.00  0.00    -0.041 A 
ATOM     14  C   UNL A   1      47.011  27.881  25.340  1.00  0.00     0.072 A 
ATOM     15  C   UNL A   1      43.780  25.796  25.585  1.00  0.00     0.045 C 
ATOM     16  C   UNL A   1      46.218  26.704  25.335  1.00  0.00     0.018 A 
ATOM     17  N   UNL A   1      48.263  27.960  24.865  1.00  0.00    -0.244 NA
ATOM     18  C   UNL A   1      48.857  26.857  24.383  1.00  0.00     0.107 A 
ATOM     19  C   UNL A   1      48.253  25.627  24.413  1.00  0.00     0.048 A 
BRANCH  18  20
ATOM     20  C   UNL A   1      50.173  27.042  23.806  1.00  0.00     0.152 A 
ATOM     21  C   UNL A   1      50.630  27.325  22.534  1.00  0.00     0.052 A 
ATOM     22  O   UNL A   1      51.231  26.870  24.651  1.00  0.00    -0.463 OA
ATOM     23  C   UNL A   1      52.045  27.329  22.608  1.00  0.00     0.043 A 
ATOM     24  C   UNL A   1      52.360  27.044  23.916  1.00  0.00     0.196 A 
ENDBRANCH  18  20
ENDBRANCH   6   8
ENDBRANCH   5   6
ENDBRANCH   4   5
ENDBRANCH   3   4
ENDBRANCH   2   3
ENDBRANCH   1   2
BRANCH   1  25
ATOM     25  C   UNL A   1      43.430  18.577  25.497  1.00  0.00     0.261 C 
BRANCH  25  26
ATOM     26  O   UNL A   1      42.491  18.843  26.555  1.00  0.00    -0.460 OA
BRANCH  26  27
ATOM     27  C   UNL A   1      41.365  19.483  26.170  1.00  0.00     0.338 C 
ATOM     28  O   UNL A   1      40.414  19.018  25.561  1.00  0.00    -0.246 OA
BRANCH  27  29
ATOM     29  C   UNL A   1      41.349  20.842  26.738  1.00  0.00     0.060 A 
ATOM     30  C   UNL A   1      41.636  21.909  25.877  1.00  0.00     0.016 A 
ATOM     31  C   UNL A   1      41.164  21.057  28.105  1.00  0.00     0.016 A 
ATOM     32  C   UNL A   1      41.794  23.194  26.390  1.00  0.00     0.010 A 
ATOM     33  C   UNL A   1      41.345  22.343  28.622  1.00  0.00     0.010 A 
ATOM     34  C   UNL A   1      41.703  23.404  27.771  1.00  0.00    -0.014 A 
BRANCH  34  35
ATOM     35  C   UNL A   1      42.195  24.679  28.343  1.00  0.00     0.031 A 
ATOM     36  C   UNL A   1      41.225  25.819  28.487  1.00  0.00     0.074 A 
ATOM     37  C   UNL A   1      43.468  24.814  28.752  1.00  0.00     0.049 A 
ATOM     38  N   UNL A   1      41.430  27.036  28.921  1.00  0.00    -0.248 NA
ATOM     39  C   UNL A   1      39.833  25.546  28.092  1.00  0.00     0.031 C 
ATOM     40  C   UNL A   1      44.484  23.765  28.721  1.00  0.00     0.029 A 
ATOM     41  N   UNL A   1      44.118  25.903  29.271  1.00  0.00    -0.354 N 
ATOM     42  C   UNL A   1      40.195  27.669  28.859  1.00  0.00     0.074 A 
ATOM     43  C   UNL A   1      39.253  26.714  28.319  1.00  0.00     0.031 C 
ATOM     44  C   UNL A   1      45.641  24.269  29.185  1.00  0.00     0.029 A 
ATOM     45  C   UNL A   1      45.450  25.680  29.517  1.00  0.00     0.049 A 
ATOM     46  H   UNL A   1      43.673  26.762  29.450  1.00  0.00     0.167 HD
ATOM     47  C   UNL A   1      39.873  28.932  29.227  1.00  0.00     0.037 A 
ATOM     48  C   UNL A   1      46.406  26.530  29.938  1.00  0.00     0.037 A 
ATOM     49  C   UNL A   1      40.813  29.891  29.739  1.00  0.00     0.049 A 
ATOM     50  C   UNL A   1      46.046  27.965  30.229  1.00  0.00     0.074 A 
ATOM     51  C   UNL A   1      40.589  31.201  30.126  1.00  0.00     0.029 A 
ATOM     52  N   UNL A   1      42.164  29.644  29.922  1.00  0.00    -0.354 N 
ATOM     53  N   UNL A   1      44.875  28.552  30.178  1.00  0.00    -0.248 NA
ATOM     54  C   UNL A   1      47.145  28.854  30.632  1.00  0.00     0.031 C 
ATOM     55  C   UNL A   1      41.815  31.759  30.504  1.00  0.00     0.029 A 
ATOM     56  C   UNL A   1      42.793  30.783  30.395  1.00  0.00     0.049 A 
ATOM     57  H   UNL A   1      42.612  28.785  29.743  1.00  0.00     0.167 HD
ATOM     58  C   UNL A   1      45.091  29.867  30.575  1.00  0.00     0.074 A 
ATOM     59  C   UNL A   1      46.503  29.989  30.867  1.00  0.00     0.031 C 
ATOM     60  C   UNL A   1      44.199  30.882  30.692  1.00  0.00     0.037 A 
BRANCH  47  61
ATOM     61  C   UNL A   1      38.443  29.348  29.052  1.00  0.00     0.057 A 
ATOM     62  C   UNL A   1      37.559  29.344  30.137  1.00  0.00     0.134 A 
ATOM     63  C   UNL A   1      37.939  29.750  27.808  1.00  0.00     0.134 A 
ATOM     64  F   UNL A   1      37.978  28.971  31.356  1.00  0.00    -0.206 F 
ATOM     65  C   UNL A   1      36.224  29.725  29.993  1.00  0.00     0.040 A 
ATOM     66  C   UNL A   1      36.613  30.155  27.655  1.00  0.00     0.040 A 
ATOM     67  F   UNL A   1      38.741  29.794  26.733  1.00  0.00    -0.206 F 
ATOM     68  C   UNL A   1      35.750  30.139  28.749  1.00  0.00     0.006 A 
ENDBRANCH  47  61
BRANCH  48  69
ATOM     69  C   UNL A   1      47.806  26.066  30.092  1.00  0.00     0.057 A 
ATOM     70  C   UNL A   1      48.685  26.029  29.002  1.00  0.00     0.134 A 
ATOM     71  C   UNL A   1      48.312  25.694  31.342  1.00  0.00     0.134 A 
ATOM     72  F   UNL A   1      48.260  26.377  27.778  1.00  0.00    -0.206 F 
ATOM     73  C   UNL A   1      50.015  25.637  29.149  1.00  0.00     0.040 A 
ATOM     74  C   UNL A   1      49.648  25.321  31.508  1.00  0.00     0.040 A 
ATOM     75  F   UNL A   1      47.526  25.733  32.427  1.00  0.00    -0.206 F 
ATOM     76  C   UNL A   1      50.502  25.290  30.408  1.00  0.00     0.006 A 
ENDBRANCH  48  69
BRANCH  60  77
ATOM     77  C   UNL A   1      44.716  32.195  31.199  1.00  0.00     0.057 A 
ATOM     78  C   UNL A   1      45.179  33.169  30.305  1.00  0.00     0.134 A 
ATOM     79  C   UNL A   1      44.788  32.486  32.566  1.00  0.00     0.134 A 
ATOM     80  F   UNL A   1      45.145  32.951  28.982  1.00  0.00    -0.206 F 
ATOM     81  C   UNL A   1      45.700  34.384  30.753  1.00  0.00     0.040 A 
ATOM     82  C   UNL A   1      45.285  33.707  33.027  1.00  0.00     0.040 A 
ATOM     83  F   UNL A   1      44.348  31.600  33.474  1.00  0.00    -0.206 F 
ATOM     84  C   UNL A   1      45.748  34.658  32.118  1.00  0.00     0.006 A 
ENDBRANCH  60  77
ENDBRANCH  34  35
ENDBRANCH  27  29
ENDBRANCH  26  27
ENDBRANCH  25  26
ENDBRANCH   1  25
TORSDOF 15
ENDMDL
