MODEL 1
REMARK VINA RESULT:     -10.7      0.000      0.000
REMARK SMILES CO[C@H]1C[C@@H](C(=O)OCCOCCOC(=O)c2ccc(-c3c4nc(c(-c5c(F)cccc5F)c5ccc([nH]5)c(-c5c(F)cccc5F)c5nc(c(-c6c(F)cccc6F)c6ccc3[nH]6)C=C5)C=C4)cc2)N(C(=O)c2cc(SC)ccc2C)C1
REMARK SMILES IDX 10 1 9 2 8 3 6 4 7 5 5 6 3 7 4 8 83 9 71 10 2 11 1 12 72 13
REMARK SMILES IDX 73 14 74 15 75 16 81 17 76 18 80 19 82 20 79 21 77 22 78 23
REMARK SMILES IDX 11 24 12 25 13 26 14 27 15 28 16 29 17 30 18 31 70 32 19 33
REMARK SMILES IDX 69 34 20 35 21 36 22 37 63 38 23 39 68 40 62 41 64 42 24 43
REMARK SMILES IDX 67 44 61 45 60 46 25 48 51 49 34 50 50 51 35 52 38 53 49 54
REMARK SMILES IDX 65 55 36 56 37 57 48 59 66 60 39 61 26 62 27 63 32 64 28 65
REMARK SMILES IDX 29 66 31 67 33 68 30 69 52 70 53 71 58 72 54 73 55 74 57 75
REMARK SMILES IDX 59 76 56 77 40 78 41 79 46 80 42 81 43 82 45 83 47 84 44 85
REMARK H PARENT 64 47 38 58
REMARK Flexibility Score: inf
ROOT
ATOM      1  C   UNL A   1      32.044  29.941  26.558  1.00  0.00     0.202 C 
ENDROOT
BRANCH   1   2
ATOM      2  C   UNL A   1      31.862  28.524  25.988  1.00  0.00     0.261 C 
BRANCH   2   3
ATOM      3  O   UNL A   1      32.934  27.592  26.198  1.00  0.00    -0.462 OA
BRANCH   3   4
ATOM      4  C   UNL A   1      33.649  27.339  25.074  1.00  0.00     0.329 C 
ATOM      5  O   UNL A   1      34.201  28.206  24.398  1.00  0.00    -0.250 OA
BRANCH   4   6
ATOM      6  C   UNL A   1      33.554  25.897  24.572  1.00  0.00     0.198 C 
ATOM      7  C   UNL A   1      34.700  23.793  24.764  1.00  0.00     0.140 C 
ATOM      8  C   UNL A   1      34.642  25.173  25.382  1.00  0.00     0.071 C 
ATOM      9  C   UNL A   1      34.477  24.097  23.286  1.00  0.00     0.152 C 
ATOM     10  N   UNL A   1      33.772  25.384  23.206  1.00  0.00    -0.322 N 
BRANCH   7  11
ATOM     11  O   UNL A   1      35.969  23.176  24.954  1.00  0.00    -0.380 OA
ATOM     12  C   UNL A   1      36.697  23.719  26.047  1.00  0.00     0.195 C 
ENDBRANCH   7  11
BRANCH  10  13
ATOM     13  C   UNL A   1      32.785  25.449  22.226  1.00  0.00     0.254 C 
ATOM     14  O   UNL A   1      33.018  25.176  21.048  1.00  0.00    -0.269 OA
BRANCH  13  15
ATOM     15  C   UNL A   1      31.430  25.973  22.528  1.00  0.00     0.044 A 
ATOM     16  C   UNL A   1      31.219  27.322  22.170  1.00  0.00     0.029 A 
ATOM     17  C   UNL A   1      30.508  25.327  23.367  1.00  0.00    -0.038 A 
ATOM     18  C   UNL A   1      30.104  28.042  22.617  1.00  0.00     0.008 A 
ATOM     19  C   UNL A   1      29.397  26.062  23.816  1.00  0.00     0.005 A 
ATOM     20  C   UNL A   1      30.633  23.911  23.851  1.00  0.00     0.045 C 
ATOM     21  C   UNL A   1      29.198  27.399  23.457  1.00  0.00     0.015 A 
BRANCH  18  22
ATOM     22  S   UNL A   1      29.993  29.763  22.153  1.00  0.00    -0.130 SA
ATOM     23  C   UNL A   1      28.916  30.464  23.432  1.00  0.00     0.091 C 
ENDBRANCH  18  22
ENDBRANCH  13  15
ENDBRANCH  10  13
ENDBRANCH   4   6
ENDBRANCH   3   4
ENDBRANCH   2   3
ENDBRANCH   1   2
BRANCH   1  24
ATOM     24  O   UNL A   1      31.480  31.029  25.838  1.00  0.00    -0.374 OA
BRANCH  24  25
ATOM     25  C   UNL A   1      31.166  32.209  26.580  1.00  0.00     0.202 C 
BRANCH  25  26
ATOM     26  C   UNL A   1      32.356  33.122  26.860  1.00  0.00     0.261 C 
BRANCH  26  27
ATOM     27  O   UNL A   1      32.194  33.724  28.155  1.00  0.00    -0.460 OA
BRANCH  27  28
ATOM     28  C   UNL A   1      33.216  34.517  28.527  1.00  0.00     0.338 C 
ATOM     29  O   UNL A   1      33.193  35.730  28.706  1.00  0.00    -0.246 OA
BRANCH  28  30
ATOM     30  C   UNL A   1      34.391  33.676  28.773  1.00  0.00     0.060 A 
ATOM     31  C   UNL A   1      34.207  32.365  29.222  1.00  0.00     0.016 A 
ATOM     32  C   UNL A   1      35.670  34.220  28.660  1.00  0.00     0.016 A 
ATOM     33  C   UNL A   1      35.314  31.613  29.620  1.00  0.00     0.010 A 
ATOM     34  C   UNL A   1      36.779  33.453  29.019  1.00  0.00     0.010 A 
ATOM     35  C   UNL A   1      36.604  32.164  29.552  1.00  0.00    -0.014 A 
BRANCH  35  36
ATOM     36  C   UNL A   1      37.749  31.460  30.182  1.00  0.00     0.031 A 
ATOM     37  C   UNL A   1      38.092  31.751  31.619  1.00  0.00     0.074 A 
ATOM     38  C   UNL A   1      38.470  30.559  29.489  1.00  0.00     0.049 A 
ATOM     39  N   UNL A   1      39.044  31.248  32.363  1.00  0.00    -0.248 NA
ATOM     40  C   UNL A   1      37.257  32.748  32.308  1.00  0.00     0.031 C 
ATOM     41  C   UNL A   1      38.246  30.189  28.093  1.00  0.00     0.029 A 
ATOM     42  N   UNL A   1      39.542  29.794  29.874  1.00  0.00    -0.354 N 
ATOM     43  C   UNL A   1      38.926  31.869  33.600  1.00  0.00     0.074 A 
ATOM     44  C   UNL A   1      37.837  32.816  33.496  1.00  0.00     0.031 C 
ATOM     45  C   UNL A   1      39.152  29.262  27.738  1.00  0.00     0.029 A 
ATOM     46  C   UNL A   1      40.028  28.988  28.874  1.00  0.00     0.049 A 
ATOM     47  H   UNL A   1      39.925  29.820  30.780  1.00  0.00     0.167 HD
ATOM     48  C   UNL A   1      39.644  31.658  34.728  1.00  0.00     0.037 A 
ATOM     49  C   UNL A   1      41.068  28.132  28.876  1.00  0.00     0.037 A 
ATOM     50  C   UNL A   1      40.714  30.704  34.845  1.00  0.00     0.049 A 
ATOM     51  C   UNL A   1      41.871  27.935  30.133  1.00  0.00     0.074 A 
ATOM     52  C   UNL A   1      41.466  30.384  35.963  1.00  0.00     0.029 A 
ATOM     53  N   UNL A   1      41.186  29.920  33.805  1.00  0.00    -0.354 N 
ATOM     54  N   UNL A   1      41.714  28.492  31.310  1.00  0.00    -0.248 NA
ATOM     55  C   UNL A   1      42.993  26.988  30.062  1.00  0.00     0.031 C 
ATOM     56  C   UNL A   1      42.420  29.431  35.589  1.00  0.00     0.029 A 
ATOM     57  C   UNL A   1      42.237  29.133  34.249  1.00  0.00     0.049 A 
ATOM     58  H   UNL A   1      40.830  29.922  32.888  1.00  0.00     0.167 HD
ATOM     59  C   UNL A   1      42.701  27.948  32.123  1.00  0.00     0.074 A 
ATOM     60  C   UNL A   1      43.443  27.008  31.309  1.00  0.00     0.031 C 
ATOM     61  C   UNL A   1      42.967  28.203  33.427  1.00  0.00     0.037 A 
BRANCH  48  62
ATOM     62  C   UNL A   1      39.294  32.481  35.932  1.00  0.00     0.057 A 
ATOM     63  C   UNL A   1      39.844  33.753  36.139  1.00  0.00     0.134 A 
ATOM     64  C   UNL A   1      38.371  32.013  36.875  1.00  0.00     0.134 A 
ATOM     65  F   UNL A   1      40.746  34.252  35.279  1.00  0.00    -0.206 F 
ATOM     66  C   UNL A   1      39.503  34.522  37.252  1.00  0.00     0.040 A 
ATOM     67  C   UNL A   1      38.007  32.782  37.981  1.00  0.00     0.040 A 
ATOM     68  F   UNL A   1      37.807  30.805  36.733  1.00  0.00    -0.206 F 
ATOM     69  C   UNL A   1      38.576  34.039  38.174  1.00  0.00     0.006 A 
ENDBRANCH  48  62
BRANCH  49  70
ATOM     70  C   UNL A   1      41.406  27.382  27.642  1.00  0.00     0.057 A 
ATOM     71  C   UNL A   1      40.803  26.154  27.354  1.00  0.00     0.134 A 
ATOM     72  C   UNL A   1      42.346  27.873  26.728  1.00  0.00     0.134 A 
ATOM     73  F   UNL A   1      39.913  25.623  28.206  1.00  0.00    -0.206 F 
ATOM     74  C   UNL A   1      41.129  25.432  26.205  1.00  0.00     0.040 A 
ATOM     75  C   UNL A   1      42.665  27.173  25.565  1.00  0.00     0.040 A 
ATOM     76  F   UNL A   1      42.956  29.046  26.949  1.00  0.00    -0.206 F 
ATOM     77  C   UNL A   1      42.060  25.945  25.304  1.00  0.00     0.006 A 
ENDBRANCH  49  70
BRANCH  61  78
ATOM     78  C   UNL A   1      44.096  27.445  34.059  1.00  0.00     0.057 A 
ATOM     79  C   UNL A   1      43.895  26.198  34.663  1.00  0.00     0.134 A 
ATOM     80  C   UNL A   1      45.402  27.949  34.027  1.00  0.00     0.134 A 
ATOM     81  F   UNL A   1      42.665  25.669  34.736  1.00  0.00    -0.206 F 
ATOM     82  C   UNL A   1      44.953  25.487  35.232  1.00  0.00     0.040 A 
ATOM     83  C   UNL A   1      46.471  27.237  34.573  1.00  0.00     0.040 A 
ATOM     84  F   UNL A   1      45.661  29.134  33.455  1.00  0.00    -0.206 F 
ATOM     85  C   UNL A   1      46.246  26.004  35.181  1.00  0.00     0.006 A 
ENDBRANCH  61  78
ENDBRANCH  35  36
ENDBRANCH  28  30
ENDBRANCH  27  28
ENDBRANCH  26  27
ENDBRANCH  25  26
ENDBRANCH  24  25
ENDBRANCH   1  24
TORSDOF 18
ENDMDL
MODEL 2
REMARK VINA RESULT:     -10.7      0.436      6.157
REMARK SMILES CO[C@H]1C[C@@H](C(=O)OCCOCCOC(=O)c2ccc(-c3c4nc(c(-c5c(F)cccc5F)c5ccc([nH]5)c(-c5c(F)cccc5F)c5nc(c(-c6c(F)cccc6F)c6ccc3[nH]6)C=C5)C=C4)cc2)N(C(=O)c2cc(SC)ccc2C)C1
REMARK SMILES IDX 10 1 9 2 8 3 6 4 7 5 5 6 3 7 4 8 83 9 71 10 2 11 1 12 72 13
REMARK SMILES IDX 73 14 74 15 75 16 81 17 76 18 80 19 82 20 79 21 77 22 78 23
REMARK SMILES IDX 11 24 12 25 13 26 14 27 15 28 16 29 17 30 18 31 70 32 19 33
REMARK SMILES IDX 69 34 20 35 21 36 22 37 63 38 23 39 68 40 62 41 64 42 24 43
REMARK SMILES IDX 67 44 61 45 60 46 25 48 51 49 34 50 50 51 35 52 38 53 49 54
REMARK SMILES IDX 65 55 36 56 37 57 48 59 66 60 39 61 26 62 27 63 32 64 28 65
REMARK SMILES IDX 29 66 31 67 33 68 30 69 52 70 53 71 58 72 54 73 55 74 57 75
REMARK SMILES IDX 59 76 56 77 40 78 41 79 46 80 42 81 43 82 45 83 47 84 44 85
REMARK H PARENT 64 47 38 58
REMARK Flexibility Score: inf
ROOT
ATOM      1  C   UNL A   1      31.911  29.736  26.873  1.00  0.00     0.202 C 
ENDROOT
BRANCH   1   2
ATOM      2  C   UNL A   1      31.857  28.365  26.177  1.00  0.00     0.261 C 
BRANCH   2   3
ATOM      3  O   UNL A   1      32.973  27.485  26.377  1.00  0.00    -0.462 OA
BRANCH   3   4
ATOM      4  C   UNL A   1      33.682  27.255  25.244  1.00  0.00     0.329 C 
ATOM      5  O   UNL A   1      34.314  28.121  24.639  1.00  0.00    -0.250 OA
BRANCH   4   6
ATOM      6  C   UNL A   1      33.475  25.867  24.636  1.00  0.00     0.198 C 
ATOM      7  C   UNL A   1      34.396  23.649  24.736  1.00  0.00     0.140 C 
ATOM      8  C   UNL A   1      34.438  24.984  25.447  1.00  0.00     0.071 C 
ATOM      9  C   UNL A   1      34.290  24.071  23.274  1.00  0.00     0.152 C 
ATOM     10  N   UNL A   1      33.721  25.426  23.250  1.00  0.00    -0.322 N 
BRANCH   7  11
ATOM     11  O   UNL A   1      35.585  22.895  24.947  1.00  0.00    -0.380 OA
ATOM     12  C   UNL A   1      36.720  23.705  25.222  1.00  0.00     0.195 C 
ENDBRANCH   7  11
BRANCH  10  13
ATOM     13  C   UNL A   1      32.804  25.656  22.228  1.00  0.00     0.254 C 
ATOM     14  O   UNL A   1      33.131  25.626  21.040  1.00  0.00    -0.269 OA
BRANCH  13  15
ATOM     15  C   UNL A   1      31.410  26.072  22.519  1.00  0.00     0.044 A 
ATOM     16  C   UNL A   1      31.148  27.447  22.336  1.00  0.00     0.029 A 
ATOM     17  C   UNL A   1      30.481  25.277  23.208  1.00  0.00    -0.038 A 
ATOM     18  C   UNL A   1      29.977  28.049  22.813  1.00  0.00     0.008 A 
ATOM     19  C   UNL A   1      29.312  25.893  23.688  1.00  0.00     0.005 A 
ATOM     20  C   UNL A   1      30.653  23.814  23.501  1.00  0.00     0.045 C 
ATOM     21  C   UNL A   1      29.064  27.257  23.503  1.00  0.00     0.015 A 
BRANCH  18  22
ATOM     22  S   UNL A   1      29.801  29.811  22.581  1.00  0.00    -0.130 SA
ATOM     23  C   UNL A   1      28.003  30.042  22.534  1.00  0.00     0.091 C 
ENDBRANCH  18  22
ENDBRANCH  13  15
ENDBRANCH  10  13
ENDBRANCH   4   6
ENDBRANCH   3   4
ENDBRANCH   2   3
ENDBRANCH   1   2
BRANCH   1  24
ATOM     24  O   UNL A   1      31.629  30.892  26.096  1.00  0.00    -0.374 OA
BRANCH  24  25
ATOM     25  C   UNL A   1      31.269  32.081  26.803  1.00  0.00     0.202 C 
BRANCH  25  26
ATOM     26  C   UNL A   1      32.368  33.138  26.874  1.00  0.00     0.261 C 
BRANCH  26  27
ATOM     27  O   UNL A   1      32.210  33.900  28.083  1.00  0.00    -0.460 OA
BRANCH  27  28
ATOM     28  C   UNL A   1      33.272  34.668  28.393  1.00  0.00     0.338 C 
ATOM     29  O   UNL A   1      33.325  35.893  28.424  1.00  0.00    -0.246 OA
BRANCH  28  30
ATOM     30  C   UNL A   1      34.381  33.791  28.779  1.00  0.00     0.060 A 
ATOM     31  C   UNL A   1      34.103  32.600  29.455  1.00  0.00     0.016 A 
ATOM     32  C   UNL A   1      35.697  34.201  28.567  1.00  0.00     0.016 A 
ATOM     33  C   UNL A   1      35.154  31.843  29.976  1.00  0.00     0.010 A 
ATOM     34  C   UNL A   1      36.748  33.423  29.052  1.00  0.00     0.010 A 
ATOM     35  C   UNL A   1      36.482  32.267  29.806  1.00  0.00    -0.014 A 
BRANCH  35  36
ATOM     36  C   UNL A   1      37.579  31.595  30.547  1.00  0.00     0.031 A 
ATOM     37  C   UNL A   1      38.413  30.555  29.844  1.00  0.00     0.074 A 
ATOM     38  C   UNL A   1      37.843  31.914  31.827  1.00  0.00     0.049 A 
ATOM     39  N   UNL A   1      39.418  29.852  30.300  1.00  0.00    -0.248 NA
ATOM     40  C   UNL A   1      38.062  30.262  28.445  1.00  0.00     0.031 C 
ATOM     41  C   UNL A   1      37.111  32.898  32.621  1.00  0.00     0.029 A 
ATOM     42  N   UNL A   1      38.804  31.436  32.682  1.00  0.00    -0.354 N 
ATOM     43  C   UNL A   1      39.814  29.033  29.250  1.00  0.00     0.074 A 
ATOM     44  C   UNL A   1      38.915  29.295  28.147  1.00  0.00     0.031 C 
ATOM     45  C   UNL A   1      37.654  32.955  33.851  1.00  0.00     0.029 A 
ATOM     46  C   UNL A   1      38.756  31.999  33.932  1.00  0.00     0.049 A 
ATOM     47  H   UNL A   1      39.465  30.754  32.422  1.00  0.00     0.167 HD
ATOM     48  C   UNL A   1      40.844  28.156  29.199  1.00  0.00     0.037 A 
ATOM     49  C   UNL A   1      39.513  31.765  35.021  1.00  0.00     0.037 A 
ATOM     50  C   UNL A   1      41.754  27.905  30.284  1.00  0.00     0.049 A 
ATOM     51  C   UNL A   1      40.634  30.764  34.950  1.00  0.00     0.074 A 
ATOM     52  C   UNL A   1      42.859  27.072  30.307  1.00  0.00     0.029 A 
ATOM     53  N   UNL A   1      41.660  28.484  31.539  1.00  0.00    -0.354 N 
ATOM     54  N   UNL A   1      41.028  30.035  33.935  1.00  0.00    -0.248 NA
ATOM     55  C   UNL A   1      41.417  30.557  36.177  1.00  0.00     0.031 C 
ATOM     56  C   UNL A   1      43.413  27.118  31.592  1.00  0.00     0.029 A 
ATOM     57  C   UNL A   1      42.674  28.007  32.354  1.00  0.00     0.049 A 
ATOM     58  H   UNL A   1      40.976  29.136  31.811  1.00  0.00     0.167 HD
ATOM     59  C   UNL A   1      42.115  29.301  34.391  1.00  0.00     0.074 A 
ATOM     60  C   UNL A   1      42.326  29.681  35.773  1.00  0.00     0.031 C 
ATOM     61  C   UNL A   1      42.871  28.394  33.727  1.00  0.00     0.037 A 
BRANCH  48  62
ATOM     62  C   UNL A   1      41.040  27.398  27.920  1.00  0.00     0.057 A 
ATOM     63  C   UNL A   1      40.438  26.151  27.704  1.00  0.00     0.134 A 
ATOM     64  C   UNL A   1      41.809  27.934  26.880  1.00  0.00     0.134 A 
ATOM     65  F   UNL A   1      39.701  25.576  28.667  1.00  0.00    -0.206 F 
ATOM     66  C   UNL A   1      40.610  25.456  26.506  1.00  0.00     0.040 A 
ATOM     67  C   UNL A   1      41.971  27.259  25.670  1.00  0.00     0.040 A 
ATOM     68  F   UNL A   1      42.409  29.126  27.023  1.00  0.00    -0.206 F 
ATOM     69  C   UNL A   1      41.374  26.014  25.482  1.00  0.00     0.006 A 
ENDBRANCH  48  62
BRANCH  49  70
ATOM     70  C   UNL A   1      39.242  32.504  36.279  1.00  0.00     0.057 A 
ATOM     71  C   UNL A   1      39.881  33.716  36.557  1.00  0.00     0.134 A 
ATOM     72  C   UNL A   1      38.345  32.009  37.233  1.00  0.00     0.134 A 
ATOM     73  F   UNL A   1      40.768  34.226  35.690  1.00  0.00    -0.206 F 
ATOM     74  C   UNL A   1      39.646  34.408  37.747  1.00  0.00     0.040 A 
ATOM     75  C   UNL A   1      38.085  32.701  38.416  1.00  0.00     0.040 A 
ATOM     76  F   UNL A   1      37.702  30.852  37.022  1.00  0.00    -0.206 F 
ATOM     77  C   UNL A   1      38.742  33.902  38.678  1.00  0.00     0.006 A 
ENDBRANCH  49  70
BRANCH  61  78
ATOM     78  C   UNL A   1      44.006  27.763  34.477  1.00  0.00     0.057 A 
ATOM     79  C   UNL A   1      43.855  26.540  35.143  1.00  0.00     0.134 A 
ATOM     80  C   UNL A   1      45.270  28.363  34.499  1.00  0.00     0.134 A 
ATOM     81  F   UNL A   1      42.665  25.922  35.168  1.00  0.00    -0.206 F 
ATOM     82  C   UNL A   1      44.920  25.946  35.822  1.00  0.00     0.040 A 
ATOM     83  C   UNL A   1      46.348  27.769  35.156  1.00  0.00     0.040 A 
ATOM     84  F   UNL A   1      45.480  29.531  33.872  1.00  0.00    -0.206 F 
ATOM     85  C   UNL A   1      46.173  26.558  35.824  1.00  0.00     0.006 A 
ENDBRANCH  61  78
ENDBRANCH  35  36
ENDBRANCH  28  30
ENDBRANCH  27  28
ENDBRANCH  26  27
ENDBRANCH  25  26
ENDBRANCH  24  25
ENDBRANCH   1  24
TORSDOF 18
ENDMDL
MODEL 3
REMARK VINA RESULT:     -10.4      1.611      3.273
REMARK SMILES CO[C@H]1C[C@@H](C(=O)OCCOCCOC(=O)c2ccc(-c3c4nc(c(-c5c(F)cccc5F)c5ccc([nH]5)c(-c5c(F)cccc5F)c5nc(c(-c6c(F)cccc6F)c6ccc3[nH]6)C=C5)C=C4)cc2)N(C(=O)c2cc(SC)ccc2C)C1
REMARK SMILES IDX 10 1 9 2 8 3 6 4 7 5 5 6 3 7 4 8 83 9 71 10 2 11 1 12 72 13
REMARK SMILES IDX 73 14 74 15 75 16 81 17 76 18 80 19 82 20 79 21 77 22 78 23
REMARK SMILES IDX 11 24 12 25 13 26 14 27 15 28 16 29 17 30 18 31 70 32 19 33
REMARK SMILES IDX 69 34 20 35 21 36 22 37 63 38 23 39 68 40 62 41 64 42 24 43
REMARK SMILES IDX 67 44 61 45 60 46 25 48 51 49 34 50 50 51 35 52 38 53 49 54
REMARK SMILES IDX 65 55 36 56 37 57 48 59 66 60 39 61 26 62 27 63 32 64 28 65
REMARK SMILES IDX 29 66 31 67 33 68 30 69 52 70 53 71 58 72 54 73 55 74 57 75
REMARK SMILES IDX 59 76 56 77 40 78 41 79 46 80 42 81 43 82 45 83 47 84 44 85
REMARK H PARENT 64 47 38 58
REMARK Flexibility Score: inf
ROOT
ATOM      1  C   UNL A   1      32.979  29.460  27.197  1.00  0.00     0.202 C 
ENDROOT
BRANCH   1   2
ATOM      2  C   UNL A   1      33.060  27.924  27.149  1.00  0.00     0.261 C 
BRANCH   2   3
ATOM      3  O   UNL A   1      33.824  27.343  26.082  1.00  0.00    -0.462 OA
BRANCH   3   4
ATOM      4  C   UNL A   1      33.280  26.198  25.599  1.00  0.00     0.329 C 
ATOM      5  O   UNL A   1      33.068  25.196  26.280  1.00  0.00    -0.250 OA
BRANCH   4   6
ATOM      6  C   UNL A   1      33.133  26.157  24.077  1.00  0.00     0.198 C 
ATOM      7  C   UNL A   1      31.773  27.085  22.325  1.00  0.00     0.140 C 
ATOM      8  C   UNL A   1      32.078  27.241  23.799  1.00  0.00     0.071 C 
ATOM      9  C   UNL A   1      31.839  25.572  22.146  1.00  0.00     0.152 C 
ATOM     10  N   UNL A   1      32.680  25.039  23.228  1.00  0.00    -0.322 N 
BRANCH   7  11
ATOM     11  O   UNL A   1      30.473  27.564  21.995  1.00  0.00    -0.380 OA
ATOM     12  C   UNL A   1      29.556  27.482  23.078  1.00  0.00     0.195 C 
ENDBRANCH   7  11
BRANCH  10  13
ATOM     13  C   UNL A   1      33.533  24.006  22.850  1.00  0.00     0.254 C 
ATOM     14  O   UNL A   1      33.763  23.751  21.667  1.00  0.00    -0.269 OA
BRANCH  13  15
ATOM     15  C   UNL A   1      34.112  23.077  23.851  1.00  0.00     0.044 A 
ATOM     16  C   UNL A   1      35.355  23.478  24.387  1.00  0.00     0.029 A 
ATOM     17  C   UNL A   1      33.662  21.763  24.054  1.00  0.00    -0.038 A 
ATOM     18  C   UNL A   1      36.158  22.605  25.133  1.00  0.00     0.008 A 
ATOM     19  C   UNL A   1      34.479  20.893  24.799  1.00  0.00     0.005 A 
ATOM     20  C   UNL A   1      32.381  21.199  23.510  1.00  0.00     0.045 C 
ATOM     21  C   UNL A   1      35.710  21.301  25.324  1.00  0.00     0.015 A 
BRANCH  18  22
ATOM     22  S   UNL A   1      37.741  23.214  25.692  1.00  0.00    -0.130 SA
ATOM     23  C   UNL A   1      38.726  21.701  25.860  1.00  0.00     0.091 C 
ENDBRANCH  18  22
ENDBRANCH  13  15
ENDBRANCH  10  13
ENDBRANCH   4   6
ENDBRANCH   3   4
ENDBRANCH   2   3
ENDBRANCH   1   2
BRANCH   1  24
ATOM     24  O   UNL A   1      31.713  30.070  26.981  1.00  0.00    -0.374 OA
BRANCH  24  25
ATOM     25  C   UNL A   1      31.696  31.294  26.244  1.00  0.00     0.202 C 
BRANCH  25  26
ATOM     26  C   UNL A   1      31.559  32.551  27.099  1.00  0.00     0.261 C 
BRANCH  26  27
ATOM     27  O   UNL A   1      32.732  33.365  26.930  1.00  0.00    -0.460 OA
BRANCH  27  28
ATOM     28  C   UNL A   1      33.256  33.824  28.082  1.00  0.00     0.338 C 
ATOM     29  O   UNL A   1      32.790  34.680  28.826  1.00  0.00    -0.246 OA
BRANCH  28  30
ATOM     30  C   UNL A   1      34.476  33.065  28.371  1.00  0.00     0.060 A 
ATOM     31  C   UNL A   1      34.367  31.742  28.811  1.00  0.00     0.016 A 
ATOM     32  C   UNL A   1      35.718  33.697  28.308  1.00  0.00     0.016 A 
ATOM     33  C   UNL A   1      35.507  31.067  29.249  1.00  0.00     0.010 A 
ATOM     34  C   UNL A   1      36.863  33.007  28.708  1.00  0.00     0.010 A 
ATOM     35  C   UNL A   1      36.758  31.707  29.232  1.00  0.00    -0.014 A 
BRANCH  35  36
ATOM     36  C   UNL A   1      37.924  31.081  29.904  1.00  0.00     0.031 A 
ATOM     37  C   UNL A   1      38.218  31.426  31.341  1.00  0.00     0.074 A 
ATOM     38  C   UNL A   1      38.707  30.204  29.251  1.00  0.00     0.049 A 
ATOM     39  N   UNL A   1      39.179  30.993  32.117  1.00  0.00    -0.248 NA
ATOM     40  C   UNL A   1      37.316  32.393  31.986  1.00  0.00     0.031 C 
ATOM     41  C   UNL A   1      38.535  29.788  27.861  1.00  0.00     0.029 A 
ATOM     42  N   UNL A   1      39.810  29.507  29.678  1.00  0.00    -0.354 N 
ATOM     43  C   UNL A   1      39.000  31.637  33.335  1.00  0.00     0.074 A 
ATOM     44  C   UNL A   1      37.864  32.522  33.184  1.00  0.00     0.031 C 
ATOM     45  C   UNL A   1      39.497  28.902  27.549  1.00  0.00     0.029 A 
ATOM     46  C   UNL A   1      40.361  28.705  28.710  1.00  0.00     0.049 A 
ATOM     47  H   UNL A   1      40.171  29.577  30.591  1.00  0.00     0.167 HD
ATOM     48  C   UNL A   1      39.703  31.493  34.484  1.00  0.00     0.037 A 
ATOM     49  C   UNL A   1      41.445  27.906  28.756  1.00  0.00     0.037 A 
ATOM     50  C   UNL A   1      40.819  30.602  34.648  1.00  0.00     0.049 A 
ATOM     51  C   UNL A   1      42.228  27.784  30.035  1.00  0.00     0.074 A 
ATOM     52  C   UNL A   1      41.561  30.350  35.789  1.00  0.00     0.029 A 
ATOM     53  N   UNL A   1      41.356  29.819  33.639  1.00  0.00    -0.354 N 
ATOM     54  N   UNL A   1      42.016  28.360  31.193  1.00  0.00    -0.248 NA
ATOM     55  C   UNL A   1      43.400  26.897  30.013  1.00  0.00     0.031 C 
ATOM     56  C   UNL A   1      42.573  29.441  35.460  1.00  0.00     0.029 A 
ATOM     57  C   UNL A   1      42.436  29.101  34.125  1.00  0.00     0.049 A 
ATOM     58  H   UNL A   1      41.020  29.780  32.715  1.00  0.00     0.167 HD
ATOM     59  C   UNL A   1      43.011  27.891  32.041  1.00  0.00     0.074 A 
ATOM     60  C   UNL A   1      43.821  26.973  31.268  1.00  0.00     0.031 C 
ATOM     61  C   UNL A   1      43.234  28.192  33.343  1.00  0.00     0.037 A 
BRANCH  48  62
ATOM     62  C   UNL A   1      39.282  32.326  35.657  1.00  0.00     0.057 A 
ATOM     63  C   UNL A   1      39.748  33.636  35.836  1.00  0.00     0.134 A 
ATOM     64  C   UNL A   1      38.374  31.828  36.600  1.00  0.00     0.134 A 
ATOM     65  F   UNL A   1      40.631  34.166  34.976  1.00  0.00    -0.206 F 
ATOM     66  C   UNL A   1      39.341  34.412  36.922  1.00  0.00     0.040 A 
ATOM     67  C   UNL A   1      37.944  32.602  37.678  1.00  0.00     0.040 A 
ATOM     68  F   UNL A   1      37.888  30.583  36.484  1.00  0.00    -0.206 F 
ATOM     69  C   UNL A   1      38.431  33.897  37.843  1.00  0.00     0.006 A 
ENDBRANCH  48  62
BRANCH  49  70
ATOM     70  C   UNL A   1      41.850  27.145  27.550  1.00  0.00     0.057 A 
ATOM     71  C   UNL A   1      41.428  25.827  27.350  1.00  0.00     0.134 A 
ATOM     72  C   UNL A   1      42.676  27.717  26.574  1.00  0.00     0.134 A 
ATOM     73  F   UNL A   1      40.655  25.220  28.263  1.00  0.00    -0.206 F 
ATOM     74  C   UNL A   1      41.820  25.097  26.227  1.00  0.00     0.040 A 
ATOM     75  C   UNL A   1      43.058  27.006  25.436  1.00  0.00     0.040 A 
ATOM     76  F   UNL A   1      43.112  28.977  26.710  1.00  0.00    -0.206 F 
ATOM     77  C   UNL A   1      42.634  25.689  25.263  1.00  0.00     0.006 A 
ENDBRANCH  49  70
BRANCH  61  78
ATOM     78  C   UNL A   1      44.387  27.512  34.019  1.00  0.00     0.057 A 
ATOM     79  C   UNL A   1      45.656  28.101  34.075  1.00  0.00     0.134 A 
ATOM     80  C   UNL A   1      44.216  26.275  34.652  1.00  0.00     0.134 A 
ATOM     81  F   UNL A   1      45.885  29.280  33.477  1.00  0.00    -0.206 F 
ATOM     82  C   UNL A   1      46.720  27.474  34.724  1.00  0.00     0.040 A 
ATOM     83  C   UNL A   1      45.267  25.648  35.322  1.00  0.00     0.040 A 
ATOM     84  F   UNL A   1      43.022  25.664  34.640  1.00  0.00    -0.206 F 
ATOM     85  C   UNL A   1      46.525  26.246  35.356  1.00  0.00     0.006 A 
ENDBRANCH  61  78
ENDBRANCH  35  36
ENDBRANCH  28  30
ENDBRANCH  27  28
ENDBRANCH  26  27
ENDBRANCH  25  26
ENDBRANCH  24  25
ENDBRANCH   1  24
TORSDOF 18
ENDMDL
