MODEL 1
REMARK VINA RESULT:     -11.3      0.000      0.000
REMARK SMILES CC(=O)O[C@H]1C[C@@H](C(=O)OCCOCCOC(=O)c2ccc(-c3c4nc(c(-c5c(F)cccc5F)c5ccc([nH]5)c(-c5c(F)cccc5F)c5nc(c(-c6c(F)cccc6F)c6ccc3[nH]6)C=C5)C=C4)cc2)N(S(=O)(=O)c2ccc(F)cc2)C1
REMARK SMILES IDX 13 1 12 2 11 3 10 4 8 5 9 6 7 7 5 8 6 9 84 10 73 11 4 12
REMARK SMILES IDX 2 13 1 14 3 15 74 16 75 17 76 18 77 19 78 20 83 21 79 22
REMARK SMILES IDX 82 23 80 24 81 25 14 26 15 27 16 28 17 29 18 30 19 31 20 32
REMARK SMILES IDX 72 33 21 34 71 35 22 36 23 37 24 38 65 39 25 40 70 41 64 42
REMARK SMILES IDX 66 43 26 44 69 45 63 46 62 47 27 49 53 50 36 51 52 52 37 53
REMARK SMILES IDX 40 54 51 55 67 56 38 57 39 58 50 60 68 61 41 62 28 63 29 64
REMARK SMILES IDX 34 65 30 66 31 67 33 68 35 69 32 70 54 71 55 72 60 73 56 74
REMARK SMILES IDX 57 75 59 76 61 77 58 78 42 79 43 80 48 81 44 82 45 83 47 84
REMARK SMILES IDX 49 85 46 86
REMARK H PARENT 66 48 40 59
REMARK Flexibility Score: inf
ROOT
ATOM      1  O   UNL A   1      40.965  21.173  26.655  1.00  0.00    -0.374 OA
ENDROOT
BRANCH   1   2
ATOM      2  C   UNL A   1      39.773  20.905  25.943  1.00  0.00     0.202 C 
BRANCH   2   3
ATOM      3  C   UNL A   1      38.605  21.892  25.751  1.00  0.00     0.261 C 
BRANCH   3   4
ATOM      4  O   UNL A   1      37.637  21.692  24.728  1.00  0.00    -0.462 OA
BRANCH   4   5
ATOM      5  C   UNL A   1      36.416  21.277  25.143  1.00  0.00     0.324 C 
ATOM      6  O   UNL A   1      35.940  20.176  24.927  1.00  0.00    -0.250 OA
BRANCH   5   7
ATOM      7  C   UNL A   1      35.742  22.341  25.951  1.00  0.00     0.187 C 
ATOM      8  C   UNL A   1      33.871  22.938  27.300  1.00  0.00     0.194 C 
ATOM      9  C   UNL A   1      34.628  21.731  26.787  1.00  0.00     0.079 C 
ATOM     10  C   UNL A   1      34.075  24.012  26.208  1.00  0.00     0.148 C 
ATOM     11  N   UNL A   1      35.125  23.495  25.241  1.00  0.00    -0.180 NA
BRANCH   8  12
ATOM     12  O   UNL A   1      32.466  22.637  27.423  1.00  0.00    -0.461 OA
BRANCH  12  13
ATOM     13  C   UNL A   1      31.466  23.320  26.821  1.00  0.00     0.302 C 
ATOM     14  C   UNL A   1      30.803  22.690  25.634  1.00  0.00     0.139 C 
ATOM     15  O   UNL A   1      31.103  24.412  27.247  1.00  0.00    -0.253 OA
ENDBRANCH  12  13
ENDBRANCH   8  12
BRANCH  11  16
ATOM     16  S   UNL A   1      34.472  23.310  23.654  1.00  0.00     0.243 S 
ATOM     17  O   UNL A   1      35.591  23.293  22.740  1.00  0.00    -0.207 OA
ATOM     18  O   UNL A   1      33.572  22.176  23.727  1.00  0.00    -0.207 OA
BRANCH  16  19
ATOM     19  C   UNL A   1      33.438  24.722  23.277  1.00  0.00     0.082 A 
ATOM     20  C   UNL A   1      32.172  24.540  22.711  1.00  0.00     0.025 A 
ATOM     21  C   UNL A   1      33.952  26.023  23.415  1.00  0.00     0.025 A 
ATOM     22  C   UNL A   1      31.401  25.659  22.369  1.00  0.00     0.040 A 
ATOM     23  C   UNL A   1      33.160  27.134  23.124  1.00  0.00     0.040 A 
ATOM     24  C   UNL A   1      31.888  26.943  22.604  1.00  0.00     0.123 A 
ATOM     25  F   UNL A   1      31.122  28.006  22.326  1.00  0.00    -0.207 F 
ENDBRANCH  16  19
ENDBRANCH  11  16
ENDBRANCH   5   7
ENDBRANCH   4   5
ENDBRANCH   3   4
ENDBRANCH   2   3
ENDBRANCH   1   2
BRANCH   1  26
ATOM     26  C   UNL A   1      42.239  20.711  26.257  1.00  0.00     0.202 C 
BRANCH  26  27
ATOM     27  C   UNL A   1      43.279  21.696  25.739  1.00  0.00     0.261 C 
BRANCH  27  28
ATOM     28  O   UNL A   1      42.721  22.802  25.026  1.00  0.00    -0.460 OA
BRANCH  28  29
ATOM     29  C   UNL A   1      43.474  23.926  25.112  1.00  0.00     0.338 C 
ATOM     30  O   UNL A   1      44.523  24.165  24.545  1.00  0.00    -0.246 OA
BRANCH  29  31
ATOM     31  C   UNL A   1      42.765  24.931  25.915  1.00  0.00     0.060 A 
ATOM     32  C   UNL A   1      43.396  26.165  26.107  1.00  0.00     0.016 A 
ATOM     33  C   UNL A   1      41.555  24.631  26.544  1.00  0.00     0.016 A 
ATOM     34  C   UNL A   1      42.845  27.090  26.982  1.00  0.00     0.010 A 
ATOM     35  C   UNL A   1      41.012  25.556  27.436  1.00  0.00     0.010 A 
ATOM     36  C   UNL A   1      41.683  26.765  27.691  1.00  0.00    -0.014 A 
BRANCH  36  37
ATOM     37  C   UNL A   1      41.292  27.612  28.836  1.00  0.00     0.031 A 
ATOM     38  C   UNL A   1      42.077  27.502  30.113  1.00  0.00     0.074 A 
ATOM     39  C   UNL A   1      40.295  28.503  28.715  1.00  0.00     0.049 A 
ATOM     40  N   UNL A   1      41.913  28.134  31.244  1.00  0.00    -0.248 NA
ATOM     41  C   UNL A   1      43.197  26.546  30.112  1.00  0.00     0.031 C 
ATOM     42  C   UNL A   1      39.501  28.722  27.508  1.00  0.00     0.029 A 
ATOM     43  N   UNL A   1      39.782  29.386  29.627  1.00  0.00    -0.354 N 
ATOM     44  C   UNL A   1      42.902  27.650  32.092  1.00  0.00     0.074 A 
ATOM     45  C   UNL A   1      43.636  26.643  31.357  1.00  0.00     0.031 C 
ATOM     46  C   UNL A   1      38.588  29.675  27.758  1.00  0.00     0.029 A 
ATOM     47  C   UNL A   1      38.716  30.105  29.149  1.00  0.00     0.049 A 
ATOM     48  H   UNL A   1      40.143  29.496  30.536  1.00  0.00     0.167 HD
ATOM     49  C   UNL A   1      43.179  28.021  33.364  1.00  0.00     0.037 A 
ATOM     50  C   UNL A   1      37.921  30.992  29.777  1.00  0.00     0.037 A 
ATOM     51  C   UNL A   1      42.438  29.022  34.086  1.00  0.00     0.049 A 
ATOM     52  C   UNL A   1      38.205  31.339  31.213  1.00  0.00     0.074 A 
ATOM     53  C   UNL A   1      42.639  29.485  35.373  1.00  0.00     0.029 A 
ATOM     54  N   UNL A   1      41.343  29.709  33.580  1.00  0.00    -0.354 N 
ATOM     55  N   UNL A   1      39.155  30.894  32.002  1.00  0.00    -0.248 NA
ATOM     56  C   UNL A   1      37.312  32.320  31.844  1.00  0.00     0.031 C 
ATOM     57  C   UNL A   1      41.630  30.407  35.668  1.00  0.00     0.029 A 
ATOM     58  C   UNL A   1      40.840  30.570  34.542  1.00  0.00     0.049 A 
ATOM     59  H   UNL A   1      40.977  29.600  32.673  1.00  0.00     0.167 HD
ATOM     60  C   UNL A   1      38.991  31.560  33.211  1.00  0.00     0.074 A 
ATOM     61  C   UNL A   1      37.862  32.452  33.043  1.00  0.00     0.031 C 
ATOM     62  C   UNL A   1      39.710  31.449  34.356  1.00  0.00     0.037 A 
BRANCH  49  63
ATOM     63  C   UNL A   1      44.304  27.310  34.061  1.00  0.00     0.057 A 
ATOM     64  C   UNL A   1      44.100  26.142  34.808  1.00  0.00     0.134 A 
ATOM     65  C   UNL A   1      45.614  27.798  33.974  1.00  0.00     0.134 A 
ATOM     66  F   UNL A   1      42.868  25.629  34.947  1.00  0.00    -0.206 F 
ATOM     67  C   UNL A   1      45.153  25.503  35.467  1.00  0.00     0.040 A 
ATOM     68  C   UNL A   1      46.679  27.151  34.603  1.00  0.00     0.040 A 
ATOM     69  F   UNL A   1      45.883  28.911  33.275  1.00  0.00    -0.206 F 
ATOM     70  C   UNL A   1      46.449  26.004  35.360  1.00  0.00     0.006 A 
ENDBRANCH  49  63
BRANCH  50  71
ATOM     71  C   UNL A   1      36.775  31.598  29.053  1.00  0.00     0.057 A 
ATOM     72  C   UNL A   1      36.803  32.928  28.624  1.00  0.00     0.134 A 
ATOM     73  C   UNL A   1      35.616  30.857  28.782  1.00  0.00     0.134 A 
ATOM     74  F   UNL A   1      37.877  33.694  28.870  1.00  0.00    -0.206 F 
ATOM     75  C   UNL A   1      35.716  33.509  27.969  1.00  0.00     0.040 A 
ATOM     76  C   UNL A   1      34.534  31.415  28.103  1.00  0.00     0.040 A 
ATOM     77  F   UNL A   1      35.529  29.574  29.162  1.00  0.00    -0.206 F 
ATOM     78  C   UNL A   1      34.578  32.748  27.701  1.00  0.00     0.006 A 
ENDBRANCH  50  71
BRANCH  62  79
ATOM     79  C   UNL A   1      39.318  32.339  35.501  1.00  0.00     0.057 A 
ATOM     80  C   UNL A   1      39.843  33.629  35.655  1.00  0.00     0.134 A 
ATOM     81  C   UNL A   1      38.382  31.907  36.449  1.00  0.00     0.134 A 
ATOM     82  F   UNL A   1      40.751  34.102  34.788  1.00  0.00    -0.206 F 
ATOM     83  C   UNL A   1      39.479  34.441  36.730  1.00  0.00     0.040 A 
ATOM     84  C   UNL A   1      37.985  32.722  37.509  1.00  0.00     0.040 A 
ATOM     85  F   UNL A   1      37.829  30.687  36.355  1.00  0.00    -0.206 F 
ATOM     86  C   UNL A   1      38.542  33.990  37.659  1.00  0.00     0.006 A 
ENDBRANCH  62  79
ENDBRANCH  36  37
ENDBRANCH  29  31
ENDBRANCH  28  29
ENDBRANCH  27  28
ENDBRANCH  26  27
ENDBRANCH   1  26
TORSDOF 18
ENDMDL
MODEL 2
REMARK VINA RESULT:     -10.9      3.773      7.605
REMARK SMILES CC(=O)O[C@H]1C[C@@H](C(=O)OCCOCCOC(=O)c2ccc(-c3c4nc(c(-c5c(F)cccc5F)c5ccc([nH]5)c(-c5c(F)cccc5F)c5nc(c(-c6c(F)cccc6F)c6ccc3[nH]6)C=C5)C=C4)cc2)N(S(=O)(=O)c2ccc(F)cc2)C1
REMARK SMILES IDX 13 1 12 2 11 3 10 4 8 5 9 6 7 7 5 8 6 9 84 10 73 11 4 12
REMARK SMILES IDX 2 13 1 14 3 15 74 16 75 17 76 18 77 19 78 20 83 21 79 22
REMARK SMILES IDX 82 23 80 24 81 25 14 26 15 27 16 28 17 29 18 30 19 31 20 32
REMARK SMILES IDX 72 33 21 34 71 35 22 36 23 37 24 38 65 39 25 40 70 41 64 42
REMARK SMILES IDX 66 43 26 44 69 45 63 46 62 47 27 49 53 50 36 51 52 52 37 53
REMARK SMILES IDX 40 54 51 55 67 56 38 57 39 58 50 60 68 61 41 62 28 63 29 64
REMARK SMILES IDX 34 65 30 66 31 67 33 68 35 69 32 70 54 71 55 72 60 73 56 74
REMARK SMILES IDX 57 75 59 76 61 77 58 78 42 79 43 80 48 81 44 82 45 83 47 84
REMARK SMILES IDX 49 85 46 86
REMARK H PARENT 66 48 40 59
REMARK Flexibility Score: inf
ROOT
ATOM      1  O   UNL A   1      34.767  20.782  26.001  1.00  0.00    -0.374 OA
ENDROOT
BRANCH   1   2
ATOM      2  C   UNL A   1      34.551  21.637  27.107  1.00  0.00     0.202 C 
BRANCH   2   3
ATOM      3  C   UNL A   1      33.210  22.303  27.473  1.00  0.00     0.261 C 
BRANCH   3   4
ATOM      4  O   UNL A   1      32.726  23.425  26.743  1.00  0.00    -0.462 OA
BRANCH   4   5
ATOM      5  C   UNL A   1      31.407  23.405  26.435  1.00  0.00     0.324 C 
ATOM      6  O   UNL A   1      30.500  23.358  27.247  1.00  0.00    -0.250 OA
BRANCH   5   7
ATOM      7  C   UNL A   1      31.208  23.497  24.956  1.00  0.00     0.187 C 
ATOM      8  C   UNL A   1      32.219  23.821  22.822  1.00  0.00     0.194 C 
ATOM      9  C   UNL A   1      32.550  23.422  24.245  1.00  0.00     0.079 C 
ATOM     10  C   UNL A   1      31.008  24.771  22.961  1.00  0.00     0.148 C 
ATOM     11  N   UNL A   1      30.526  24.699  24.398  1.00  0.00    -0.180 NA
BRANCH   8  12
ATOM     12  O   UNL A   1      33.324  24.532  22.228  1.00  0.00    -0.461 OA
BRANCH  12  13
ATOM     13  C   UNL A   1      33.215  25.639  21.458  1.00  0.00     0.302 C 
ATOM     14  C   UNL A   1      33.405  26.972  22.115  1.00  0.00     0.139 C 
ATOM     15  O   UNL A   1      32.987  25.549  20.255  1.00  0.00    -0.253 OA
ENDBRANCH  12  13
ENDBRANCH   8  12
BRANCH  11  16
ATOM     16  S   UNL A   1      30.661  26.232  25.178  1.00  0.00     0.243 S 
ATOM     17  O   UNL A   1      29.907  26.145  26.408  1.00  0.00    -0.207 OA
ATOM     18  O   UNL A   1      32.078  26.535  25.210  1.00  0.00    -0.207 OA
BRANCH  16  19
ATOM     19  C   UNL A   1      29.924  27.487  24.135  1.00  0.00     0.082 A 
ATOM     20  C   UNL A   1      30.620  28.667  23.851  1.00  0.00     0.025 A 
ATOM     21  C   UNL A   1      28.589  27.354  23.716  1.00  0.00     0.025 A 
ATOM     22  C   UNL A   1      30.005  29.663  23.081  1.00  0.00     0.040 A 
ATOM     23  C   UNL A   1      28.000  28.324  22.903  1.00  0.00     0.040 A 
ATOM     24  C   UNL A   1      28.714  29.471  22.591  1.00  0.00     0.123 A 
ATOM     25  F   UNL A   1      28.155  30.404  21.809  1.00  0.00    -0.207 F 
ENDBRANCH  16  19
ENDBRANCH  11  16
ENDBRANCH   5   7
ENDBRANCH   4   5
ENDBRANCH   3   4
ENDBRANCH   2   3
ENDBRANCH   1   2
BRANCH   1  26
ATOM     26  C   UNL A   1      35.689  21.054  24.967  1.00  0.00     0.202 C 
BRANCH  26  27
ATOM     27  C   UNL A   1      37.074  20.419  24.995  1.00  0.00     0.261 C 
BRANCH  27  28
ATOM     28  O   UNL A   1      38.143  21.368  25.018  1.00  0.00    -0.460 OA
BRANCH  28  29
ATOM     29  C   UNL A   1      39.121  21.047  25.900  1.00  0.00     0.338 C 
ATOM     30  O   UNL A   1      39.643  19.963  26.072  1.00  0.00    -0.246 OA
BRANCH  29  31
ATOM     31  C   UNL A   1      39.593  22.265  26.572  1.00  0.00     0.060 A 
ATOM     32  C   UNL A   1      39.032  23.483  26.170  1.00  0.00     0.016 A 
ATOM     33  C   UNL A   1      40.630  22.220  27.506  1.00  0.00     0.016 A 
ATOM     34  C   UNL A   1      39.550  24.673  26.658  1.00  0.00     0.010 A 
ATOM     35  C   UNL A   1      41.160  23.418  27.983  1.00  0.00     0.010 A 
ATOM     36  C   UNL A   1      40.652  24.646  27.521  1.00  0.00    -0.014 A 
BRANCH  36  37
ATOM     37  C   UNL A   1      41.383  25.904  27.777  1.00  0.00     0.031 A 
ATOM     38  C   UNL A   1      40.694  26.989  28.555  1.00  0.00     0.074 A 
ATOM     39  C   UNL A   1      42.654  26.047  27.372  1.00  0.00     0.049 A 
ATOM     40  N   UNL A   1      41.131  28.174  28.890  1.00  0.00    -0.248 NA
ATOM     41  C   UNL A   1      39.326  26.699  29.014  1.00  0.00     0.031 C 
ATOM     42  C   UNL A   1      43.429  25.039  26.651  1.00  0.00     0.029 A 
ATOM     43  N   UNL A   1      43.514  27.103  27.511  1.00  0.00    -0.354 N 
ATOM     44  C   UNL A   1      40.092  28.773  29.592  1.00  0.00     0.074 A 
ATOM     45  C   UNL A   1      38.990  27.836  29.601  1.00  0.00     0.031 C 
ATOM     46  C   UNL A   1      44.653  25.533  26.400  1.00  0.00     0.029 A 
ATOM     47  C   UNL A   1      44.731  26.898  26.913  1.00  0.00     0.049 A 
ATOM     48  H   UNL A   1      43.282  27.929  27.994  1.00  0.00     0.167 HD
ATOM     49  C   UNL A   1      40.066  29.989  30.187  1.00  0.00     0.037 A 
ATOM     50  C   UNL A   1      45.778  27.734  26.777  1.00  0.00     0.037 A 
ATOM     51  C   UNL A   1      41.169  30.913  30.168  1.00  0.00     0.049 A 
ATOM     52  C   UNL A   1      45.701  29.107  27.387  1.00  0.00     0.074 A 
ATOM     53  C   UNL A   1      41.256  32.166  30.746  1.00  0.00     0.029 A 
ATOM     54  N   UNL A   1      42.378  30.685  29.525  1.00  0.00    -0.354 N 
ATOM     55  N   UNL A   1      44.725  29.659  28.068  1.00  0.00    -0.248 NA
ATOM     56  C   UNL A   1      46.877  29.971  27.216  1.00  0.00     0.031 C 
ATOM     57  C   UNL A   1      42.494  32.721  30.403  1.00  0.00     0.029 A 
ATOM     58  C   UNL A   1      43.205  31.787  29.667  1.00  0.00     0.049 A 
ATOM     59  H   UNL A   1      42.613  29.862  29.038  1.00  0.00     0.167 HD
ATOM     60  C   UNL A   1      45.178  30.922  28.431  1.00  0.00     0.074 A 
ATOM     61  C   UNL A   1      46.523  31.045  27.909  1.00  0.00     0.031 C 
ATOM     62  C   UNL A   1      44.543  31.892  29.136  1.00  0.00     0.037 A 
BRANCH  49  63
ATOM     63  C   UNL A   1      38.791  30.397  30.869  1.00  0.00     0.057 A 
ATOM     64  C   UNL A   1      38.556  30.139  32.226  1.00  0.00     0.134 A 
ATOM     65  C   UNL A   1      37.788  31.067  30.158  1.00  0.00     0.134 A 
ATOM     66  F   UNL A   1      39.467  29.486  32.963  1.00  0.00    -0.206 F 
ATOM     67  C   UNL A   1      37.357  30.506  32.843  1.00  0.00     0.040 A 
ATOM     68  C   UNL A   1      36.599  31.466  30.769  1.00  0.00     0.040 A 
ATOM     69  F   UNL A   1      37.947  31.347  28.855  1.00  0.00    -0.206 F 
ATOM     70  C   UNL A   1      36.376  31.178  32.115  1.00  0.00     0.006 A 
ENDBRANCH  49  63
BRANCH  50  71
ATOM     71  C   UNL A   1      46.978  27.297  26.020  1.00  0.00     0.057 A 
ATOM     72  C   UNL A   1      48.070  26.703  26.662  1.00  0.00     0.134 A 
ATOM     73  C   UNL A   1      47.062  27.472  24.632  1.00  0.00     0.134 A 
ATOM     74  F   UNL A   1      48.057  26.526  27.991  1.00  0.00    -0.206 F 
ATOM     75  C   UNL A   1      49.211  26.317  25.956  1.00  0.00     0.040 A 
ATOM     76  C   UNL A   1      48.184  27.065  23.911  1.00  0.00     0.040 A 
ATOM     77  F   UNL A   1      46.046  28.029  23.957  1.00  0.00    -0.206 F 
ATOM     78  C   UNL A   1      49.267  26.492  24.574  1.00  0.00     0.006 A 
ENDBRANCH  50  71
BRANCH  62  79
ATOM     79  C   UNL A   1      45.311  33.153  29.412  1.00  0.00     0.057 A 
ATOM     80  C   UNL A   1      45.247  34.266  28.563  1.00  0.00     0.134 A 
ATOM     81  C   UNL A   1      46.109  33.263  30.559  1.00  0.00     0.134 A 
ATOM     82  F   UNL A   1      44.509  34.224  27.443  1.00  0.00    -0.206 F 
ATOM     83  C   UNL A   1      45.975  35.427  28.825  1.00  0.00     0.040 A 
ATOM     84  C   UNL A   1      46.815  34.430  30.849  1.00  0.00     0.040 A 
ATOM     85  F   UNL A   1      46.207  32.240  31.422  1.00  0.00    -0.206 F 
ATOM     86  C   UNL A   1      46.759  35.513  29.975  1.00  0.00     0.006 A 
ENDBRANCH  62  79
ENDBRANCH  36  37
ENDBRANCH  29  31
ENDBRANCH  28  29
ENDBRANCH  27  28
ENDBRANCH  26  27
ENDBRANCH   1  26
TORSDOF 18
ENDMDL
MODEL 3
REMARK VINA RESULT:     -10.8      3.263      8.201
REMARK SMILES CC(=O)O[C@H]1C[C@@H](C(=O)OCCOCCOC(=O)c2ccc(-c3c4nc(c(-c5c(F)cccc5F)c5ccc([nH]5)c(-c5c(F)cccc5F)c5nc(c(-c6c(F)cccc6F)c6ccc3[nH]6)C=C5)C=C4)cc2)N(S(=O)(=O)c2ccc(F)cc2)C1
REMARK SMILES IDX 13 1 12 2 11 3 10 4 8 5 9 6 7 7 5 8 6 9 84 10 73 11 4 12
REMARK SMILES IDX 2 13 1 14 3 15 74 16 75 17 76 18 77 19 78 20 83 21 79 22
REMARK SMILES IDX 82 23 80 24 81 25 14 26 15 27 16 28 17 29 18 30 19 31 20 32
REMARK SMILES IDX 72 33 21 34 71 35 22 36 23 37 24 38 65 39 25 40 70 41 64 42
REMARK SMILES IDX 66 43 26 44 69 45 63 46 62 47 27 49 53 50 36 51 52 52 37 53
REMARK SMILES IDX 40 54 51 55 67 56 38 57 39 58 50 60 68 61 41 62 28 63 29 64
REMARK SMILES IDX 34 65 30 66 31 67 33 68 35 69 32 70 54 71 55 72 60 73 56 74
REMARK SMILES IDX 57 75 59 76 61 77 58 78 42 79 43 80 48 81 44 82 45 83 47 84
REMARK SMILES IDX 49 85 46 86
REMARK H PARENT 66 48 40 59
REMARK Flexibility Score: inf
ROOT
ATOM      1  O   UNL A   1      32.334  30.949  26.441  1.00  0.00    -0.374 OA
ENDROOT
BRANCH   1   2
ATOM      2  C   UNL A   1      33.241  30.071  27.081  1.00  0.00     0.202 C 
BRANCH   2   3
ATOM      3  C   UNL A   1      33.871  28.819  26.442  1.00  0.00     0.261 C 
BRANCH   3   4
ATOM      4  O   UNL A   1      33.198  27.565  26.469  1.00  0.00    -0.462 OA
BRANCH   4   5
ATOM      5  C   UNL A   1      31.909  27.578  26.053  1.00  0.00     0.324 C 
ATOM      6  O   UNL A   1      30.938  27.462  26.780  1.00  0.00    -0.250 OA
BRANCH   5   7
ATOM      7  C   UNL A   1      31.832  27.803  24.576  1.00  0.00     0.187 C 
ATOM      8  C   UNL A   1      30.526  28.584  22.742  1.00  0.00     0.194 C 
ATOM      9  C   UNL A   1      30.643  28.693  24.248  1.00  0.00     0.079 C 
ATOM     10  C   UNL A   1      31.073  27.177  22.414  1.00  0.00     0.148 C 
ATOM     11  N   UNL A   1      31.709  26.622  23.677  1.00  0.00    -0.180 NA
BRANCH   8  12
ATOM     12  O   UNL A   1      29.145  28.671  22.336  1.00  0.00    -0.461 OA
BRANCH  12  13
ATOM     13  C   UNL A   1      28.364  29.769  22.455  1.00  0.00     0.302 C 
ATOM     14  C   UNL A   1      28.845  31.042  21.827  1.00  0.00     0.139 C 
ATOM     15  O   UNL A   1      27.289  29.716  23.043  1.00  0.00    -0.253 OA
ENDBRANCH  12  13
ENDBRANCH   8  12
BRANCH  11  16
ATOM     16  S   UNL A   1      30.902  25.191  24.204  1.00  0.00     0.243 S 
ATOM     17  O   UNL A   1      29.737  25.615  24.945  1.00  0.00    -0.207 OA
ATOM     18  O   UNL A   1      30.754  24.364  23.022  1.00  0.00    -0.207 OA
BRANCH  16  19
ATOM     19  C   UNL A   1      31.984  24.277  25.298  1.00  0.00     0.082 A 
ATOM     20  C   UNL A   1      31.466  23.625  26.422  1.00  0.00     0.025 A 
ATOM     21  C   UNL A   1      33.376  24.332  25.113  1.00  0.00     0.025 A 
ATOM     22  C   UNL A   1      32.336  22.964  27.300  1.00  0.00     0.040 A 
ATOM     23  C   UNL A   1      34.234  23.627  25.958  1.00  0.00     0.040 A 
ATOM     24  C   UNL A   1      33.706  22.946  27.045  1.00  0.00     0.123 A 
ATOM     25  F   UNL A   1      34.524  22.265  27.858  1.00  0.00    -0.207 F 
ENDBRANCH  16  19
ENDBRANCH  11  16
ENDBRANCH   5   7
ENDBRANCH   4   5
ENDBRANCH   3   4
ENDBRANCH   2   3
ENDBRANCH   1   2
BRANCH   1  26
ATOM     26  C   UNL A   1      31.721  32.048  27.082  1.00  0.00     0.202 C 
BRANCH  26  27
ATOM     27  C   UNL A   1      32.416  33.404  27.099  1.00  0.00     0.261 C 
BRANCH  27  28
ATOM     28  O   UNL A   1      32.347  34.073  28.360  1.00  0.00    -0.460 OA
BRANCH  28  29
ATOM     29  C   UNL A   1      33.473  34.765  28.658  1.00  0.00     0.338 C 
ATOM     30  O   UNL A   1      33.582  35.960  28.859  1.00  0.00    -0.246 OA
BRANCH  29  31
ATOM     31  C   UNL A   1      34.589  33.829  28.849  1.00  0.00     0.060 A 
ATOM     32  C   UNL A   1      34.335  32.665  29.584  1.00  0.00     0.016 A 
ATOM     33  C   UNL A   1      35.875  34.134  28.400  1.00  0.00     0.016 A 
ATOM     34  C   UNL A   1      35.384  31.825  29.926  1.00  0.00     0.010 A 
ATOM     35  C   UNL A   1      36.930  33.297  28.759  1.00  0.00     0.010 A 
ATOM     36  C   UNL A   1      36.692  32.169  29.563  1.00  0.00    -0.014 A 
BRANCH  36  37
ATOM     37  C   UNL A   1      37.815  31.448  30.196  1.00  0.00     0.031 A 
ATOM     38  C   UNL A   1      38.133  31.736  31.637  1.00  0.00     0.074 A 
ATOM     39  C   UNL A   1      38.496  30.514  29.514  1.00  0.00     0.049 A 
ATOM     40  N   UNL A   1      39.072  31.236  32.395  1.00  0.00    -0.248 NA
ATOM     41  C   UNL A   1      37.275  32.725  32.311  1.00  0.00     0.031 C 
ATOM     42  C   UNL A   1      38.240  30.126  28.129  1.00  0.00     0.029 A 
ATOM     43  N   UNL A   1      39.547  29.726  29.901  1.00  0.00    -0.354 N 
ATOM     44  C   UNL A   1      38.924  31.852  33.631  1.00  0.00     0.074 A 
ATOM     45  C   UNL A   1      37.830  32.791  33.510  1.00  0.00     0.031 C 
ATOM     46  C   UNL A   1      39.121  29.176  27.775  1.00  0.00     0.029 A 
ATOM     47  C   UNL A   1      40.020  28.918  28.899  1.00  0.00     0.049 A 
ATOM     48  H   UNL A   1      39.926  29.737  30.810  1.00  0.00     0.167 HD
ATOM     49  C   UNL A   1      39.629  31.643  34.768  1.00  0.00     0.037 A 
ATOM     50  C   UNL A   1      41.076  28.083  28.888  1.00  0.00     0.037 A 
ATOM     51  C   UNL A   1      40.718  30.708  34.874  1.00  0.00     0.049 A 
ATOM     52  C   UNL A   1      41.889  27.917  30.144  1.00  0.00     0.074 A 
ATOM     53  C   UNL A   1      41.493  30.407  35.979  1.00  0.00     0.029 A 
ATOM     54  N   UNL A   1      41.191  29.926  33.829  1.00  0.00    -0.354 N 
ATOM     55  N   UNL A   1      41.731  28.486  31.315  1.00  0.00    -0.248 NA
ATOM     56  C   UNL A   1      43.022  26.985  30.077  1.00  0.00     0.031 C 
ATOM     57  C   UNL A   1      42.474  29.489  35.587  1.00  0.00     0.029 A 
ATOM     58  C   UNL A   1      42.268  29.167  34.256  1.00  0.00     0.049 A 
ATOM     59  H   UNL A   1      40.818  29.915  32.918  1.00  0.00     0.167 HD
ATOM     60  C   UNL A   1      42.725  27.961  32.133  1.00  0.00     0.074 A 
ATOM     61  C   UNL A   1      43.468  27.016  31.325  1.00  0.00     0.031 C 
ATOM     62  C   UNL A   1      42.998  28.232  33.434  1.00  0.00     0.037 A 
BRANCH  49  63
ATOM     63  C   UNL A   1      39.266  32.471  35.968  1.00  0.00     0.057 A 
ATOM     64  C   UNL A   1      38.321  32.044  36.910  1.00  0.00     0.134 A 
ATOM     65  C   UNL A   1      39.881  33.710  36.189  1.00  0.00     0.134 A 
ATOM     66  F   UNL A   1      37.681  30.876  36.752  1.00  0.00    -0.206 F 
ATOM     67  C   UNL A   1      37.978  32.833  38.011  1.00  0.00     0.040 A 
ATOM     68  C   UNL A   1      39.569  34.493  37.300  1.00  0.00     0.040 A 
ATOM     69  F   UNL A   1      40.796  34.180  35.328  1.00  0.00    -0.206 F 
ATOM     70  C   UNL A   1      38.608  34.060  38.212  1.00  0.00     0.006 A 
ENDBRANCH  49  63
BRANCH  50  71
ATOM     71  C   UNL A   1      41.430  27.355  27.644  1.00  0.00     0.057 A 
ATOM     72  C   UNL A   1      42.175  27.962  26.629  1.00  0.00     0.134 A 
ATOM     73  C   UNL A   1      41.020  26.030  27.438  1.00  0.00     0.134 A 
ATOM     74  F   UNL A   1      42.581  29.234  26.758  1.00  0.00    -0.206 F 
ATOM     75  C   UNL A   1      42.485  27.289  25.446  1.00  0.00     0.040 A 
ATOM     76  C   UNL A   1      41.347  25.336  26.274  1.00  0.00     0.040 A 
ATOM     77  F   UNL A   1      40.307  25.389  28.376  1.00  0.00    -0.206 F 
ATOM     78  C   UNL A   1      42.075  25.968  25.269  1.00  0.00     0.006 A 
ENDBRANCH  50  71
BRANCH  62  79
ATOM     79  C   UNL A   1      44.125  27.468  34.071  1.00  0.00     0.057 A 
ATOM     80  C   UNL A   1      45.431  27.972  34.122  1.00  0.00     0.134 A 
ATOM     81  C   UNL A   1      43.892  26.220  34.663  1.00  0.00     0.134 A 
ATOM     82  F   UNL A   1      45.725  29.157  33.566  1.00  0.00    -0.206 F 
ATOM     83  C   UNL A   1      46.470  27.247  34.706  1.00  0.00     0.040 A 
ATOM     84  C   UNL A   1      44.916  25.500  35.279  1.00  0.00     0.040 A 
ATOM     85  F   UNL A   1      42.661  25.683  34.661  1.00  0.00    -0.206 F 
ATOM     86  C   UNL A   1      46.212  26.008  35.292  1.00  0.00     0.006 A 
ENDBRANCH  62  79
ENDBRANCH  36  37
ENDBRANCH  29  31
ENDBRANCH  28  29
ENDBRANCH  27  28
ENDBRANCH  26  27
ENDBRANCH   1  26
TORSDOF 18
ENDMDL
