MODEL 1
REMARK VINA RESULT:     -11.2      0.000      0.000
REMARK SMILES CSc1nc(N)cc(Nc2cccc(C(=O)OCCOCCOC(=O)c3ccc(-c4c5nc(c(-c6c(F)cccc6F)c6ccc([nH]6)c(-c6c(F)cccc6F)c6nc(c(-c7c(F)cccc7F)c7ccc4[nH]7)C=C6)C=C5)cc3)c2)n1
REMARK SMILES IDX 19 1 18 2 17 3 15 4 16 5 14 6 10 7 11 8 80 9 12 10 13 11
REMARK SMILES IDX 9 12 8 14 3 15 4 16 81 17 5 18 7 19 2 20 1 21 6 22 20 25
REMARK SMILES IDX 21 26 22 27 23 28 24 29 25 30 26 31 27 32 79 33 28 34 78 35
REMARK SMILES IDX 29 36 30 37 31 38 72 39 32 40 77 41 71 42 73 43 33 44 76 45
REMARK SMILES IDX 70 46 69 47 34 49 60 50 43 51 59 52 44 53 47 54 58 55 74 56
REMARK SMILES IDX 45 57 46 58 57 60 75 61 48 62 35 63 36 64 41 65 37 66 38 67
REMARK SMILES IDX 40 68 42 69 39 70 61 71 62 72 67 73 63 74 64 75 66 76 68 77
REMARK SMILES IDX 65 78 49 79 50 80 55 81 51 82 52 83 54 84 56 85 53 86
REMARK H PARENT 9 13 6 23 6 24 73 48 47 59
REMARK Flexibility Score: inf
ROOT
ATOM      1  C   UNL A   1      43.690  19.576  25.524  1.00  0.00     0.202 C 
ENDROOT
BRANCH   1   2
ATOM      2  C   UNL A   1      42.173  19.573  25.741  1.00  0.00     0.261 C 
BRANCH   2   3
ATOM      3  O   UNL A   1      41.697  20.894  26.047  1.00  0.00    -0.460 OA
BRANCH   3   4
ATOM      4  C   UNL A   1      40.721  20.959  26.986  1.00  0.00     0.338 C 
ATOM      5  O   UNL A   1      40.765  20.498  28.117  1.00  0.00    -0.246 OA
BRANCH   4   6
ATOM      6  C   UNL A   1      39.634  21.851  26.519  1.00  0.00     0.062 A 
ATOM      7  C   UNL A   1      37.614  22.282  25.235  1.00  0.00     0.040 A 
ATOM      8  C   UNL A   1      37.666  23.619  25.657  1.00  0.00     0.026 A 
ATOM      9  C   UNL A   1      38.631  21.412  25.649  1.00  0.00     0.041 A 
ATOM     10  C   UNL A   1      38.678  24.068  26.507  1.00  0.00     0.003 A 
ATOM     11  C   UNL A   1      39.653  23.181  26.952  1.00  0.00     0.016 A 
BRANCH   7  12
ATOM     12  N   UNL A   1      36.502  21.842  24.488  1.00  0.00    -0.340 N 
ATOM     13  H   UNL A   1      36.679  21.612  23.547  1.00  0.00     0.168 HD
BRANCH  12  14
ATOM     14  C   UNL A   1      35.168  21.690  24.922  1.00  0.00     0.137 A 
ATOM     15  C   UNL A   1      33.088  22.551  25.362  1.00  0.00     0.191 A 
ATOM     16  N   UNL A   1      32.584  21.373  25.745  1.00  0.00    -0.206 NA
ATOM     17  N   UNL A   1      34.344  22.748  24.944  1.00  0.00    -0.205 NA
ATOM     18  C   UNL A   1      33.417  20.332  25.712  1.00  0.00     0.130 A 
ATOM     19  C   UNL A   1      34.736  20.446  25.332  1.00  0.00     0.093 A 
BRANCH  15  20
ATOM     20  S   UNL A   1      31.989  23.946  25.394  1.00  0.00    -0.090 SA
ATOM     21  C   UNL A   1      30.689  23.265  26.450  1.00  0.00     0.094 C 
ENDBRANCH  15  20
BRANCH  18  22
ATOM     22  N   UNL A   1      32.903  19.122  26.139  1.00  0.00    -0.383 N 
ATOM     23  H   UNL A   1      33.510  18.408  26.442  1.00  0.00     0.158 HD
ATOM     24  H   UNL A   1      31.930  18.972  26.140  1.00  0.00     0.158 HD
ENDBRANCH  18  22
ENDBRANCH  12  14
ENDBRANCH   7  12
ENDBRANCH   4   6
ENDBRANCH   3   4
ENDBRANCH   2   3
ENDBRANCH   1   2
BRANCH   1  25
ATOM     25  O   UNL A   1      44.151  20.184  24.317  1.00  0.00    -0.374 OA
BRANCH  25  26
ATOM     26  C   UNL A   1      44.928  21.376  24.447  1.00  0.00     0.202 C 
BRANCH  26  27
ATOM     27  C   UNL A   1      44.406  22.615  23.710  1.00  0.00     0.261 C 
BRANCH  27  28
ATOM     28  O   UNL A   1      43.699  23.508  24.587  1.00  0.00    -0.460 OA
BRANCH  28  29
ATOM     29  C   UNL A   1      44.430  24.553  25.039  1.00  0.00     0.338 C 
ATOM     30  O   UNL A   1      45.521  24.928  24.634  1.00  0.00    -0.246 OA
BRANCH  29  31
ATOM     31  C   UNL A   1      43.650  25.327  26.022  1.00  0.00     0.060 A 
ATOM     32  C   UNL A   1      43.821  26.717  26.030  1.00  0.00     0.016 A 
ATOM     33  C   UNL A   1      42.821  24.708  26.960  1.00  0.00     0.016 A 
ATOM     34  C   UNL A   1      43.199  27.490  27.008  1.00  0.00     0.010 A 
ATOM     35  C   UNL A   1      42.204  25.485  27.946  1.00  0.00     0.010 A 
ATOM     36  C   UNL A   1      42.415  26.875  27.994  1.00  0.00    -0.014 A 
BRANCH  36  37
ATOM     37  C   UNL A   1      41.918  27.680  29.136  1.00  0.00     0.031 A 
ATOM     38  C   UNL A   1      42.625  27.595  30.460  1.00  0.00     0.074 A 
ATOM     39  C   UNL A   1      40.864  28.500  28.985  1.00  0.00     0.049 A 
ATOM     40  N   UNL A   1      42.349  28.198  31.588  1.00  0.00    -0.248 NA
ATOM     41  C   UNL A   1      43.800  26.710  30.522  1.00  0.00     0.031 C 
ATOM     42  C   UNL A   1      40.111  28.689  27.746  1.00  0.00     0.029 A 
ATOM     43  N   UNL A   1      40.241  29.325  29.888  1.00  0.00    -0.354 N 
ATOM     44  C   UNL A   1      43.308  27.764  32.495  1.00  0.00     0.074 A 
ATOM     45  C   UNL A   1      44.156  26.823  31.793  1.00  0.00     0.031 C 
ATOM     46  C   UNL A   1      39.119  29.568  27.969  1.00  0.00     0.029 A 
ATOM     47  C   UNL A   1      39.150  29.980  29.372  1.00  0.00     0.049 A 
ATOM     48  H   UNL A   1      40.546  29.436  30.817  1.00  0.00     0.167 HD
ATOM     49  C   UNL A   1      43.473  28.124  33.790  1.00  0.00     0.037 A 
ATOM     50  C   UNL A   1      38.265  30.801  29.969  1.00  0.00     0.037 A 
ATOM     51  C   UNL A   1      42.631  29.063  34.484  1.00  0.00     0.049 A 
ATOM     52  C   UNL A   1      38.436  31.140  31.425  1.00  0.00     0.074 A 
ATOM     53  C   UNL A   1      42.740  29.518  35.788  1.00  0.00     0.029 A 
ATOM     54  N   UNL A   1      41.521  29.686  33.935  1.00  0.00    -0.354 N 
ATOM     55  N   UNL A   1      39.369  30.754  32.261  1.00  0.00    -0.248 NA
ATOM     56  C   UNL A   1      37.431  32.035  32.020  1.00  0.00     0.031 C 
ATOM     57  C   UNL A   1      41.664  30.375  36.043  1.00  0.00     0.029 A 
ATOM     58  C   UNL A   1      40.917  30.497  34.882  1.00  0.00     0.049 A 
ATOM     59  H   UNL A   1      41.208  29.570  33.008  1.00  0.00     0.167 HD
ATOM     60  C   UNL A   1      39.080  31.376  33.470  1.00  0.00     0.074 A 
ATOM     61  C   UNL A   1      37.894  32.178  33.253  1.00  0.00     0.031 C 
ATOM     62  C   UNL A   1      39.735  31.290  34.653  1.00  0.00     0.037 A 
BRANCH  49  63
ATOM     63  C   UNL A   1      44.595  27.480  34.551  1.00  0.00     0.057 A 
ATOM     64  C   UNL A   1      45.872  28.053  34.615  1.00  0.00     0.134 A 
ATOM     65  C   UNL A   1      44.382  26.294  35.263  1.00  0.00     0.134 A 
ATOM     66  F   UNL A   1      46.146  29.182  33.945  1.00  0.00    -0.206 F 
ATOM     67  C   UNL A   1      46.903  27.456  35.344  1.00  0.00     0.040 A 
ATOM     68  C   UNL A   1      45.398  25.702  36.017  1.00  0.00     0.040 A 
ATOM     69  F   UNL A   1      43.182  25.695  35.249  1.00  0.00    -0.206 F 
ATOM     70  C   UNL A   1      46.664  26.280  36.054  1.00  0.00     0.006 A 
ENDBRANCH  49  63
BRANCH  50  71
ATOM     71  C   UNL A   1      37.123  31.350  29.194  1.00  0.00     0.057 A 
ATOM     72  C   UNL A   1      37.143  32.657  28.695  1.00  0.00     0.134 A 
ATOM     73  C   UNL A   1      35.974  30.586  28.956  1.00  0.00     0.134 A 
ATOM     74  F   UNL A   1      38.207  33.446  28.912  1.00  0.00    -0.206 F 
ATOM     75  C   UNL A   1      36.056  33.192  28.002  1.00  0.00     0.040 A 
ATOM     76  C   UNL A   1      34.891  31.098  28.241  1.00  0.00     0.040 A 
ATOM     77  F   UNL A   1      35.893  29.327  29.408  1.00  0.00    -0.206 F 
ATOM     78  C   UNL A   1      34.926  32.409  27.769  1.00  0.00     0.006 A 
ENDBRANCH  50  71
BRANCH  62  79
ATOM     79  C   UNL A   1      39.202  32.105  35.796  1.00  0.00     0.057 A 
ATOM     80  C   UNL A   1      39.611  33.426  36.018  1.00  0.00     0.134 A 
ATOM     81  C   UNL A   1      38.245  31.570  36.669  1.00  0.00     0.134 A 
ATOM     82  F   UNL A   1      40.534  33.993  35.227  1.00  0.00    -0.206 F 
ATOM     83  C   UNL A   1      39.108  34.177  37.082  1.00  0.00     0.040 A 
ATOM     84  C   UNL A   1      37.714  32.320  37.719  1.00  0.00     0.040 A 
ATOM     85  F   UNL A   1      37.801  30.315  36.507  1.00  0.00    -0.206 F 
ATOM     86  C   UNL A   1      38.151  33.625  37.933  1.00  0.00     0.006 A 
ENDBRANCH  62  79
ENDBRANCH  36  37
ENDBRANCH  29  31
ENDBRANCH  28  29
ENDBRANCH  27  28
ENDBRANCH  26  27
ENDBRANCH  25  26
ENDBRANCH   1  25
TORSDOF 18
ENDMDL
MODEL 2
REMARK VINA RESULT:     -10.8      1.670      2.865
REMARK SMILES CSc1nc(N)cc(Nc2cccc(C(=O)OCCOCCOC(=O)c3ccc(-c4c5nc(c(-c6c(F)cccc6F)c6ccc([nH]6)c(-c6c(F)cccc6F)c6nc(c(-c7c(F)cccc7F)c7ccc4[nH]7)C=C6)C=C5)cc3)c2)n1
REMARK SMILES IDX 19 1 18 2 17 3 15 4 16 5 14 6 10 7 11 8 80 9 12 10 13 11
REMARK SMILES IDX 9 12 8 14 3 15 4 16 81 17 5 18 7 19 2 20 1 21 6 22 20 25
REMARK SMILES IDX 21 26 22 27 23 28 24 29 25 30 26 31 27 32 79 33 28 34 78 35
REMARK SMILES IDX 29 36 30 37 31 38 72 39 32 40 77 41 71 42 73 43 33 44 76 45
REMARK SMILES IDX 70 46 69 47 34 49 60 50 43 51 59 52 44 53 47 54 58 55 74 56
REMARK SMILES IDX 45 57 46 58 57 60 75 61 48 62 35 63 36 64 41 65 37 66 38 67
REMARK SMILES IDX 40 68 42 69 39 70 61 71 62 72 67 73 63 74 64 75 66 76 68 77
REMARK SMILES IDX 65 78 49 79 50 80 55 81 51 82 52 83 54 84 56 85 53 86
REMARK H PARENT 9 13 6 23 6 24 73 48 47 59
REMARK Flexibility Score: inf
ROOT
ATOM      1  C   UNL A   1      40.018  21.768  26.133  1.00  0.00     0.202 C 
ENDROOT
BRANCH   1   2
ATOM      2  C   UNL A   1      38.620  21.230  25.805  1.00  0.00     0.261 C 
BRANCH   2   3
ATOM      3  O   UNL A   1      37.851  22.210  25.089  1.00  0.00    -0.460 OA
BRANCH   3   4
ATOM      4  C   UNL A   1      37.271  23.168  25.854  1.00  0.00     0.338 C 
ATOM      5  O   UNL A   1      37.842  24.057  26.468  1.00  0.00    -0.246 OA
BRANCH   4   6
ATOM      6  C   UNL A   1      35.799  23.114  25.696  1.00  0.00     0.062 A 
ATOM      7  C   UNL A   1      33.693  21.899  25.604  1.00  0.00     0.040 A 
ATOM      8  C   UNL A   1      33.039  23.112  25.333  1.00  0.00     0.026 A 
ATOM      9  C   UNL A   1      35.086  21.911  25.750  1.00  0.00     0.041 A 
ATOM     10  C   UNL A   1      33.749  24.312  25.256  1.00  0.00     0.003 A 
ATOM     11  C   UNL A   1      35.126  24.316  25.453  1.00  0.00     0.016 A 
BRANCH   7  12
ATOM     12  N   UNL A   1      32.923  20.736  25.807  1.00  0.00    -0.340 N 
ATOM     13  H   UNL A   1      32.357  20.729  26.612  1.00  0.00     0.168 HD
BRANCH  12  14
ATOM     14  C   UNL A   1      32.863  19.581  24.999  1.00  0.00     0.137 A 
ATOM     15  C   UNL A   1      33.096  17.318  24.707  1.00  0.00     0.191 A 
ATOM     16  N   UNL A   1      32.720  17.356  23.423  1.00  0.00    -0.206 NA
ATOM     17  N   UNL A   1      33.171  18.382  25.514  1.00  0.00    -0.205 NA
ATOM     18  C   UNL A   1      32.414  18.556  22.929  1.00  0.00     0.130 A 
ATOM     19  C   UNL A   1      32.498  19.711  23.674  1.00  0.00     0.093 A 
BRANCH  15  20
ATOM     20  S   UNL A   1      33.501  15.727  25.381  1.00  0.00    -0.090 SA
ATOM     21  C   UNL A   1      35.305  15.847  25.344  1.00  0.00     0.094 C 
ENDBRANCH  15  20
BRANCH  18  22
ATOM     22  N   UNL A   1      32.057  18.597  21.594  1.00  0.00    -0.383 N 
ATOM     23  H   UNL A   1      32.669  18.994  20.933  1.00  0.00     0.158 HD
ATOM     24  H   UNL A   1      31.192  18.228  21.303  1.00  0.00     0.158 HD
ENDBRANCH  18  22
ENDBRANCH  12  14
ENDBRANCH   7  12
ENDBRANCH   4   6
ENDBRANCH   3   4
ENDBRANCH   2   3
ENDBRANCH   1   2
BRANCH   1  25
ATOM     25  O   UNL A   1      41.116  21.040  25.583  1.00  0.00    -0.374 OA
BRANCH  25  26
ATOM     26  C   UNL A   1      42.389  21.219  26.206  1.00  0.00     0.202 C 
BRANCH  26  27
ATOM     27  C   UNL A   1      43.466  21.918  25.369  1.00  0.00     0.261 C 
BRANCH  27  28
ATOM     28  O   UNL A   1      42.994  23.150  24.798  1.00  0.00    -0.460 OA
BRANCH  28  29
ATOM     29  C   UNL A   1      43.773  24.227  25.052  1.00  0.00     0.338 C 
ATOM     30  O   UNL A   1      44.830  24.522  24.515  1.00  0.00    -0.246 OA
BRANCH  29  31
ATOM     31  C   UNL A   1      43.087  25.135  25.988  1.00  0.00     0.060 A 
ATOM     32  C   UNL A   1      43.676  26.384  26.222  1.00  0.00     0.016 A 
ATOM     33  C   UNL A   1      41.931  24.755  26.675  1.00  0.00     0.016 A 
ATOM     34  C   UNL A   1      43.138  27.240  27.180  1.00  0.00     0.010 A 
ATOM     35  C   UNL A   1      41.397  25.613  27.642  1.00  0.00     0.010 A 
ATOM     36  C   UNL A   1      42.016  26.845  27.922  1.00  0.00    -0.014 A 
BRANCH  36  37
ATOM     37  C   UNL A   1      41.569  27.676  29.066  1.00  0.00     0.031 A 
ATOM     38  C   UNL A   1      42.303  27.584  30.375  1.00  0.00     0.074 A 
ATOM     39  C   UNL A   1      40.536  28.526  28.930  1.00  0.00     0.049 A 
ATOM     40  N   UNL A   1      42.071  28.207  31.502  1.00  0.00    -0.248 NA
ATOM     41  C   UNL A   1      43.452  26.665  30.421  1.00  0.00     0.031 C 
ATOM     42  C   UNL A   1      39.761  28.724  27.706  1.00  0.00     0.029 A 
ATOM     43  N   UNL A   1      39.959  29.379  29.837  1.00  0.00    -0.354 N 
ATOM     44  C   UNL A   1      43.037  27.754  32.391  1.00  0.00     0.074 A 
ATOM     45  C   UNL A   1      43.841  26.781  31.682  1.00  0.00     0.031 C 
ATOM     46  C   UNL A   1      38.801  29.635  27.941  1.00  0.00     0.029 A 
ATOM     47  C   UNL A   1      38.877  30.060  29.338  1.00  0.00     0.049 A 
ATOM     48  H   UNL A   1      40.289  29.490  30.758  1.00  0.00     0.167 HD
ATOM     49  C   UNL A   1      43.242  28.123  33.678  1.00  0.00     0.037 A 
ATOM     50  C   UNL A   1      38.030  30.914  29.945  1.00  0.00     0.037 A 
ATOM     51  C   UNL A   1      42.445  29.094  34.381  1.00  0.00     0.049 A 
ATOM     52  C   UNL A   1      38.244  31.263  31.394  1.00  0.00     0.074 A 
ATOM     53  C   UNL A   1      42.596  29.559  35.676  1.00  0.00     0.029 A 
ATOM     54  N   UNL A   1      41.341  29.744  33.850  1.00  0.00    -0.354 N 
ATOM     55  N   UNL A   1      39.184  30.858  32.213  1.00  0.00    -0.248 NA
ATOM     56  C   UNL A   1      37.280  32.193  32.001  1.00  0.00     0.031 C 
ATOM     57  C   UNL A   1      41.552  30.451  35.946  1.00  0.00     0.029 A 
ATOM     58  C   UNL A   1      40.783  30.582  34.801  1.00  0.00     0.049 A 
ATOM     59  H   UNL A   1      41.004  29.627  32.932  1.00  0.00     0.167 HD
ATOM     60  C   UNL A   1      38.941  31.501  33.421  1.00  0.00     0.074 A 
ATOM     61  C   UNL A   1      37.775  32.336  33.222  1.00  0.00     0.031 C 
ATOM     62  C   UNL A   1      39.621  31.408  34.590  1.00  0.00     0.037 A 
BRANCH  49  63
ATOM     63  C   UNL A   1      44.362  27.454  34.421  1.00  0.00     0.057 A 
ATOM     64  C   UNL A   1      45.645  28.011  34.488  1.00  0.00     0.134 A 
ATOM     65  C   UNL A   1      44.140  26.257  35.114  1.00  0.00     0.134 A 
ATOM     66  F   UNL A   1      45.927  29.149  33.836  1.00  0.00    -0.206 F 
ATOM     67  C   UNL A   1      46.674  27.391  35.200  1.00  0.00     0.040 A 
ATOM     68  C   UNL A   1      45.154  25.641  35.851  1.00  0.00     0.040 A 
ATOM     69  F   UNL A   1      42.933  25.671  35.096  1.00  0.00    -0.206 F 
ATOM     70  C   UNL A   1      46.427  26.205  35.891  1.00  0.00     0.006 A 
ENDBRANCH  49  63
BRANCH  50  71
ATOM     71  C   UNL A   1      36.888  31.489  29.191  1.00  0.00     0.057 A 
ATOM     72  C   UNL A   1      35.746  30.731  28.910  1.00  0.00     0.134 A 
ATOM     73  C   UNL A   1      36.923  32.804  28.711  1.00  0.00     0.134 A 
ATOM     74  F   UNL A   1      35.664  29.457  29.321  1.00  0.00    -0.206 F 
ATOM     75  C   UNL A   1      34.687  31.254  28.164  1.00  0.00     0.040 A 
ATOM     76  C   UNL A   1      35.861  33.349  27.990  1.00  0.00     0.040 A 
ATOM     77  F   UNL A   1      37.990  33.582  28.947  1.00  0.00    -0.206 F 
ATOM     78  C   UNL A   1      34.741  32.569  27.707  1.00  0.00     0.006 A 
ENDBRANCH  50  71
BRANCH  62  79
ATOM     79  C   UNL A   1      39.138  32.250  35.736  1.00  0.00     0.057 A 
ATOM     80  C   UNL A   1      38.293  31.737  36.727  1.00  0.00     0.134 A 
ATOM     81  C   UNL A   1      39.548  33.584  35.864  1.00  0.00     0.134 A 
ATOM     82  F   UNL A   1      37.853  30.471  36.657  1.00  0.00    -0.206 F 
ATOM     83  C   UNL A   1      37.851  32.527  37.790  1.00  0.00     0.040 A 
ATOM     84  C   UNL A   1      39.136  34.375  36.937  1.00  0.00     0.040 A 
ATOM     85  F   UNL A   1      40.366  34.136  34.955  1.00  0.00    -0.206 F 
ATOM     86  C   UNL A   1      38.279  33.849  37.901  1.00  0.00     0.006 A 
ENDBRANCH  62  79
ENDBRANCH  36  37
ENDBRANCH  29  31
ENDBRANCH  28  29
ENDBRANCH  27  28
ENDBRANCH  26  27
ENDBRANCH  25  26
ENDBRANCH   1  25
TORSDOF 18
ENDMDL
MODEL 3
REMARK VINA RESULT:     -10.7      4.985      9.283
REMARK SMILES CSc1nc(N)cc(Nc2cccc(C(=O)OCCOCCOC(=O)c3ccc(-c4c5nc(c(-c6c(F)cccc6F)c6ccc([nH]6)c(-c6c(F)cccc6F)c6nc(c(-c7c(F)cccc7F)c7ccc4[nH]7)C=C6)C=C5)cc3)c2)n1
REMARK SMILES IDX 19 1 18 2 17 3 15 4 16 5 14 6 10 7 11 8 80 9 12 10 13 11
REMARK SMILES IDX 9 12 8 14 3 15 4 16 81 17 5 18 7 19 2 20 1 21 6 22 20 25
REMARK SMILES IDX 21 26 22 27 23 28 24 29 25 30 26 31 27 32 79 33 28 34 78 35
REMARK SMILES IDX 29 36 30 37 31 38 72 39 32 40 77 41 71 42 73 43 33 44 76 45
REMARK SMILES IDX 70 46 69 47 34 49 60 50 43 51 59 52 44 53 47 54 58 55 74 56
REMARK SMILES IDX 45 57 46 58 57 60 75 61 48 62 35 63 36 64 41 65 37 66 38 67
REMARK SMILES IDX 40 68 42 69 39 70 61 71 62 72 67 73 63 74 64 75 66 76 68 77
REMARK SMILES IDX 65 78 49 79 50 80 55 81 51 82 52 83 54 84 56 85 53 86
REMARK H PARENT 9 13 6 23 6 24 73 48 47 59
REMARK Flexibility Score: inf
ROOT
ATOM      1  C   UNL A   1      32.456  30.051  27.350  1.00  0.00     0.202 C 
ENDROOT
BRANCH   1   2
ATOM      2  C   UNL A   1      32.020  28.610  27.638  1.00  0.00     0.261 C 
BRANCH   2   3
ATOM      3  O   UNL A   1      32.904  27.672  27.003  1.00  0.00    -0.460 OA
BRANCH   3   4
ATOM      4  C   UNL A   1      32.298  26.620  26.397  1.00  0.00     0.338 C 
ATOM      5  O   UNL A   1      31.607  25.767  26.934  1.00  0.00    -0.246 OA
BRANCH   4   6
ATOM      6  C   UNL A   1      32.429  26.745  24.927  1.00  0.00     0.062 A 
ATOM      7  C   UNL A   1      31.802  27.726  22.791  1.00  0.00     0.040 A 
ATOM      8  C   UNL A   1      32.716  26.867  22.161  1.00  0.00     0.026 A 
ATOM      9  C   UNL A   1      31.644  27.629  24.179  1.00  0.00     0.041 A 
ATOM     10  C   UNL A   1      33.486  25.967  22.900  1.00  0.00     0.003 A 
ATOM     11  C   UNL A   1      33.356  25.917  24.284  1.00  0.00     0.016 A 
BRANCH   7  12
ATOM     12  N   UNL A   1      31.146  28.710  22.024  1.00  0.00    -0.340 N 
ATOM     13  H   UNL A   1      31.645  29.057  21.249  1.00  0.00     0.168 HD
BRANCH  12  14
ATOM     14  C   UNL A   1      29.862  29.259  22.228  1.00  0.00     0.137 A 
ATOM     15  C   UNL A   1      28.403  31.029  22.190  1.00  0.00     0.191 A 
ATOM     16  N   UNL A   1      27.366  30.296  22.609  1.00  0.00    -0.206 NA
ATOM     17  N   UNL A   1      29.639  30.558  21.983  1.00  0.00    -0.205 NA
ATOM     18  C   UNL A   1      27.605  29.005  22.843  1.00  0.00     0.130 A 
ATOM     19  C   UNL A   1      28.853  28.441  22.694  1.00  0.00     0.093 A 
BRANCH  15  20
ATOM     20  S   UNL A   1      28.098  32.747  21.868  1.00  0.00    -0.090 SA
ATOM     21  C   UNL A   1      29.177  33.473  23.125  1.00  0.00     0.094 C 
ENDBRANCH  15  20
BRANCH  18  22
ATOM     22  N   UNL A   1      26.539  28.258  23.308  1.00  0.00    -0.383 N 
ATOM     23  H   UNL A   1      26.415  27.331  22.999  1.00  0.00     0.158 HD
ATOM     24  H   UNL A   1      25.903  28.652  23.948  1.00  0.00     0.158 HD
ENDBRANCH  18  22
ENDBRANCH  12  14
ENDBRANCH   7  12
ENDBRANCH   4   6
ENDBRANCH   3   4
ENDBRANCH   2   3
ENDBRANCH   1   2
BRANCH   1  25
ATOM     25  O   UNL A   1      31.708  30.746  26.351  1.00  0.00    -0.374 OA
BRANCH  25  26
ATOM     26  C   UNL A   1      31.331  32.093  26.643  1.00  0.00     0.202 C 
BRANCH  26  27
ATOM     27  C   UNL A   1      32.472  33.070  26.946  1.00  0.00     0.261 C 
BRANCH  27  28
ATOM     28  O   UNL A   1      32.209  33.866  28.114  1.00  0.00    -0.460 OA
BRANCH  28  29
ATOM     29  C   UNL A   1      33.242  34.641  28.515  1.00  0.00     0.338 C 
ATOM     30  O   UNL A   1      33.227  35.843  28.738  1.00  0.00    -0.246 OA
BRANCH  29  31
ATOM     31  C   UNL A   1      34.413  33.800  28.825  1.00  0.00     0.060 A 
ATOM     32  C   UNL A   1      34.181  32.600  29.510  1.00  0.00     0.016 A 
ATOM     33  C   UNL A   1      35.714  34.202  28.516  1.00  0.00     0.016 A 
ATOM     34  C   UNL A   1      35.255  31.819  29.930  1.00  0.00     0.010 A 
ATOM     35  C   UNL A   1      36.791  33.420  28.947  1.00  0.00     0.010 A 
ATOM     36  C   UNL A   1      36.568  32.242  29.683  1.00  0.00    -0.014 A 
BRANCH  36  37
ATOM     37  C   UNL A   1      37.699  31.506  30.299  1.00  0.00     0.031 A 
ATOM     38  C   UNL A   1      38.053  31.770  31.737  1.00  0.00     0.074 A 
ATOM     39  C   UNL A   1      38.384  30.591  29.592  1.00  0.00     0.049 A 
ATOM     40  N   UNL A   1      39.010  31.251  32.463  1.00  0.00    -0.248 NA
ATOM     41  C   UNL A   1      37.219  32.750  32.450  1.00  0.00     0.031 C 
ATOM     42  C   UNL A   1      38.120  30.229  28.200  1.00  0.00     0.029 A 
ATOM     43  N   UNL A   1      39.449  29.803  29.950  1.00  0.00    -0.354 N 
ATOM     44  C   UNL A   1      38.898  31.843  33.715  1.00  0.00     0.074 A 
ATOM     45  C   UNL A   1      37.799  32.783  33.640  1.00  0.00     0.031 C 
ATOM     46  C   UNL A   1      39.007  29.295  27.818  1.00  0.00     0.029 A 
ATOM     47  C   UNL A   1      39.918  29.016  28.928  1.00  0.00     0.049 A 
ATOM     48  H   UNL A   1      39.839  29.803  30.854  1.00  0.00     0.167 HD
ATOM     49  C   UNL A   1      39.637  31.617  34.827  1.00  0.00     0.037 A 
ATOM     50  C   UNL A   1      40.975  28.182  28.886  1.00  0.00     0.037 A 
ATOM     51  C   UNL A   1      40.726  30.679  34.901  1.00  0.00     0.049 A 
ATOM     52  C   UNL A   1      41.816  27.993  30.119  1.00  0.00     0.074 A 
ATOM     53  C   UNL A   1      41.513  30.355  35.994  1.00  0.00     0.029 A 
ATOM     54  N   UNL A   1      41.188  29.919  33.837  1.00  0.00    -0.354 N 
ATOM     55  N   UNL A   1      41.678  28.528  31.307  1.00  0.00    -0.248 NA
ATOM     56  C   UNL A   1      42.961  27.076  30.005  1.00  0.00     0.031 C 
ATOM     57  C   UNL A   1      42.485  29.438  35.577  1.00  0.00     0.029 A 
ATOM     58  C   UNL A   1      42.269  29.151  34.239  1.00  0.00     0.049 A 
ATOM     59  H   UNL A   1      40.805  29.924  32.930  1.00  0.00     0.167 HD
ATOM     60  C   UNL A   1      42.698  27.997  32.087  1.00  0.00     0.074 A 
ATOM     61  C   UNL A   1      43.437  27.084  31.242  1.00  0.00     0.031 C 
ATOM     62  C   UNL A   1      42.997  28.245  33.386  1.00  0.00     0.037 A 
BRANCH  49  63
ATOM     63  C   UNL A   1      39.308  32.418  36.053  1.00  0.00     0.057 A 
ATOM     64  C   UNL A   1      39.939  33.637  36.335  1.00  0.00     0.134 A 
ATOM     65  C   UNL A   1      38.315  31.984  36.941  1.00  0.00     0.134 A 
ATOM     66  F   UNL A   1      40.907  34.103  35.532  1.00  0.00    -0.206 F 
ATOM     67  C   UNL A   1      39.610  34.384  37.467  1.00  0.00     0.040 A 
ATOM     68  C   UNL A   1      37.959  32.735  38.063  1.00  0.00     0.040 A 
ATOM     69  F   UNL A   1      37.668  30.828  36.728  1.00  0.00    -0.206 F 
ATOM     70  C   UNL A   1      38.611  33.937  38.331  1.00  0.00     0.006 A 
ENDBRANCH  49  63
BRANCH  50  71
ATOM     71  C   UNL A   1      41.310  27.473  27.625  1.00  0.00     0.057 A 
ATOM     72  C   UNL A   1      40.848  26.176  27.375  1.00  0.00     0.134 A 
ATOM     73  C   UNL A   1      42.122  28.068  26.651  1.00  0.00     0.134 A 
ATOM     74  F   UNL A   1      40.088  25.544  28.281  1.00  0.00    -0.206 F 
ATOM     75  C   UNL A   1      41.195  25.489  26.210  1.00  0.00     0.040 A 
ATOM     76  C   UNL A   1      42.453  27.404  25.470  1.00  0.00     0.040 A 
ATOM     77  F   UNL A   1      42.597  29.309  26.832  1.00  0.00    -0.206 F 
ATOM     78  C   UNL A   1      41.996  26.106  25.251  1.00  0.00     0.006 A 
ENDBRANCH  50  71
BRANCH  62  79
ATOM     79  C   UNL A   1      44.155  27.496  33.980  1.00  0.00     0.057 A 
ATOM     80  C   UNL A   1      44.000  26.228  34.555  1.00  0.00     0.134 A 
ATOM     81  C   UNL A   1      45.446  28.038  33.951  1.00  0.00     0.134 A 
ATOM     82  F   UNL A   1      42.788  25.658  34.627  1.00  0.00    -0.206 F 
ATOM     83  C   UNL A   1      45.083  25.538  35.104  1.00  0.00     0.040 A 
ATOM     84  C   UNL A   1      46.542  27.346  34.469  1.00  0.00     0.040 A 
ATOM     85  F   UNL A   1      45.668  29.243  33.405  1.00  0.00    -0.206 F 
ATOM     86  C   UNL A   1      46.360  26.095  35.055  1.00  0.00     0.006 A 
ENDBRANCH  62  79
ENDBRANCH  36  37
ENDBRANCH  29  31
ENDBRANCH  28  29
ENDBRANCH  27  28
ENDBRANCH  26  27
ENDBRANCH  25  26
ENDBRANCH   1  25
TORSDOF 18
ENDMDL
