MODEL 1
REMARK VINA RESULT:     -11.2      0.000      0.000
REMARK SMILES Cc1c(Cl)ccc2c1C=C(C(=O)OCCOCCOC(=O)c1ccc(-c3c4nc(c(-c5c(F)cccc5F)c5ccc([nH]5)c(-c5c(F)cccc5F)c5nc(c(-c6c(F)cccc6F)c6ccc3[nH]6)C=C5)C=C4)cc1)[C@@H](C(F)(F)F)O2
REMARK SMILES IDX 17 1 16 2 15 3 14 4 13 5 11 6 12 7 10 8 1 9 2 10 3 11 8 12
REMARK SMILES IDX 4 13 5 14 7 15 9 16 6 17 81 18 76 19 77 20 78 21 79 22 80 23
REMARK SMILES IDX 18 24 19 25 20 26 21 27 22 28 23 29 75 30 24 31 74 32 25 33
REMARK SMILES IDX 26 34 27 35 68 36 28 37 73 38 67 39 69 40 29 41 72 42 66 43
REMARK SMILES IDX 65 44 30 46 56 47 39 48 55 49 40 50 43 51 54 52 70 53 41 54
REMARK SMILES IDX 42 55 53 57 71 58 44 59 31 60 32 61 37 62 33 63 34 64 36 65
REMARK SMILES IDX 38 66 35 67 57 68 58 69 63 70 59 71 60 72 62 73 64 74 61 75
REMARK SMILES IDX 45 76 46 77 51 78 47 79 48 80 50 81 52 82 49 83
REMARK H PARENT 69 45 43 56
REMARK Flexibility Score: inf
ROOT
ATOM      1  C   UNL A   1      31.359  31.852  26.585  1.00  0.00     0.202 C 
ENDROOT
BRANCH   1   2
ATOM      2  O   UNL A   1      32.245  30.771  26.283  1.00  0.00    -0.374 OA
BRANCH   2   3
ATOM      3  C   UNL A   1      32.271  29.666  27.182  1.00  0.00     0.202 C 
BRANCH   3   4
ATOM      4  C   UNL A   1      31.897  28.303  26.593  1.00  0.00     0.261 C 
BRANCH   4   5
ATOM      5  O   UNL A   1      33.012  27.397  26.604  1.00  0.00    -0.460 OA
BRANCH   5   6
ATOM      6  C   UNL A   1      33.385  26.951  25.382  1.00  0.00     0.338 C 
ATOM      7  O   UNL A   1      33.740  27.629  24.430  1.00  0.00    -0.246 OA
BRANCH   6   8
ATOM      8  C   UNL A   1      33.424  25.477  25.380  1.00  0.00     0.087 C 
ATOM      9  C   UNL A   1      37.304  23.639  25.560  1.00  0.00     0.047 C 
ATOM     10  C   UNL A   1      36.044  22.844  25.321  1.00  0.00    -0.021 A 
ATOM     11  C   UNL A   1      36.089  21.463  25.049  1.00  0.00     0.044 A 
ATOM     12  C   UNL A   1      34.778  23.484  25.332  1.00  0.00     0.022 A 
ATOM     13  Cl  UNL A   1      37.578  20.597  24.894  1.00  0.00    -0.084 Cl
ATOM     14  C   UNL A   1      34.914  20.729  24.867  1.00  0.00     0.024 A 
ATOM     15  C   UNL A   1      33.606  22.729  25.187  1.00  0.00     0.128 A 
ATOM     16  C   UNL A   1      34.646  24.933  25.428  1.00  0.00     0.027 C 
ATOM     17  C   UNL A   1      33.675  21.357  24.961  1.00  0.00     0.048 A 
ATOM     18  O   UNL A   1      32.341  23.243  25.256  1.00  0.00    -0.475 OA
ATOM     19  C   UNL A   1      32.155  24.683  25.304  1.00  0.00     0.316 C 
BRANCH  19  20
ATOM     20  C   UNL A   1      31.269  25.090  24.116  1.00  0.00     0.430 C 
ATOM     21  F   UNL A   1      30.530  26.187  24.410  1.00  0.00    -0.167 F 
ATOM     22  F   UNL A   1      32.004  25.402  23.024  1.00  0.00    -0.167 F 
ATOM     23  F   UNL A   1      30.412  24.105  23.762  1.00  0.00    -0.167 F 
ENDBRANCH  19  20
ENDBRANCH   6   8
ENDBRANCH   5   6
ENDBRANCH   4   5
ENDBRANCH   3   4
ENDBRANCH   2   3
ENDBRANCH   1   2
BRANCH   1  24
ATOM     24  C   UNL A   1      31.995  33.237  26.755  1.00  0.00     0.261 C 
BRANCH  24  25
ATOM     25  O   UNL A   1      32.360  33.488  28.126  1.00  0.00    -0.460 OA
BRANCH  25  26
ATOM     26  C   UNL A   1      33.462  34.253  28.294  1.00  0.00     0.338 C 
ATOM     27  O   UNL A   1      33.519  35.469  28.404  1.00  0.00    -0.246 OA
BRANCH  26  28
ATOM     28  C   UNL A   1      34.636  33.393  28.505  1.00  0.00     0.060 A 
ATOM     29  C   UNL A   1      34.425  32.106  29.016  1.00  0.00     0.016 A 
ATOM     30  C   UNL A   1      35.927  33.888  28.324  1.00  0.00     0.016 A 
ATOM     31  C   UNL A   1      35.512  31.320  29.390  1.00  0.00     0.010 A 
ATOM     32  C   UNL A   1      37.016  33.106  28.716  1.00  0.00     0.010 A 
ATOM     33  C   UNL A   1      36.809  31.837  29.286  1.00  0.00    -0.014 A 
BRANCH  33  34
ATOM     34  C   UNL A   1      37.924  31.127  29.952  1.00  0.00     0.031 A 
ATOM     35  C   UNL A   1      38.220  31.440  31.392  1.00  0.00     0.074 A 
ATOM     36  C   UNL A   1      38.643  30.200  29.299  1.00  0.00     0.049 A 
ATOM     37  N   UNL A   1      39.143  30.949  32.179  1.00  0.00    -0.248 NA
ATOM     38  C   UNL A   1      37.351  32.443  32.032  1.00  0.00     0.031 C 
ATOM     39  C   UNL A   1      38.427  29.783  27.916  1.00  0.00     0.029 A 
ATOM     40  N   UNL A   1      39.708  29.447  29.720  1.00  0.00    -0.354 N 
ATOM     41  C   UNL A   1      38.957  31.569  33.408  1.00  0.00     0.074 A 
ATOM     42  C   UNL A   1      37.862  32.503  33.252  1.00  0.00     0.031 C 
ATOM     43  C   UNL A   1      39.349  28.859  27.593  1.00  0.00     0.029 A 
ATOM     44  C   UNL A   1      40.227  28.638  28.740  1.00  0.00     0.049 A 
ATOM     45  H   UNL A   1      40.067  29.483  30.636  1.00  0.00     0.167 HD
ATOM     46  C   UNL A   1      39.629  31.370  34.567  1.00  0.00     0.037 A 
ATOM     47  C   UNL A   1      41.302  27.829  28.767  1.00  0.00     0.037 A 
ATOM     48  C   UNL A   1      40.742  30.470  34.712  1.00  0.00     0.049 A 
ATOM     49  C   UNL A   1      42.101  27.700  30.036  1.00  0.00     0.074 A 
ATOM     50  C   UNL A   1      41.499  30.203  35.839  1.00  0.00     0.029 A 
ATOM     51  N   UNL A   1      41.270  29.703  33.685  1.00  0.00    -0.354 N 
ATOM     52  N   UNL A   1      41.902  28.268  31.201  1.00  0.00    -0.248 NA
ATOM     53  C   UNL A   1      43.273  26.814  29.992  1.00  0.00     0.031 C 
ATOM     54  C   UNL A   1      42.513  29.306  35.481  1.00  0.00     0.029 A 
ATOM     55  C   UNL A   1      42.359  28.981  34.142  1.00  0.00     0.049 A 
ATOM     56  H   UNL A   1      40.922  29.675  32.764  1.00  0.00     0.167 HD
ATOM     57  C   UNL A   1      42.908  27.792  32.034  1.00  0.00     0.074 A 
ATOM     58  C   UNL A   1      43.707  26.879  31.244  1.00  0.00     0.031 C 
ATOM     59  C   UNL A   1      43.148  28.082  33.338  1.00  0.00     0.037 A 
BRANCH  46  60
ATOM     60  C   UNL A   1      39.182  32.172  35.753  1.00  0.00     0.057 A 
ATOM     61  C   UNL A   1      39.656  33.473  35.960  1.00  0.00     0.134 A 
ATOM     62  C   UNL A   1      38.260  31.665  36.679  1.00  0.00     0.134 A 
ATOM     63  F   UNL A   1      40.539  34.019  35.111  1.00  0.00    -0.206 F 
ATOM     64  C   UNL A   1      39.221  34.245  37.039  1.00  0.00     0.040 A 
ATOM     65  C   UNL A   1      37.799  32.436  37.748  1.00  0.00     0.040 A 
ATOM     66  F   UNL A   1      37.752  30.432  36.527  1.00  0.00    -0.206 F 
ATOM     67  C   UNL A   1      38.282  33.730  37.930  1.00  0.00     0.006 A 
ENDBRANCH  46  60
BRANCH  47  68
ATOM     68  C   UNL A   1      41.697  27.085  27.547  1.00  0.00     0.057 A 
ATOM     69  C   UNL A   1      42.519  27.671  26.575  1.00  0.00     0.134 A 
ATOM     70  C   UNL A   1      41.278  25.768  27.330  1.00  0.00     0.134 A 
ATOM     71  F   UNL A   1      42.955  28.930  26.726  1.00  0.00    -0.206 F 
ATOM     72  C   UNL A   1      42.901  26.976  25.427  1.00  0.00     0.040 A 
ATOM     73  C   UNL A   1      41.670  25.054  26.196  1.00  0.00     0.040 A 
ATOM     74  F   UNL A   1      40.510  25.148  28.237  1.00  0.00    -0.206 F 
ATOM     75  C   UNL A   1      42.481  25.661  25.238  1.00  0.00     0.006 A 
ENDBRANCH  47  68
BRANCH  59  76
ATOM     76  C   UNL A   1      44.307  27.386  33.989  1.00  0.00     0.057 A 
ATOM     77  C   UNL A   1      44.136  26.141  34.606  1.00  0.00     0.134 A 
ATOM     78  C   UNL A   1      45.586  27.957  34.024  1.00  0.00     0.134 A 
ATOM     79  F   UNL A   1      42.936  25.543  34.614  1.00  0.00    -0.206 F 
ATOM     80  C   UNL A   1      45.196  25.487  35.235  1.00  0.00     0.040 A 
ATOM     81  C   UNL A   1      46.660  27.300  34.628  1.00  0.00     0.040 A 
ATOM     82  F   UNL A   1      45.818  29.141  33.439  1.00  0.00    -0.206 F 
ATOM     83  C   UNL A   1      46.465  26.063  35.241  1.00  0.00     0.006 A 
ENDBRANCH  59  76
ENDBRANCH  33  34
ENDBRANCH  26  28
ENDBRANCH  25  26
ENDBRANCH  24  25
ENDBRANCH   1  24
TORSDOF 15
ENDMDL
MODEL 2
REMARK VINA RESULT:     -11.1      1.203      6.506
REMARK SMILES Cc1c(Cl)ccc2c1C=C(C(=O)OCCOCCOC(=O)c1ccc(-c3c4nc(c(-c5c(F)cccc5F)c5ccc([nH]5)c(-c5c(F)cccc5F)c5nc(c(-c6c(F)cccc6F)c6ccc3[nH]6)C=C5)C=C4)cc1)[C@@H](C(F)(F)F)O2
REMARK SMILES IDX 17 1 16 2 15 3 14 4 13 5 11 6 12 7 10 8 1 9 2 10 3 11 8 12
REMARK SMILES IDX 4 13 5 14 7 15 9 16 6 17 81 18 76 19 77 20 78 21 79 22 80 23
REMARK SMILES IDX 18 24 19 25 20 26 21 27 22 28 23 29 75 30 24 31 74 32 25 33
REMARK SMILES IDX 26 34 27 35 68 36 28 37 73 38 67 39 69 40 29 41 72 42 66 43
REMARK SMILES IDX 65 44 30 46 56 47 39 48 55 49 40 50 43 51 54 52 70 53 41 54
REMARK SMILES IDX 42 55 53 57 71 58 44 59 31 60 32 61 37 62 33 63 34 64 36 65
REMARK SMILES IDX 38 66 35 67 57 68 58 69 63 70 59 71 60 72 62 73 64 74 61 75
REMARK SMILES IDX 45 76 46 77 51 78 47 79 48 80 50 81 52 82 49 83
REMARK H PARENT 69 45 43 56
REMARK Flexibility Score: inf
ROOT
ATOM      1  C   UNL A   1      31.698  29.190  25.545  1.00  0.00     0.202 C 
ENDROOT
BRANCH   1   2
ATOM      2  O   UNL A   1      31.815  28.865  24.157  1.00  0.00    -0.374 OA
BRANCH   2   3
ATOM      3  C   UNL A   1      33.119  28.602  23.646  1.00  0.00     0.202 C 
BRANCH   3   4
ATOM      4  C   UNL A   1      33.394  27.166  23.193  1.00  0.00     0.261 C 
BRANCH   4   5
ATOM      5  O   UNL A   1      34.141  26.434  24.177  1.00  0.00    -0.460 OA
BRANCH   5   6
ATOM      6  C   UNL A   1      33.412  25.538  24.884  1.00  0.00     0.338 C 
ATOM      7  O   UNL A   1      32.292  25.703  25.343  1.00  0.00    -0.246 OA
BRANCH   6   8
ATOM      8  C   UNL A   1      34.120  24.246  24.932  1.00  0.00     0.087 C 
ATOM      9  C   UNL A   1      38.099  24.275  26.555  1.00  0.00     0.047 C 
ATOM     10  C   UNL A   1      37.505  23.056  25.894  1.00  0.00    -0.021 A 
ATOM     11  C   UNL A   1      38.266  21.887  25.691  1.00  0.00     0.044 A 
ATOM     12  C   UNL A   1      36.165  23.072  25.429  1.00  0.00     0.022 A 
ATOM     13  Cl  UNL A   1      39.941  21.789  26.109  1.00  0.00    -0.084 Cl
ATOM     14  C   UNL A   1      37.695  20.751  25.113  1.00  0.00     0.024 A 
ATOM     15  C   UNL A   1      35.594  21.912  24.886  1.00  0.00     0.128 A 
ATOM     16  C   UNL A   1      35.360  24.288  25.434  1.00  0.00     0.027 C 
ATOM     17  C   UNL A   1      36.355  20.756  24.735  1.00  0.00     0.048 A 
ATOM     18  O   UNL A   1      34.293  21.809  24.478  1.00  0.00    -0.475 OA
ATOM     19  C   UNL A   1      33.464  22.999  24.420  1.00  0.00     0.316 C 
BRANCH  19  20
ATOM     20  C   UNL A   1      32.944  23.149  22.982  1.00  0.00     0.430 C 
ATOM     21  F   UNL A   1      33.805  23.869  22.222  1.00  0.00    -0.167 F 
ATOM     22  F   UNL A   1      32.802  21.951  22.370  1.00  0.00    -0.167 F 
ATOM     23  F   UNL A   1      31.744  23.773  22.938  1.00  0.00    -0.167 F 
ENDBRANCH  19  20
ENDBRANCH   6   8
ENDBRANCH   5   6
ENDBRANCH   4   5
ENDBRANCH   3   4
ENDBRANCH   2   3
ENDBRANCH   1   2
BRANCH   1  24
ATOM     24  C   UNL A   1      31.722  30.679  25.909  1.00  0.00     0.261 C 
BRANCH  24  25
ATOM     25  O   UNL A   1      32.217  30.890  27.245  1.00  0.00    -0.460 OA
BRANCH  25  26
ATOM     26  C   UNL A   1      32.990  31.988  27.402  1.00  0.00     0.338 C 
ATOM     27  O   UNL A   1      32.641  33.159  27.372  1.00  0.00    -0.246 OA
BRANCH  26  28
ATOM     28  C   UNL A   1      34.348  31.586  27.797  1.00  0.00     0.060 A 
ATOM     29  C   UNL A   1      34.577  30.234  28.084  1.00  0.00     0.016 A 
ATOM     30  C   UNL A   1      35.344  32.541  28.005  1.00  0.00     0.016 A 
ATOM     31  C   UNL A   1      35.798  29.835  28.623  1.00  0.00     0.010 A 
ATOM     32  C   UNL A   1      36.562  32.142  28.563  1.00  0.00     0.010 A 
ATOM     33  C   UNL A   1      36.776  30.796  28.909  1.00  0.00    -0.014 A 
BRANCH  33  34
ATOM     34  C   UNL A   1      37.938  30.416  29.745  1.00  0.00     0.031 A 
ATOM     35  C   UNL A   1      38.948  29.458  29.179  1.00  0.00     0.074 A 
ATOM     36  C   UNL A   1      38.107  30.935  30.971  1.00  0.00     0.049 A 
ATOM     37  N   UNL A   1      40.038  28.981  29.724  1.00  0.00    -0.248 NA
ATOM     38  C   UNL A   1      38.694  28.975  27.812  1.00  0.00     0.031 C 
ATOM     39  C   UNL A   1      37.217  31.900  31.611  1.00  0.00     0.029 A 
ATOM     40  N   UNL A   1      39.090  30.709  31.900  1.00  0.00    -0.354 N 
ATOM     41  C   UNL A   1      40.608  28.157  28.762  1.00  0.00     0.074 A 
ATOM     42  C   UNL A   1      39.723  28.164  27.617  1.00  0.00     0.031 C 
ATOM     43  C   UNL A   1      37.685  32.171  32.842  1.00  0.00     0.029 A 
ATOM     44  C   UNL A   1      38.893  31.384  33.079  1.00  0.00     0.049 A 
ATOM     45  H   UNL A   1      39.862  30.121  31.736  1.00  0.00     0.167 HD
ATOM     46  C   UNL A   1      41.772  27.465  28.820  1.00  0.00     0.037 A 
ATOM     47  C   UNL A   1      39.601  31.348  34.223  1.00  0.00     0.037 A 
ATOM     48  C   UNL A   1      42.633  27.428  29.972  1.00  0.00     0.049 A 
ATOM     49  C   UNL A   1      40.834  30.491  34.304  1.00  0.00     0.074 A 
ATOM     50  C   UNL A   1      43.827  26.751  30.139  1.00  0.00     0.029 A 
ATOM     51  N   UNL A   1      42.376  28.085  31.165  1.00  0.00    -0.354 N 
ATOM     52  N   UNL A   1      41.382  29.737  33.382  1.00  0.00    -0.248 NA
ATOM     53  C   UNL A   1      41.551  30.483  35.588  1.00  0.00     0.031 C 
ATOM     54  C   UNL A   1      44.271  26.964  31.449  1.00  0.00     0.029 A 
ATOM     55  C   UNL A   1      43.375  27.810  32.084  1.00  0.00     0.049 A 
ATOM     56  H   UNL A   1      41.597  28.663  31.336  1.00  0.00     0.167 HD
ATOM     57  C   UNL A   1      42.516  29.183  33.964  1.00  0.00     0.074 A 
ATOM     58  C   UNL A   1      42.585  29.700  35.315  1.00  0.00     0.031 C 
ATOM     59  C   UNL A   1      43.422  28.328  33.429  1.00  0.00     0.037 A 
BRANCH  46  60
ATOM     60  C   UNL A   1      42.149  26.675  27.602  1.00  0.00     0.057 A 
ATOM     61  C   UNL A   1      41.769  25.334  27.471  1.00  0.00     0.134 A 
ATOM     62  C   UNL A   1      42.869  27.249  26.546  1.00  0.00     0.134 A 
ATOM     63  F   UNL A   1      41.077  24.724  28.444  1.00  0.00    -0.206 F 
ATOM     64  C   UNL A   1      42.082  24.596  26.328  1.00  0.00     0.040 A 
ATOM     65  C   UNL A   1      43.167  26.530  25.388  1.00  0.00     0.040 A 
ATOM     66  F   UNL A   1      43.247  28.537  26.601  1.00  0.00    -0.206 F 
ATOM     67  C   UNL A   1      42.773  25.197  25.278  1.00  0.00     0.006 A 
ENDBRANCH  46  60
BRANCH  47  68
ATOM     68  C   UNL A   1      39.151  32.139  35.394  1.00  0.00     0.057 A 
ATOM     69  C   UNL A   1      38.378  31.559  36.407  1.00  0.00     0.134 A 
ATOM     70  C   UNL A   1      39.497  33.487  35.536  1.00  0.00     0.134 A 
ATOM     71  F   UNL A   1      38.016  30.270  36.330  1.00  0.00    -0.206 F 
ATOM     72  C   UNL A   1      37.957  32.295  37.516  1.00  0.00     0.040 A 
ATOM     73  C   UNL A   1      39.100  34.229  36.651  1.00  0.00     0.040 A 
ATOM     74  F   UNL A   1      40.256  34.089  34.609  1.00  0.00    -0.206 F 
ATOM     75  C   UNL A   1      38.323  33.632  37.642  1.00  0.00     0.006 A 
ENDBRANCH  47  68
BRANCH  59  76
ATOM     76  C   UNL A   1      44.572  27.918  34.301  1.00  0.00     0.057 A 
ATOM     77  C   UNL A   1      45.700  28.739  34.427  1.00  0.00     0.134 A 
ATOM     78  C   UNL A   1      44.574  26.703  34.998  1.00  0.00     0.134 A 
ATOM     79  F   UNL A   1      45.765  29.911  33.781  1.00  0.00    -0.206 F 
ATOM     80  C   UNL A   1      46.789  28.366  35.217  1.00  0.00     0.040 A 
ATOM     81  C   UNL A   1      45.647  26.332  35.812  1.00  0.00     0.040 A 
ATOM     82  F   UNL A   1      43.519  25.879  34.931  1.00  0.00    -0.206 F 
ATOM     83  C   UNL A   1      46.761  27.163  35.918  1.00  0.00     0.006 A 
ENDBRANCH  59  76
ENDBRANCH  33  34
ENDBRANCH  26  28
ENDBRANCH  25  26
ENDBRANCH  24  25
ENDBRANCH   1  24
TORSDOF 15
ENDMDL
MODEL 3
REMARK VINA RESULT:     -11.1      5.620     10.848
REMARK SMILES Cc1c(Cl)ccc2c1C=C(C(=O)OCCOCCOC(=O)c1ccc(-c3c4nc(c(-c5c(F)cccc5F)c5ccc([nH]5)c(-c5c(F)cccc5F)c5nc(c(-c6c(F)cccc6F)c6ccc3[nH]6)C=C5)C=C4)cc1)[C@@H](C(F)(F)F)O2
REMARK SMILES IDX 17 1 16 2 15 3 14 4 13 5 11 6 12 7 10 8 1 9 2 10 3 11 8 12
REMARK SMILES IDX 4 13 5 14 7 15 9 16 6 17 81 18 76 19 77 20 78 21 79 22 80 23
REMARK SMILES IDX 18 24 19 25 20 26 21 27 22 28 23 29 75 30 24 31 74 32 25 33
REMARK SMILES IDX 26 34 27 35 68 36 28 37 73 38 67 39 69 40 29 41 72 42 66 43
REMARK SMILES IDX 65 44 30 46 56 47 39 48 55 49 40 50 43 51 54 52 70 53 41 54
REMARK SMILES IDX 42 55 53 57 71 58 44 59 31 60 32 61 37 62 33 63 34 64 36 65
REMARK SMILES IDX 38 66 35 67 57 68 58 69 63 70 59 71 60 72 62 73 64 74 61 75
REMARK SMILES IDX 45 76 46 77 51 78 47 79 48 80 50 81 52 82 49 83
REMARK H PARENT 69 45 43 56
REMARK Flexibility Score: inf
ROOT
ATOM      1  C   UNL A   1      42.277  20.557  26.431  1.00  0.00     0.202 C 
ENDROOT
BRANCH   1   2
ATOM      2  O   UNL A   1      42.611  19.515  25.510  1.00  0.00    -0.374 OA
BRANCH   2   3
ATOM      3  C   UNL A   1      43.992  19.231  25.303  1.00  0.00     0.202 C 
BRANCH   3   4
ATOM      4  C   UNL A   1      44.670  19.968  24.145  1.00  0.00     0.261 C 
BRANCH   4   5
ATOM      5  O   UNL A   1      45.500  21.042  24.614  1.00  0.00    -0.460 OA
BRANCH   5   6
ATOM      6  C   UNL A   1      44.848  22.214  24.804  1.00  0.00     0.338 C 
ATOM      7  O   UNL A   1      43.862  22.611  24.202  1.00  0.00    -0.246 OA
BRANCH   6   8
ATOM      8  C   UNL A   1      45.429  22.927  25.956  1.00  0.00     0.087 C 
ATOM      9  C   UNL A   1      43.011  23.185  29.499  1.00  0.00     0.047 C 
ATOM     10  C   UNL A   1      44.313  23.934  29.353  1.00  0.00    -0.021 A 
ATOM     11  C   UNL A   1      44.755  24.835  30.341  1.00  0.00     0.044 A 
ATOM     12  C   UNL A   1      45.109  23.769  28.191  1.00  0.00     0.022 A 
ATOM     13  Cl  UNL A   1      43.814  25.205  31.745  1.00  0.00    -0.084 Cl
ATOM     14  C   UNL A   1      45.980  25.493  30.214  1.00  0.00     0.024 A 
ATOM     15  C   UNL A   1      46.355  24.406  28.095  1.00  0.00     0.128 A 
ATOM     16  C   UNL A   1      44.649  22.999  27.042  1.00  0.00     0.027 C 
ATOM     17  C   UNL A   1      46.789  25.260  29.106  1.00  0.00     0.048 A 
ATOM     18  O   UNL A   1      47.223  24.253  27.051  1.00  0.00    -0.475 OA
ATOM     19  C   UNL A   1      46.796  23.535  25.863  1.00  0.00     0.316 C 
BRANCH  19  20
ATOM     20  C   UNL A   1      46.948  24.474  24.657  1.00  0.00     0.430 C 
ATOM     21  F   UNL A   1      48.027  25.281  24.798  1.00  0.00    -0.167 F 
ATOM     22  F   UNL A   1      47.128  23.789  23.504  1.00  0.00    -0.167 F 
ATOM     23  F   UNL A   1      45.865  25.269  24.493  1.00  0.00    -0.167 F 
ENDBRANCH  19  20
ENDBRANCH   6   8
ENDBRANCH   5   6
ENDBRANCH   4   5
ENDBRANCH   3   4
ENDBRANCH   2   3
ENDBRANCH   1   2
BRANCH   1  24
ATOM     24  C   UNL A   1      41.011  20.355  27.272  1.00  0.00     0.261 C 
BRANCH  24  25
ATOM     25  O   UNL A   1      40.448  21.613  27.691  1.00  0.00    -0.460 OA
BRANCH  25  26
ATOM     26  C   UNL A   1      39.808  22.305  26.721  1.00  0.00     0.338 C 
ATOM     27  O   UNL A   1      39.210  21.857  25.754  1.00  0.00    -0.246 OA
BRANCH  26  28
ATOM     28  C   UNL A   1      39.772  23.732  27.071  1.00  0.00     0.060 A 
ATOM     29  C   UNL A   1      40.207  24.656  26.112  1.00  0.00     0.016 A 
ATOM     30  C   UNL A   1      39.436  24.144  28.361  1.00  0.00     0.016 A 
ATOM     31  C   UNL A   1      40.349  25.999  26.455  1.00  0.00     0.010 A 
ATOM     32  C   UNL A   1      39.597  25.488  28.709  1.00  0.00     0.010 A 
ATOM     33  C   UNL A   1      40.091  26.409  27.769  1.00  0.00    -0.014 A 
BRANCH  33  34
ATOM     34  C   UNL A   1      40.523  27.758  28.201  1.00  0.00     0.031 A 
ATOM     35  C   UNL A   1      41.991  28.079  28.197  1.00  0.00     0.074 A 
ATOM     36  C   UNL A   1      39.626  28.689  28.563  1.00  0.00     0.049 A 
ATOM     37  N   UNL A   1      42.602  29.186  28.534  1.00  0.00    -0.248 NA
ATOM     38  C   UNL A   1      42.891  27.005  27.746  1.00  0.00     0.031 C 
ATOM     39  C   UNL A   1      38.177  28.508  28.572  1.00  0.00     0.029 A 
ATOM     40  N   UNL A   1      39.813  29.974  29.002  1.00  0.00    -0.354 N 
ATOM     41  C   UNL A   1      43.954  28.948  28.322  1.00  0.00     0.074 A 
ATOM     42  C   UNL A   1      44.079  27.579  27.868  1.00  0.00     0.031 C 
ATOM     43  C   UNL A   1      37.602  29.640  29.016  1.00  0.00     0.029 A 
ATOM     44  C   UNL A   1      38.645  30.611  29.340  1.00  0.00     0.049 A 
ATOM     45  H   UNL A   1      40.698  30.399  29.068  1.00  0.00     0.167 HD
ATOM     46  C   UNL A   1      44.998  29.796  28.478  1.00  0.00     0.037 A 
ATOM     47  C   UNL A   1      38.449  31.833  29.870  1.00  0.00     0.037 A 
ATOM     48  C   UNL A   1      44.879  31.144  28.965  1.00  0.00     0.049 A 
ATOM     49  C   UNL A   1      39.632  32.723  30.135  1.00  0.00     0.074 A 
ATOM     50  C   UNL A   1      45.874  32.083  29.171  1.00  0.00     0.029 A 
ATOM     51  N   UNL A   1      43.684  31.739  29.343  1.00  0.00    -0.354 N 
ATOM     52  N   UNL A   1      40.904  32.502  29.905  1.00  0.00    -0.248 NA
ATOM     53  C   UNL A   1      39.350  34.038  30.730  1.00  0.00     0.031 C 
ATOM     54  C   UNL A   1      45.286  33.231  29.715  1.00  0.00     0.029 A 
ATOM     55  C   UNL A   1      43.919  33.023  29.806  1.00  0.00     0.049 A 
ATOM     56  H   UNL A   1      42.799  31.312  29.291  1.00  0.00     0.167 HD
ATOM     57  C   UNL A   1      41.571  33.653  30.307  1.00  0.00     0.074 A 
ATOM     58  C   UNL A   1      40.561  34.576  30.781  1.00  0.00     0.031 C 
ATOM     59  C   UNL A   1      42.900  33.925  30.282  1.00  0.00     0.037 A 
BRANCH  46  60
ATOM     60  C   UNL A   1      46.359  29.262  28.140  1.00  0.00     0.057 A 
ATOM     61  C   UNL A   1      47.231  28.832  29.147  1.00  0.00     0.134 A 
ATOM     62  C   UNL A   1      46.796  29.148  26.814  1.00  0.00     0.134 A 
ATOM     63  F   UNL A   1      46.874  28.913  30.438  1.00  0.00    -0.206 F 
ATOM     64  C   UNL A   1      48.486  28.299  28.846  1.00  0.00     0.040 A 
ATOM     65  C   UNL A   1      48.038  28.594  26.499  1.00  0.00     0.040 A 
ATOM     66  F   UNL A   1      46.000  29.524  25.801  1.00  0.00    -0.206 F 
ATOM     67  C   UNL A   1      48.888  28.169  27.519  1.00  0.00     0.006 A 
ENDBRANCH  46  60
BRANCH  47  68
ATOM     68  C   UNL A   1      37.075  32.283  30.200  1.00  0.00     0.057 A 
ATOM     69  C   UNL A   1      36.482  31.962  31.427  1.00  0.00     0.134 A 
ATOM     70  C   UNL A   1      36.329  33.057  29.304  1.00  0.00     0.134 A 
ATOM     71  F   UNL A   1      37.147  31.224  32.328  1.00  0.00    -0.206 F 
ATOM     72  C   UNL A   1      35.192  32.387  31.748  1.00  0.00     0.040 A 
ATOM     73  C   UNL A   1      35.046  33.507  29.622  1.00  0.00     0.040 A 
ATOM     74  F   UNL A   1      36.854  33.415  28.124  1.00  0.00    -0.206 F 
ATOM     75  C   UNL A   1      34.473  33.167  30.846  1.00  0.00     0.006 A 
ENDBRANCH  47  68
BRANCH  59  76
ATOM     76  C   UNL A   1      43.328  35.281  30.762  1.00  0.00     0.057 A 
ATOM     77  C   UNL A   1      43.456  36.348  29.865  1.00  0.00     0.134 A 
ATOM     78  C   UNL A   1      43.634  35.525  32.107  1.00  0.00     0.134 A 
ATOM     79  F   UNL A   1      43.186  36.180  28.562  1.00  0.00    -0.206 F 
ATOM     80  C   UNL A   1      43.873  37.611  30.287  1.00  0.00     0.040 A 
ATOM     81  C   UNL A   1      44.027  36.792  32.546  1.00  0.00     0.040 A 
ATOM     82  F   UNL A   1      43.518  34.549  33.019  1.00  0.00    -0.206 F 
ATOM     83  C   UNL A   1      44.152  37.838  31.634  1.00  0.00     0.006 A 
ENDBRANCH  59  76
ENDBRANCH  33  34
ENDBRANCH  26  28
ENDBRANCH  25  26
ENDBRANCH  24  25
ENDBRANCH   1  24
TORSDOF 15
ENDMDL
