MODEL 1
REMARK VINA RESULT:     -11.8      0.000      0.000
REMARK SMILES Cc1n[nH]c2c1[C@@]1(C(=O)N([C@@H](C)C(=O)OCCOCCOC(=O)c3ccc(-c4c5nc(c(-c6c(F)cccc6F)c6ccc([nH]6)c(-c6c(F)cccc6F)c6nc(c(-c7c(F)cccc7F)c7ccc4[nH]7)C=C6)C=C5)cc3)c3ccccc31)C(C#N)=C(N)O2
REMARK SMILES IDX 18 1 17 2 16 3 15 4 13 5 14 6 11 7 12 8 10 9 1 10 2 11 3 12
REMARK SMILES IDX 6 13 4 14 5 15 7 16 89 18 8 19 83 20 84 21 87 22 9 23 78 24
REMARK SMILES IDX 82 25 79 26 81 27 80 28 85 29 86 30 88 31 19 34 20 35 21 36
REMARK SMILES IDX 22 37 23 38 24 39 25 40 77 41 26 42 76 43 27 44 28 45 29 46
REMARK SMILES IDX 70 47 30 48 75 49 69 50 71 51 31 52 74 53 68 54 67 55 32 57
REMARK SMILES IDX 58 58 41 59 57 60 42 61 45 62 56 63 72 64 43 65 44 66 55 68
REMARK SMILES IDX 73 69 46 70 33 71 34 72 39 73 35 74 36 75 38 76 40 77 37 78
REMARK SMILES IDX 59 79 60 80 65 81 61 82 62 83 64 84 66 85 63 86 47 87 48 88
REMARK SMILES IDX 53 89 49 90 50 91 52 92 54 93 51 94
REMARK H PARENT 4 17 88 32 88 33 71 56 45 67
REMARK Flexibility Score: inf
ROOT
ATOM      1  O   UNL A   1      32.645  31.846  27.216  1.00  0.00    -0.374 OA
ENDROOT
BRANCH   1   2
ATOM      2  C   UNL A   1      32.265  30.514  26.880  1.00  0.00     0.202 C 
BRANCH   2   3
ATOM      3  C   UNL A   1      32.782  29.931  25.557  1.00  0.00     0.261 C 
BRANCH   3   4
ATOM      4  O   UNL A   1      31.751  29.505  24.637  1.00  0.00    -0.462 OA
BRANCH   4   5
ATOM      5  C   UNL A   1      32.225  28.864  23.541  1.00  0.00     0.329 C 
ATOM      6  O   UNL A   1      31.696  28.925  22.430  1.00  0.00    -0.250 OA
BRANCH   5   7
ATOM      7  C   UNL A   1      33.510  28.044  23.734  1.00  0.00     0.197 C 
ATOM      8  C   UNL A   1      34.381  28.298  22.498  1.00  0.00     0.044 C 
BRANCH   7   9
ATOM      9  N   UNL A   1      33.572  26.623  24.137  1.00  0.00    -0.297 N 
ATOM     10  C   UNL A   1      30.032  26.057  25.113  1.00  0.00     0.069 C 
ATOM     11  C   UNL A   1      30.507  24.911  25.917  1.00  0.00     0.068 A 
ATOM     12  N   UNL A   1      29.630  24.273  26.712  1.00  0.00    -0.177 NA
ATOM     13  C   UNL A   1      31.807  24.349  26.017  1.00  0.00     0.063 A 
ATOM     14  N   UNL A   1      30.362  23.335  27.335  1.00  0.00    -0.246 N 
ATOM     15  C   UNL A   1      31.660  23.346  26.946  1.00  0.00     0.222 A 
ATOM     16  C   UNL A   1      33.160  24.617  25.424  1.00  0.00     0.149 C 
ATOM     17  H   UNL A   1      29.996  22.709  28.000  1.00  0.00     0.193 HD
ATOM     18  O   UNL A   1      32.586  22.529  27.434  1.00  0.00    -0.422 OA
ATOM     19  C   UNL A   1      33.521  26.154  25.473  1.00  0.00     0.248 C 
ATOM     20  C   UNL A   1      33.042  24.376  23.938  1.00  0.00     0.002 A 
ATOM     21  C   UNL A   1      34.195  23.694  26.073  1.00  0.00     0.114 C 
ATOM     22  C   UNL A   1      33.899  22.749  27.001  1.00  0.00     0.208 C 
ATOM     23  O   UNL A   1      33.681  26.829  26.471  1.00  0.00    -0.273 OA
ATOM     24  C   UNL A   1      33.315  25.562  23.239  1.00  0.00     0.050 A 
ATOM     25  C   UNL A   1      32.745  23.195  23.267  1.00  0.00     0.008 A 
ATOM     26  C   UNL A   1      33.290  25.580  21.854  1.00  0.00     0.027 A 
ATOM     27  C   UNL A   1      32.722  23.211  21.874  1.00  0.00     0.001 A 
ATOM     28  C   UNL A   1      32.994  24.392  21.173  1.00  0.00     0.002 A 
BRANCH  21  29
ATOM     29  C   UNL A   1      35.652  23.942  25.713  1.00  0.00     0.102 C 
ATOM     30  N   UNL A   1      36.859  24.148  25.416  1.00  0.00    -0.193 NA
ENDBRANCH  21  29
BRANCH  22  31
ATOM     31  N   UNL A   1      34.803  21.935  27.619  1.00  0.00    -0.369 N 
ATOM     32  H   UNL A   1      35.076  22.118  28.546  1.00  0.00     0.159 HD
ATOM     33  H   UNL A   1      35.182  21.165  27.136  1.00  0.00     0.159 HD
ENDBRANCH  22  31
ENDBRANCH   7   9
ENDBRANCH   5   7
ENDBRANCH   4   5
ENDBRANCH   3   4
ENDBRANCH   2   3
ENDBRANCH   1   2
BRANCH   1  34
ATOM     34  C   UNL A   1      33.676  32.024  28.189  1.00  0.00     0.202 C 
BRANCH  34  35
ATOM     35  C   UNL A   1      35.116  31.723  27.767  1.00  0.00     0.261 C 
BRANCH  35  36
ATOM     36  O   UNL A   1      35.511  30.423  28.214  1.00  0.00    -0.460 OA
BRANCH  36  37
ATOM     37  C   UNL A   1      36.316  30.385  29.307  1.00  0.00     0.338 C 
ATOM     38  O   UNL A   1      36.081  30.795  30.437  1.00  0.00    -0.246 OA
BRANCH  37  39
ATOM     39  C   UNL A   1      37.376  29.418  28.989  1.00  0.00     0.060 A 
ATOM     40  C   UNL A   1      37.887  28.537  29.951  1.00  0.00     0.016 A 
ATOM     41  C   UNL A   1      38.064  29.687  27.802  1.00  0.00     0.016 A 
ATOM     42  C   UNL A   1      39.174  28.051  29.785  1.00  0.00     0.010 A 
ATOM     43  C   UNL A   1      39.355  29.222  27.653  1.00  0.00     0.010 A 
ATOM     44  C   UNL A   1      39.928  28.468  28.680  1.00  0.00    -0.014 A 
BRANCH  44  45
ATOM     45  C   UNL A   1      41.320  28.046  28.584  1.00  0.00     0.031 A 
ATOM     46  C   UNL A   1      41.516  26.718  27.959  1.00  0.00     0.074 A 
ATOM     47  C   UNL A   1      42.368  28.845  28.877  1.00  0.00     0.049 A 
ATOM     48  N   UNL A   1      42.116  25.685  28.448  1.00  0.00    -0.248 NA
ATOM     49  C   UNL A   1      40.893  26.495  26.645  1.00  0.00     0.031 C 
ATOM     50  C   UNL A   1      42.323  30.271  29.210  1.00  0.00     0.029 A 
ATOM     51  N   UNL A   1      43.709  28.576  28.827  1.00  0.00    -0.354 N 
ATOM     52  C   UNL A   1      42.108  24.736  27.432  1.00  0.00     0.074 A 
ATOM     53  C   UNL A   1      41.230  25.230  26.404  1.00  0.00     0.031 C 
ATOM     54  C   UNL A   1      43.572  30.783  29.138  1.00  0.00     0.029 A 
ATOM     55  C   UNL A   1      44.512  29.707  28.869  1.00  0.00     0.049 A 
ATOM     56  H   UNL A   1      44.071  27.662  28.768  1.00  0.00     0.167 HD
ATOM     57  C   UNL A   1      43.021  23.731  27.398  1.00  0.00     0.037 A 
ATOM     58  C   UNL A   1      45.847  29.780  28.653  1.00  0.00     0.037 A 
ATOM     59  C   UNL A   1      43.650  23.532  28.674  1.00  0.00     0.049 A 
ATOM     60  C   UNL A   1      46.427  28.432  28.843  1.00  0.00     0.074 A 
ATOM     61  C   UNL A   1      43.270  23.056  29.909  1.00  0.00     0.029 A 
ATOM     62  N   UNL A   1      44.850  24.167  28.839  1.00  0.00    -0.354 N 
ATOM     63  N   UNL A   1      46.536  27.838  29.997  1.00  0.00    -0.248 NA
ATOM     64  C   UNL A   1      46.670  27.584  27.682  1.00  0.00     0.031 C 
ATOM     65  C   UNL A   1      44.150  23.665  30.853  1.00  0.00     0.029 A 
ATOM     66  C   UNL A   1      45.029  24.493  30.157  1.00  0.00     0.049 A 
ATOM     67  H   UNL A   1      45.491  24.360  28.117  1.00  0.00     0.167 HD
ATOM     68  C   UNL A   1      46.428  26.493  29.702  1.00  0.00     0.074 A 
ATOM     69  C   UNL A   1      46.713  26.390  28.280  1.00  0.00     0.031 C 
ATOM     70  C   UNL A   1      45.804  25.643  30.566  1.00  0.00     0.037 A 
BRANCH  57  71
ATOM     71  C   UNL A   1      43.665  23.238  26.123  1.00  0.00     0.057 A 
ATOM     72  C   UNL A   1      44.564  24.004  25.351  1.00  0.00     0.134 A 
ATOM     73  C   UNL A   1      43.652  21.861  25.839  1.00  0.00     0.134 A 
ATOM     74  F   UNL A   1      44.764  25.310  25.566  1.00  0.00    -0.206 F 
ATOM     75  C   UNL A   1      45.396  23.441  24.379  1.00  0.00     0.040 A 
ATOM     76  C   UNL A   1      44.520  21.281  24.906  1.00  0.00     0.040 A 
ATOM     77  F   UNL A   1      42.856  21.026  26.523  1.00  0.00    -0.206 F 
ATOM     78  C   UNL A   1      45.401  22.072  24.177  1.00  0.00     0.006 A 
ENDBRANCH  57  71
BRANCH  58  79
ATOM     79  C   UNL A   1      46.658  30.916  28.161  1.00  0.00     0.057 A 
ATOM     80  C   UNL A   1      47.652  31.507  28.959  1.00  0.00     0.134 A 
ATOM     81  C   UNL A   1      46.315  31.608  26.991  1.00  0.00     0.134 A 
ATOM     82  F   UNL A   1      48.003  30.974  30.139  1.00  0.00    -0.206 F 
ATOM     83  C   UNL A   1      48.266  32.716  28.618  1.00  0.00     0.040 A 
ATOM     84  C   UNL A   1      46.912  32.826  26.645  1.00  0.00     0.040 A 
ATOM     85  F   UNL A   1      45.350  31.148  26.183  1.00  0.00    -0.206 F 
ATOM     86  C   UNL A   1      47.886  33.389  27.464  1.00  0.00     0.006 A 
ENDBRANCH  58  79
BRANCH  70  87
ATOM     87  C   UNL A   1      45.726  26.076  31.997  1.00  0.00     0.057 A 
ATOM     88  C   UNL A   1      46.797  25.779  32.846  1.00  0.00     0.134 A 
ATOM     89  C   UNL A   1      44.618  26.721  32.565  1.00  0.00     0.134 A 
ATOM     90  F   UNL A   1      47.867  25.115  32.380  1.00  0.00    -0.206 F 
ATOM     91  C   UNL A   1      46.782  26.129  34.197  1.00  0.00     0.040 A 
ATOM     92  C   UNL A   1      44.607  27.109  33.907  1.00  0.00     0.040 A 
ATOM     93  F   UNL A   1      43.514  26.965  31.845  1.00  0.00    -0.206 F 
ATOM     94  C   UNL A   1      45.692  26.812  34.728  1.00  0.00     0.006 A 
ENDBRANCH  70  87
ENDBRANCH  44  45
ENDBRANCH  37  39
ENDBRANCH  36  37
ENDBRANCH  35  36
ENDBRANCH  34  35
ENDBRANCH   1  34
TORSDOF 17
ENDMDL
MODEL 2
REMARK VINA RESULT:     -11.8      3.097      7.533
REMARK SMILES Cc1n[nH]c2c1[C@@]1(C(=O)N([C@@H](C)C(=O)OCCOCCOC(=O)c3ccc(-c4c5nc(c(-c6c(F)cccc6F)c6ccc([nH]6)c(-c6c(F)cccc6F)c6nc(c(-c7c(F)cccc7F)c7ccc4[nH]7)C=C6)C=C5)cc3)c3ccccc31)C(C#N)=C(N)O2
REMARK SMILES IDX 18 1 17 2 16 3 15 4 13 5 14 6 11 7 12 8 10 9 1 10 2 11 3 12
REMARK SMILES IDX 6 13 4 14 5 15 7 16 89 18 8 19 83 20 84 21 87 22 9 23 78 24
REMARK SMILES IDX 82 25 79 26 81 27 80 28 85 29 86 30 88 31 19 34 20 35 21 36
REMARK SMILES IDX 22 37 23 38 24 39 25 40 77 41 26 42 76 43 27 44 28 45 29 46
REMARK SMILES IDX 70 47 30 48 75 49 69 50 71 51 31 52 74 53 68 54 67 55 32 57
REMARK SMILES IDX 58 58 41 59 57 60 42 61 45 62 56 63 72 64 43 65 44 66 55 68
REMARK SMILES IDX 73 69 46 70 33 71 34 72 39 73 35 74 36 75 38 76 40 77 37 78
REMARK SMILES IDX 59 79 60 80 65 81 61 82 62 83 64 84 66 85 63 86 47 87 48 88
REMARK SMILES IDX 53 89 49 90 50 91 52 92 54 93 51 94
REMARK H PARENT 4 17 88 32 88 33 71 56 45 67
REMARK Flexibility Score: inf
ROOT
ATOM      1  O   UNL A   1      41.829  21.144  27.754  1.00  0.00    -0.374 OA
ENDROOT
BRANCH   1   2
ATOM      2  C   UNL A   1      40.697  22.009  27.731  1.00  0.00     0.202 C 
BRANCH   2   3
ATOM      3  C   UNL A   1      39.999  22.244  26.384  1.00  0.00     0.261 C 
BRANCH   3   4
ATOM      4  O   UNL A   1      38.646  21.742  26.304  1.00  0.00    -0.462 OA
BRANCH   4   5
ATOM      5  C   UNL A   1      37.732  22.680  25.959  1.00  0.00     0.329 C 
ATOM      6  O   UNL A   1      37.706  23.818  26.431  1.00  0.00    -0.250 OA
BRANCH   5   7
ATOM      7  C   UNL A   1      36.700  22.267  24.898  1.00  0.00     0.197 C 
ATOM      8  C   UNL A   1      37.087  22.995  23.605  1.00  0.00     0.044 C 
BRANCH   7   9
ATOM      9  N   UNL A   1      35.233  22.263  25.080  1.00  0.00    -0.297 N 
ATOM     10  C   UNL A   1      34.146  23.439  21.727  1.00  0.00     0.069 C 
ATOM     11  C   UNL A   1      32.871  23.847  22.357  1.00  0.00     0.068 A 
ATOM     12  N   UNL A   1      31.979  24.533  21.622  1.00  0.00    -0.177 NA
ATOM     13  C   UNL A   1      32.410  23.645  23.685  1.00  0.00     0.063 A 
ATOM     14  N   UNL A   1      30.973  24.794  22.474  1.00  0.00    -0.246 N 
ATOM     15  C   UNL A   1      31.191  24.280  23.709  1.00  0.00     0.222 A 
ATOM     16  C   UNL A   1      32.934  22.999  24.936  1.00  0.00     0.149 C 
ATOM     17  H   UNL A   1      30.167  25.302  22.228  1.00  0.00     0.193 HD
ATOM     18  O   UNL A   1      30.353  24.423  24.728  1.00  0.00    -0.422 OA
ATOM     19  C   UNL A   1      34.428  23.420  25.226  1.00  0.00     0.248 C 
ATOM     20  C   UNL A   1      33.081  21.526  24.638  1.00  0.00     0.002 A 
ATOM     21  C   UNL A   1      31.960  23.255  26.089  1.00  0.00     0.114 C 
ATOM     22  C   UNL A   1      30.784  23.921  25.962  1.00  0.00     0.208 C 
ATOM     23  O   UNL A   1      34.829  24.539  25.480  1.00  0.00    -0.273 OA
ATOM     24  C   UNL A   1      34.427  21.147  24.761  1.00  0.00     0.050 A 
ATOM     25  C   UNL A   1      32.097  20.599  24.315  1.00  0.00     0.008 A 
ATOM     26  C   UNL A   1      34.804  19.830  24.556  1.00  0.00     0.027 A 
ATOM     27  C   UNL A   1      32.474  19.274  24.111  1.00  0.00     0.001 A 
ATOM     28  C   UNL A   1      33.816  18.891  24.232  1.00  0.00     0.002 A 
BRANCH  21  29
ATOM     29  C   UNL A   1      32.411  22.816  27.474  1.00  0.00     0.102 C 
ATOM     30  N   UNL A   1      32.784  22.452  28.621  1.00  0.00    -0.193 NA
ENDBRANCH  21  29
BRANCH  22  31
ATOM     31  N   UNL A   1      29.914  24.192  26.977  1.00  0.00    -0.369 N 
ATOM     32  H   UNL A   1      29.089  24.698  26.796  1.00  0.00     0.159 HD
ATOM     33  H   UNL A   1      30.110  23.880  27.890  1.00  0.00     0.159 HD
ENDBRANCH  22  31
ENDBRANCH   7   9
ENDBRANCH   5   7
ENDBRANCH   4   5
ENDBRANCH   3   4
ENDBRANCH   2   3
ENDBRANCH   1   2
BRANCH   1  34
ATOM     34  C   UNL A   1      41.694  19.845  27.177  1.00  0.00     0.202 C 
BRANCH  34  35
ATOM     35  C   UNL A   1      42.693  19.439  26.091  1.00  0.00     0.261 C 
BRANCH  35  36
ATOM     36  O   UNL A   1      42.998  20.550  25.245  1.00  0.00    -0.460 OA
BRANCH  36  37
ATOM     37  C   UNL A   1      44.314  20.770  24.995  1.00  0.00     0.338 C 
ATOM     38  O   UNL A   1      45.099  20.058  24.379  1.00  0.00    -0.246 OA
BRANCH  37  39
ATOM     39  C   UNL A   1      44.541  22.196  25.265  1.00  0.00     0.060 A 
ATOM     40  C   UNL A   1      45.458  22.630  26.230  1.00  0.00     0.016 A 
ATOM     41  C   UNL A   1      43.545  23.042  24.767  1.00  0.00     0.016 A 
ATOM     42  C   UNL A   1      45.268  23.874  26.812  1.00  0.00     0.010 A 
ATOM     43  C   UNL A   1      43.342  24.268  25.367  1.00  0.00     0.010 A 
ATOM     44  C   UNL A   1      44.158  24.644  26.436  1.00  0.00    -0.014 A 
BRANCH  44  45
ATOM     45  C   UNL A   1      43.903  25.893  27.144  1.00  0.00     0.031 A 
ATOM     46  C   UNL A   1      44.900  26.957  26.889  1.00  0.00     0.074 A 
ATOM     47  C   UNL A   1      42.775  26.141  27.842  1.00  0.00     0.049 A 
ATOM     48  N   UNL A   1      45.621  27.598  27.748  1.00  0.00    -0.248 NA
ATOM     49  C   UNL A   1      45.182  27.292  25.486  1.00  0.00     0.031 C 
ATOM     50  C   UNL A   1      41.580  25.295  27.918  1.00  0.00     0.029 A 
ATOM     51  N   UNL A   1      42.412  27.260  28.542  1.00  0.00    -0.354 N 
ATOM     52  C   UNL A   1      46.317  28.550  27.009  1.00  0.00     0.074 A 
ATOM     53  C   UNL A   1      46.119  28.230  25.621  1.00  0.00     0.031 C 
ATOM     54  C   UNL A   1      40.564  26.009  28.453  1.00  0.00     0.029 A 
ATOM     55  C   UNL A   1      41.062  27.313  28.858  1.00  0.00     0.049 A 
ATOM     56  H   UNL A   1      43.052  27.963  28.799  1.00  0.00     0.167 HD
ATOM     57  C   UNL A   1      46.798  29.680  27.590  1.00  0.00     0.037 A 
ATOM     58  C   UNL A   1      40.376  28.361  29.373  1.00  0.00     0.037 A 
ATOM     59  C   UNL A   1      46.881  29.557  29.019  1.00  0.00     0.049 A 
ATOM     60  C   UNL A   1      41.339  29.287  30.009  1.00  0.00     0.074 A 
ATOM     61  C   UNL A   1      47.649  28.849  29.916  1.00  0.00     0.029 A 
ATOM     62  N   UNL A   1      45.812  30.057  29.711  1.00  0.00    -0.354 N 
ATOM     63  N   UNL A   1      41.984  29.028  31.111  1.00  0.00    -0.248 NA
ATOM     64  C   UNL A   1      41.814  30.450  29.269  1.00  0.00     0.031 C 
ATOM     65  C   UNL A   1      46.858  28.720  31.096  1.00  0.00     0.029 A 
ATOM     66  C   UNL A   1      45.635  29.351  30.871  1.00  0.00     0.049 A 
ATOM     67  H   UNL A   1      45.252  30.812  29.419  1.00  0.00     0.167 HD
ATOM     68  C   UNL A   1      43.180  29.707  30.975  1.00  0.00     0.074 A 
ATOM     69  C   UNL A   1      42.939  30.704  29.944  1.00  0.00     0.031 C 
ATOM     70  C   UNL A   1      44.333  29.183  31.479  1.00  0.00     0.037 A 
BRANCH  57  71
ATOM     71  C   UNL A   1      46.763  31.034  26.922  1.00  0.00     0.057 A 
ATOM     72  C   UNL A   1      45.574  31.721  26.599  1.00  0.00     0.134 A 
ATOM     73  C   UNL A   1      47.932  31.816  26.905  1.00  0.00     0.134 A 
ATOM     74  F   UNL A   1      44.370  31.141  26.665  1.00  0.00    -0.206 F 
ATOM     75  C   UNL A   1      45.546  33.084  26.294  1.00  0.00     0.040 A 
ATOM     76  C   UNL A   1      47.907  33.194  26.653  1.00  0.00     0.040 A 
ATOM     77  F   UNL A   1      49.122  31.282  27.217  1.00  0.00    -0.206 F 
ATOM     78  C   UNL A   1      46.710  33.833  26.353  1.00  0.00     0.006 A 
ENDBRANCH  57  71
BRANCH  58  79
ATOM     79  C   UNL A   1      38.940  28.698  29.245  1.00  0.00     0.057 A 
ATOM     80  C   UNL A   1      38.423  29.272  28.071  1.00  0.00     0.134 A 
ATOM     81  C   UNL A   1      38.085  28.693  30.356  1.00  0.00     0.134 A 
ATOM     82  F   UNL A   1      39.179  29.401  26.972  1.00  0.00    -0.206 F 
ATOM     83  C   UNL A   1      37.135  29.812  28.005  1.00  0.00     0.040 A 
ATOM     84  C   UNL A   1      36.799  29.244  30.308  1.00  0.00     0.040 A 
ATOM     85  F   UNL A   1      38.499  28.206  31.535  1.00  0.00    -0.206 F 
ATOM     86  C   UNL A   1      36.322  29.813  29.131  1.00  0.00     0.006 A 
ENDBRANCH  58  79
BRANCH  70  87
ATOM     87  C   UNL A   1      44.192  28.184  32.585  1.00  0.00     0.057 A 
ATOM     88  C   UNL A   1      44.131  26.825  32.256  1.00  0.00     0.134 A 
ATOM     89  C   UNL A   1      44.064  28.522  33.939  1.00  0.00     0.134 A 
ATOM     90  F   UNL A   1      44.194  26.435  30.973  1.00  0.00    -0.206 F 
ATOM     91  C   UNL A   1      43.975  25.840  33.232  1.00  0.00     0.040 A 
ATOM     92  C   UNL A   1      43.944  27.543  34.929  1.00  0.00     0.040 A 
ATOM     93  F   UNL A   1      44.023  29.802  34.333  1.00  0.00    -0.206 F 
ATOM     94  C   UNL A   1      43.897  26.196  34.575  1.00  0.00     0.006 A 
ENDBRANCH  70  87
ENDBRANCH  44  45
ENDBRANCH  37  39
ENDBRANCH  36  37
ENDBRANCH  35  36
ENDBRANCH  34  35
ENDBRANCH   1  34
TORSDOF 17
ENDMDL
MODEL 3
REMARK VINA RESULT:     -11.7      3.990      8.422
REMARK SMILES Cc1n[nH]c2c1[C@@]1(C(=O)N([C@@H](C)C(=O)OCCOCCOC(=O)c3ccc(-c4c5nc(c(-c6c(F)cccc6F)c6ccc([nH]6)c(-c6c(F)cccc6F)c6nc(c(-c7c(F)cccc7F)c7ccc4[nH]7)C=C6)C=C5)cc3)c3ccccc31)C(C#N)=C(N)O2
REMARK SMILES IDX 18 1 17 2 16 3 15 4 13 5 14 6 11 7 12 8 10 9 1 10 2 11 3 12
REMARK SMILES IDX 6 13 4 14 5 15 7 16 89 18 8 19 83 20 84 21 87 22 9 23 78 24
REMARK SMILES IDX 82 25 79 26 81 27 80 28 85 29 86 30 88 31 19 34 20 35 21 36
REMARK SMILES IDX 22 37 23 38 24 39 25 40 77 41 26 42 76 43 27 44 28 45 29 46
REMARK SMILES IDX 70 47 30 48 75 49 69 50 71 51 31 52 74 53 68 54 67 55 32 57
REMARK SMILES IDX 58 58 41 59 57 60 42 61 45 62 56 63 72 64 43 65 44 66 55 68
REMARK SMILES IDX 73 69 46 70 33 71 34 72 39 73 35 74 36 75 38 76 40 77 37 78
REMARK SMILES IDX 59 79 60 80 65 81 61 82 62 83 64 84 66 85 63 86 47 87 48 88
REMARK SMILES IDX 53 89 49 90 50 91 52 92 54 93 51 94
REMARK H PARENT 4 17 88 32 88 33 71 56 45 67
REMARK Flexibility Score: inf
ROOT
ATOM      1  O   UNL A   1      35.471  21.950  25.000  1.00  0.00    -0.374 OA
ENDROOT
BRANCH   1   2
ATOM      2  C   UNL A   1      34.423  21.175  25.578  1.00  0.00     0.202 C 
BRANCH   2   3
ATOM      3  C   UNL A   1      33.342  21.913  26.381  1.00  0.00     0.261 C 
BRANCH   3   4
ATOM      4  O   UNL A   1      32.020  21.875  25.800  1.00  0.00    -0.462 OA
BRANCH   4   5
ATOM      5  C   UNL A   1      31.204  22.870  26.224  1.00  0.00     0.329 C 
ATOM      6  O   UNL A   1      30.893  23.044  27.404  1.00  0.00    -0.250 OA
BRANCH   5   7
ATOM      7  C   UNL A   1      30.679  23.828  25.144  1.00  0.00     0.197 C 
ATOM      8  C   UNL A   1      31.013  23.189  23.791  1.00  0.00     0.044 C 
BRANCH   7   9
ATOM      9  N   UNL A   1      30.905  25.289  25.106  1.00  0.00    -0.297 N 
ATOM     10  C   UNL A   1      32.576  25.614  21.803  1.00  0.00     0.069 C 
ATOM     11  C   UNL A   1      33.128  26.899  22.284  1.00  0.00     0.068 A 
ATOM     12  N   UNL A   1      34.026  27.542  21.518  1.00  0.00    -0.177 NA
ATOM     13  C   UNL A   1      32.877  27.599  23.494  1.00  0.00     0.063 A 
ATOM     14  N   UNL A   1      34.367  28.624  22.237  1.00  0.00    -0.246 N 
ATOM     15  C   UNL A   1      33.703  28.695  23.417  1.00  0.00     0.222 A 
ATOM     16  C   UNL A   1      32.030  27.394  24.717  1.00  0.00     0.149 C 
ATOM     17  H   UNL A   1      35.026  29.292  21.941  1.00  0.00     0.193 HD
ATOM     18  O   UNL A   1      33.884  29.659  24.311  1.00  0.00    -0.422 OA
ATOM     19  C   UNL A   1      32.161  25.922  25.275  1.00  0.00     0.248 C 
ATOM     20  C   UNL A   1      30.590  27.424  24.263  1.00  0.00     0.002 A 
ATOM     21  C   UNL A   1      32.331  28.495  25.737  1.00  0.00     0.114 C 
ATOM     22  C   UNL A   1      33.196  29.519  25.523  1.00  0.00     0.208 C 
ATOM     23  O   UNL A   1      33.165  25.404  25.723  1.00  0.00    -0.273 OA
ATOM     24  C   UNL A   1      29.978  26.190  24.534  1.00  0.00     0.050 A 
ATOM     25  C   UNL A   1      29.880  28.470  23.684  1.00  0.00     0.008 A 
ATOM     26  C   UNL A   1      28.644  25.988  24.224  1.00  0.00     0.027 A 
ATOM     27  C   UNL A   1      28.537  28.269  23.374  1.00  0.00     0.001 A 
ATOM     28  C   UNL A   1      27.922  27.039  23.643  1.00  0.00     0.002 A 
BRANCH  21  29
ATOM     29  C   UNL A   1      31.686  28.351  27.107  1.00  0.00     0.102 C 
ATOM     30  N   UNL A   1      31.152  28.233  28.242  1.00  0.00    -0.193 NA
ENDBRANCH  21  29
BRANCH  22  31
ATOM     31  N   UNL A   1      33.507  30.495  26.423  1.00  0.00    -0.369 N 
ATOM     32  H   UNL A   1      33.473  30.303  27.388  1.00  0.00     0.159 HD
ATOM     33  H   UNL A   1      33.766  31.391  26.108  1.00  0.00     0.159 HD
ENDBRANCH  22  31
ENDBRANCH   7   9
ENDBRANCH   5   7
ENDBRANCH   4   5
ENDBRANCH   3   4
ENDBRANCH   2   3
ENDBRANCH   1   2
BRANCH   1  34
ATOM     34  C   UNL A   1      35.873  23.143  25.673  1.00  0.00     0.202 C 
BRANCH  34  35
ATOM     35  C   UNL A   1      37.267  23.699  25.370  1.00  0.00     0.261 C 
BRANCH  35  36
ATOM     36  O   UNL A   1      37.772  24.432  26.489  1.00  0.00    -0.460 OA
BRANCH  36  37
ATOM     37  C   UNL A   1      38.925  23.970  27.038  1.00  0.00     0.338 C 
ATOM     38  O   UNL A   1      39.527  22.935  26.778  1.00  0.00    -0.246 OA
BRANCH  37  39
ATOM     39  C   UNL A   1      39.527  25.118  27.728  1.00  0.00     0.060 A 
ATOM     40  C   UNL A   1      39.312  25.358  29.091  1.00  0.00     0.016 A 
ATOM     41  C   UNL A   1      40.010  26.115  26.876  1.00  0.00     0.016 A 
ATOM     42  C   UNL A   1      39.431  26.657  29.561  1.00  0.00     0.010 A 
ATOM     43  C   UNL A   1      40.102  27.411  27.341  1.00  0.00     0.010 A 
ATOM     44  C   UNL A   1      39.741  27.686  28.661  1.00  0.00    -0.014 A 
BRANCH  44  45
ATOM     45  C   UNL A   1      39.742  29.062  29.146  1.00  0.00     0.031 A 
ATOM     46  C   UNL A   1      41.048  29.749  29.036  1.00  0.00     0.074 A 
ATOM     47  C   UNL A   1      38.627  29.729  29.511  1.00  0.00     0.049 A 
ATOM     48  N   UNL A   1      41.739  30.308  29.973  1.00  0.00    -0.248 NA
ATOM     49  C   UNL A   1      41.703  29.742  27.719  1.00  0.00     0.031 C 
ATOM     50  C   UNL A   1      37.241  29.270  29.377  1.00  0.00     0.029 A 
ATOM     51  N   UNL A   1      38.491  31.009  29.975  1.00  0.00    -0.354 N 
ATOM     52  C   UNL A   1      42.831  30.886  29.334  1.00  0.00     0.074 A 
ATOM     53  C   UNL A   1      42.834  30.394  27.982  1.00  0.00     0.031 C 
ATOM     54  C   UNL A   1      36.407  30.318  29.563  1.00  0.00     0.029 A 
ATOM     55  C   UNL A   1      37.188  31.485  29.938  1.00  0.00     0.049 A 
ATOM     56  H   UNL A   1      39.249  31.543  30.307  1.00  0.00     0.167 HD
ATOM     57  C   UNL A   1      43.506  31.924  29.892  1.00  0.00     0.037 A 
ATOM     58  C   UNL A   1      36.768  32.755  30.151  1.00  0.00     0.037 A 
ATOM     59  C   UNL A   1      43.251  32.037  31.301  1.00  0.00     0.049 A 
ATOM     60  C   UNL A   1      37.817  33.477  30.904  1.00  0.00     0.074 A 
ATOM     61  C   UNL A   1      43.561  31.314  32.431  1.00  0.00     0.029 A 
ATOM     62  N   UNL A   1      42.269  32.925  31.648  1.00  0.00    -0.354 N 
ATOM     63  N   UNL A   1      38.109  33.249  32.153  1.00  0.00    -0.248 NA
ATOM     64  C   UNL A   1      38.769  34.317  30.186  1.00  0.00     0.031 C 
ATOM     65  C   UNL A   1      42.544  31.617  33.384  1.00  0.00     0.029 A 
ATOM     66  C   UNL A   1      41.649  32.510  32.796  1.00  0.00     0.049 A 
ATOM     67  H   UNL A   1      42.042  33.741  31.147  1.00  0.00     0.167 HD
ATOM     68  C   UNL A   1      39.457  33.539  32.247  1.00  0.00     0.074 A 
ATOM     69  C   UNL A   1      39.752  34.366  31.089  1.00  0.00     0.031 C 
ATOM     70  C   UNL A   1      40.263  32.815  33.075  1.00  0.00     0.037 A 
BRANCH  57  71
ATOM     71  C   UNL A   1      44.029  33.097  29.096  1.00  0.00     0.057 A 
ATOM     72  C   UNL A   1      43.237  34.199  28.707  1.00  0.00     0.134 A 
ATOM     73  C   UNL A   1      45.418  33.294  29.003  1.00  0.00     0.134 A 
ATOM     74  F   UNL A   1      41.904  34.204  28.830  1.00  0.00    -0.206 F 
ATOM     75  C   UNL A   1      43.785  35.408  28.272  1.00  0.00     0.040 A 
ATOM     76  C   UNL A   1      45.976  34.519  28.619  1.00  0.00     0.040 A 
ATOM     77  F   UNL A   1      46.275  32.328  29.365  1.00  0.00    -0.206 F 
ATOM     78  C   UNL A   1      45.159  35.584  28.258  1.00  0.00     0.006 A 
ENDBRANCH  57  71
BRANCH  58  79
ATOM     79  C   UNL A   1      35.565  33.445  29.635  1.00  0.00     0.057 A 
ATOM     80  C   UNL A   1      35.423  33.751  28.271  1.00  0.00     0.134 A 
ATOM     81  C   UNL A   1      34.634  34.040  30.499  1.00  0.00     0.134 A 
ATOM     82  F   UNL A   1      36.303  33.302  27.364  1.00  0.00    -0.206 F 
ATOM     83  C   UNL A   1      34.420  34.601  27.793  1.00  0.00     0.040 A 
ATOM     84  C   UNL A   1      33.634  34.904  30.036  1.00  0.00     0.040 A 
ATOM     85  F   UNL A   1      34.709  33.845  31.823  1.00  0.00    -0.206 F 
ATOM     86  C   UNL A   1      33.529  35.193  28.679  1.00  0.00     0.006 A 
ENDBRANCH  58  79
BRANCH  70  87
ATOM     87  C   UNL A   1      39.596  32.103  34.211  1.00  0.00     0.057 A 
ATOM     88  C   UNL A   1      39.531  32.741  35.455  1.00  0.00     0.134 A 
ATOM     89  C   UNL A   1      39.073  30.806  34.128  1.00  0.00     0.134 A 
ATOM     90  F   UNL A   1      40.060  33.964  35.618  1.00  0.00    -0.206 F 
ATOM     91  C   UNL A   1      38.947  32.128  36.564  1.00  0.00     0.040 A 
ATOM     92  C   UNL A   1      38.453  30.196  35.222  1.00  0.00     0.040 A 
ATOM     93  F   UNL A   1      39.173  30.089  33.000  1.00  0.00    -0.206 F 
ATOM     94  C   UNL A   1      38.391  30.858  36.446  1.00  0.00     0.006 A 
ENDBRANCH  70  87
ENDBRANCH  44  45
ENDBRANCH  37  39
ENDBRANCH  36  37
ENDBRANCH  35  36
ENDBRANCH  34  35
ENDBRANCH   1  34
TORSDOF 17
ENDMDL
