MODEL 1
REMARK VINA RESULT:     -11.5      0.000      0.000
REMARK SMILES Cc1ccc2c(c1)OCCN2c1sc(C(=O)OCCOCCOC(=O)c2ccc(-c3c4nc(c(-c5c(F)cccc5F)c5ccc([nH]5)c(-c5c(F)cccc5F)c5nc(c(-c6c(F)cccc6F)c6ccc3[nH]6)C=C5)C=C4)cc2)cc1C
REMARK SMILES IDX 21 1 20 2 19 3 18 4 17 5 15 6 16 7 14 8 12 9 13 10 81 11
REMARK SMILES IDX 80 12 82 13 11 14 1 15 2 16 3 17 7 18 4 19 6 20 5 21 8 22
REMARK SMILES IDX 9 23 10 24 22 25 23 26 24 27 25 28 26 29 27 30 79 31 28 32
REMARK SMILES IDX 78 33 29 34 30 35 31 36 72 37 32 38 77 39 71 40 73 41 33 42
REMARK SMILES IDX 76 43 70 44 69 45 34 47 60 48 43 49 59 50 44 51 47 52 58 53
REMARK SMILES IDX 74 54 45 55 46 56 57 58 75 59 48 60 35 61 36 62 41 63 37 64
REMARK SMILES IDX 38 65 40 66 42 67 39 68 61 69 62 70 67 71 63 72 64 73 66 74
REMARK SMILES IDX 68 75 65 76 49 77 50 78 55 79 51 80 52 81 54 82 56 83 53 84
REMARK H PARENT 73 46 47 57
REMARK Flexibility Score: inf
ROOT
ATOM      1  C   UNL A   1      42.457  20.938  26.144  1.00  0.00     0.202 C 
ENDROOT
BRANCH   1   2
ATOM      2  O   UNL A   1      41.808  21.230  27.382  1.00  0.00    -0.374 OA
BRANCH   2   3
ATOM      3  C   UNL A   1      40.399  21.455  27.357  1.00  0.00     0.202 C 
BRANCH   3   4
ATOM      4  C   UNL A   1      39.803  21.954  26.037  1.00  0.00     0.261 C 
BRANCH   4   5
ATOM      5  O   UNL A   1      38.387  22.159  26.141  1.00  0.00    -0.459 OA
BRANCH   5   6
ATOM      6  C   UNL A   1      37.636  21.315  25.375  1.00  0.00     0.348 C 
ATOM      7  O   UNL A   1      38.030  20.239  24.938  1.00  0.00    -0.245 OA
BRANCH   6   8
ATOM      8  C   UNL A   1      36.272  21.780  25.242  1.00  0.00     0.114 A 
ATOM      9  C   UNL A   1      34.067  22.857  25.613  1.00  0.00     0.099 A 
ATOM     10  S   UNL A   1      35.142  21.823  26.509  1.00  0.00    -0.110 S 
ATOM     11  C   UNL A   1      34.392  22.788  24.258  1.00  0.00    -0.015 A 
ATOM     12  C   UNL A   1      35.688  22.205  24.072  1.00  0.00     0.033 A 
ATOM     13  C   UNL A   1      33.643  23.340  23.090  1.00  0.00     0.047 C 
BRANCH   9  14
ATOM     14  N   UNL A   1      33.059  23.565  26.218  1.00  0.00    -0.327 N 
ATOM     15  C   UNL A   1      32.222  29.270  25.775  1.00  0.00     0.044 C 
ATOM     16  C   UNL A   1      32.432  27.795  25.927  1.00  0.00    -0.047 A 
ATOM     17  C   UNL A   1      33.698  27.251  25.724  1.00  0.00     0.006 A 
ATOM     18  C   UNL A   1      31.374  26.932  26.214  1.00  0.00     0.052 A 
ATOM     19  C   UNL A   1      33.904  25.870  25.813  1.00  0.00     0.030 A 
ATOM     20  C   UNL A   1      31.587  25.549  26.312  1.00  0.00     0.143 A 
ATOM     21  C   UNL A   1      32.867  24.978  26.126  1.00  0.00     0.085 A 
ATOM     22  O   UNL A   1      30.452  24.812  26.583  1.00  0.00    -0.490 OA
ATOM     23  C   UNL A   1      30.622  23.430  26.259  1.00  0.00     0.251 C 
ATOM     24  C   UNL A   1      31.921  22.887  26.845  1.00  0.00     0.165 C 
ENDBRANCH   9  14
ENDBRANCH   6   8
ENDBRANCH   5   6
ENDBRANCH   4   5
ENDBRANCH   3   4
ENDBRANCH   2   3
ENDBRANCH   1   2
BRANCH   1  25
ATOM     25  C   UNL A   1      43.494  21.946  25.639  1.00  0.00     0.261 C 
BRANCH  25  26
ATOM     26  O   UNL A   1      42.886  23.178  25.218  1.00  0.00    -0.460 OA
BRANCH  26  27
ATOM     27  C   UNL A   1      43.670  24.276  25.338  1.00  0.00     0.338 C 
ATOM     28  O   UNL A   1      44.646  24.561  24.666  1.00  0.00    -0.246 OA
BRANCH  27  29
ATOM     29  C   UNL A   1      43.061  25.214  26.305  1.00  0.00     0.060 A 
ATOM     30  C   UNL A   1      42.040  24.817  27.172  1.00  0.00     0.016 A 
ATOM     31  C   UNL A   1      43.560  26.522  26.349  1.00  0.00     0.016 A 
ATOM     32  C   UNL A   1      41.548  25.728  28.110  1.00  0.00     0.010 A 
ATOM     33  C   UNL A   1      43.072  27.428  27.291  1.00  0.00     0.010 A 
ATOM     34  C   UNL A   1      42.078  27.030  28.194  1.00  0.00    -0.014 A 
BRANCH  34  35
ATOM     35  C   UNL A   1      41.672  27.918  29.311  1.00  0.00     0.031 A 
ATOM     36  C   UNL A   1      40.467  28.804  29.217  1.00  0.00     0.074 A 
ATOM     37  C   UNL A   1      42.421  27.916  30.430  1.00  0.00     0.049 A 
ATOM     38  N   UNL A   1      39.912  29.537  30.149  1.00  0.00    -0.248 NA
ATOM     39  C   UNL A   1      39.807  28.888  27.908  1.00  0.00     0.031 C 
ATOM     40  C   UNL A   1      43.651  27.143  30.617  1.00  0.00     0.029 A 
ATOM     41  N   UNL A   1      42.253  28.571  31.622  1.00  0.00    -0.354 N 
ATOM     42  C   UNL A   1      38.819  30.148  29.551  1.00  0.00     0.074 A 
ATOM     43  C   UNL A   1      38.828  29.749  28.158  1.00  0.00     0.031 C 
ATOM     44  C   UNL A   1      44.102  27.335  31.866  1.00  0.00     0.029 A 
ATOM     45  C   UNL A   1      43.208  28.257  32.558  1.00  0.00     0.049 A 
ATOM     46  H   UNL A   1      41.519  29.205  31.792  1.00  0.00     0.167 HD
ATOM     47  C   UNL A   1      37.883  30.950  30.116  1.00  0.00     0.037 A 
ATOM     48  C   UNL A   1      43.338  28.656  33.836  1.00  0.00     0.037 A 
ATOM     49  C   UNL A   1      37.898  31.372  31.496  1.00  0.00     0.049 A 
ATOM     50  C   UNL A   1      42.305  29.573  34.428  1.00  0.00     0.074 A 
ATOM     51  C   UNL A   1      36.977  32.157  32.171  1.00  0.00     0.029 A 
ATOM     52  N   UNL A   1      38.895  31.059  32.409  1.00  0.00    -0.354 N 
ATOM     53  N   UNL A   1      41.220  30.063  33.881  1.00  0.00    -0.248 NA
ATOM     54  C   UNL A   1      42.511  29.979  35.824  1.00  0.00     0.031 C 
ATOM     55  C   UNL A   1      37.444  32.359  33.476  1.00  0.00     0.029 A 
ATOM     56  C   UNL A   1      38.627  31.656  33.631  1.00  0.00     0.049 A 
ATOM     57  H   UNL A   1      39.679  30.494  32.216  1.00  0.00     0.167 HD
ATOM     58  C   UNL A   1      40.598  30.811  34.873  1.00  0.00     0.074 A 
ATOM     59  C   UNL A   1      41.418  30.689  36.061  1.00  0.00     0.031 C 
ATOM     60  C   UNL A   1      39.453  31.533  34.806  1.00  0.00     0.037 A 
BRANCH  47  61
ATOM     61  C   UNL A   1      36.761  31.423  29.236  1.00  0.00     0.057 A 
ATOM     62  C   UNL A   1      35.713  30.567  28.877  1.00  0.00     0.134 A 
ATOM     63  C   UNL A   1      36.735  32.726  28.719  1.00  0.00     0.134 A 
ATOM     64  F   UNL A   1      35.680  29.303  29.327  1.00  0.00    -0.206 F 
ATOM     65  C   UNL A   1      34.678  30.991  28.041  1.00  0.00     0.040 A 
ATOM     66  C   UNL A   1      35.691  33.169  27.904  1.00  0.00     0.040 A 
ATOM     67  F   UNL A   1      37.704  33.601  29.029  1.00  0.00    -0.206 F 
ATOM     68  C   UNL A   1      34.660  32.299  27.559  1.00  0.00     0.006 A 
ENDBRANCH  47  61
BRANCH  48  69
ATOM     69  C   UNL A   1      44.467  28.161  34.662  1.00  0.00     0.057 A 
ATOM     70  C   UNL A   1      44.388  26.947  35.353  1.00  0.00     0.134 A 
ATOM     71  C   UNL A   1      45.666  28.879  34.750  1.00  0.00     0.134 A 
ATOM     72  F   UNL A   1      43.265  26.217  35.316  1.00  0.00    -0.206 F 
ATOM     73  C   UNL A   1      45.463  26.462  36.100  1.00  0.00     0.040 A 
ATOM     74  C   UNL A   1      46.757  28.393  35.470  1.00  0.00     0.040 A 
ATOM     75  F   UNL A   1      45.807  30.041  34.096  1.00  0.00    -0.206 F 
ATOM     76  C   UNL A   1      46.656  27.181  36.151  1.00  0.00     0.006 A 
ENDBRANCH  48  69
BRANCH  60  77
ATOM     77  C   UNL A   1      39.011  32.218  36.069  1.00  0.00     0.057 A 
ATOM     78  C   UNL A   1      39.410  33.534  36.342  1.00  0.00     0.134 A 
ATOM     79  C   UNL A   1      38.182  31.588  37.007  1.00  0.00     0.134 A 
ATOM     80  F   UNL A   1      40.209  34.195  35.492  1.00  0.00    -0.206 F 
ATOM     81  C   UNL A   1      38.992  34.199  37.497  1.00  0.00     0.040 A 
ATOM     82  C   UNL A   1      37.733  32.254  38.150  1.00  0.00     0.040 A 
ATOM     83  F   UNL A   1      37.750  30.336  36.799  1.00  0.00    -0.206 F 
ATOM     84  C   UNL A   1      38.142  33.562  38.398  1.00  0.00     0.006 A 
ENDBRANCH  60  77
ENDBRANCH  34  35
ENDBRANCH  27  29
ENDBRANCH  26  27
ENDBRANCH  25  26
ENDBRANCH   1  25
TORSDOF 15
ENDMDL
MODEL 2
REMARK VINA RESULT:     -11.4      4.591      9.875
REMARK SMILES Cc1ccc2c(c1)OCCN2c1sc(C(=O)OCCOCCOC(=O)c2ccc(-c3c4nc(c(-c5c(F)cccc5F)c5ccc([nH]5)c(-c5c(F)cccc5F)c5nc(c(-c6c(F)cccc6F)c6ccc3[nH]6)C=C5)C=C4)cc2)cc1C
REMARK SMILES IDX 21 1 20 2 19 3 18 4 17 5 15 6 16 7 14 8 12 9 13 10 81 11
REMARK SMILES IDX 80 12 82 13 11 14 1 15 2 16 3 17 7 18 4 19 6 20 5 21 8 22
REMARK SMILES IDX 9 23 10 24 22 25 23 26 24 27 25 28 26 29 27 30 79 31 28 32
REMARK SMILES IDX 78 33 29 34 30 35 31 36 72 37 32 38 77 39 71 40 73 41 33 42
REMARK SMILES IDX 76 43 70 44 69 45 34 47 60 48 43 49 59 50 44 51 47 52 58 53
REMARK SMILES IDX 74 54 45 55 46 56 57 58 75 59 48 60 35 61 36 62 41 63 37 64
REMARK SMILES IDX 38 65 40 66 42 67 39 68 61 69 62 70 67 71 63 72 64 73 66 74
REMARK SMILES IDX 68 75 65 76 49 77 50 78 55 79 51 80 52 81 54 82 56 83 53 84
REMARK H PARENT 73 46 47 57
REMARK Flexibility Score: inf
ROOT
ATOM      1  C   UNL A   1      34.538  34.175  29.860  1.00  0.00     0.202 C 
ENDROOT
BRANCH   1   2
ATOM      2  O   UNL A   1      34.989  33.327  28.802  1.00  0.00    -0.374 OA
BRANCH   2   3
ATOM      3  C   UNL A   1      34.001  32.627  28.046  1.00  0.00     0.202 C 
BRANCH   3   4
ATOM      4  C   UNL A   1      34.385  31.238  27.528  1.00  0.00     0.261 C 
BRANCH   4   5
ATOM      5  O   UNL A   1      33.317  30.296  27.702  1.00  0.00    -0.459 OA
BRANCH   5   6
ATOM      6  C   UNL A   1      32.309  30.407  26.789  1.00  0.00     0.348 C 
ATOM      7  O   UNL A   1      31.651  31.425  26.603  1.00  0.00    -0.245 OA
BRANCH   6   8
ATOM      8  C   UNL A   1      32.188  29.218  25.973  1.00  0.00     0.114 A 
ATOM      9  C   UNL A   1      32.636  27.297  24.467  1.00  0.00     0.099 A 
ATOM     10  S   UNL A   1      32.922  29.014  24.456  1.00  0.00    -0.110 S 
ATOM     11  C   UNL A   1      31.639  27.007  25.399  1.00  0.00    -0.015 A 
ATOM     12  C   UNL A   1      31.431  28.113  26.286  1.00  0.00     0.033 A 
ATOM     13  C   UNL A   1      30.925  25.717  25.629  1.00  0.00     0.047 C 
BRANCH   9  14
ATOM     14  N   UNL A   1      33.303  26.439  23.629  1.00  0.00    -0.327 N 
ATOM     15  C   UNL A   1      36.197  21.709  25.274  1.00  0.00     0.044 C 
ATOM     16  C   UNL A   1      35.477  22.944  24.825  1.00  0.00    -0.047 A 
ATOM     17  C   UNL A   1      35.275  23.992  25.719  1.00  0.00     0.006 A 
ATOM     18  C   UNL A   1      34.946  23.052  23.539  1.00  0.00     0.052 A 
ATOM     19  C   UNL A   1      34.561  25.132  25.333  1.00  0.00     0.030 A 
ATOM     20  C   UNL A   1      34.240  24.201  23.153  1.00  0.00     0.143 A 
ATOM     21  C   UNL A   1      34.037  25.283  24.040  1.00  0.00     0.085 A 
ATOM     22  O   UNL A   1      33.755  24.168  21.862  1.00  0.00    -0.490 OA
ATOM     23  C   UNL A   1      32.715  25.127  21.656  1.00  0.00     0.251 C 
ATOM     24  C   UNL A   1      33.127  26.500  22.176  1.00  0.00     0.165 C 
ENDBRANCH   9  14
ENDBRANCH   6   8
ENDBRANCH   5   6
ENDBRANCH   4   5
ENDBRANCH   3   4
ENDBRANCH   2   3
ENDBRANCH   1   2
BRANCH   1  25
ATOM     25  C   UNL A   1      34.444  33.562  31.261  1.00  0.00     0.261 C 
BRANCH  25  26
ATOM     26  O   UNL A   1      34.975  32.227  31.300  1.00  0.00    -0.460 OA
BRANCH  26  27
ATOM     27  C   UNL A   1      35.986  32.037  32.182  1.00  0.00     0.338 C 
ATOM     28  O   UNL A   1      35.966  32.249  33.382  1.00  0.00    -0.246 OA
BRANCH  27  29
ATOM     29  C   UNL A   1      37.103  31.340  31.509  1.00  0.00     0.060 A 
ATOM     30  C   UNL A   1      37.220  31.309  30.118  1.00  0.00     0.016 A 
ATOM     31  C   UNL A   1      38.069  30.725  32.316  1.00  0.00     0.016 A 
ATOM     32  C   UNL A   1      38.331  30.691  29.540  1.00  0.00     0.010 A 
ATOM     33  C   UNL A   1      39.182  30.115  31.737  1.00  0.00     0.010 A 
ATOM     34  C   UNL A   1      39.332  30.114  30.344  1.00  0.00    -0.014 A 
BRANCH  34  35
ATOM     35  C   UNL A   1      40.587  29.628  29.720  1.00  0.00     0.031 A 
ATOM     36  C   UNL A   1      40.725  28.224  29.214  1.00  0.00     0.074 A 
ATOM     37  C   UNL A   1      41.620  30.485  29.616  1.00  0.00     0.049 A 
ATOM     38  N   UNL A   1      41.706  27.689  28.532  1.00  0.00    -0.248 NA
ATOM     39  C   UNL A   1      39.627  27.298  29.522  1.00  0.00     0.031 C 
ATOM     40  C   UNL A   1      41.627  31.858  30.127  1.00  0.00     0.029 A 
ATOM     41  N   UNL A   1      42.854  30.337  29.038  1.00  0.00    -0.354 N 
ATOM     42  C   UNL A   1      41.335  26.372  28.302  1.00  0.00     0.074 A 
ATOM     43  C   UNL A   1      40.066  26.173  28.972  1.00  0.00     0.031 C 
ATOM     44  C   UNL A   1      42.793  32.439  29.802  1.00  0.00     0.029 A 
ATOM     45  C   UNL A   1      43.618  31.477  29.080  1.00  0.00     0.049 A 
ATOM     46  H   UNL A   1      43.163  29.495  28.633  1.00  0.00     0.167 HD
ATOM     47  C   UNL A   1      41.982  25.424  27.579  1.00  0.00     0.037 A 
ATOM     48  C   UNL A   1      44.841  31.724  28.577  1.00  0.00     0.037 A 
ATOM     49  C   UNL A   1      43.262  25.618  26.942  1.00  0.00     0.049 A 
ATOM     50  C   UNL A   1      45.551  30.644  27.810  1.00  0.00     0.074 A 
ATOM     51  C   UNL A   1      43.984  24.730  26.162  1.00  0.00     0.029 A 
ATOM     52  N   UNL A   1      44.021  26.776  27.027  1.00  0.00    -0.354 N 
ATOM     53  N   UNL A   1      45.145  29.435  27.512  1.00  0.00    -0.248 NA
ATOM     54  C   UNL A   1      46.887  30.975  27.297  1.00  0.00     0.031 C 
ATOM     55  C   UNL A   1      45.200  25.333  25.818  1.00  0.00     0.029 A 
ATOM     56  C   UNL A   1      45.213  26.617  26.338  1.00  0.00     0.049 A 
ATOM     57  H   UNL A   1      43.752  27.593  27.508  1.00  0.00     0.167 HD
ATOM     58  C   UNL A   1      46.161  28.869  26.753  1.00  0.00     0.074 A 
ATOM     59  C   UNL A   1      47.191  29.879  26.618  1.00  0.00     0.031 C 
ATOM     60  C   UNL A   1      46.235  27.627  26.215  1.00  0.00     0.037 A 
BRANCH  47  61
ATOM     61  C   UNL A   1      41.310  24.088  27.441  1.00  0.00     0.057 A 
ATOM     62  C   UNL A   1      41.774  22.969  28.144  1.00  0.00     0.134 A 
ATOM     63  C   UNL A   1      40.214  23.903  26.586  1.00  0.00     0.134 A 
ATOM     64  F   UNL A   1      42.825  23.071  28.971  1.00  0.00    -0.206 F 
ATOM     65  C   UNL A   1      41.170  21.718  28.005  1.00  0.00     0.040 A 
ATOM     66  C   UNL A   1      39.586  22.662  26.460  1.00  0.00     0.040 A 
ATOM     67  F   UNL A   1      39.714  24.934  25.889  1.00  0.00    -0.206 F 
ATOM     68  C   UNL A   1      40.067  21.564  27.168  1.00  0.00     0.006 A 
ENDBRANCH  47  61
BRANCH  48  69
ATOM     69  C   UNL A   1      45.462  33.062  28.744  1.00  0.00     0.057 A 
ATOM     70  C   UNL A   1      46.360  33.325  29.785  1.00  0.00     0.134 A 
ATOM     71  C   UNL A   1      45.192  34.100  27.844  1.00  0.00     0.134 A 
ATOM     72  F   UNL A   1      46.651  32.375  30.684  1.00  0.00    -0.206 F 
ATOM     73  C   UNL A   1      46.972  34.571  29.922  1.00  0.00     0.040 A 
ATOM     74  C   UNL A   1      45.819  35.342  27.953  1.00  0.00     0.040 A 
ATOM     75  F   UNL A   1      44.352  33.903  26.817  1.00  0.00    -0.206 F 
ATOM     76  C   UNL A   1      46.710  35.581  28.998  1.00  0.00     0.006 A 
ENDBRANCH  48  69
BRANCH  60  77
ATOM     77  C   UNL A   1      47.463  27.311  25.407  1.00  0.00     0.057 A 
ATOM     78  C   UNL A   1      47.522  27.633  24.045  1.00  0.00     0.134 A 
ATOM     79  C   UNL A   1      48.591  26.703  25.975  1.00  0.00     0.134 A 
ATOM     80  F   UNL A   1      46.476  28.209  23.434  1.00  0.00    -0.206 F 
ATOM     81  C   UNL A   1      48.661  27.370  23.281  1.00  0.00     0.040 A 
ATOM     82  C   UNL A   1      49.747  26.465  25.229  1.00  0.00     0.040 A 
ATOM     83  F   UNL A   1      48.608  26.385  27.278  1.00  0.00    -0.206 F 
ATOM     84  C   UNL A   1      49.781  26.795  23.876  1.00  0.00     0.006 A 
ENDBRANCH  60  77
ENDBRANCH  34  35
ENDBRANCH  27  29
ENDBRANCH  26  27
ENDBRANCH  25  26
ENDBRANCH   1  25
TORSDOF 15
ENDMDL
MODEL 3
REMARK VINA RESULT:     -11.3      0.460      6.194
REMARK SMILES Cc1ccc2c(c1)OCCN2c1sc(C(=O)OCCOCCOC(=O)c2ccc(-c3c4nc(c(-c5c(F)cccc5F)c5ccc([nH]5)c(-c5c(F)cccc5F)c5nc(c(-c6c(F)cccc6F)c6ccc3[nH]6)C=C5)C=C4)cc2)cc1C
REMARK SMILES IDX 21 1 20 2 19 3 18 4 17 5 15 6 16 7 14 8 12 9 13 10 81 11
REMARK SMILES IDX 80 12 82 13 11 14 1 15 2 16 3 17 7 18 4 19 6 20 5 21 8 22
REMARK SMILES IDX 9 23 10 24 22 25 23 26 24 27 25 28 26 29 27 30 79 31 28 32
REMARK SMILES IDX 78 33 29 34 30 35 31 36 72 37 32 38 77 39 71 40 73 41 33 42
REMARK SMILES IDX 76 43 70 44 69 45 34 47 60 48 43 49 59 50 44 51 47 52 58 53
REMARK SMILES IDX 74 54 45 55 46 56 57 58 75 59 48 60 35 61 36 62 41 63 37 64
REMARK SMILES IDX 38 65 40 66 42 67 39 68 61 69 62 70 67 71 63 72 64 73 66 74
REMARK SMILES IDX 68 75 65 76 49 77 50 78 55 79 51 80 52 81 54 82 56 83 53 84
REMARK H PARENT 73 46 47 57
REMARK Flexibility Score: inf
ROOT
ATOM      1  C   UNL A   1      42.467  21.107  25.971  1.00  0.00     0.202 C 
ENDROOT
BRANCH   1   2
ATOM      2  O   UNL A   1      41.869  21.404  27.234  1.00  0.00    -0.374 OA
BRANCH   2   3
ATOM      3  C   UNL A   1      40.454  21.581  27.273  1.00  0.00     0.202 C 
BRANCH   3   4
ATOM      4  C   UNL A   1      39.769  21.971  25.959  1.00  0.00     0.261 C 
BRANCH   4   5
ATOM      5  O   UNL A   1      38.354  22.129  26.127  1.00  0.00    -0.459 OA
BRANCH   5   6
ATOM      6  C   UNL A   1      37.595  21.299  25.355  1.00  0.00     0.348 C 
ATOM      7  O   UNL A   1      37.977  20.218  24.917  1.00  0.00    -0.245 OA
BRANCH   6   8
ATOM      8  C   UNL A   1      36.239  21.784  25.214  1.00  0.00     0.114 A 
ATOM      9  C   UNL A   1      34.051  22.900  25.570  1.00  0.00     0.099 A 
ATOM     10  S   UNL A   1      35.109  21.860  26.479  1.00  0.00    -0.110 S 
ATOM     11  C   UNL A   1      34.376  22.809  24.216  1.00  0.00    -0.015 A 
ATOM     12  C   UNL A   1      35.663  22.204  24.038  1.00  0.00     0.033 A 
ATOM     13  C   UNL A   1      33.637  23.358  23.041  1.00  0.00     0.047 C 
BRANCH   9  14
ATOM     14  N   UNL A   1      33.054  23.631  26.165  1.00  0.00    -0.327 N 
ATOM     15  C   UNL A   1      32.332  29.348  25.684  1.00  0.00     0.044 C 
ATOM     16  C   UNL A   1      32.512  27.870  25.846  1.00  0.00    -0.047 A 
ATOM     17  C   UNL A   1      33.769  27.301  25.654  1.00  0.00     0.006 A 
ATOM     18  C   UNL A   1      31.436  27.030  26.132  1.00  0.00     0.052 A 
ATOM     19  C   UNL A   1      33.947  25.916  25.752  1.00  0.00     0.030 A 
ATOM     20  C   UNL A   1      31.621  25.644  26.239  1.00  0.00     0.143 A 
ATOM     21  C   UNL A   1      32.891  25.047  26.063  1.00  0.00     0.085 A 
ATOM     22  O   UNL A   1      30.470  24.932  26.507  1.00  0.00    -0.490 OA
ATOM     23  C   UNL A   1      30.614  23.544  26.193  1.00  0.00     0.251 C 
ATOM     24  C   UNL A   1      31.899  22.979  26.789  1.00  0.00     0.165 C 
ENDBRANCH   9  14
ENDBRANCH   6   8
ENDBRANCH   5   6
ENDBRANCH   4   5
ENDBRANCH   3   4
ENDBRANCH   2   3
ENDBRANCH   1   2
BRANCH   1  25
ATOM     25  C   UNL A   1      43.593  22.031  25.492  1.00  0.00     0.261 C 
BRANCH  25  26
ATOM     26  O   UNL A   1      43.087  23.272  24.975  1.00  0.00    -0.460 OA
BRANCH  26  27
ATOM     27  C   UNL A   1      43.863  24.355  25.220  1.00  0.00     0.338 C 
ATOM     28  O   UNL A   1      44.867  24.694  24.617  1.00  0.00    -0.246 OA
BRANCH  27  29
ATOM     29  C   UNL A   1      43.211  25.210  26.235  1.00  0.00     0.060 A 
ATOM     30  C   UNL A   1      42.019  24.834  26.858  1.00  0.00     0.016 A 
ATOM     31  C   UNL A   1      43.843  26.412  26.578  1.00  0.00     0.016 A 
ATOM     32  C   UNL A   1      41.484  25.651  27.857  1.00  0.00     0.010 A 
ATOM     33  C   UNL A   1      43.311  27.223  27.582  1.00  0.00     0.010 A 
ATOM     34  C   UNL A   1      42.138  26.836  28.244  1.00  0.00    -0.014 A 
BRANCH  34  35
ATOM     35  C   UNL A   1      41.655  27.590  29.426  1.00  0.00     0.031 A 
ATOM     36  C   UNL A   1      42.342  27.499  30.755  1.00  0.00     0.074 A 
ATOM     37  C   UNL A   1      40.568  28.372  29.283  1.00  0.00     0.049 A 
ATOM     38  N   UNL A   1      42.120  28.191  31.844  1.00  0.00    -0.248 NA
ATOM     39  C   UNL A   1      43.404  26.493  30.884  1.00  0.00     0.031 C 
ATOM     40  C   UNL A   1      39.778  28.496  28.056  1.00  0.00     0.029 A 
ATOM     41  N   UNL A   1      39.949  29.217  30.166  1.00  0.00    -0.354 N 
ATOM     42  C   UNL A   1      43.034  27.728  32.781  1.00  0.00     0.074 A 
ATOM     43  C   UNL A   1      43.770  26.652  32.150  1.00  0.00     0.031 C 
ATOM     44  C   UNL A   1      38.805  29.399  28.252  1.00  0.00     0.029 A 
ATOM     45  C   UNL A   1      38.890  29.900  29.619  1.00  0.00     0.049 A 
ATOM     46  H   UNL A   1      40.234  29.325  31.102  1.00  0.00     0.167 HD
ATOM     47  C   UNL A   1      43.253  28.176  34.042  1.00  0.00     0.037 A 
ATOM     48  C   UNL A   1      38.089  30.838  30.156  1.00  0.00     0.037 A 
ATOM     49  C   UNL A   1      42.494  29.226  34.678  1.00  0.00     0.049 A 
ATOM     50  C   UNL A   1      38.332  31.291  31.568  1.00  0.00     0.074 A 
ATOM     51  C   UNL A   1      42.660  29.771  35.940  1.00  0.00     0.029 A 
ATOM     52  N   UNL A   1      41.411  29.877  34.105  1.00  0.00    -0.354 N 
ATOM     53  N   UNL A   1      39.264  30.918  32.409  1.00  0.00    -0.248 NA
ATOM     54  C   UNL A   1      37.415  32.309  32.097  1.00  0.00     0.031 C 
ATOM     55  C   UNL A   1      41.647  30.715  36.148  1.00  0.00     0.029 A 
ATOM     56  C   UNL A   1      40.883  30.798  34.996  1.00  0.00     0.049 A 
ATOM     57  H   UNL A   1      41.067  29.709  33.197  1.00  0.00     0.167 HD
ATOM     58  C   UNL A   1      39.066  31.675  33.557  1.00  0.00     0.074 A 
ATOM     59  C   UNL A   1      37.938  32.545  33.291  1.00  0.00     0.031 C 
ATOM     60  C   UNL A   1      39.755  31.654  34.724  1.00  0.00     0.037 A 
BRANCH  47  61
ATOM     61  C   UNL A   1      44.363  27.526  34.818  1.00  0.00     0.057 A 
ATOM     62  C   UNL A   1      45.673  28.016  34.754  1.00  0.00     0.134 A 
ATOM     63  C   UNL A   1      44.137  26.392  35.612  1.00  0.00     0.134 A 
ATOM     64  F   UNL A   1      45.964  29.091  34.006  1.00  0.00    -0.206 F 
ATOM     65  C   UNL A   1      46.716  27.405  35.454  1.00  0.00     0.040 A 
ATOM     66  C   UNL A   1      45.167  25.789  36.337  1.00  0.00     0.040 A 
ATOM     67  F   UNL A   1      42.904  25.875  35.724  1.00  0.00    -0.206 F 
ATOM     68  C   UNL A   1      46.462  26.294  36.256  1.00  0.00     0.006 A 
ENDBRANCH  47  61
BRANCH  48  69
ATOM     69  C   UNL A   1      37.004  31.446  29.346  1.00  0.00     0.057 A 
ATOM     70  C   UNL A   1      35.810  30.760  29.094  1.00  0.00     0.134 A 
ATOM     71  C   UNL A   1      37.126  32.743  28.832  1.00  0.00     0.134 A 
ATOM     72  F   UNL A   1      35.636  29.513  29.551  1.00  0.00    -0.206 F 
ATOM     73  C   UNL A   1      34.774  31.345  28.363  1.00  0.00     0.040 A 
ATOM     74  C   UNL A   1      36.088  33.348  28.124  1.00  0.00     0.040 A 
ATOM     75  F   UNL A   1      38.241  33.455  29.055  1.00  0.00    -0.206 F 
ATOM     76  C   UNL A   1      34.908  32.647  27.886  1.00  0.00     0.006 A 
ENDBRANCH  48  69
BRANCH  60  77
ATOM     77  C   UNL A   1      39.319  32.625  35.785  1.00  0.00     0.057 A 
ATOM     78  C   UNL A   1      38.354  32.258  36.733  1.00  0.00     0.134 A 
ATOM     79  C   UNL A   1      39.859  33.914  35.882  1.00  0.00     0.134 A 
ATOM     80  F   UNL A   1      37.789  31.042  36.696  1.00  0.00    -0.206 F 
ATOM     81  C   UNL A   1      37.950  33.135  37.742  1.00  0.00     0.040 A 
ATOM     82  C   UNL A   1      39.486  34.789  36.906  1.00  0.00     0.040 A 
ATOM     83  F   UNL A   1      40.799  34.324  35.018  1.00  0.00    -0.206 F 
ATOM     84  C   UNL A   1      38.526  34.400  37.837  1.00  0.00     0.006 A 
ENDBRANCH  60  77
ENDBRANCH  34  35
ENDBRANCH  27  29
ENDBRANCH  26  27
ENDBRANCH  25  26
ENDBRANCH   1  25
TORSDOF 15
ENDMDL
