MODEL 1
REMARK VINA RESULT:     -11.1      0.000      0.000
REMARK SMILES C[C@H]1[C@@H](C(=O)OCCOCCOC(=O)c2ccc(-c3c4nc(c(-c5c(F)cccc5F)c5ccc([nH]5)c(-c5c(F)cccc5F)c5nc(c(-c6c(F)cccc6F)c6ccc3[nH]6)C=C5)C=C4)cc2)CCN1C(=O)c1n[nH]c(N)n1
REMARK SMILES IDX 8 1 7 2 6 3 4 4 5 5 3 6 1 7 2 8 71 9 69 10 70 11 72 12 73 13
REMARK SMILES IDX 74 14 75 15 79 16 76 17 77 18 78 20 9 23 10 24 11 25 12 26
REMARK SMILES IDX 13 27 14 28 15 29 16 30 68 31 17 32 67 33 18 34 19 35 20 36
REMARK SMILES IDX 61 37 21 38 66 39 60 40 62 41 22 42 65 43 59 44 58 45 23 47
REMARK SMILES IDX 49 48 32 49 48 50 33 51 36 52 47 53 63 54 34 55 35 56 46 58
REMARK SMILES IDX 64 59 37 60 24 61 25 62 30 63 26 64 27 65 29 66 31 67 28 68
REMARK SMILES IDX 50 69 51 70 56 71 52 72 53 73 55 74 57 75 54 76 38 77 39 78
REMARK SMILES IDX 44 79 40 80 41 81 43 82 45 83 42 84
REMARK H PARENT 76 19 78 21 78 22 62 46 36 57
REMARK Flexibility Score: inf
ROOT
ATOM      1  C   UNL A   1      33.949  19.911  24.723  1.00  0.00     0.202 C 
ENDROOT
BRANCH   1   2
ATOM      2  C   UNL A   1      32.531  20.346  25.104  1.00  0.00     0.261 C 
BRANCH   2   3
ATOM      3  O   UNL A   1      32.604  21.594  25.822  1.00  0.00    -0.463 OA
BRANCH   3   4
ATOM      4  C   UNL A   1      31.799  22.598  25.425  1.00  0.00     0.311 C 
ATOM      5  O   UNL A   1      31.027  23.193  26.170  1.00  0.00    -0.252 OA
BRANCH   4   6
ATOM      6  C   UNL A   1      31.960  22.989  23.962  1.00  0.00     0.123 C 
ATOM      7  C   UNL A   1      34.158  24.394  24.396  1.00  0.00     0.032 C 
ATOM      8  C   UNL A   1      33.112  23.870  23.412  1.00  0.00     0.096 C 
ATOM      9  N   UNL A   1      32.452  24.973  22.699  1.00  0.00    -0.332 N 
ATOM     10  C   UNL A   1      30.661  23.664  23.477  1.00  0.00     0.039 C 
ATOM     11  C   UNL A   1      31.046  25.048  22.997  1.00  0.00     0.121 C 
BRANCH   9  12
ATOM     12  C   UNL A   1      33.032  25.944  21.873  1.00  0.00     0.293 C 
ATOM     13  O   UNL A   1      33.271  25.696  20.690  1.00  0.00    -0.265 OA
BRANCH  12  14
ATOM     14  C   UNL A   1      33.327  27.271  22.456  1.00  0.00     0.241 A 
ATOM     15  N   UNL A   1      34.205  28.151  21.925  1.00  0.00    -0.147 NA
ATOM     16  N   UNL A   1      32.745  27.714  23.634  1.00  0.00    -0.187 NA
ATOM     17  N   UNL A   1      34.134  29.166  22.800  1.00  0.00    -0.245 N 
ATOM     18  C   UNL A   1      33.289  28.884  23.833  1.00  0.00     0.216 A 
ATOM     19  H   UNL A   1      34.631  30.010  22.709  1.00  0.00     0.193 HD
BRANCH  18  20
ATOM     20  N   UNL A   1      33.106  29.711  24.864  1.00  0.00    -0.368 N 
ATOM     21  H   UNL A   1      32.915  30.664  24.704  1.00  0.00     0.159 HD
ATOM     22  H   UNL A   1      33.161  29.369  25.786  1.00  0.00     0.159 HD
ENDBRANCH  18  20
ENDBRANCH  12  14
ENDBRANCH   9  12
ENDBRANCH   4   6
ENDBRANCH   3   4
ENDBRANCH   2   3
ENDBRANCH   1   2
BRANCH   1  23
ATOM     23  O   UNL A   1      34.873  20.996  24.596  1.00  0.00    -0.374 OA
BRANCH  23  24
ATOM     24  C   UNL A   1      35.958  21.015  25.522  1.00  0.00     0.202 C 
BRANCH  24  25
ATOM     25  C   UNL A   1      37.272  20.444  24.982  1.00  0.00     0.261 C 
BRANCH  25  26
ATOM     26  O   UNL A   1      38.330  21.411  25.090  1.00  0.00    -0.460 OA
BRANCH  26  27
ATOM     27  C   UNL A   1      39.304  21.075  25.962  1.00  0.00     0.338 C 
ATOM     28  O   UNL A   1      39.873  19.993  26.052  1.00  0.00    -0.246 OA
BRANCH  27  29
ATOM     29  C   UNL A   1      39.733  22.253  26.738  1.00  0.00     0.060 A 
ATOM     30  C   UNL A   1      39.082  23.460  26.461  1.00  0.00     0.016 A 
ATOM     31  C   UNL A   1      40.787  22.211  27.657  1.00  0.00     0.016 A 
ATOM     32  C   UNL A   1      39.540  24.644  27.025  1.00  0.00     0.010 A 
ATOM     33  C   UNL A   1      41.245  23.405  28.229  1.00  0.00     0.010 A 
ATOM     34  C   UNL A   1      40.659  24.631  27.869  1.00  0.00    -0.014 A 
BRANCH  34  35
ATOM     35  C   UNL A   1      41.302  25.926  28.198  1.00  0.00     0.031 A 
ATOM     36  C   UNL A   1      42.685  26.202  27.673  1.00  0.00     0.074 A 
ATOM     37  C   UNL A   1      40.625  26.882  28.857  1.00  0.00     0.049 A 
ATOM     38  N   UNL A   1      43.396  27.300  27.739  1.00  0.00    -0.248 NA
ATOM     39  C   UNL A   1      43.358  25.092  26.977  1.00  0.00     0.031 C 
ATOM     40  C   UNL A   1      39.270  26.745  29.388  1.00  0.00     0.029 A 
ATOM     41  N   UNL A   1      40.985  28.167  29.175  1.00  0.00    -0.354 N 
ATOM     42  C   UNL A   1      44.590  27.015  27.088  1.00  0.00     0.074 A 
ATOM     43  C   UNL A   1      44.530  25.630  26.675  1.00  0.00     0.031 C 
ATOM     44  C   UNL A   1      38.906  27.907  29.957  1.00  0.00     0.029 A 
ATOM     45  C   UNL A   1      40.006  28.862  29.841  1.00  0.00     0.049 A 
ATOM     46  H   UNL A   1      41.861  28.554  28.947  1.00  0.00     0.167 HD
ATOM     47  C   UNL A   1      45.637  27.838  26.839  1.00  0.00     0.037 A 
ATOM     48  C   UNL A   1      40.002  30.128  30.302  1.00  0.00     0.037 A 
ATOM     49  C   UNL A   1      45.696  29.217  27.246  1.00  0.00     0.049 A 
ATOM     50  C   UNL A   1      41.196  31.010  30.052  1.00  0.00     0.074 A 
ATOM     51  C   UNL A   1      46.708  30.137  27.032  1.00  0.00     0.029 A 
ATOM     52  N   UNL A   1      44.701  29.872  27.954  1.00  0.00    -0.354 N 
ATOM     53  N   UNL A   1      42.305  30.740  29.408  1.00  0.00    -0.248 NA
ATOM     54  C   UNL A   1      41.129  32.378  30.584  1.00  0.00     0.031 C 
ATOM     55  C   UNL A   1      46.343  31.338  27.649  1.00  0.00     0.029 A 
ATOM     56  C   UNL A   1      45.083  31.180  28.205  1.00  0.00     0.049 A 
ATOM     57  H   UNL A   1      43.850  29.468  28.237  1.00  0.00     0.167 HD
ATOM     58  C   UNL A   1      43.054  31.909  29.431  1.00  0.00     0.074 A 
ATOM     59  C   UNL A   1      42.267  32.895  30.141  1.00  0.00     0.031 C 
ATOM     60  C   UNL A   1      44.284  32.148  28.911  1.00  0.00     0.037 A 
BRANCH  47  61
ATOM     61  C   UNL A   1      46.809  27.256  26.106  1.00  0.00     0.057 A 
ATOM     62  C   UNL A   1      46.932  27.353  24.713  1.00  0.00     0.134 A 
ATOM     63  C   UNL A   1      47.836  26.607  26.802  1.00  0.00     0.134 A 
ATOM     64  F   UNL A   1      45.976  27.949  23.986  1.00  0.00    -0.206 F 
ATOM     65  C   UNL A   1      48.025  26.806  24.037  1.00  0.00     0.040 A 
ATOM     66  C   UNL A   1      48.945  26.076  26.140  1.00  0.00     0.040 A 
ATOM     67  F   UNL A   1      47.781  26.482  28.137  1.00  0.00    -0.206 F 
ATOM     68  C   UNL A   1      49.038  26.170  24.753  1.00  0.00     0.006 A 
ENDBRANCH  47  61
BRANCH  48  69
ATOM     69  C   UNL A   1      38.820  30.646  31.036  1.00  0.00     0.057 A 
ATOM     70  C   UNL A   1      38.682  30.465  32.417  1.00  0.00     0.134 A 
ATOM     71  C   UNL A   1      37.788  31.314  30.368  1.00  0.00     0.134 A 
ATOM     72  F   UNL A   1      39.628  29.812  33.110  1.00  0.00    -0.206 F 
ATOM     73  C   UNL A   1      37.554  30.914  33.104  1.00  0.00     0.040 A 
ATOM     74  C   UNL A   1      36.665  31.790  31.045  1.00  0.00     0.040 A 
ATOM     75  F   UNL A   1      37.860  31.522  29.044  1.00  0.00    -0.206 F 
ATOM     76  C   UNL A   1      36.542  31.583  32.417  1.00  0.00     0.006 A 
ENDBRANCH  48  69
BRANCH  60  77
ATOM     77  C   UNL A   1      44.835  33.536  29.063  1.00  0.00     0.057 A 
ATOM     78  C   UNL A   1      45.648  33.895  30.145  1.00  0.00     0.134 A 
ATOM     79  C   UNL A   1      44.568  34.518  28.100  1.00  0.00     0.134 A 
ATOM     80  F   UNL A   1      45.932  33.003  31.107  1.00  0.00    -0.206 F 
ATOM     81  C   UNL A   1      46.152  35.189  30.281  1.00  0.00     0.040 A 
ATOM     82  C   UNL A   1      45.089  35.809  28.211  1.00  0.00     0.040 A 
ATOM     83  F   UNL A   1      43.805  34.238  27.033  1.00  0.00    -0.206 F 
ATOM     84  C   UNL A   1      45.877  36.150  29.308  1.00  0.00     0.006 A 
ENDBRANCH  60  77
ENDBRANCH  34  35
ENDBRANCH  27  29
ENDBRANCH  26  27
ENDBRANCH  25  26
ENDBRANCH  24  25
ENDBRANCH  23  24
ENDBRANCH   1  23
TORSDOF 17
ENDMDL
MODEL 2
REMARK VINA RESULT:     -11.0      1.645      2.107
REMARK SMILES C[C@H]1[C@@H](C(=O)OCCOCCOC(=O)c2ccc(-c3c4nc(c(-c5c(F)cccc5F)c5ccc([nH]5)c(-c5c(F)cccc5F)c5nc(c(-c6c(F)cccc6F)c6ccc3[nH]6)C=C5)C=C4)cc2)CCN1C(=O)c1n[nH]c(N)n1
REMARK SMILES IDX 8 1 7 2 6 3 4 4 5 5 3 6 1 7 2 8 71 9 69 10 70 11 72 12 73 13
REMARK SMILES IDX 74 14 75 15 79 16 76 17 77 18 78 20 9 23 10 24 11 25 12 26
REMARK SMILES IDX 13 27 14 28 15 29 16 30 68 31 17 32 67 33 18 34 19 35 20 36
REMARK SMILES IDX 61 37 21 38 66 39 60 40 62 41 22 42 65 43 59 44 58 45 23 47
REMARK SMILES IDX 49 48 32 49 48 50 33 51 36 52 47 53 63 54 34 55 35 56 46 58
REMARK SMILES IDX 64 59 37 60 24 61 25 62 30 63 26 64 27 65 29 66 31 67 28 68
REMARK SMILES IDX 50 69 51 70 56 71 52 72 53 73 55 74 57 75 54 76 38 77 39 78
REMARK SMILES IDX 44 79 40 80 41 81 43 82 45 83 42 84
REMARK H PARENT 76 19 78 21 78 22 62 46 36 57
REMARK Flexibility Score: inf
ROOT
ATOM      1  C   UNL A   1      34.744  21.841  26.740  1.00  0.00     0.202 C 
ENDROOT
BRANCH   1   2
ATOM      2  C   UNL A   1      33.729  22.978  26.882  1.00  0.00     0.261 C 
BRANCH   2   3
ATOM      3  O   UNL A   1      33.382  23.458  25.568  1.00  0.00    -0.463 OA
BRANCH   3   4
ATOM      4  C   UNL A   1      33.218  24.785  25.404  1.00  0.00     0.311 C 
ATOM      5  O   UNL A   1      34.132  25.562  25.144  1.00  0.00    -0.252 OA
BRANCH   4   6
ATOM      6  C   UNL A   1      31.775  25.256  25.510  1.00  0.00     0.123 C 
ATOM      7  C   UNL A   1      31.347  25.106  22.906  1.00  0.00     0.032 C 
ATOM      8  C   UNL A   1      30.815  25.423  24.303  1.00  0.00     0.096 C 
ATOM      9  N   UNL A   1      30.325  26.807  24.384  1.00  0.00    -0.332 N 
ATOM     10  C   UNL A   1      31.742  26.609  26.251  1.00  0.00     0.039 C 
ATOM     11  C   UNL A   1      31.091  27.601  25.309  1.00  0.00     0.121 C 
BRANCH   9  12
ATOM     12  C   UNL A   1      29.304  27.412  23.642  1.00  0.00     0.293 C 
ATOM     13  O   UNL A   1      28.160  26.952  23.662  1.00  0.00    -0.265 OA
BRANCH  12  14
ATOM     14  C   UNL A   1      29.633  28.621  22.857  1.00  0.00     0.241 A 
ATOM     15  N   UNL A   1      30.664  28.699  21.987  1.00  0.00    -0.147 NA
ATOM     16  N   UNL A   1      28.922  29.805  22.978  1.00  0.00    -0.187 NA
ATOM     17  N   UNL A   1      30.558  29.965  21.554  1.00  0.00    -0.245 N 
ATOM     18  C   UNL A   1      29.540  30.627  22.174  1.00  0.00     0.216 A 
ATOM     19  H   UNL A   1      31.143  30.367  20.872  1.00  0.00     0.193 HD
BRANCH  18  20
ATOM     20  N   UNL A   1      29.281  31.919  21.961  1.00  0.00    -0.368 N 
ATOM     21  H   UNL A   1      29.989  32.591  22.090  1.00  0.00     0.159 HD
ATOM     22  H   UNL A   1      28.382  32.200  21.675  1.00  0.00     0.159 HD
ENDBRANCH  18  20
ENDBRANCH  12  14
ENDBRANCH   9  12
ENDBRANCH   4   6
ENDBRANCH   3   4
ENDBRANCH   2   3
ENDBRANCH   1   2
BRANCH   1  23
ATOM     23  O   UNL A   1      34.733  21.210  25.455  1.00  0.00    -0.374 OA
BRANCH  23  24
ATOM     24  C   UNL A   1      35.893  21.401  24.646  1.00  0.00     0.202 C 
BRANCH  24  25
ATOM     25  C   UNL A   1      37.129  20.622  25.104  1.00  0.00     0.261 C 
BRANCH  25  26
ATOM     26  O   UNL A   1      38.300  21.454  25.062  1.00  0.00    -0.460 OA
BRANCH  26  27
ATOM     27  C   UNL A   1      39.259  21.109  25.947  1.00  0.00     0.338 C 
ATOM     28  O   UNL A   1      39.812  20.020  26.050  1.00  0.00    -0.246 OA
BRANCH  27  29
ATOM     29  C   UNL A   1      39.696  22.286  26.721  1.00  0.00     0.060 A 
ATOM     30  C   UNL A   1      39.058  23.498  26.436  1.00  0.00     0.016 A 
ATOM     31  C   UNL A   1      40.744  22.237  27.646  1.00  0.00     0.016 A 
ATOM     32  C   UNL A   1      39.525  24.680  26.999  1.00  0.00     0.010 A 
ATOM     33  C   UNL A   1      41.211  23.428  28.217  1.00  0.00     0.010 A 
ATOM     34  C   UNL A   1      40.639  24.658  27.849  1.00  0.00    -0.014 A 
BRANCH  34  35
ATOM     35  C   UNL A   1      41.294  25.948  28.176  1.00  0.00     0.031 A 
ATOM     36  C   UNL A   1      42.682  26.209  27.657  1.00  0.00     0.074 A 
ATOM     37  C   UNL A   1      40.624  26.913  28.830  1.00  0.00     0.049 A 
ATOM     38  N   UNL A   1      43.403  27.300  27.722  1.00  0.00    -0.248 NA
ATOM     39  C   UNL A   1      43.347  25.091  26.967  1.00  0.00     0.031 C 
ATOM     40  C   UNL A   1      39.264  26.791  29.355  1.00  0.00     0.029 A 
ATOM     41  N   UNL A   1      40.994  28.195  29.146  1.00  0.00    -0.354 N 
ATOM     42  C   UNL A   1      44.597  27.002  27.078  1.00  0.00     0.074 A 
ATOM     43  C   UNL A   1      44.525  25.616  26.669  1.00  0.00     0.031 C 
ATOM     44  C   UNL A   1      38.909  27.958  29.919  1.00  0.00     0.029 A 
ATOM     45  C   UNL A   1      40.020  28.902  29.806  1.00  0.00     0.049 A 
ATOM     46  H   UNL A   1      41.875  28.573  28.921  1.00  0.00     0.167 HD
ATOM     47  C   UNL A   1      45.653  27.814  26.831  1.00  0.00     0.037 A 
ATOM     48  C   UNL A   1      40.026  30.169  30.263  1.00  0.00     0.037 A 
ATOM     49  C   UNL A   1      45.724  29.193  27.234  1.00  0.00     0.049 A 
ATOM     50  C   UNL A   1      41.229  31.038  30.016  1.00  0.00     0.074 A 
ATOM     51  C   UNL A   1      46.746  30.103  27.022  1.00  0.00     0.029 A 
ATOM     52  N   UNL A   1      44.732  29.860  27.935  1.00  0.00    -0.354 N 
ATOM     53  N   UNL A   1      42.339  30.756  29.376  1.00  0.00    -0.248 NA
ATOM     54  C   UNL A   1      41.174  32.409  30.543  1.00  0.00     0.031 C 
ATOM     55  C   UNL A   1      46.389  31.309  27.634  1.00  0.00     0.029 A 
ATOM     56  C   UNL A   1      45.126  31.165  28.184  1.00  0.00     0.049 A 
ATOM     57  H   UNL A   1      43.876  29.465  28.216  1.00  0.00     0.167 HD
ATOM     58  C   UNL A   1      43.099  31.918  29.399  1.00  0.00     0.074 A 
ATOM     59  C   UNL A   1      42.318  32.914  30.103  1.00  0.00     0.031 C 
ATOM     60  C   UNL A   1      44.333  32.143  28.884  1.00  0.00     0.037 A 
BRANCH  47  61
ATOM     61  C   UNL A   1      46.822  27.218  26.104  1.00  0.00     0.057 A 
ATOM     62  C   UNL A   1      46.971  27.342  24.717  1.00  0.00     0.134 A 
ATOM     63  C   UNL A   1      47.822  26.529  26.803  1.00  0.00     0.134 A 
ATOM     64  F   UNL A   1      46.042  27.976  23.986  1.00  0.00    -0.206 F 
ATOM     65  C   UNL A   1      48.061  26.781  24.047  1.00  0.00     0.040 A 
ATOM     66  C   UNL A   1      48.927  25.985  26.148  1.00  0.00     0.040 A 
ATOM     67  F   UNL A   1      47.740  26.377  28.134  1.00  0.00    -0.206 F 
ATOM     68  C   UNL A   1      49.046  26.105  24.764  1.00  0.00     0.006 A 
ENDBRANCH  47  61
BRANCH  48  69
ATOM     69  C   UNL A   1      38.845  30.701  30.990  1.00  0.00     0.057 A 
ATOM     70  C   UNL A   1      38.696  30.517  32.369  1.00  0.00     0.134 A 
ATOM     71  C   UNL A   1      37.828  31.385  30.317  1.00  0.00     0.134 A 
ATOM     72  F   UNL A   1      39.628  29.850  33.067  1.00  0.00    -0.206 F 
ATOM     73  C   UNL A   1      37.569  30.980  33.050  1.00  0.00     0.040 A 
ATOM     74  C   UNL A   1      36.707  31.874  30.988  1.00  0.00     0.040 A 
ATOM     75  F   UNL A   1      37.912  31.595  28.994  1.00  0.00    -0.206 F 
ATOM     76  C   UNL A   1      36.571  31.664  32.358  1.00  0.00     0.006 A 
ENDBRANCH  48  69
BRANCH  60  77
ATOM     77  C   UNL A   1      44.897  33.526  29.035  1.00  0.00     0.057 A 
ATOM     78  C   UNL A   1      44.646  34.535  28.096  1.00  0.00     0.134 A 
ATOM     79  C   UNL A   1      45.680  33.859  30.148  1.00  0.00     0.134 A 
ATOM     80  F   UNL A   1      43.912  34.277  27.002  1.00  0.00    -0.206 F 
ATOM     81  C   UNL A   1      45.178  35.816  28.242  1.00  0.00     0.040 A 
ATOM     82  C   UNL A   1      46.195  35.145  30.319  1.00  0.00     0.040 A 
ATOM     83  F   UNL A   1      45.949  32.943  31.091  1.00  0.00    -0.206 F 
ATOM     84  C   UNL A   1      45.951  36.126  29.360  1.00  0.00     0.006 A 
ENDBRANCH  60  77
ENDBRANCH  34  35
ENDBRANCH  27  29
ENDBRANCH  26  27
ENDBRANCH  25  26
ENDBRANCH  24  25
ENDBRANCH  23  24
ENDBRANCH   1  23
TORSDOF 17
ENDMDL
MODEL 3
REMARK VINA RESULT:     -10.8      2.330      3.344
REMARK SMILES C[C@H]1[C@@H](C(=O)OCCOCCOC(=O)c2ccc(-c3c4nc(c(-c5c(F)cccc5F)c5ccc([nH]5)c(-c5c(F)cccc5F)c5nc(c(-c6c(F)cccc6F)c6ccc3[nH]6)C=C5)C=C4)cc2)CCN1C(=O)c1n[nH]c(N)n1
REMARK SMILES IDX 8 1 7 2 6 3 4 4 5 5 3 6 1 7 2 8 71 9 69 10 70 11 72 12 73 13
REMARK SMILES IDX 74 14 75 15 79 16 76 17 77 18 78 20 9 23 10 24 11 25 12 26
REMARK SMILES IDX 13 27 14 28 15 29 16 30 68 31 17 32 67 33 18 34 19 35 20 36
REMARK SMILES IDX 61 37 21 38 66 39 60 40 62 41 22 42 65 43 59 44 58 45 23 47
REMARK SMILES IDX 49 48 32 49 48 50 33 51 36 52 47 53 63 54 34 55 35 56 46 58
REMARK SMILES IDX 64 59 37 60 24 61 25 62 30 63 26 64 27 65 29 66 31 67 28 68
REMARK SMILES IDX 50 69 51 70 56 71 52 72 53 73 55 74 57 75 54 76 38 77 39 78
REMARK SMILES IDX 44 79 40 80 41 81 43 82 45 83 42 84
REMARK H PARENT 76 19 78 21 78 22 62 46 36 57
REMARK Flexibility Score: inf
ROOT
ATOM      1  C   UNL A   1      37.683  23.549  26.115  1.00  0.00     0.202 C 
ENDROOT
BRANCH   1   2
ATOM      2  C   UNL A   1      36.591  23.754  25.062  1.00  0.00     0.261 C 
BRANCH   2   3
ATOM      3  O   UNL A   1      35.374  24.149  25.725  1.00  0.00    -0.463 OA
BRANCH   3   4
ATOM      4  C   UNL A   1      34.206  23.902  25.101  1.00  0.00     0.311 C 
ATOM      5  O   UNL A   1      33.575  22.856  25.217  1.00  0.00    -0.252 OA
BRANCH   4   6
ATOM      6  C   UNL A   1      33.684  25.063  24.267  1.00  0.00     0.123 C 
ATOM      7  C   UNL A   1      31.805  25.705  26.012  1.00  0.00     0.032 C 
ATOM      8  C   UNL A   1      32.505  25.981  24.681  1.00  0.00     0.096 C 
ATOM      9  N   UNL A   1      31.555  25.925  23.560  1.00  0.00    -0.332 N 
ATOM     10  C   UNL A   1      33.326  24.546  22.858  1.00  0.00     0.039 C 
ATOM     11  C   UNL A   1      31.859  24.857  22.644  1.00  0.00     0.121 C 
BRANCH   9  12
ATOM     12  C   UNL A   1      30.414  26.707  23.349  1.00  0.00     0.293 C 
ATOM     13  O   UNL A   1      29.303  26.297  23.691  1.00  0.00    -0.265 OA
BRANCH  12  14
ATOM     14  C   UNL A   1      30.585  28.039  22.729  1.00  0.00     0.241 A 
ATOM     15  N   UNL A   1      31.784  28.630  22.529  1.00  0.00    -0.147 NA
ATOM     16  N   UNL A   1      29.511  28.819  22.330  1.00  0.00    -0.187 NA
ATOM     17  N   UNL A   1      31.421  29.796  21.971  1.00  0.00    -0.245 N 
ATOM     18  C   UNL A   1      30.065  29.916  21.888  1.00  0.00     0.216 A 
ATOM     19  H   UNL A   1      32.056  30.481  21.661  1.00  0.00     0.193 HD
BRANCH  18  20
ATOM     20  N   UNL A   1      29.463  31.016  21.433  1.00  0.00    -0.368 N 
ATOM     21  H   UNL A   1      29.711  31.899  21.792  1.00  0.00     0.159 HD
ATOM     22  H   UNL A   1      28.769  30.946  20.738  1.00  0.00     0.159 HD
ENDBRANCH  18  20
ENDBRANCH  12  14
ENDBRANCH   9  12
ENDBRANCH   4   6
ENDBRANCH   3   4
ENDBRANCH   2   3
ENDBRANCH   1   2
BRANCH   1  23
ATOM     23  O   UNL A   1      38.503  22.399  25.884  1.00  0.00    -0.374 OA
BRANCH  23  24
ATOM     24  C   UNL A   1      37.895  21.319  25.176  1.00  0.00     0.202 C 
BRANCH  24  25
ATOM     25  C   UNL A   1      38.700  20.017  25.178  1.00  0.00     0.261 C 
BRANCH  25  26
ATOM     26  O   UNL A   1      39.488  19.908  26.374  1.00  0.00    -0.460 OA
BRANCH  26  27
ATOM     27  C   UNL A   1      40.816  19.793  26.157  1.00  0.00     0.338 C 
ATOM     28  O   UNL A   1      41.389  18.898  25.545  1.00  0.00    -0.246 OA
BRANCH  27  29
ATOM     29  C   UNL A   1      41.525  20.995  26.633  1.00  0.00     0.060 A 
ATOM     30  C   UNL A   1      41.622  21.160  28.019  1.00  0.00     0.016 A 
ATOM     31  C   UNL A   1      42.020  21.975  25.766  1.00  0.00     0.016 A 
ATOM     32  C   UNL A   1      42.124  22.343  28.545  1.00  0.00     0.010 A 
ATOM     33  C   UNL A   1      42.531  23.165  26.299  1.00  0.00     0.010 A 
ATOM     34  C   UNL A   1      42.530  23.375  27.688  1.00  0.00    -0.014 A 
BRANCH  34  35
ATOM     35  C   UNL A   1      42.761  24.719  28.271  1.00  0.00     0.031 A 
ATOM     36  C   UNL A   1      44.172  25.143  28.580  1.00  0.00     0.074 A 
ATOM     37  C   UNL A   1      41.746  25.587  28.421  1.00  0.00     0.049 A 
ATOM     38  N   UNL A   1      44.621  26.303  28.987  1.00  0.00    -0.248 NA
ATOM     39  C   UNL A   1      45.219  24.123  28.403  1.00  0.00     0.031 C 
ATOM     40  C   UNL A   1      40.341  25.304  28.127  1.00  0.00     0.029 A 
ATOM     41  N   UNL A   1      41.747  26.892  28.840  1.00  0.00    -0.354 N 
ATOM     42  C   UNL A   1      45.997  26.155  29.105  1.00  0.00     0.074 A 
ATOM     43  C   UNL A   1      46.306  24.781  28.774  1.00  0.00     0.031 C 
ATOM     44  C   UNL A   1      39.616  26.409  28.365  1.00  0.00     0.029 A 
ATOM     45  C   UNL A   1      40.502  27.471  28.839  1.00  0.00     0.049 A 
ATOM     46  H   UNL A   1      42.563  27.370  29.116  1.00  0.00     0.167 HD
ATOM     47  C   UNL A   1      46.924  27.083  29.443  1.00  0.00     0.037 A 
ATOM     48  C   UNL A   1      40.124  28.718  29.179  1.00  0.00     0.037 A 
ATOM     49  C   UNL A   1      46.618  28.450  29.769  1.00  0.00     0.049 A 
ATOM     50  C   UNL A   1      41.168  29.720  29.594  1.00  0.00     0.074 A 
ATOM     51  C   UNL A   1      47.488  29.471  30.113  1.00  0.00     0.029 A 
ATOM     52  N   UNL A   1      45.341  28.986  29.795  1.00  0.00    -0.354 N 
ATOM     53  N   UNL A   1      42.470  29.577  29.670  1.00  0.00    -0.248 NA
ATOM     54  C   UNL A   1      40.691  31.062  29.956  1.00  0.00     0.031 C 
ATOM     55  C   UNL A   1      46.731  30.615  30.389  1.00  0.00     0.029 A 
ATOM     56  C   UNL A   1      45.395  30.319  30.169  1.00  0.00     0.049 A 
ATOM     57  H   UNL A   1      44.516  28.493  29.579  1.00  0.00     0.167 HD
ATOM     58  C   UNL A   1      42.967  30.814  30.060  1.00  0.00     0.074 A 
ATOM     59  C   UNL A   1      41.829  31.699  30.190  1.00  0.00     0.031 C 
ATOM     60  C   UNL A   1      44.251  31.186  30.290  1.00  0.00     0.037 A 
BRANCH  47  61
ATOM     61  C   UNL A   1      48.356  26.637  29.490  1.00  0.00     0.057 A 
ATOM     62  C   UNL A   1      48.909  26.045  30.633  1.00  0.00     0.134 A 
ATOM     63  C   UNL A   1      49.187  26.786  28.373  1.00  0.00     0.134 A 
ATOM     64  F   UNL A   1      48.171  25.889  31.742  1.00  0.00    -0.206 F 
ATOM     65  C   UNL A   1      50.244  25.637  30.671  1.00  0.00     0.040 A 
ATOM     66  C   UNL A   1      50.516  26.360  28.390  1.00  0.00     0.040 A 
ATOM     67  F   UNL A   1      48.719  27.343  27.245  1.00  0.00    -0.206 F 
ATOM     68  C   UNL A   1      51.050  25.789  29.544  1.00  0.00     0.006 A 
ENDBRANCH  47  61
BRANCH  48  69
ATOM     69  C   UNL A   1      38.690  29.099  29.129  1.00  0.00     0.057 A 
ATOM     70  C   UNL A   1      38.097  29.554  27.945  1.00  0.00     0.134 A 
ATOM     71  C   UNL A   1      37.884  29.038  30.271  1.00  0.00     0.134 A 
ATOM     72  F   UNL A   1      38.824  29.655  26.822  1.00  0.00    -0.206 F 
ATOM     73  C   UNL A   1      36.760  29.951  27.904  1.00  0.00     0.040 A 
ATOM     74  C   UNL A   1      36.540  29.410  30.239  1.00  0.00     0.040 A 
ATOM     75  F   UNL A   1      38.392  28.609  31.436  1.00  0.00    -0.206 F 
ATOM     76  C   UNL A   1      35.976  29.876  29.053  1.00  0.00     0.006 A 
ENDBRANCH  48  69
BRANCH  60  77
ATOM     77  C   UNL A   1      44.492  32.617  30.672  1.00  0.00     0.057 A 
ATOM     78  C   UNL A   1      44.697  33.616  29.712  1.00  0.00     0.134 A 
ATOM     79  C   UNL A   1      44.492  33.005  32.019  1.00  0.00     0.134 A 
ATOM     80  F   UNL A   1      44.719  33.308  28.406  1.00  0.00    -0.206 F 
ATOM     81  C   UNL A   1      44.925  34.943  30.077  1.00  0.00     0.040 A 
ATOM     82  C   UNL A   1      44.692  34.334  32.395  1.00  0.00     0.040 A 
ATOM     83  F   UNL A   1      44.291  32.100  32.989  1.00  0.00    -0.206 F 
ATOM     84  C   UNL A   1      44.917  35.306  31.423  1.00  0.00     0.006 A 
ENDBRANCH  60  77
ENDBRANCH  34  35
ENDBRANCH  27  29
ENDBRANCH  26  27
ENDBRANCH  25  26
ENDBRANCH  24  25
ENDBRANCH  23  24
ENDBRANCH   1  23
TORSDOF 17
ENDMDL
