MODEL 1
REMARK VINA RESULT:     -11.5      0.000      0.000
REMARK SMILES Cc1oc(C)c(S(=O)(=O)Nn2c(C)ccc2C)c1C(=O)OCCOCCOC(=O)c1ccc(-c2c3nc(c(-c4c(F)cccc4F)c4ccc([nH]4)c(-c4c(F)cccc4F)c4nc(c(-c5c(F)cccc5F)c5ccc2[nH]5)C=C4)C=C3)cc1
REMARK SMILES IDX 23 1 22 2 21 3 19 4 20 5 18 6 1 7 2 8 3 9 4 10 6 11 5 12
REMARK SMILES IDX 7 13 8 14 9 15 10 16 11 18 12 19 16 20 13 21 14 22 15 23
REMARK SMILES IDX 17 24 24 25 25 26 26 27 27 28 28 29 29 30 30 31 31 32 83 33
REMARK SMILES IDX 32 34 82 35 33 36 34 37 35 38 76 39 36 40 81 41 75 42 77 43
REMARK SMILES IDX 37 44 80 45 74 46 73 47 38 49 64 50 47 51 63 52 48 53 51 54
REMARK SMILES IDX 62 55 78 56 49 57 50 58 61 60 79 61 52 62 39 63 40 64 45 65
REMARK SMILES IDX 41 66 42 67 44 68 46 69 43 70 65 71 66 72 71 73 67 74 68 75
REMARK SMILES IDX 70 76 72 77 69 78 53 79 54 80 59 81 55 82 56 83 58 84 60 85
REMARK SMILES IDX 57 86
REMARK H PARENT 10 17 77 48 51 59
REMARK Flexibility Score: inf
ROOT
ATOM      1  C   UNL A   1      34.788  19.860  24.683  1.00  0.00     0.202 C 
ENDROOT
BRANCH   1   2
ATOM      2  C   UNL A   1      33.539  20.784  24.529  1.00  0.00     0.261 C 
BRANCH   2   3
ATOM      3  O   UNL A   1      33.280  21.625  25.673  1.00  0.00    -0.460 OA
BRANCH   3   4
ATOM      4  C   UNL A   1      33.907  22.859  25.737  1.00  0.00     0.343 C 
ATOM      5  O   UNL A   1      34.524  23.281  26.691  1.00  0.00    -0.246 OA
BRANCH   4   6
ATOM      6  C   UNL A   1      33.673  23.634  24.516  1.00  0.00     0.122 A 
ATOM      7  C   UNL A   1      36.049  23.263  23.403  1.00  0.00     0.088 C 
ATOM      8  C   UNL A   1      34.670  23.779  23.558  1.00  0.00     0.117 A 
ATOM      9  O   UNL A   1      34.249  24.543  22.525  1.00  0.00    -0.464 OA
ATOM     10  C   UNL A   1      32.968  24.898  22.774  1.00  0.00     0.122 A 
ATOM     11  C   UNL A   1      32.536  24.353  23.977  1.00  0.00     0.145 A 
ATOM     12  C   UNL A   1      32.361  25.759  21.730  1.00  0.00     0.089 C 
BRANCH  11  13
ATOM     13  S   UNL A   1      30.915  24.639  24.499  1.00  0.00     0.279 S 
ATOM     14  O   UNL A   1      30.118  24.470  23.300  1.00  0.00    -0.200 OA
ATOM     15  O   UNL A   1      30.758  23.698  25.588  1.00  0.00    -0.200 OA
BRANCH  13  16
ATOM     16  N   UNL A   1      30.466  26.104  25.077  1.00  0.00    -0.216 N 
ATOM     17  H   UNL A   1      29.691  26.126  25.683  1.00  0.00     0.202 HD
BRANCH  16  18
ATOM     18  N   UNL A   1      31.071  27.305  24.796  1.00  0.00    -0.256 N 
ATOM     19  C   UNL A   1      32.236  27.844  25.277  1.00  0.00     0.038 A 
ATOM     20  C   UNL A   1      30.445  28.182  23.944  1.00  0.00     0.038 A 
ATOM     21  C   UNL A   1      33.311  27.170  26.056  1.00  0.00     0.067 C 
ATOM     22  C   UNL A   1      32.208  29.170  24.882  1.00  0.00     0.025 A 
ATOM     23  C   UNL A   1      31.049  29.404  24.125  1.00  0.00     0.025 A 
ATOM     24  C   UNL A   1      29.256  27.865  23.113  1.00  0.00     0.067 C 
ENDBRANCH  16  18
ENDBRANCH  13  16
ENDBRANCH  11  13
ENDBRANCH   4   6
ENDBRANCH   3   4
ENDBRANCH   2   3
ENDBRANCH   1   2
BRANCH   1  25
ATOM     25  O   UNL A   1      35.905  20.322  25.445  1.00  0.00    -0.374 OA
BRANCH  25  26
ATOM     26  C   UNL A   1      37.206  20.085  24.899  1.00  0.00     0.202 C 
BRANCH  26  27
ATOM     27  C   UNL A   1      38.337  21.048  25.330  1.00  0.00     0.261 C 
BRANCH  27  28
ATOM     28  O   UNL A   1      39.603  20.454  25.785  1.00  0.00    -0.460 OA
BRANCH  28  29
ATOM     29  C   UNL A   1      40.229  21.119  26.797  1.00  0.00     0.338 C 
ATOM     30  O   UNL A   1      41.018  20.557  27.553  1.00  0.00    -0.246 OA
BRANCH  29  31
ATOM     31  C   UNL A   1      39.965  22.627  26.957  1.00  0.00     0.060 A 
ATOM     32  C   UNL A   1      40.783  23.238  27.872  1.00  0.00     0.016 A 
ATOM     33  C   UNL A   1      38.998  23.509  26.421  1.00  0.00     0.016 A 
ATOM     34  C   UNL A   1      40.638  24.619  28.202  1.00  0.00     0.010 A 
ATOM     35  C   UNL A   1      38.819  24.960  26.860  1.00  0.00     0.010 A 
ATOM     36  C   UNL A   1      39.634  25.593  27.819  1.00  0.00    -0.014 A 
BRANCH  36  37
ATOM     37  C   UNL A   1      39.646  27.118  28.644  1.00  0.00     0.031 A 
ATOM     38  C   UNL A   1      40.671  27.870  27.882  1.00  0.00     0.074 A 
ATOM     39  C   UNL A   1      39.327  27.911  29.788  1.00  0.00     0.049 A 
ATOM     40  N   UNL A   1      41.873  27.426  28.058  1.00  0.00    -0.248 NA
ATOM     41  C   UNL A   1      40.488  28.661  26.663  1.00  0.00     0.031 C 
ATOM     42  C   UNL A   1      38.588  27.562  31.019  1.00  0.00     0.029 A 
ATOM     43  N   UNL A   1      39.692  29.288  30.165  1.00  0.00    -0.354 N 
ATOM     44  C   UNL A   1      42.641  27.832  27.008  1.00  0.00     0.074 A 
ATOM     45  C   UNL A   1      41.741  28.622  26.167  1.00  0.00     0.031 C 
ATOM     46  C   UNL A   1      38.421  28.631  31.870  1.00  0.00     0.029 A 
ATOM     47  C   UNL A   1      39.106  29.843  31.394  1.00  0.00     0.049 A 
ATOM     48  H   UNL A   1      40.308  29.820  29.613  1.00  0.00     0.167 HD
ATOM     49  C   UNL A   1      43.966  27.894  27.288  1.00  0.00     0.037 A 
ATOM     50  C   UNL A   1      39.265  31.089  32.052  1.00  0.00     0.037 A 
ATOM     51  C   UNL A   1      44.221  29.193  27.853  1.00  0.00     0.049 A 
ATOM     52  C   UNL A   1      40.657  31.466  31.792  1.00  0.00     0.074 A 
ATOM     53  C   UNL A   1      43.715  30.434  27.500  1.00  0.00     0.029 A 
ATOM     54  N   UNL A   1      44.474  29.236  29.209  1.00  0.00    -0.354 N 
ATOM     55  N   UNL A   1      41.634  30.891  32.423  1.00  0.00    -0.248 NA
ATOM     56  C   UNL A   1      41.020  32.608  30.961  1.00  0.00     0.031 C 
ATOM     57  C   UNL A   1      43.099  30.876  28.689  1.00  0.00     0.029 A 
ATOM     58  C   UNL A   1      43.657  30.191  29.763  1.00  0.00     0.049 A 
ATOM     59  H   UNL A   1      45.125  28.679  29.694  1.00  0.00     0.167 HD
ATOM     60  C   UNL A   1      42.702  31.217  31.658  1.00  0.00     0.074 A 
ATOM     61  C   UNL A   1      42.345  32.455  30.984  1.00  0.00     0.031 C 
ATOM     62  C   UNL A   1      43.404  30.168  31.173  1.00  0.00     0.037 A 
BRANCH  49  63
ATOM     63  C   UNL A   1      44.484  26.590  27.896  1.00  0.00     0.057 A 
ATOM     64  C   UNL A   1      45.434  25.855  27.185  1.00  0.00     0.134 A 
ATOM     65  C   UNL A   1      43.986  25.974  29.071  1.00  0.00     0.134 A 
ATOM     66  F   UNL A   1      46.018  26.380  26.098  1.00  0.00    -0.206 F 
ATOM     67  C   UNL A   1      45.805  24.557  27.570  1.00  0.00     0.040 A 
ATOM     68  C   UNL A   1      44.279  24.653  29.414  1.00  0.00     0.040 A 
ATOM     69  F   UNL A   1      43.215  26.637  29.947  1.00  0.00    -0.206 F 
ATOM     70  C   UNL A   1      45.194  23.937  28.659  1.00  0.00     0.006 A 
ENDBRANCH  49  63
BRANCH  50  71
ATOM     71  C   UNL A   1      38.770  32.144  33.159  1.00  0.00     0.057 A 
ATOM     72  C   UNL A   1      37.934  33.282  32.832  1.00  0.00     0.134 A 
ATOM     73  C   UNL A   1      38.648  31.798  34.515  1.00  0.00     0.134 A 
ATOM     74  F   UNL A   1      37.912  33.807  31.599  1.00  0.00    -0.206 F 
ATOM     75  C   UNL A   1      37.012  33.910  33.711  1.00  0.00     0.040 A 
ATOM     76  C   UNL A   1      37.749  32.453  35.421  1.00  0.00     0.040 A 
ATOM     77  F   UNL A   1      39.322  30.749  35.000  1.00  0.00    -0.206 F 
ATOM     78  C   UNL A   1      36.902  33.482  35.016  1.00  0.00     0.006 A 
ENDBRANCH  50  71
BRANCH  62  79
ATOM     79  C   UNL A   1      43.661  29.013  32.119  1.00  0.00     0.057 A 
ATOM     80  C   UNL A   1      42.743  28.009  32.499  1.00  0.00     0.134 A 
ATOM     81  C   UNL A   1      44.896  28.975  32.771  1.00  0.00     0.134 A 
ATOM     82  F   UNL A   1      41.556  27.865  31.899  1.00  0.00    -0.206 F 
ATOM     83  C   UNL A   1      43.014  27.091  33.522  1.00  0.00     0.040 A 
ATOM     84  C   UNL A   1      45.196  28.037  33.766  1.00  0.00     0.040 A 
ATOM     85  F   UNL A   1      45.852  29.860  32.446  1.00  0.00    -0.206 F 
ATOM     86  C   UNL A   1      44.243  27.107  34.165  1.00  0.00     0.006 A 
ENDBRANCH  62  79
ENDBRANCH  36  37
ENDBRANCH  29  31
ENDBRANCH  28  29
ENDBRANCH  27  28
ENDBRANCH  26  27
ENDBRANCH  25  26
ENDBRANCH   1  25
TORSDOF 17
ENDMDL
MODEL 2
REMARK VINA RESULT:     -11.3      2.177      3.497
REMARK SMILES Cc1oc(C)c(S(=O)(=O)Nn2c(C)ccc2C)c1C(=O)OCCOCCOC(=O)c1ccc(-c2c3nc(c(-c4c(F)cccc4F)c4ccc([nH]4)c(-c4c(F)cccc4F)c4nc(c(-c5c(F)cccc5F)c5ccc2[nH]5)C=C4)C=C3)cc1
REMARK SMILES IDX 23 1 22 2 21 3 19 4 20 5 18 6 1 7 2 8 3 9 4 10 6 11 5 12
REMARK SMILES IDX 7 13 8 14 9 15 10 16 11 18 12 19 16 20 13 21 14 22 15 23
REMARK SMILES IDX 17 24 24 25 25 26 26 27 27 28 28 29 29 30 30 31 31 32 83 33
REMARK SMILES IDX 32 34 82 35 33 36 34 37 35 38 76 39 36 40 81 41 75 42 77 43
REMARK SMILES IDX 37 44 80 45 74 46 73 47 38 49 64 50 47 51 63 52 48 53 51 54
REMARK SMILES IDX 62 55 78 56 49 57 50 58 61 60 79 61 52 62 39 63 40 64 45 65
REMARK SMILES IDX 41 66 42 67 44 68 46 69 43 70 65 71 66 72 71 73 67 74 68 75
REMARK SMILES IDX 70 76 72 77 69 78 53 79 54 80 59 81 55 82 56 83 58 84 60 85
REMARK SMILES IDX 57 86
REMARK H PARENT 10 17 77 48 51 59
REMARK Flexibility Score: inf
ROOT
ATOM      1  C   UNL A   1      36.234  22.626  24.739  1.00  0.00     0.202 C 
ENDROOT
BRANCH   1   2
ATOM      2  C   UNL A   1      35.548  23.924  25.270  1.00  0.00     0.261 C 
BRANCH   2   3
ATOM      3  O   UNL A   1      34.576  24.492  24.365  1.00  0.00    -0.460 OA
BRANCH   3   4
ATOM      4  C   UNL A   1      33.739  23.630  23.673  1.00  0.00     0.343 C 
ATOM      5  O   UNL A   1      33.825  23.371  22.493  1.00  0.00    -0.246 OA
BRANCH   4   6
ATOM      6  C   UNL A   1      32.679  23.114  24.542  1.00  0.00     0.122 A 
ATOM      7  C   UNL A   1      33.129  20.532  24.150  1.00  0.00     0.088 C 
ATOM      8  C   UNL A   1      32.465  21.746  24.676  1.00  0.00     0.117 A 
ATOM      9  O   UNL A   1      31.431  21.492  25.509  1.00  0.00    -0.464 OA
ATOM     10  C   UNL A   1      30.958  22.680  25.949  1.00  0.00     0.122 A 
ATOM     11  C   UNL A   1      31.695  23.728  25.412  1.00  0.00     0.145 A 
ATOM     12  C   UNL A   1      29.800  22.571  26.870  1.00  0.00     0.089 C 
BRANCH  11  13
ATOM     13  S   UNL A   1      31.303  25.350  25.854  1.00  0.00     0.279 S 
ATOM     14  O   UNL A   1      29.904  25.490  25.499  1.00  0.00    -0.200 OA
ATOM     15  O   UNL A   1      31.684  25.404  27.250  1.00  0.00    -0.200 OA
BRANCH  13  16
ATOM     16  N   UNL A   1      32.033  26.619  25.120  1.00  0.00    -0.216 N 
ATOM     17  H   UNL A   1      32.925  26.461  24.736  1.00  0.00     0.202 HD
BRANCH  16  18
ATOM     18  N   UNL A   1      31.515  27.886  24.990  1.00  0.00    -0.256 N 
ATOM     19  C   UNL A   1      30.733  28.425  24.003  1.00  0.00     0.038 A 
ATOM     20  C   UNL A   1      31.830  28.833  25.935  1.00  0.00     0.038 A 
ATOM     21  C   UNL A   1      30.009  27.719  22.910  1.00  0.00     0.067 C 
ATOM     22  C   UNL A   1      30.753  29.790  24.235  1.00  0.00     0.025 A 
ATOM     23  C   UNL A   1      31.509  30.053  25.389  1.00  0.00     0.025 A 
ATOM     24  C   UNL A   1      32.514  28.560  27.224  1.00  0.00     0.067 C 
ENDBRANCH  16  18
ENDBRANCH  13  16
ENDBRANCH  11  13
ENDBRANCH   4   6
ENDBRANCH   3   4
ENDBRANCH   2   3
ENDBRANCH   1   2
BRANCH   1  25
ATOM     25  O   UNL A   1      36.898  21.761  25.664  1.00  0.00    -0.374 OA
BRANCH  25  26
ATOM     26  C   UNL A   1      37.733  20.740  25.112  1.00  0.00     0.202 C 
BRANCH  26  27
ATOM     27  C   UNL A   1      39.160  20.606  25.695  1.00  0.00     0.261 C 
BRANCH  27  28
ATOM     28  O   UNL A   1      39.943  21.837  25.874  1.00  0.00    -0.460 OA
BRANCH  28  29
ATOM     29  C   UNL A   1      40.405  22.056  27.137  1.00  0.00     0.338 C 
ATOM     30  O   UNL A   1      40.812  21.141  27.848  1.00  0.00    -0.246 OA
BRANCH  29  31
ATOM     31  C   UNL A   1      40.455  23.504  27.658  1.00  0.00     0.060 A 
ATOM     32  C   UNL A   1      39.246  24.148  27.621  1.00  0.00     0.016 A 
ATOM     33  C   UNL A   1      41.504  24.347  28.095  1.00  0.00     0.016 A 
ATOM     34  C   UNL A   1      39.114  25.518  28.001  1.00  0.00     0.010 A 
ATOM     35  C   UNL A   1      41.341  25.830  28.414  1.00  0.00     0.010 A 
ATOM     36  C   UNL A   1      40.110  26.512  28.353  1.00  0.00    -0.014 A 
BRANCH  36  37
ATOM     37  C   UNL A   1      39.579  28.156  28.497  1.00  0.00     0.031 A 
ATOM     38  C   UNL A   1      40.826  28.907  28.214  1.00  0.00     0.074 A 
ATOM     39  C   UNL A   1      38.622  29.115  28.949  1.00  0.00     0.049 A 
ATOM     40  N   UNL A   1      41.715  28.798  29.146  1.00  0.00    -0.248 NA
ATOM     41  C   UNL A   1      41.357  29.313  26.911  1.00  0.00     0.031 C 
ATOM     42  C   UNL A   1      37.317  28.923  29.617  1.00  0.00     0.029 A 
ATOM     43  N   UNL A   1      38.643  30.588  28.985  1.00  0.00    -0.354 N 
ATOM     44  C   UNL A   1      42.935  29.094  28.616  1.00  0.00     0.074 A 
ATOM     45  C   UNL A   1      42.665  29.433  27.217  1.00  0.00     0.031 C 
ATOM     46  C   UNL A   1      36.643  30.103  29.834  1.00  0.00     0.029 A 
ATOM     47  C   UNL A   1      37.429  31.283  29.437  1.00  0.00     0.049 A 
ATOM     48  H   UNL A   1      39.444  31.091  28.716  1.00  0.00     0.167 HD
ATOM     49  C   UNL A   1      43.843  29.517  29.529  1.00  0.00     0.037 A 
ATOM     50  C   UNL A   1      37.125  32.656  29.622  1.00  0.00     0.037 A 
ATOM     51  C   UNL A   1      43.669  30.938  29.677  1.00  0.00     0.049 A 
ATOM     52  C   UNL A   1      38.391  33.257  30.050  1.00  0.00     0.074 A 
ATOM     53  C   UNL A   1      43.416  31.909  28.721  1.00  0.00     0.029 A 
ATOM     54  N   UNL A   1      43.082  31.367  30.848  1.00  0.00    -0.354 N 
ATOM     55  N   UNL A   1      38.838  33.086  31.256  1.00  0.00    -0.248 NA
ATOM     56  C   UNL A   1      39.125  34.210  29.227  1.00  0.00     0.031 C 
ATOM     57  C   UNL A   1      42.206  32.481  29.163  1.00  0.00     0.029 A 
ATOM     58  C   UNL A   1      42.059  32.223  30.521  1.00  0.00     0.049 A 
ATOM     59  H   UNL A   1      43.348  31.105  31.760  1.00  0.00     0.167 HD
ATOM     60  C   UNL A   1      40.138  33.444  31.135  1.00  0.00     0.074 A 
ATOM     61  C   UNL A   1      40.193  34.367  30.012  1.00  0.00     0.031 C 
ATOM     62  C   UNL A   1      41.031  32.491  31.484  1.00  0.00     0.037 A 
BRANCH  49  63
ATOM     63  C   UNL A   1      43.961  28.550  30.708  1.00  0.00     0.057 A 
ATOM     64  C   UNL A   1      44.281  27.217  30.449  1.00  0.00     0.134 A 
ATOM     65  C   UNL A   1      43.638  28.852  32.055  1.00  0.00     0.134 A 
ATOM     66  F   UNL A   1      44.669  26.843  29.220  1.00  0.00    -0.206 F 
ATOM     67  C   UNL A   1      44.206  26.231  31.445  1.00  0.00     0.040 A 
ATOM     68  C   UNL A   1      43.475  27.869  33.031  1.00  0.00     0.040 A 
ATOM     69  F   UNL A   1      43.495  30.116  32.484  1.00  0.00    -0.206 F 
ATOM     70  C   UNL A   1      43.758  26.548  32.726  1.00  0.00     0.006 A 
ENDBRANCH  49  63
BRANCH  50  71
ATOM     71  C   UNL A   1      36.036  33.813  29.865  1.00  0.00     0.057 A 
ATOM     72  C   UNL A   1      35.175  34.305  28.807  1.00  0.00     0.134 A 
ATOM     73  C   UNL A   1      35.476  34.054  31.129  1.00  0.00     0.134 A 
ATOM     74  F   UNL A   1      35.522  34.211  27.516  1.00  0.00    -0.206 F 
ATOM     75  C   UNL A   1      33.878  34.855  28.988  1.00  0.00     0.040 A 
ATOM     76  C   UNL A   1      34.184  34.646  31.322  1.00  0.00     0.040 A 
ATOM     77  F   UNL A   1      36.111  33.642  32.232  1.00  0.00    -0.206 F 
ATOM     78  C   UNL A   1      33.364  35.012  30.256  1.00  0.00     0.006 A 
ENDBRANCH  50  71
BRANCH  62  79
ATOM     79  C   UNL A   1      40.733  31.691  32.734  1.00  0.00     0.057 A 
ATOM     80  C   UNL A   1      40.243  30.368  32.797  1.00  0.00     0.134 A 
ATOM     81  C   UNL A   1      40.854  32.345  33.964  1.00  0.00     0.134 A 
ATOM     82  F   UNL A   1      40.157  29.588  31.713  1.00  0.00    -0.206 F 
ATOM     83  C   UNL A   1      39.821  29.778  33.996  1.00  0.00     0.040 A 
ATOM     84  C   UNL A   1      40.477  31.752  35.175  1.00  0.00     0.040 A 
ATOM     85  F   UNL A   1      41.355  33.590  34.013  1.00  0.00    -0.206 F 
ATOM     86  C   UNL A   1      39.931  30.474  35.191  1.00  0.00     0.006 A 
ENDBRANCH  62  79
ENDBRANCH  36  37
ENDBRANCH  29  31
ENDBRANCH  28  29
ENDBRANCH  27  28
ENDBRANCH  26  27
ENDBRANCH  25  26
ENDBRANCH   1  25
TORSDOF 17
ENDMDL
MODEL 3
REMARK VINA RESULT:     -11.3      2.525      8.170
REMARK SMILES Cc1oc(C)c(S(=O)(=O)Nn2c(C)ccc2C)c1C(=O)OCCOCCOC(=O)c1ccc(-c2c3nc(c(-c4c(F)cccc4F)c4ccc([nH]4)c(-c4c(F)cccc4F)c4nc(c(-c5c(F)cccc5F)c5ccc2[nH]5)C=C4)C=C3)cc1
REMARK SMILES IDX 23 1 22 2 21 3 19 4 20 5 18 6 1 7 2 8 3 9 4 10 6 11 5 12
REMARK SMILES IDX 7 13 8 14 9 15 10 16 11 18 12 19 16 20 13 21 14 22 15 23
REMARK SMILES IDX 17 24 24 25 25 26 26 27 27 28 28 29 29 30 30 31 31 32 83 33
REMARK SMILES IDX 32 34 82 35 33 36 34 37 35 38 76 39 36 40 81 41 75 42 77 43
REMARK SMILES IDX 37 44 80 45 74 46 73 47 38 49 64 50 47 51 63 52 48 53 51 54
REMARK SMILES IDX 62 55 78 56 49 57 50 58 61 60 79 61 52 62 39 63 40 64 45 65
REMARK SMILES IDX 41 66 42 67 44 68 46 69 43 70 65 71 66 72 71 73 67 74 68 75
REMARK SMILES IDX 70 76 72 77 69 78 53 79 54 80 59 81 55 82 56 83 58 84 60 85
REMARK SMILES IDX 57 86
REMARK H PARENT 10 17 77 48 51 59
REMARK Flexibility Score: inf
ROOT
ATOM      1  C   UNL A   1      32.772  25.856  25.970  1.00  0.00     0.202 C 
ENDROOT
BRANCH   1   2
ATOM      2  C   UNL A   1      32.412  24.670  25.021  1.00  0.00     0.261 C 
BRANCH   2   3
ATOM      3  O   UNL A   1      33.445  23.668  24.908  1.00  0.00    -0.460 OA
BRANCH   3   4
ATOM      4  C   UNL A   1      33.487  22.656  25.855  1.00  0.00     0.343 C 
ATOM      5  O   UNL A   1      32.851  22.638  26.886  1.00  0.00    -0.246 OA
BRANCH   4   6
ATOM      6  C   UNL A   1      34.460  21.626  25.484  1.00  0.00     0.122 A 
ATOM      7  C   UNL A   1      32.730  19.737  24.801  1.00  0.00     0.088 C 
ATOM      8  C   UNL A   1      34.045  20.370  25.056  1.00  0.00     0.117 A 
ATOM      9  O   UNL A   1      35.102  19.572  24.782  1.00  0.00    -0.464 OA
ATOM     10  C   UNL A   1      36.225  20.289  25.007  1.00  0.00     0.122 A 
ATOM     11  C   UNL A   1      35.908  21.578  25.422  1.00  0.00     0.145 A 
ATOM     12  C   UNL A   1      37.484  19.543  24.765  1.00  0.00     0.089 C 
BRANCH  11  13
ATOM     13  S   UNL A   1      37.179  22.700  25.740  1.00  0.00     0.279 S 
ATOM     14  O   UNL A   1      37.794  22.923  24.446  1.00  0.00    -0.200 OA
ATOM     15  O   UNL A   1      36.488  23.794  26.389  1.00  0.00    -0.200 OA
BRANCH  13  16
ATOM     16  N   UNL A   1      38.432  22.294  26.714  1.00  0.00    -0.216 N 
ATOM     17  H   UNL A   1      38.267  21.593  27.385  1.00  0.00     0.202 HD
BRANCH  16  18
ATOM     18  N   UNL A   1      39.692  22.841  26.683  1.00  0.00    -0.256 N 
ATOM     19  C   UNL A   1      40.101  24.134  26.877  1.00  0.00     0.038 A 
ATOM     20  C   UNL A   1      40.759  22.036  26.362  1.00  0.00     0.038 A 
ATOM     21  C   UNL A   1      39.319  25.276  27.427  1.00  0.00     0.067 C 
ATOM     22  C   UNL A   1      41.416  24.164  26.447  1.00  0.00     0.025 A 
ATOM     23  C   UNL A   1      41.801  22.875  26.045  1.00  0.00     0.025 A 
ATOM     24  C   UNL A   1      40.711  20.556  26.254  1.00  0.00     0.067 C 
ENDBRANCH  16  18
ENDBRANCH  13  16
ENDBRANCH  11  13
ENDBRANCH   4   6
ENDBRANCH   3   4
ENDBRANCH   2   3
ENDBRANCH   1   2
BRANCH   1  25
ATOM     25  O   UNL A   1      31.774  26.364  26.859  1.00  0.00    -0.374 OA
BRANCH  25  26
ATOM     26  C   UNL A   1      31.053  27.523  26.431  1.00  0.00     0.202 C 
BRANCH  26  27
ATOM     27  C   UNL A   1      31.851  28.842  26.303  1.00  0.00     0.261 C 
BRANCH  27  28
ATOM     28  O   UNL A   1      32.331  29.472  27.542  1.00  0.00    -0.460 OA
BRANCH  28  29
ATOM     29  C   UNL A   1      33.087  30.593  27.372  1.00  0.00     0.338 C 
ATOM     30  O   UNL A   1      32.586  31.677  27.084  1.00  0.00    -0.246 OA
BRANCH  29  31
ATOM     31  C   UNL A   1      34.607  30.492  27.592  1.00  0.00     0.060 A 
ATOM     32  C   UNL A   1      35.139  29.280  27.237  1.00  0.00     0.016 A 
ATOM     33  C   UNL A   1      35.568  31.359  28.164  1.00  0.00     0.016 A 
ATOM     34  C   UNL A   1      36.521  28.981  27.435  1.00  0.00     0.010 A 
ATOM     35  C   UNL A   1      37.020  30.975  28.436  1.00  0.00     0.010 A 
ATOM     36  C   UNL A   1      37.574  29.723  28.103  1.00  0.00    -0.014 A 
BRANCH  36  37
ATOM     37  C   UNL A   1      39.077  28.904  28.374  1.00  0.00     0.031 A 
ATOM     38  C   UNL A   1      39.068  28.728  29.846  1.00  0.00     0.074 A 
ATOM     39  C   UNL A   1      40.378  28.518  27.927  1.00  0.00     0.049 A 
ATOM     40  N   UNL A   1      39.211  29.836  30.498  1.00  0.00    -0.248 NA
ATOM     41  C   UNL A   1      38.466  27.640  30.620  1.00  0.00     0.031 C 
ATOM     42  C   UNL A   1      41.045  28.732  26.626  1.00  0.00     0.029 A 
ATOM     43  N   UNL A   1      41.506  27.870  28.619  1.00  0.00    -0.354 N 
ATOM     44  C   UNL A   1      38.727  29.659  31.760  1.00  0.00     0.074 A 
ATOM     45  C   UNL A   1      38.290  28.262  31.803  1.00  0.00     0.031 C 
ATOM     46  C   UNL A   1      42.286  28.142  26.552  1.00  0.00     0.029 A 
ATOM     47  C   UNL A   1      42.692  27.523  27.824  1.00  0.00     0.049 A 
ATOM     48  H   UNL A   1      41.466  27.675  29.582  1.00  0.00     0.167 HD
ATOM     49  C   UNL A   1      39.254  30.509  32.675  1.00  0.00     0.037 A 
ATOM     50  C   UNL A   1      43.938  26.937  28.168  1.00  0.00     0.037 A 
ATOM     51  C   UNL A   1      40.471  29.913  33.160  1.00  0.00     0.049 A 
ATOM     52  C   UNL A   1      44.208  27.422  29.525  1.00  0.00     0.074 A 
ATOM     53  C   UNL A   1      40.755  28.592  33.468  1.00  0.00     0.029 A 
ATOM     54  N   UNL A   1      41.650  30.487  32.732  1.00  0.00    -0.354 N 
ATOM     55  N   UNL A   1      44.605  28.640  29.733  1.00  0.00    -0.248 NA
ATOM     56  C   UNL A   1      44.221  26.540  30.686  1.00  0.00     0.031 C 
ATOM     57  C   UNL A   1      41.842  28.295  32.621  1.00  0.00     0.029 A 
ATOM     58  C   UNL A   1      42.458  29.485  32.250  1.00  0.00     0.049 A 
ATOM     59  H   UNL A   1      41.874  31.445  32.765  1.00  0.00     0.167 HD
ATOM     60  C   UNL A   1      44.371  28.796  31.057  1.00  0.00     0.074 A 
ATOM     61  C   UNL A   1      44.422  27.461  31.630  1.00  0.00     0.031 C 
ATOM     62  C   UNL A   1      43.546  29.819  31.377  1.00  0.00     0.037 A 
BRANCH  49  63
ATOM     63  C   UNL A   1      39.145  31.968  32.228  1.00  0.00     0.057 A 
ATOM     64  C   UNL A   1      37.886  32.472  31.898  1.00  0.00     0.134 A 
ATOM     65  C   UNL A   1      40.237  32.838  31.983  1.00  0.00     0.134 A 
ATOM     66  F   UNL A   1      36.783  31.754  32.157  1.00  0.00    -0.206 F 
ATOM     67  C   UNL A   1      37.728  33.726  31.289  1.00  0.00     0.040 A 
ATOM     68  C   UNL A   1      40.101  34.046  31.298  1.00  0.00     0.040 A 
ATOM     69  F   UNL A   1      41.475  32.563  32.422  1.00  0.00    -0.206 F 
ATOM     70  C   UNL A   1      38.839  34.495  30.946  1.00  0.00     0.006 A 
ENDBRANCH  49  63
BRANCH  50  71
ATOM     71  C   UNL A   1      45.315  26.243  27.715  1.00  0.00     0.057 A 
ATOM     72  C   UNL A   1      45.456  24.807  27.583  1.00  0.00     0.134 A 
ATOM     73  C   UNL A   1      46.269  26.921  26.939  1.00  0.00     0.134 A 
ATOM     74  F   UNL A   1      44.670  23.958  28.259  1.00  0.00    -0.206 F 
ATOM     75  C   UNL A   1      46.351  24.143  26.703  1.00  0.00     0.040 A 
ATOM     76  C   UNL A   1      47.203  26.257  26.077  1.00  0.00     0.040 A 
ATOM     77  F   UNL A   1      46.277  28.259  26.906  1.00  0.00    -0.206 F 
ATOM     78  C   UNL A   1      47.223  24.872  25.925  1.00  0.00     0.006 A 
ENDBRANCH  50  71
BRANCH  62  79
ATOM     79  C   UNL A   1      43.741  31.123  30.634  1.00  0.00     0.057 A 
ATOM     80  C   UNL A   1      42.955  31.619  29.571  1.00  0.00     0.134 A 
ATOM     81  C   UNL A   1      44.871  31.884  30.950  1.00  0.00     0.134 A 
ATOM     82  F   UNL A   1      41.799  31.047  29.213  1.00  0.00    -0.206 F 
ATOM     83  C   UNL A   1      43.324  32.745  28.823  1.00  0.00     0.040 A 
ATOM     84  C   UNL A   1      45.229  33.034  30.239  1.00  0.00     0.040 A 
ATOM     85  F   UNL A   1      45.657  31.519  31.976  1.00  0.00    -0.206 F 
ATOM     86  C   UNL A   1      44.470  33.453  29.152  1.00  0.00     0.006 A 
ENDBRANCH  62  79
ENDBRANCH  36  37
ENDBRANCH  29  31
ENDBRANCH  28  29
ENDBRANCH  27  28
ENDBRANCH  26  27
ENDBRANCH  25  26
ENDBRANCH   1  25
TORSDOF 17
ENDMDL
