MODEL 1
REMARK VINA RESULT:     -12.4      0.000      0.000
REMARK SMILES Cc1nc(-c2ccccc2Cl)nc2sc(C(=O)OCCOCCOC(=O)c3ccc(-c4c5nc(c(-c6c(F)cccc6F)c6ccc([nH]6)c(-c6c(F)cccc6F)c6nc(c(-c7c(F)cccc7F)c7ccc4[nH]7)C=C6)C=C5)cc3)c(N)c12
REMARK SMILES IDX 22 1 21 2 20 3 19 4 18 5 16 6 17 7 15 8 1 9 2 10 3 11 83 12
REMARK SMILES IDX 4 13 13 14 81 15 12 16 14 17 5 18 6 19 10 20 7 21 9 22 11 23
REMARK SMILES IDX 8 24 82 25 23 28 24 29 25 30 26 31 27 32 28 33 80 34 29 35
REMARK SMILES IDX 79 36 30 37 31 38 32 39 73 40 33 41 78 42 72 43 74 44 34 45
REMARK SMILES IDX 77 46 71 47 70 48 35 50 61 51 44 52 60 53 45 54 48 55 59 56
REMARK SMILES IDX 75 57 46 58 47 59 58 61 76 62 49 63 36 64 37 65 42 66 38 67
REMARK SMILES IDX 39 68 41 69 43 70 40 71 62 72 63 73 68 74 64 75 65 76 67 77
REMARK SMILES IDX 69 78 66 79 50 80 51 81 56 82 52 83 53 84 55 85 57 86 54 87
REMARK H PARENT 82 26 82 27 74 49 48 60
REMARK Flexibility Score: inf
ROOT
ATOM      1  C   UNL A   1      42.377  18.993  26.315  1.00  0.00     0.202 C 
ENDROOT
BRANCH   1   2
ATOM      2  O   UNL A   1      42.332  20.356  26.728  1.00  0.00    -0.374 OA
BRANCH   2   3
ATOM      3  C   UNL A   1      41.416  21.246  26.090  1.00  0.00     0.202 C 
BRANCH   3   4
ATOM      4  C   UNL A   1      40.011  21.324  26.689  1.00  0.00     0.261 C 
BRANCH   4   5
ATOM      5  O   UNL A   1      39.044  21.742  25.714  1.00  0.00    -0.459 OA
BRANCH   5   6
ATOM      6  C   UNL A   1      38.207  20.762  25.247  1.00  0.00     0.350 C 
ATOM      7  O   UNL A   1      38.548  19.624  25.007  1.00  0.00    -0.245 OA
BRANCH   6   8
ATOM      8  C   UNL A   1      36.831  21.235  25.226  1.00  0.00     0.138 A 
ATOM      9  C   UNL A   1      32.514  19.750  24.195  1.00  0.00     0.067 C 
ATOM     10  C   UNL A   1      33.129  21.053  24.607  1.00  0.00     0.052 A 
ATOM     11  N   UNL A   1      32.280  22.122  24.551  1.00  0.00    -0.233 NA
ATOM     12  C   UNL A   1      34.490  21.287  24.919  1.00  0.00     0.057 A 
ATOM     13  C   UNL A   1      32.733  23.354  24.833  1.00  0.00     0.162 A 
ATOM     14  C   UNL A   1      34.813  22.614  25.170  1.00  0.00     0.130 A 
ATOM     15  C   UNL A   1      35.684  20.480  25.024  1.00  0.00     0.069 A 
ATOM     16  N   UNL A   1      33.989  23.666  25.155  1.00  0.00    -0.217 NA
ATOM     17  S   UNL A   1      36.457  22.876  25.485  1.00  0.00    -0.106 S 
BRANCH  13  18
ATOM     18  C   UNL A   1      31.840  24.495  24.631  1.00  0.00     0.038 A 
ATOM     19  C   UNL A   1      30.941  24.836  25.666  1.00  0.00     0.013 A 
ATOM     20  C   UNL A   1      31.783  25.242  23.445  1.00  0.00     0.052 A 
ATOM     21  C   UNL A   1      30.014  25.868  25.523  1.00  0.00     0.001 A 
ATOM     22  C   UNL A   1      30.850  26.278  23.300  1.00  0.00     0.021 A 
ATOM     23  Cl  UNL A   1      32.792  24.895  22.081  1.00  0.00    -0.084 Cl
ATOM     24  C   UNL A   1      29.966  26.588  24.335  1.00  0.00     0.002 A 
ENDBRANCH  13  18
BRANCH  15  25
ATOM     25  N   UNL A   1      35.734  19.132  24.930  1.00  0.00    -0.397 N 
ATOM     26  H   UNL A   1      35.744  18.583  25.746  1.00  0.00     0.156 HD
ATOM     27  H   UNL A   1      35.761  18.701  24.045  1.00  0.00     0.156 HD
ENDBRANCH  15  25
ENDBRANCH   6   8
ENDBRANCH   5   6
ENDBRANCH   4   5
ENDBRANCH   3   4
ENDBRANCH   2   3
ENDBRANCH   1   2
BRANCH   1  28
ATOM     28  C   UNL A   1      43.566  18.549  25.480  1.00  0.00     0.261 C 
BRANCH  28  29
ATOM     29  O   UNL A   1      43.753  19.368  24.334  1.00  0.00    -0.460 OA
BRANCH  29  30
ATOM     30  C   UNL A   1      45.028  19.777  24.158  1.00  0.00     0.338 C 
ATOM     31  O   UNL A   1      45.998  19.082  23.906  1.00  0.00    -0.246 OA
BRANCH  30  32
ATOM     32  C   UNL A   1      45.111  21.192  24.528  1.00  0.00     0.060 A 
ATOM     33  C   UNL A   1      45.681  21.457  25.771  1.00  0.00     0.016 A 
ATOM     34  C   UNL A   1      44.415  22.178  23.805  1.00  0.00     0.016 A 
ATOM     35  C   UNL A   1      45.384  22.653  26.377  1.00  0.00     0.010 A 
ATOM     36  C   UNL A   1      44.123  23.379  24.413  1.00  0.00     0.010 A 
ATOM     37  C   UNL A   1      44.548  23.571  25.721  1.00  0.00    -0.014 A 
BRANCH  37  38
ATOM     38  C   UNL A   1      44.278  24.805  26.428  1.00  0.00     0.031 A 
ATOM     39  C   UNL A   1      45.389  25.763  26.285  1.00  0.00     0.074 A 
ATOM     40  C   UNL A   1      43.165  25.053  27.140  1.00  0.00     0.049 A 
ATOM     41  N   UNL A   1      46.288  26.032  27.168  1.00  0.00    -0.248 NA
ATOM     42  C   UNL A   1      45.658  26.327  24.953  1.00  0.00     0.031 C 
ATOM     43  C   UNL A   1      41.901  24.314  27.109  1.00  0.00     0.029 A 
ATOM     44  N   UNL A   1      42.903  26.083  27.999  1.00  0.00    -0.354 N 
ATOM     45  C   UNL A   1      47.075  27.017  26.590  1.00  0.00     0.074 A 
ATOM     46  C   UNL A   1      46.786  27.002  25.182  1.00  0.00     0.031 C 
ATOM     47  C   UNL A   1      40.943  25.048  27.721  1.00  0.00     0.029 A 
ATOM     48  C   UNL A   1      41.560  26.217  28.327  1.00  0.00     0.049 A 
ATOM     49  H   UNL A   1      43.604  26.677  28.352  1.00  0.00     0.167 HD
ATOM     50  C   UNL A   1      47.610  27.984  27.381  1.00  0.00     0.037 A 
ATOM     51  C   UNL A   1      41.003  27.243  29.015  1.00  0.00     0.037 A 
ATOM     52  C   UNL A   1      47.588  27.595  28.768  1.00  0.00     0.049 A 
ATOM     53  C   UNL A   1      42.062  27.872  29.837  1.00  0.00     0.074 A 
ATOM     54  C   UNL A   1      48.336  26.808  29.616  1.00  0.00     0.029 A 
ATOM     55  N   UNL A   1      46.379  27.802  29.371  1.00  0.00    -0.354 N 
ATOM     56  N   UNL A   1      42.633  27.285  30.851  1.00  0.00    -0.248 NA
ATOM     57  C   UNL A   1      42.731  29.075  29.348  1.00  0.00     0.031 C 
ATOM     58  C   UNL A   1      47.499  26.502  30.733  1.00  0.00     0.029 A 
ATOM     59  C   UNL A   1      46.271  27.129  30.555  1.00  0.00     0.049 A 
ATOM     60  H   UNL A   1      45.670  28.371  28.996  1.00  0.00     0.167 HD
ATOM     61  C   UNL A   1      43.917  27.785  30.846  1.00  0.00     0.074 A 
ATOM     62  C   UNL A   1      43.869  28.995  30.038  1.00  0.00     0.031 C 
ATOM     63  C   UNL A   1      44.975  26.995  31.179  1.00  0.00     0.037 A 
BRANCH  50  64
ATOM     64  C   UNL A   1      47.625  29.446  26.999  1.00  0.00     0.057 A 
ATOM     65  C   UNL A   1      48.803  30.186  27.196  1.00  0.00     0.134 A 
ATOM     66  C   UNL A   1      46.468  30.219  26.756  1.00  0.00     0.134 A 
ATOM     67  F   UNL A   1      49.962  29.570  27.475  1.00  0.00    -0.206 F 
ATOM     68  C   UNL A   1      48.818  31.587  27.193  1.00  0.00     0.040 A 
ATOM     69  C   UNL A   1      46.482  31.613  26.699  1.00  0.00     0.040 A 
ATOM     70  F   UNL A   1      45.246  29.679  26.670  1.00  0.00    -0.206 F 
ATOM     71  C   UNL A   1      47.655  32.305  26.944  1.00  0.00     0.006 A 
ENDBRANCH  50  64
BRANCH  51  72
ATOM     72  C   UNL A   1      39.697  27.910  28.806  1.00  0.00     0.057 A 
ATOM     73  C   UNL A   1      38.768  28.002  29.854  1.00  0.00     0.134 A 
ATOM     74  C   UNL A   1      39.472  28.749  27.704  1.00  0.00     0.134 A 
ATOM     75  F   UNL A   1      38.911  27.254  30.960  1.00  0.00    -0.206 F 
ATOM     76  C   UNL A   1      37.716  28.925  29.839  1.00  0.00     0.040 A 
ATOM     77  C   UNL A   1      38.420  29.671  27.673  1.00  0.00     0.040 A 
ATOM     78  F   UNL A   1      40.321  28.776  26.667  1.00  0.00    -0.206 F 
ATOM     79  C   UNL A   1      37.553  29.778  28.754  1.00  0.00     0.006 A 
ENDBRANCH  51  72
BRANCH  63  80
ATOM     80  C   UNL A   1      44.732  25.847  32.101  1.00  0.00     0.057 A 
ATOM     81  C   UNL A   1      44.603  25.951  33.491  1.00  0.00     0.134 A 
ATOM     82  C   UNL A   1      44.552  24.581  31.531  1.00  0.00     0.134 A 
ATOM     83  F   UNL A   1      44.704  27.136  34.111  1.00  0.00    -0.206 F 
ATOM     84  C   UNL A   1      44.322  24.831  34.281  1.00  0.00     0.040 A 
ATOM     85  C   UNL A   1      44.243  23.463  32.304  1.00  0.00     0.040 A 
ATOM     86  F   UNL A   1      44.640  24.421  30.201  1.00  0.00    -0.206 F 
ATOM     87  C   UNL A   1      44.132  23.585  33.686  1.00  0.00     0.006 A 
ENDBRANCH  63  80
ENDBRANCH  37  38
ENDBRANCH  30  32
ENDBRANCH  29  30
ENDBRANCH  28  29
ENDBRANCH   1  28
TORSDOF 16
ENDMDL
MODEL 2
REMARK VINA RESULT:     -11.9      5.796     10.831
REMARK SMILES Cc1nc(-c2ccccc2Cl)nc2sc(C(=O)OCCOCCOC(=O)c3ccc(-c4c5nc(c(-c6c(F)cccc6F)c6ccc([nH]6)c(-c6c(F)cccc6F)c6nc(c(-c7c(F)cccc7F)c7ccc4[nH]7)C=C6)C=C5)cc3)c(N)c12
REMARK SMILES IDX 22 1 21 2 20 3 19 4 18 5 16 6 17 7 15 8 1 9 2 10 3 11 83 12
REMARK SMILES IDX 4 13 13 14 81 15 12 16 14 17 5 18 6 19 10 20 7 21 9 22 11 23
REMARK SMILES IDX 8 24 82 25 23 28 24 29 25 30 26 31 27 32 28 33 80 34 29 35
REMARK SMILES IDX 79 36 30 37 31 38 32 39 73 40 33 41 78 42 72 43 74 44 34 45
REMARK SMILES IDX 77 46 71 47 70 48 35 50 61 51 44 52 60 53 45 54 48 55 59 56
REMARK SMILES IDX 75 57 46 58 47 59 58 61 76 62 49 63 36 64 37 65 42 66 38 67
REMARK SMILES IDX 39 68 41 69 43 70 40 71 62 72 63 73 68 74 64 75 65 76 67 77
REMARK SMILES IDX 69 78 66 79 50 80 51 81 56 82 52 83 53 84 55 85 57 86 54 87
REMARK H PARENT 82 26 82 27 74 49 48 60
REMARK Flexibility Score: inf
ROOT
ATOM      1  C   UNL A   1      33.277  35.531  28.847  1.00  0.00     0.202 C 
ENDROOT
BRANCH   1   2
ATOM      2  O   UNL A   1      34.587  34.981  28.760  1.00  0.00    -0.374 OA
BRANCH   2   3
ATOM      3  C   UNL A   1      34.777  33.737  28.086  1.00  0.00     0.202 C 
BRANCH   3   4
ATOM      4  C   UNL A   1      33.775  32.627  28.406  1.00  0.00     0.261 C 
BRANCH   4   5
ATOM      5  O   UNL A   1      33.844  31.561  27.447  1.00  0.00    -0.459 OA
BRANCH   5   6
ATOM      6  C   UNL A   1      32.647  31.168  26.906  1.00  0.00     0.350 C 
ATOM      7  O   UNL A   1      31.648  31.855  26.876  1.00  0.00    -0.245 OA
BRANCH   6   8
ATOM      8  C   UNL A   1      32.787  29.882  26.241  1.00  0.00     0.138 A 
ATOM      9  C   UNL A   1      30.527  27.112  23.220  1.00  0.00     0.067 C 
ATOM     10  C   UNL A   1      31.775  27.006  24.044  1.00  0.00     0.052 A 
ATOM     11  N   UNL A   1      32.349  25.766  24.044  1.00  0.00    -0.233 NA
ATOM     12  C   UNL A   1      32.321  28.003  24.887  1.00  0.00     0.057 A 
ATOM     13  C   UNL A   1      33.435  25.530  24.799  1.00  0.00     0.162 A 
ATOM     14  C   UNL A   1      33.431  27.607  25.620  1.00  0.00     0.130 A 
ATOM     15  C   UNL A   1      31.998  29.372  25.219  1.00  0.00     0.069 A 
ATOM     16  N   UNL A   1      34.028  26.411  25.606  1.00  0.00    -0.217 NA
ATOM     17  S   UNL A   1      34.031  28.800  26.664  1.00  0.00    -0.106 S 
BRANCH  13  18
ATOM     18  C   UNL A   1      33.945  24.162  24.888  1.00  0.00     0.038 A 
ATOM     19  C   UNL A   1      34.969  23.768  23.997  1.00  0.00     0.013 A 
ATOM     20  C   UNL A   1      33.440  23.195  25.770  1.00  0.00     0.052 A 
ATOM     21  C   UNL A   1      35.461  22.463  23.976  1.00  0.00     0.001 A 
ATOM     22  C   UNL A   1      33.934  21.884  25.748  1.00  0.00     0.021 A 
ATOM     23  Cl  UNL A   1      32.152  23.533  26.876  1.00  0.00    -0.084 Cl
ATOM     24  C   UNL A   1      34.939  21.518  24.850  1.00  0.00     0.002 A 
ENDBRANCH  13  18
BRANCH  15  25
ATOM     25  N   UNL A   1      31.032  30.117  24.635  1.00  0.00    -0.397 N 
ATOM     26  H   UNL A   1      30.597  30.841  25.139  1.00  0.00     0.156 HD
ATOM     27  H   UNL A   1      30.764  29.934  23.705  1.00  0.00     0.156 HD
ENDBRANCH  15  25
ENDBRANCH   6   8
ENDBRANCH   5   6
ENDBRANCH   4   5
ENDBRANCH   3   4
ENDBRANCH   2   3
ENDBRANCH   1   2
BRANCH   1  28
ATOM     28  C   UNL A   1      32.902  36.260  30.127  1.00  0.00     0.261 C 
BRANCH  28  29
ATOM     29  O   UNL A   1      32.568  35.362  31.177  1.00  0.00    -0.460 OA
BRANCH  29  30
ATOM     30  C   UNL A   1      33.107  35.696  32.370  1.00  0.00     0.338 C 
ATOM     31  O   UNL A   1      32.870  36.689  33.035  1.00  0.00    -0.246 OA
BRANCH  30  32
ATOM     32  C   UNL A   1      34.201  34.763  32.655  1.00  0.00     0.060 A 
ATOM     33  C   UNL A   1      35.471  35.330  32.730  1.00  0.00     0.016 A 
ATOM     34  C   UNL A   1      34.011  33.371  32.580  1.00  0.00     0.016 A 
ATOM     35  C   UNL A   1      36.556  34.512  32.530  1.00  0.00     0.010 A 
ATOM     36  C   UNL A   1      35.102  32.552  32.385  1.00  0.00     0.010 A 
ATOM     37  C   UNL A   1      36.355  33.143  32.287  1.00  0.00    -0.014 A 
BRANCH  37  38
ATOM     38  C   UNL A   1      37.548  32.351  32.081  1.00  0.00     0.031 A 
ATOM     39  C   UNL A   1      38.351  32.254  33.313  1.00  0.00     0.074 A 
ATOM     40  C   UNL A   1      37.899  31.781  30.914  1.00  0.00     0.049 A 
ATOM     41  N   UNL A   1      39.429  32.908  33.580  1.00  0.00    -0.248 NA
ATOM     42  C   UNL A   1      37.791  31.515  34.456  1.00  0.00     0.031 C 
ATOM     43  C   UNL A   1      37.056  31.566  29.736  1.00  0.00     0.029 A 
ATOM     44  N   UNL A   1      39.083  31.197  30.562  1.00  0.00    -0.354 N 
ATOM     45  C   UNL A   1      39.833  32.443  34.823  1.00  0.00     0.074 A 
ATOM     46  C   UNL A   1      38.701  31.769  35.399  1.00  0.00     0.031 C 
ATOM     47  C   UNL A   1      37.674  30.699  28.901  1.00  0.00     0.029 A 
ATOM     48  C   UNL A   1      39.013  30.435  29.403  1.00  0.00     0.049 A 
ATOM     49  H   UNL A   1      39.910  31.305  31.085  1.00  0.00     0.167 HD
ATOM     50  C   UNL A   1      41.161  32.344  35.091  1.00  0.00     0.037 A 
ATOM     51  C   UNL A   1      39.982  29.618  28.923  1.00  0.00     0.037 A 
ATOM     52  C   UNL A   1      41.941  33.122  34.161  1.00  0.00     0.049 A 
ATOM     53  C   UNL A   1      41.281  30.082  29.462  1.00  0.00     0.074 A 
ATOM     54  C   UNL A   1      42.306  34.439  33.991  1.00  0.00     0.029 A 
ATOM     55  N   UNL A   1      42.158  32.485  32.972  1.00  0.00    -0.354 N 
ATOM     56  N   UNL A   1      41.839  31.212  29.128  1.00  0.00    -0.248 NA
ATOM     57  C   UNL A   1      41.848  29.423  30.636  1.00  0.00     0.031 C 
ATOM     58  C   UNL A   1      42.699  34.580  32.625  1.00  0.00     0.029 A 
ATOM     59  C   UNL A   1      42.590  33.343  31.999  1.00  0.00     0.049 A 
ATOM     60  H   UNL A   1      42.020  31.521  32.832  1.00  0.00     0.167 HD
ATOM     61  C   UNL A   1      42.515  31.599  30.265  1.00  0.00     0.074 A 
ATOM     62  C   UNL A   1      42.642  30.399  31.079  1.00  0.00     0.031 C 
ATOM     63  C   UNL A   1      42.589  32.911  30.621  1.00  0.00     0.037 A 
BRANCH  50  64
ATOM     64  C   UNL A   1      41.774  31.154  35.793  1.00  0.00     0.057 A 
ATOM     65  C   UNL A   1      42.752  31.378  36.777  1.00  0.00     0.134 A 
ATOM     66  C   UNL A   1      41.685  29.823  35.330  1.00  0.00     0.134 A 
ATOM     67  F   UNL A   1      42.962  32.608  37.269  1.00  0.00    -0.206 F 
ATOM     68  C   UNL A   1      43.603  30.363  37.233  1.00  0.00     0.040 A 
ATOM     69  C   UNL A   1      42.493  28.793  35.816  1.00  0.00     0.040 A 
ATOM     70  F   UNL A   1      40.895  29.465  34.312  1.00  0.00    -0.206 F 
ATOM     71  C   UNL A   1      43.475  29.065  36.752  1.00  0.00     0.006 A 
ENDBRANCH  50  64
BRANCH  51  72
ATOM     72  C   UNL A   1      39.852  28.296  28.270  1.00  0.00     0.057 A 
ATOM     73  C   UNL A   1      40.453  28.053  27.025  1.00  0.00     0.134 A 
ATOM     74  C   UNL A   1      39.434  27.163  28.986  1.00  0.00     0.134 A 
ATOM     75  F   UNL A   1      40.904  29.072  26.276  1.00  0.00    -0.206 F 
ATOM     76  C   UNL A   1      40.690  26.759  26.550  1.00  0.00     0.040 A 
ATOM     77  C   UNL A   1      39.658  25.863  28.519  1.00  0.00     0.040 A 
ATOM     78  F   UNL A   1      38.889  27.275  30.205  1.00  0.00    -0.206 F 
ATOM     79  C   UNL A   1      40.311  25.657  27.309  1.00  0.00     0.006 A 
ENDBRANCH  51  72
BRANCH  63  80
ATOM     80  C   UNL A   1      42.499  33.938  29.542  1.00  0.00     0.057 A 
ATOM     81  C   UNL A   1      41.370  34.723  29.278  1.00  0.00     0.134 A 
ATOM     82  C   UNL A   1      43.646  34.186  28.780  1.00  0.00     0.134 A 
ATOM     83  F   UNL A   1      40.247  34.589  30.000  1.00  0.00    -0.206 F 
ATOM     84  C   UNL A   1      41.383  35.704  28.281  1.00  0.00     0.040 A 
ATOM     85  C   UNL A   1      43.681  35.179  27.803  1.00  0.00     0.040 A 
ATOM     86  F   UNL A   1      44.768  33.482  29.001  1.00  0.00    -0.206 F 
ATOM     87  C   UNL A   1      42.544  35.939  27.547  1.00  0.00     0.006 A 
ENDBRANCH  63  80
ENDBRANCH  37  38
ENDBRANCH  30  32
ENDBRANCH  29  30
ENDBRANCH  28  29
ENDBRANCH   1  28
TORSDOF 16
ENDMDL
MODEL 3
REMARK VINA RESULT:     -11.6      3.749      7.866
REMARK SMILES Cc1nc(-c2ccccc2Cl)nc2sc(C(=O)OCCOCCOC(=O)c3ccc(-c4c5nc(c(-c6c(F)cccc6F)c6ccc([nH]6)c(-c6c(F)cccc6F)c6nc(c(-c7c(F)cccc7F)c7ccc4[nH]7)C=C6)C=C5)cc3)c(N)c12
REMARK SMILES IDX 22 1 21 2 20 3 19 4 18 5 16 6 17 7 15 8 1 9 2 10 3 11 83 12
REMARK SMILES IDX 4 13 13 14 81 15 12 16 14 17 5 18 6 19 10 20 7 21 9 22 11 23
REMARK SMILES IDX 8 24 82 25 23 28 24 29 25 30 26 31 27 32 28 33 80 34 29 35
REMARK SMILES IDX 79 36 30 37 31 38 32 39 73 40 33 41 78 42 72 43 74 44 34 45
REMARK SMILES IDX 77 46 71 47 70 48 35 50 61 51 44 52 60 53 45 54 48 55 59 56
REMARK SMILES IDX 75 57 46 58 47 59 58 61 76 62 49 63 36 64 37 65 42 66 38 67
REMARK SMILES IDX 39 68 41 69 43 70 40 71 62 72 63 73 68 74 64 75 65 76 67 77
REMARK SMILES IDX 69 78 66 79 50 80 51 81 56 82 52 83 53 84 55 85 57 86 54 87
REMARK H PARENT 82 26 82 27 74 49 48 60
REMARK Flexibility Score: inf
ROOT
ATOM      1  C   UNL A   1      33.899  31.417  27.671  1.00  0.00     0.202 C 
ENDROOT
BRANCH   1   2
ATOM      2  O   UNL A   1      33.596  30.349  26.780  1.00  0.00    -0.374 OA
BRANCH   2   3
ATOM      3  C   UNL A   1      32.234  30.092  26.439  1.00  0.00     0.202 C 
BRANCH   3   4
ATOM      4  C   UNL A   1      31.960  29.662  24.998  1.00  0.00     0.261 C 
BRANCH   4   5
ATOM      5  O   UNL A   1      31.011  28.586  24.939  1.00  0.00    -0.459 OA
BRANCH   5   6
ATOM      6  C   UNL A   1      31.182  27.696  23.909  1.00  0.00     0.350 C 
ATOM      7  O   UNL A   1      30.786  27.872  22.777  1.00  0.00    -0.245 OA
BRANCH   6   8
ATOM      8  C   UNL A   1      32.032  26.592  24.327  1.00  0.00     0.138 A 
ATOM      9  C   UNL A   1      32.045  22.955  27.273  1.00  0.00     0.067 C 
ATOM     10  C   UNL A   1      33.033  23.575  26.331  1.00  0.00     0.052 A 
ATOM     11  N   UNL A   1      34.298  23.068  26.424  1.00  0.00    -0.233 NA
ATOM     12  C   UNL A   1      32.810  24.681  25.476  1.00  0.00     0.057 A 
ATOM     13  C   UNL A   1      35.286  23.589  25.678  1.00  0.00     0.162 A 
ATOM     14  C   UNL A   1      33.929  25.120  24.782  1.00  0.00     0.130 A 
ATOM     15  C   UNL A   1      31.684  25.523  25.140  1.00  0.00     0.069 A 
ATOM     16  N   UNL A   1      35.165  24.613  24.833  1.00  0.00    -0.217 NA
ATOM     17  S   UNL A   1      33.650  26.479  23.809  1.00  0.00    -0.106 S 
BRANCH  13  18
ATOM     18  C   UNL A   1      36.655  23.121  25.898  1.00  0.00     0.038 A 
ATOM     19  C   UNL A   1      37.602  24.033  26.413  1.00  0.00     0.013 A 
ATOM     20  C   UNL A   1      37.100  21.830  25.576  1.00  0.00     0.052 A 
ATOM     21  C   UNL A   1      38.940  23.681  26.588  1.00  0.00     0.001 A 
ATOM     22  C   UNL A   1      38.445  21.476  25.751  1.00  0.00     0.021 A 
ATOM     23  Cl  UNL A   1      36.054  20.633  24.890  1.00  0.00    -0.084 Cl
ATOM     24  C   UNL A   1      39.363  22.401  26.252  1.00  0.00     0.002 A 
ENDBRANCH  13  18
BRANCH  15  25
ATOM     25  N   UNL A   1      30.412  25.339  25.558  1.00  0.00    -0.397 N 
ATOM     26  H   UNL A   1      29.676  25.330  24.904  1.00  0.00     0.156 HD
ATOM     27  H   UNL A   1      30.221  25.214  26.516  1.00  0.00     0.156 HD
ENDBRANCH  15  25
ENDBRANCH   6   8
ENDBRANCH   5   6
ENDBRANCH   4   5
ENDBRANCH   3   4
ENDBRANCH   2   3
ENDBRANCH   1   2
BRANCH   1  28
ATOM     28  C   UNL A   1      35.310  31.491  28.230  1.00  0.00     0.261 C 
BRANCH  28  29
ATOM     29  O   UNL A   1      36.093  30.365  27.858  1.00  0.00    -0.460 OA
BRANCH  29  30
ATOM     30  C   UNL A   1      36.622  29.699  28.908  1.00  0.00     0.338 C 
ATOM     31  O   UNL A   1      36.278  29.769  30.075  1.00  0.00    -0.246 OA
BRANCH  30  32
ATOM     32  C   UNL A   1      37.835  29.016  28.453  1.00  0.00     0.060 A 
ATOM     33  C   UNL A   1      38.393  28.115  29.357  1.00  0.00     0.016 A 
ATOM     34  C   UNL A   1      38.531  29.447  27.309  1.00  0.00     0.016 A 
ATOM     35  C   UNL A   1      39.722  27.799  29.219  1.00  0.00     0.010 A 
ATOM     36  C   UNL A   1      39.863  29.124  27.169  1.00  0.00     0.010 A 
ATOM     37  C   UNL A   1      40.461  28.366  28.167  1.00  0.00    -0.014 A 
BRANCH  37  38
ATOM     38  C   UNL A   1      41.856  27.988  28.093  1.00  0.00     0.031 A 
ATOM     39  C   UNL A   1      42.031  26.701  27.397  1.00  0.00     0.074 A 
ATOM     40  C   UNL A   1      42.873  28.706  28.603  1.00  0.00     0.049 A 
ATOM     41  N   UNL A   1      42.262  25.558  27.947  1.00  0.00    -0.248 NA
ATOM     42  C   UNL A   1      41.708  26.632  25.964  1.00  0.00     0.031 C 
ATOM     43  C   UNL A   1      42.850  30.104  29.039  1.00  0.00     0.029 A 
ATOM     44  N   UNL A   1      44.182  28.350  28.767  1.00  0.00    -0.354 N 
ATOM     45  C   UNL A   1      42.392  24.671  26.888  1.00  0.00     0.074 A 
ATOM     46  C   UNL A   1      41.837  25.323  25.733  1.00  0.00     0.031 C 
ATOM     47  C   UNL A   1      44.121  30.542  29.192  1.00  0.00     0.029 A 
ATOM     48  C   UNL A   1      45.029  29.418  29.028  1.00  0.00     0.049 A 
ATOM     49  H   UNL A   1      44.496  27.419  28.704  1.00  0.00     0.167 HD
ATOM     50  C   UNL A   1      43.271  23.641  26.994  1.00  0.00     0.037 A 
ATOM     51  C   UNL A   1      46.384  29.376  29.066  1.00  0.00     0.037 A 
ATOM     52  C   UNL A   1      43.645  23.412  28.367  1.00  0.00     0.049 A 
ATOM     53  C   UNL A   1      46.790  27.982  29.358  1.00  0.00     0.074 A 
ATOM     54  C   UNL A   1      43.121  22.779  29.472  1.00  0.00     0.029 A 
ATOM     55  N   UNL A   1      44.621  24.259  28.811  1.00  0.00    -0.354 N 
ATOM     56  N   UNL A   1      46.576  27.393  30.501  1.00  0.00    -0.248 NA
ATOM     57  C   UNL A   1      47.180  27.102  28.260  1.00  0.00     0.031 C 
ATOM     58  C   UNL A   1      43.788  23.327  30.611  1.00  0.00     0.029 A 
ATOM     59  C   UNL A   1      44.720  24.263  30.174  1.00  0.00     0.049 A 
ATOM     60  H   UNL A   1      45.187  24.804  28.218  1.00  0.00     0.167 HD
ATOM     61  C   UNL A   1      46.391  26.070  30.165  1.00  0.00     0.074 A 
ATOM     62  C   UNL A   1      46.949  25.918  28.829  1.00  0.00     0.031 C 
ATOM     63  C   UNL A   1      45.483  25.300  30.828  1.00  0.00     0.037 A 
BRANCH  50  64
ATOM     64  C   UNL A   1      44.197  23.228  25.872  1.00  0.00     0.057 A 
ATOM     65  C   UNL A   1      44.228  21.879  25.481  1.00  0.00     0.134 A 
ATOM     66  C   UNL A   1      45.266  24.015  25.391  1.00  0.00     0.134 A 
ATOM     67  F   UNL A   1      43.291  21.019  25.906  1.00  0.00    -0.206 F 
ATOM     68  C   UNL A   1      45.267  21.347  24.707  1.00  0.00     0.040 A 
ATOM     69  C   UNL A   1      46.278  23.506  24.575  1.00  0.00     0.040 A 
ATOM     70  F   UNL A   1      45.453  25.285  25.768  1.00  0.00    -0.206 F 
ATOM     71  C   UNL A   1      46.297  22.161  24.251  1.00  0.00     0.006 A 
ENDBRANCH  50  64
BRANCH  51  72
ATOM     72  C   UNL A   1      47.365  30.375  28.585  1.00  0.00     0.057 A 
ATOM     73  C   UNL A   1      47.307  30.855  27.267  1.00  0.00     0.134 A 
ATOM     74  C   UNL A   1      48.152  31.118  29.480  1.00  0.00     0.134 A 
ATOM     75  F   UNL A   1      46.563  30.224  26.345  1.00  0.00    -0.206 F 
ATOM     76  C   UNL A   1      47.936  32.042  26.877  1.00  0.00     0.040 A 
ATOM     77  C   UNL A   1      48.793  32.303  29.100  1.00  0.00     0.040 A 
ATOM     78  F   UNL A   1      48.243  30.776  30.772  1.00  0.00    -0.206 F 
ATOM     79  C   UNL A   1      48.665  32.781  27.802  1.00  0.00     0.006 A 
ENDBRANCH  51  72
BRANCH  63  80
ATOM     80  C   UNL A   1      45.154  25.660  32.238  1.00  0.00     0.057 A 
ATOM     81  C   UNL A   1      45.902  25.274  33.357  1.00  0.00     0.134 A 
ATOM     82  C   UNL A   1      44.058  26.502  32.456  1.00  0.00     0.134 A 
ATOM     83  F   UNL A   1      47.001  24.516  33.229  1.00  0.00    -0.206 F 
ATOM     84  C   UNL A   1      45.556  25.699  34.644  1.00  0.00     0.040 A 
ATOM     85  C   UNL A   1      43.720  26.955  33.730  1.00  0.00     0.040 A 
ATOM     86  F   UNL A   1      43.315  26.926  31.421  1.00  0.00    -0.206 F 
ATOM     87  C   UNL A   1      44.467  26.549  34.831  1.00  0.00     0.006 A 
ENDBRANCH  63  80
ENDBRANCH  37  38
ENDBRANCH  30  32
ENDBRANCH  29  30
ENDBRANCH  28  29
ENDBRANCH   1  28
TORSDOF 16
ENDMDL
