MODEL 1
REMARK VINA RESULT:     -11.5      0.000      0.000
REMARK SMILES CC(C)(C)c1cc2c(cc1Cl)C=C(C(=O)OCCOCCOC(=O)c1ccc(-c3c4nc(c(-c5c(F)cccc5F)c5ccc([nH]5)c(-c5c(F)cccc5F)c5nc(c(-c6c(F)cccc6F)c6ccc3[nH]6)C=C5)C=C4)cc1)[C@@H](C(F)(F)F)O2
REMARK SMILES IDX 20 1 19 2 18 3 17 4 16 5 14 6 15 7 13 8 5 9 6 10 10 11 7 12
REMARK SMILES IDX 9 13 11 14 8 15 84 16 12 17 79 18 2 19 1 20 3 21 4 22 80 23
REMARK SMILES IDX 81 24 82 25 83 26 21 27 22 28 23 29 24 30 25 31 26 32 78 33
REMARK SMILES IDX 27 34 77 35 28 36 29 37 30 38 71 39 31 40 76 41 70 42 72 43
REMARK SMILES IDX 32 44 75 45 69 46 68 47 33 49 59 50 42 51 58 52 43 53 46 54
REMARK SMILES IDX 57 55 73 56 44 57 45 58 56 60 74 61 47 62 34 63 35 64 40 65
REMARK SMILES IDX 36 66 37 67 39 68 41 69 38 70 60 71 61 72 66 73 62 74 63 75
REMARK SMILES IDX 65 76 67 77 64 78 48 79 49 80 54 81 50 82 51 83 53 84 55 85
REMARK SMILES IDX 52 86
REMARK H PARENT 72 48 46 59
REMARK Flexibility Score: inf
ROOT
ATOM      1  C   UNL A   1      31.179  31.846  26.400  1.00  0.00     0.202 C 
ENDROOT
BRANCH   1   2
ATOM      2  O   UNL A   1      31.832  30.644  26.804  1.00  0.00    -0.374 OA
BRANCH   2   3
ATOM      3  C   UNL A   1      31.887  29.553  25.891  1.00  0.00     0.202 C 
BRANCH   3   4
ATOM      4  C   UNL A   1      30.997  29.608  24.645  1.00  0.00     0.261 C 
BRANCH   4   5
ATOM      5  O   UNL A   1      30.424  28.332  24.328  1.00  0.00    -0.460 OA
BRANCH   5   6
ATOM      6  C   UNL A   1      30.628  27.940  23.048  1.00  0.00     0.338 C 
ATOM      7  O   UNL A   1      30.154  28.445  22.043  1.00  0.00    -0.246 OA
BRANCH   6   8
ATOM      8  C   UNL A   1      31.635  26.866  23.005  1.00  0.00     0.087 C 
ATOM      9  C   UNL A   1      34.553  22.999  24.441  1.00  0.00    -0.020 A 
ATOM     10  C   UNL A   1      34.633  24.026  23.460  1.00  0.00     0.053 A 
ATOM     11  C   UNL A   1      33.325  22.904  25.134  1.00  0.00     0.045 A 
ATOM     12  C   UNL A   1      33.586  24.921  23.212  1.00  0.00     0.128 A 
ATOM     13  C   UNL A   1      32.266  23.786  24.860  1.00  0.00     0.032 A 
ATOM     14  Cl  UNL A   1      32.987  21.808  26.425  1.00  0.00    -0.084 Cl
ATOM     15  C   UNL A   1      32.408  24.811  23.930  1.00  0.00     0.019 A 
ATOM     16  O   UNL A   1      33.811  25.885  22.270  1.00  0.00    -0.475 OA
ATOM     17  C   UNL A   1      31.376  25.817  23.796  1.00  0.00     0.027 C 
ATOM     18  C   UNL A   1      32.873  26.998  22.163  1.00  0.00     0.316 C 
BRANCH   9  19
ATOM     19  C   UNL A   1      35.832  22.174  24.747  1.00  0.00    -0.012 C 
ATOM     20  C   UNL A   1      36.920  22.348  23.652  1.00  0.00     0.016 C 
ATOM     21  C   UNL A   1      35.641  20.646  24.871  1.00  0.00     0.016 C 
ATOM     22  C   UNL A   1      36.405  22.700  26.080  1.00  0.00     0.016 C 
ENDBRANCH   9  19
BRANCH  18  23
ATOM     23  C   UNL A   1      33.633  28.305  22.433  1.00  0.00     0.430 C 
ATOM     24  F   UNL A   1      32.866  29.387  22.152  1.00  0.00    -0.167 F 
ATOM     25  F   UNL A   1      33.993  28.416  23.735  1.00  0.00    -0.167 F 
ATOM     26  F   UNL A   1      34.760  28.400  21.693  1.00  0.00    -0.167 F 
ENDBRANCH  18  23
ENDBRANCH   6   8
ENDBRANCH   5   6
ENDBRANCH   4   5
ENDBRANCH   3   4
ENDBRANCH   2   3
ENDBRANCH   1   2
BRANCH   1  27
ATOM     27  C   UNL A   1      31.875  33.189  26.658  1.00  0.00     0.261 C 
BRANCH  27  28
ATOM     28  O   UNL A   1      32.186  33.402  28.046  1.00  0.00    -0.460 OA
BRANCH  28  29
ATOM     29  C   UNL A   1      33.185  34.288  28.276  1.00  0.00     0.338 C 
ATOM     30  O   UNL A   1      33.104  35.505  28.325  1.00  0.00    -0.246 OA
BRANCH  29  31
ATOM     31  C   UNL A   1      34.398  33.553  28.675  1.00  0.00     0.060 A 
ATOM     32  C   UNL A   1      35.646  34.177  28.687  1.00  0.00     0.016 A 
ATOM     33  C   UNL A   1      34.261  32.222  29.092  1.00  0.00     0.016 A 
ATOM     34  C   UNL A   1      36.757  33.469  29.149  1.00  0.00     0.010 A 
ATOM     35  C   UNL A   1      35.372  31.516  29.550  1.00  0.00     0.010 A 
ATOM     36  C   UNL A   1      36.623  32.144  29.605  1.00  0.00    -0.014 A 
BRANCH  36  37
ATOM     37  C   UNL A   1      37.763  31.470  30.274  1.00  0.00     0.031 A 
ATOM     38  C   UNL A   1      38.123  31.758  31.699  1.00  0.00     0.074 A 
ATOM     39  C   UNL A   1      38.494  30.597  29.555  1.00  0.00     0.049 A 
ATOM     40  N   UNL A   1      39.052  31.207  32.439  1.00  0.00    -0.248 NA
ATOM     41  C   UNL A   1      37.347  32.804  32.379  1.00  0.00     0.031 C 
ATOM     42  C   UNL A   1      38.265  30.271  28.145  1.00  0.00     0.029 A 
ATOM     43  N   UNL A   1      39.570  29.825  29.906  1.00  0.00    -0.354 N 
ATOM     44  C   UNL A   1      38.961  31.820  33.681  1.00  0.00     0.074 A 
ATOM     45  C   UNL A   1      37.921  32.824  33.577  1.00  0.00     0.031 C 
ATOM     46  C   UNL A   1      39.152  29.340  27.761  1.00  0.00     0.029 A 
ATOM     47  C   UNL A   1      40.032  29.032  28.884  1.00  0.00     0.049 A 
ATOM     48  H   UNL A   1      39.972  29.836  30.804  1.00  0.00     0.167 HD
ATOM     49  C   UNL A   1      39.668  31.555  34.807  1.00  0.00     0.037 A 
ATOM     50  C   UNL A   1      41.055  28.159  28.854  1.00  0.00     0.037 A 
ATOM     51  C   UNL A   1      40.727  30.580  34.894  1.00  0.00     0.049 A 
ATOM     52  C   UNL A   1      41.866  27.938  30.099  1.00  0.00     0.074 A 
ATOM     53  C   UNL A   1      41.481  30.218  35.998  1.00  0.00     0.029 A 
ATOM     54  N   UNL A   1      41.200  29.826  33.829  1.00  0.00    -0.354 N 
ATOM     55  N   UNL A   1      41.713  28.458  31.293  1.00  0.00    -0.248 NA
ATOM     56  C   UNL A   1      42.992  26.999  29.993  1.00  0.00     0.031 C 
ATOM     57  C   UNL A   1      42.449  29.293  35.587  1.00  0.00     0.029 A 
ATOM     58  C   UNL A   1      42.258  29.029  34.241  1.00  0.00     0.049 A 
ATOM     59  H   UNL A   1      40.838  29.854  32.913  1.00  0.00     0.167 HD
ATOM     60  C   UNL A   1      42.705  27.894  32.084  1.00  0.00     0.074 A 
ATOM     61  C   UNL A   1      43.436  26.971  31.240  1.00  0.00     0.031 C 
ATOM     62  C   UNL A   1      42.987  28.121  33.390  1.00  0.00     0.037 A 
BRANCH  49  63
ATOM     63  C   UNL A   1      39.323  32.344  36.039  1.00  0.00     0.057 A 
ATOM     64  C   UNL A   1      38.366  31.877  36.950  1.00  0.00     0.134 A 
ATOM     65  C   UNL A   1      39.916  33.585  36.310  1.00  0.00     0.134 A 
ATOM     66  F   UNL A   1      37.750  30.703  36.748  1.00  0.00    -0.206 F 
ATOM     67  C   UNL A   1      38.014  32.613  38.083  1.00  0.00     0.040 A 
ATOM     68  C   UNL A   1      39.594  34.317  37.455  1.00  0.00     0.040 A 
ATOM     69  F   UNL A   1      40.844  34.090  35.482  1.00  0.00    -0.206 F 
ATOM     70  C   UNL A   1      38.636  33.832  38.343  1.00  0.00     0.006 A 
ENDBRANCH  49  63
BRANCH  50  71
ATOM     71  C   UNL A   1      41.370  27.418  27.606  1.00  0.00     0.057 A 
ATOM     72  C   UNL A   1      42.208  27.961  26.626  1.00  0.00     0.134 A 
ATOM     73  C   UNL A   1      40.866  26.131  27.383  1.00  0.00     0.134 A 
ATOM     74  F   UNL A   1      42.716  29.194  26.776  1.00  0.00    -0.206 F 
ATOM     75  C   UNL A   1      42.535  27.253  25.470  1.00  0.00     0.040 A 
ATOM     76  C   UNL A   1      41.209  25.399  26.246  1.00  0.00     0.040 A 
ATOM     77  F   UNL A   1      40.070  25.550  28.294  1.00  0.00    -0.206 F 
ATOM     78  C   UNL A   1      42.045  25.962  25.284  1.00  0.00     0.006 A 
ENDBRANCH  50  71
BRANCH  62  79
ATOM     79  C   UNL A   1      44.122  27.336  33.986  1.00  0.00     0.057 A 
ATOM     80  C   UNL A   1      45.426  27.849  33.984  1.00  0.00     0.134 A 
ATOM     81  C   UNL A   1      43.929  26.074  34.566  1.00  0.00     0.134 A 
ATOM     82  F   UNL A   1      45.686  29.047  33.438  1.00  0.00    -0.206 F 
ATOM     83  C   UNL A   1      46.493  27.141  34.539  1.00  0.00     0.040 A 
ATOM     84  C   UNL A   1      44.982  25.371  35.155  1.00  0.00     0.040 A 
ATOM     85  F   UNL A   1      42.704  25.530  34.619  1.00  0.00    -0.206 F 
ATOM     86  C   UNL A   1      46.270  25.903  35.137  1.00  0.00     0.006 A 
ENDBRANCH  62  79
ENDBRANCH  36  37
ENDBRANCH  29  31
ENDBRANCH  28  29
ENDBRANCH  27  28
ENDBRANCH   1  27
TORSDOF 16
ENDMDL
MODEL 2
REMARK VINA RESULT:     -11.3      4.255      9.372
REMARK SMILES CC(C)(C)c1cc2c(cc1Cl)C=C(C(=O)OCCOCCOC(=O)c1ccc(-c3c4nc(c(-c5c(F)cccc5F)c5ccc([nH]5)c(-c5c(F)cccc5F)c5nc(c(-c6c(F)cccc6F)c6ccc3[nH]6)C=C5)C=C4)cc1)[C@@H](C(F)(F)F)O2
REMARK SMILES IDX 20 1 19 2 18 3 17 4 16 5 14 6 15 7 13 8 5 9 6 10 10 11 7 12
REMARK SMILES IDX 9 13 11 14 8 15 84 16 12 17 79 18 2 19 1 20 3 21 4 22 80 23
REMARK SMILES IDX 81 24 82 25 83 26 21 27 22 28 23 29 24 30 25 31 26 32 78 33
REMARK SMILES IDX 27 34 77 35 28 36 29 37 30 38 71 39 31 40 76 41 70 42 72 43
REMARK SMILES IDX 32 44 75 45 69 46 68 47 33 49 59 50 42 51 58 52 43 53 46 54
REMARK SMILES IDX 57 55 73 56 44 57 45 58 56 60 74 61 47 62 34 63 35 64 40 65
REMARK SMILES IDX 36 66 37 67 39 68 41 69 38 70 60 71 61 72 66 73 62 74 63 75
REMARK SMILES IDX 65 76 67 77 64 78 48 79 49 80 54 81 50 82 51 83 53 84 55 85
REMARK SMILES IDX 52 86
REMARK H PARENT 72 48 46 59
REMARK Flexibility Score: inf
ROOT
ATOM      1  C   UNL A   1      35.086  21.013  24.876  1.00  0.00     0.202 C 
ENDROOT
BRANCH   1   2
ATOM      2  O   UNL A   1      34.095  20.868  25.891  1.00  0.00    -0.374 OA
BRANCH   2   3
ATOM      3  C   UNL A   1      33.479  22.038  26.420  1.00  0.00     0.202 C 
BRANCH   3   4
ATOM      4  C   UNL A   1      34.320  23.314  26.523  1.00  0.00     0.261 C 
BRANCH   4   5
ATOM      5  O   UNL A   1      33.657  24.451  25.952  1.00  0.00    -0.460 OA
BRANCH   5   6
ATOM      6  C   UNL A   1      34.050  24.740  24.689  1.00  0.00     0.338 C 
ATOM      7  O   UNL A   1      35.034  24.309  24.111  1.00  0.00    -0.246 OA
BRANCH   6   8
ATOM      8  C   UNL A   1      33.032  25.574  24.026  1.00  0.00     0.087 C 
ATOM      9  C   UNL A   1      29.598  29.196  23.244  1.00  0.00    -0.020 A 
ATOM     10  C   UNL A   1      29.861  27.907  22.701  1.00  0.00     0.053 A 
ATOM     11  C   UNL A   1      30.572  29.699  24.135  1.00  0.00     0.045 A 
ATOM     12  C   UNL A   1      30.987  27.153  23.049  1.00  0.00     0.128 A 
ATOM     13  C   UNL A   1      31.717  28.951  24.458  1.00  0.00     0.032 A 
ATOM     14  Cl  UNL A   1      30.464  31.192  24.997  1.00  0.00    -0.084 Cl
ATOM     15  C   UNL A   1      31.906  27.671  23.946  1.00  0.00     0.019 A 
ATOM     16  O   UNL A   1      31.097  25.914  22.485  1.00  0.00    -0.475 OA
ATOM     17  C   UNL A   1      32.993  26.848  24.432  1.00  0.00     0.027 C 
ATOM     18  C   UNL A   1      32.093  24.986  23.010  1.00  0.00     0.316 C 
BRANCH   9  19
ATOM     19  C   UNL A   1      28.237  29.867  22.917  1.00  0.00    -0.012 C 
ATOM     20  C   UNL A   1      28.154  30.339  21.439  1.00  0.00     0.016 C 
ATOM     21  C   UNL A   1      27.879  31.118  23.749  1.00  0.00     0.016 C 
ATOM     22  C   UNL A   1      27.139  28.805  23.142  1.00  0.00     0.016 C 
ENDBRANCH   9  19
BRANCH  18  23
ATOM     23  C   UNL A   1      31.368  23.736  23.531  1.00  0.00     0.430 C 
ATOM     24  F   UNL A   1      30.240  23.490  22.821  1.00  0.00    -0.167 F 
ATOM     25  F   UNL A   1      32.140  22.628  23.424  1.00  0.00    -0.167 F 
ATOM     26  F   UNL A   1      31.014  23.859  24.830  1.00  0.00    -0.167 F 
ENDBRANCH  18  23
ENDBRANCH   6   8
ENDBRANCH   5   6
ENDBRANCH   4   5
ENDBRANCH   3   4
ENDBRANCH   2   3
ENDBRANCH   1   2
BRANCH   1  27
ATOM     27  C   UNL A   1      36.492  20.451  25.129  1.00  0.00     0.261 C 
BRANCH  27  28
ATOM     28  O   UNL A   1      37.510  21.466  25.130  1.00  0.00    -0.460 OA
BRANCH  28  29
ATOM     29  C   UNL A   1      38.657  21.121  25.764  1.00  0.00     0.338 C 
ATOM     30  O   UNL A   1      39.233  20.045  25.726  1.00  0.00    -0.246 OA
BRANCH  29  31
ATOM     31  C   UNL A   1      39.252  22.323  26.373  1.00  0.00     0.060 A 
ATOM     32  C   UNL A   1      40.377  22.233  27.192  1.00  0.00     0.016 A 
ATOM     33  C   UNL A   1      38.690  23.570  26.066  1.00  0.00     0.016 A 
ATOM     34  C   UNL A   1      40.958  23.404  27.683  1.00  0.00     0.010 A 
ATOM     35  C   UNL A   1      39.269  24.738  26.560  1.00  0.00     0.010 A 
ATOM     36  C   UNL A   1      40.423  24.663  27.351  1.00  0.00    -0.014 A 
BRANCH  36  37
ATOM     37  C   UNL A   1      41.156  25.900  27.712  1.00  0.00     0.031 A 
ATOM     38  C   UNL A   1      42.578  26.124  27.295  1.00  0.00     0.074 A 
ATOM     39  C   UNL A   1      40.516  26.823  28.454  1.00  0.00     0.049 A 
ATOM     40  N   UNL A   1      43.333  27.177  27.482  1.00  0.00    -0.248 NA
ATOM     41  C   UNL A   1      43.240  25.022  26.584  1.00  0.00     0.031 C 
ATOM     42  C   UNL A   1      39.146  26.694  28.956  1.00  0.00     0.029 A 
ATOM     43  N   UNL A   1      40.926  28.048  28.912  1.00  0.00    -0.354 N 
ATOM     44  C   UNL A   1      44.554  26.879  26.893  1.00  0.00     0.074 A 
ATOM     45  C   UNL A   1      44.455  25.523  26.390  1.00  0.00     0.031 C 
ATOM     46  C   UNL A   1      38.818  27.811  29.624  1.00  0.00     0.029 A 
ATOM     47  C   UNL A   1      39.963  28.716  29.628  1.00  0.00     0.049 A 
ATOM     48  H   UNL A   1      41.824  28.415  28.743  1.00  0.00     0.167 HD
ATOM     49  C   UNL A   1      45.648  27.670  26.769  1.00  0.00     0.037 A 
ATOM     50  C   UNL A   1      40.001  29.921  30.226  1.00  0.00     0.037 A 
ATOM     51  C   UNL A   1      45.752  29.006  27.304  1.00  0.00     0.049 A 
ATOM     52  C   UNL A   1      41.252  30.746  30.130  1.00  0.00     0.074 A 
ATOM     53  C   UNL A   1      46.807  29.897  27.203  1.00  0.00     0.029 A 
ATOM     54  N   UNL A   1      44.775  29.634  28.062  1.00  0.00    -0.354 N 
ATOM     55  N   UNL A   1      42.369  30.490  29.493  1.00  0.00    -0.248 NA
ATOM     56  C   UNL A   1      41.244  32.037  30.833  1.00  0.00     0.031 C 
ATOM     57  C   UNL A   1      46.493  31.038  27.951  1.00  0.00     0.029 A 
ATOM     58  C   UNL A   1      45.216  30.887  28.466  1.00  0.00     0.049 A 
ATOM     59  H   UNL A   1      43.896  29.248  28.282  1.00  0.00     0.167 HD
ATOM     60  C   UNL A   1      43.186  31.594  29.699  1.00  0.00     0.074 A 
ATOM     61  C   UNL A   1      42.425  32.533  30.496  1.00  0.00     0.031 C 
ATOM     62  C   UNL A   1      44.454  31.810  29.269  1.00  0.00     0.037 A 
BRANCH  49  63
ATOM     63  C   UNL A   1      46.828  27.104  26.030  1.00  0.00     0.057 A 
ATOM     64  C   UNL A   1      47.797  26.342  26.695  1.00  0.00     0.134 A 
ATOM     65  C   UNL A   1      47.024  27.341  24.662  1.00  0.00     0.134 A 
ATOM     66  F   UNL A   1      47.680  26.086  28.006  1.00  0.00    -0.206 F 
ATOM     67  C   UNL A   1      48.914  25.835  26.027  1.00  0.00     0.040 A 
ATOM     68  C   UNL A   1      48.121  26.815  23.977  1.00  0.00     0.040 A 
ATOM     69  F   UNL A   1      46.132  28.059  23.962  1.00  0.00    -0.206 F 
ATOM     70  C   UNL A   1      49.073  26.064  24.663  1.00  0.00     0.006 A 
ENDBRANCH  49  63
BRANCH  50  71
ATOM     71  C   UNL A   1      38.815  30.428  30.961  1.00  0.00     0.057 A 
ATOM     72  C   UNL A   1      37.845  31.214  30.330  1.00  0.00     0.134 A 
ATOM     73  C   UNL A   1      38.608  30.105  32.308  1.00  0.00     0.134 A 
ATOM     74  F   UNL A   1      37.990  31.565  29.044  1.00  0.00    -0.206 F 
ATOM     75  C   UNL A   1      36.712  31.661  31.009  1.00  0.00     0.040 A 
ATOM     76  C   UNL A   1      37.464  30.520  32.991  1.00  0.00     0.040 A 
ATOM     77  F   UNL A   1      39.495  29.341  32.963  1.00  0.00    -0.206 F 
ATOM     78  C   UNL A   1      36.512  31.303  32.341  1.00  0.00     0.006 A 
ENDBRANCH  50  71
BRANCH  62  79
ATOM     79  C   UNL A   1      45.081  33.126  29.637  1.00  0.00     0.057 A 
ATOM     80  C   UNL A   1      45.863  33.248  30.793  1.00  0.00     0.134 A 
ATOM     81  C   UNL A   1      44.915  34.273  28.849  1.00  0.00     0.134 A 
ATOM     82  F   UNL A   1      46.058  32.192  31.598  1.00  0.00    -0.206 F 
ATOM     83  C   UNL A   1      46.462  34.457  31.148  1.00  0.00     0.040 A 
ATOM     84  C   UNL A   1      45.536  35.481  29.176  1.00  0.00     0.040 A 
ATOM     85  F   UNL A   1      44.193  34.225  27.719  1.00  0.00    -0.206 F 
ATOM     86  C   UNL A   1      46.308  35.576  30.332  1.00  0.00     0.006 A 
ENDBRANCH  62  79
ENDBRANCH  36  37
ENDBRANCH  29  31
ENDBRANCH  28  29
ENDBRANCH  27  28
ENDBRANCH   1  27
TORSDOF 16
ENDMDL
MODEL 3
REMARK VINA RESULT:     -11.3      1.630      2.625
REMARK SMILES CC(C)(C)c1cc2c(cc1Cl)C=C(C(=O)OCCOCCOC(=O)c1ccc(-c3c4nc(c(-c5c(F)cccc5F)c5ccc([nH]5)c(-c5c(F)cccc5F)c5nc(c(-c6c(F)cccc6F)c6ccc3[nH]6)C=C5)C=C4)cc1)[C@@H](C(F)(F)F)O2
REMARK SMILES IDX 20 1 19 2 18 3 17 4 16 5 14 6 15 7 13 8 5 9 6 10 10 11 7 12
REMARK SMILES IDX 9 13 11 14 8 15 84 16 12 17 79 18 2 19 1 20 3 21 4 22 80 23
REMARK SMILES IDX 81 24 82 25 83 26 21 27 22 28 23 29 24 30 25 31 26 32 78 33
REMARK SMILES IDX 27 34 77 35 28 36 29 37 30 38 71 39 31 40 76 41 70 42 72 43
REMARK SMILES IDX 32 44 75 45 69 46 68 47 33 49 59 50 42 51 58 52 43 53 46 54
REMARK SMILES IDX 57 55 73 56 44 57 45 58 56 60 74 61 47 62 34 63 35 64 40 65
REMARK SMILES IDX 36 66 37 67 39 68 41 69 38 70 60 71 61 72 66 73 62 74 63 75
REMARK SMILES IDX 65 76 67 77 64 78 48 79 49 80 54 81 50 82 51 83 53 84 55 85
REMARK SMILES IDX 52 86
REMARK H PARENT 72 48 46 59
REMARK Flexibility Score: inf
ROOT
ATOM      1  C   UNL A   1      31.400  31.920  26.475  1.00  0.00     0.202 C 
ENDROOT
BRANCH   1   2
ATOM      2  O   UNL A   1      32.293  30.825  26.666  1.00  0.00    -0.374 OA
BRANCH   2   3
ATOM      3  C   UNL A   1      31.752  29.542  26.964  1.00  0.00     0.202 C 
BRANCH   3   4
ATOM      4  C   UNL A   1      32.727  28.395  27.248  1.00  0.00     0.261 C 
BRANCH   4   5
ATOM      5  O   UNL A   1      32.234  27.132  26.779  1.00  0.00    -0.460 OA
BRANCH   5   6
ATOM      6  C   UNL A   1      33.003  26.563  25.821  1.00  0.00     0.338 C 
ATOM      7  O   UNL A   1      33.834  27.119  25.123  1.00  0.00    -0.246 OA
BRANCH   6   8
ATOM      8  C   UNL A   1      32.795  25.104  25.812  1.00  0.00     0.087 C 
ATOM      9  C   UNL A   1      33.582  20.176  25.025  1.00  0.00    -0.020 A 
ATOM     10  C   UNL A   1      32.443  21.009  25.206  1.00  0.00     0.053 A 
ATOM     11  C   UNL A   1      34.836  20.794  25.229  1.00  0.00     0.045 A 
ATOM     12  C   UNL A   1      32.542  22.368  25.526  1.00  0.00     0.128 A 
ATOM     13  C   UNL A   1      34.928  22.151  25.579  1.00  0.00     0.032 A 
ATOM     14  Cl  UNL A   1      36.373  20.040  24.995  1.00  0.00    -0.084 Cl
ATOM     15  C   UNL A   1      33.790  22.943  25.692  1.00  0.00     0.019 A 
ATOM     16  O   UNL A   1      31.370  23.062  25.631  1.00  0.00    -0.475 OA
ATOM     17  C   UNL A   1      33.915  24.374  25.871  1.00  0.00     0.027 C 
ATOM     18  C   UNL A   1      31.416  24.519  25.692  1.00  0.00     0.316 C 
BRANCH   9  19
ATOM     19  C   UNL A   1      33.358  18.729  24.509  1.00  0.00    -0.012 C 
ATOM     20  C   UNL A   1      32.522  17.873  25.500  1.00  0.00     0.016 C 
ATOM     21  C   UNL A   1      34.633  17.895  24.250  1.00  0.00     0.016 C 
ATOM     22  C   UNL A   1      32.571  18.834  23.185  1.00  0.00     0.016 C 
ENDBRANCH   9  19
BRANCH  18  23
ATOM     23  C   UNL A   1      30.639  25.083  24.494  1.00  0.00     0.430 C 
ATOM     24  F   UNL A   1      31.413  25.912  23.752  1.00  0.00    -0.167 F 
ATOM     25  F   UNL A   1      30.219  24.101  23.661  1.00  0.00    -0.167 F 
ATOM     26  F   UNL A   1      29.546  25.781  24.879  1.00  0.00    -0.167 F 
ENDBRANCH  18  23
ENDBRANCH   6   8
ENDBRANCH   5   6
ENDBRANCH   4   5
ENDBRANCH   3   4
ENDBRANCH   2   3
ENDBRANCH   1   2
BRANCH   1  27
ATOM     27  C   UNL A   1      31.901  33.341  26.766  1.00  0.00     0.261 C 
BRANCH  27  28
ATOM     28  O   UNL A   1      32.254  33.540  28.145  1.00  0.00    -0.460 OA
BRANCH  28  29
ATOM     29  C   UNL A   1      33.281  34.399  28.352  1.00  0.00     0.338 C 
ATOM     30  O   UNL A   1      33.236  35.620  28.382  1.00  0.00    -0.246 OA
BRANCH  29  31
ATOM     31  C   UNL A   1      34.477  33.636  28.749  1.00  0.00     0.060 A 
ATOM     32  C   UNL A   1      35.746  34.213  28.705  1.00  0.00     0.016 A 
ATOM     33  C   UNL A   1      34.302  32.328  29.221  1.00  0.00     0.016 A 
ATOM     34  C   UNL A   1      36.842  33.483  29.167  1.00  0.00     0.010 A 
ATOM     35  C   UNL A   1      35.399  31.599  29.679  1.00  0.00     0.010 A 
ATOM     36  C   UNL A   1      36.673  32.182  29.678  1.00  0.00    -0.014 A 
BRANCH  36  37
ATOM     37  C   UNL A   1      37.804  31.492  30.344  1.00  0.00     0.031 A 
ATOM     38  C   UNL A   1      38.180  31.784  31.764  1.00  0.00     0.074 A 
ATOM     39  C   UNL A   1      38.514  30.600  29.627  1.00  0.00     0.049 A 
ATOM     40  N   UNL A   1      39.104  31.222  32.503  1.00  0.00    -0.248 NA
ATOM     41  C   UNL A   1      37.428  32.850  32.442  1.00  0.00     0.031 C 
ATOM     42  C   UNL A   1      38.269  30.267  28.222  1.00  0.00     0.029 A 
ATOM     43  N   UNL A   1      39.577  29.810  29.977  1.00  0.00    -0.354 N 
ATOM     44  C   UNL A   1      39.033  31.846  33.741  1.00  0.00     0.074 A 
ATOM     45  C   UNL A   1      38.010  32.868  33.635  1.00  0.00     0.031 C 
ATOM     46  C   UNL A   1      39.136  29.317  27.839  1.00  0.00     0.029 A 
ATOM     47  C   UNL A   1      40.018  29.002  28.958  1.00  0.00     0.049 A 
ATOM     48  H   UNL A   1      39.986  29.821  30.873  1.00  0.00     0.167 HD
ATOM     49  C   UNL A   1      39.743  31.577  34.864  1.00  0.00     0.037 A 
ATOM     50  C   UNL A   1      41.025  28.109  28.928  1.00  0.00     0.037 A 
ATOM     51  C   UNL A   1      40.784  30.583  34.951  1.00  0.00     0.049 A 
ATOM     52  C   UNL A   1      41.839  27.883  30.170  1.00  0.00     0.074 A 
ATOM     53  C   UNL A   1      41.539  30.216  36.052  1.00  0.00     0.029 A 
ATOM     54  N   UNL A   1      41.236  29.812  33.888  1.00  0.00    -0.354 N 
ATOM     55  N   UNL A   1      41.704  28.415  31.360  1.00  0.00    -0.248 NA
ATOM     56  C   UNL A   1      42.947  26.923  30.063  1.00  0.00     0.031 C 
ATOM     57  C   UNL A   1      42.486  29.270  35.643  1.00  0.00     0.029 A 
ATOM     58  C   UNL A   1      42.281  28.998  34.300  1.00  0.00     0.049 A 
ATOM     59  H   UNL A   1      40.867  29.839  32.975  1.00  0.00     0.167 HD
ATOM     60  C   UNL A   1      42.691  27.839  32.149  1.00  0.00     0.074 A 
ATOM     61  C   UNL A   1      43.399  26.895  31.307  1.00  0.00     0.031 C 
ATOM     62  C   UNL A   1      42.987  28.071  33.451  1.00  0.00     0.037 A 
BRANCH  49  63
ATOM     63  C   UNL A   1      39.421  32.381  36.092  1.00  0.00     0.057 A 
ATOM     64  C   UNL A   1      40.096  33.578  36.367  1.00  0.00     0.134 A 
ATOM     65  C   UNL A   1      38.463  31.955  37.022  1.00  0.00     0.134 A 
ATOM     66  F   UNL A   1      41.034  34.040  35.527  1.00  0.00    -0.206 F 
ATOM     67  C   UNL A   1      39.828  34.320  37.520  1.00  0.00     0.040 A 
ATOM     68  C   UNL A   1      38.165  32.703  38.163  1.00  0.00     0.040 A 
ATOM     69  F   UNL A   1      37.775  30.821  36.818  1.00  0.00    -0.206 F 
ATOM     70  C   UNL A   1      38.854  33.888  38.416  1.00  0.00     0.006 A 
ENDBRANCH  49  63
BRANCH  50  71
ATOM     71  C   UNL A   1      41.317  27.353  27.684  1.00  0.00     0.057 A 
ATOM     72  C   UNL A   1      42.189  27.854  26.712  1.00  0.00     0.134 A 
ATOM     73  C   UNL A   1      40.754  26.091  27.457  1.00  0.00     0.134 A 
ATOM     74  F   UNL A   1      42.754  29.062  26.867  1.00  0.00    -0.206 F 
ATOM     75  C   UNL A   1      42.495  27.130  25.560  1.00  0.00     0.040 A 
ATOM     76  C   UNL A   1      41.074  25.342  26.324  1.00  0.00     0.040 A 
ATOM     77  F   UNL A   1      39.923  25.550  28.360  1.00  0.00    -0.206 F 
ATOM     78  C   UNL A   1      41.946  25.864  25.370  1.00  0.00     0.006 A 
ENDBRANCH  50  71
BRANCH  62  79
ATOM     79  C   UNL A   1      44.112  27.269  34.046  1.00  0.00     0.057 A 
ATOM     80  C   UNL A   1      43.869  26.019  34.629  1.00  0.00     0.134 A 
ATOM     81  C   UNL A   1      45.436  27.729  34.039  1.00  0.00     0.134 A 
ATOM     82  F   UNL A   1      42.624  25.520  34.678  1.00  0.00    -0.206 F 
ATOM     83  C   UNL A   1      44.898  25.255  35.179  1.00  0.00     0.040 A 
ATOM     84  C   UNL A   1      46.481  26.959  34.555  1.00  0.00     0.040 A 
ATOM     85  F   UNL A   1      45.744  28.910  33.481  1.00  0.00    -0.206 F 
ATOM     86  C   UNL A   1      46.211  25.719  35.132  1.00  0.00     0.006 A 
ENDBRANCH  62  79
ENDBRANCH  36  37
ENDBRANCH  29  31
ENDBRANCH  28  29
ENDBRANCH  27  28
ENDBRANCH   1  27
TORSDOF 16
ENDMDL
