MODEL 1
REMARK VINA RESULT:     -13.1      0.000      0.000
REMARK SMILES Cc1ccccc1NC(=S)NN1C(=O)CS[C@H]1c1ccccc1C(=O)OCCOCCOC(=O)c1ccc(-c2c3nc(c(-c4c(F)cccc4F)c4ccc([nH]4)c(-c4c(F)cccc4F)c4nc(c(-c5c(F)cccc5F)c5ccc2[nH]5)C=C4)C=C3)cc1
REMARK SMILES IDX 27 1 26 2 24 3 25 4 23 5 18 6 19 7 20 8 22 9 21 10 17 11
REMARK SMILES IDX 12 12 13 13 14 14 15 15 16 16 11 17 9 19 10 20 8 21 7 23
REMARK SMILES IDX 1 24 2 25 3 26 4 27 6 28 5 29 28 30 29 31 30 32 31 33 32 34
REMARK SMILES IDX 33 35 34 36 35 37 36 38 88 39 37 40 87 41 38 42 39 43 40 44
REMARK SMILES IDX 81 45 41 46 86 47 80 48 82 49 42 50 85 51 79 52 78 53 43 55
REMARK SMILES IDX 69 56 52 57 68 58 53 59 56 60 67 61 83 62 54 63 55 64 66 66
REMARK SMILES IDX 84 67 57 68 44 69 45 70 50 71 46 72 47 73 49 74 51 75 48 76
REMARK SMILES IDX 70 77 71 78 76 79 72 80 73 81 75 82 77 83 74 84 58 85 59 86
REMARK SMILES IDX 64 87 60 88 61 89 63 90 65 91 62 92
REMARK H PARENT 11 18 8 22 82 54 56 65
REMARK Flexibility Score: inf
ROOT
ATOM      1  C   UNL A   1      33.033  22.844  27.662  1.00  0.00     0.261 C 
ENDROOT
BRANCH   1   2
ATOM      2  O   UNL A   1      31.829  23.611  26.573  1.00  0.00    -0.460 OA
BRANCH   2   3
ATOM      3  C   UNL A   1      31.182  24.845  26.134  1.00  0.00     0.338 C 
ATOM      4  O   UNL A   1      30.047  24.786  25.653  1.00  0.00    -0.246 OA
BRANCH   3   5
ATOM      5  C   UNL A   1      31.574  26.383  26.210  1.00  0.00     0.066 A 
ATOM      6  C   UNL A   1      31.886  27.211  25.116  1.00  0.00     0.001 A 
ATOM      7  C   UNL A   1      31.622  28.588  25.140  1.00  0.00     0.008 A 
ATOM      8  C   UNL A   1      31.607  29.227  26.361  1.00  0.00     0.000 A 
ATOM      9  C   UNL A   1      31.630  27.055  27.449  1.00  0.00     0.016 A 
ATOM     10  C   UNL A   1      31.740  28.461  27.515  1.00  0.00     0.001 A 
BRANCH   6  11
ATOM     11  C   UNL A   1      33.100  26.784  24.308  1.00  0.00     0.197 C 
ATOM     12  N   UNL A   1      32.565  26.087  23.201  1.00  0.00    -0.236 N 
ATOM     13  C   UNL A   1      31.977  27.256  22.425  1.00  0.00     0.252 C 
ATOM     14  O   UNL A   1      30.851  27.583  22.084  1.00  0.00    -0.272 OA
ATOM     15  C   UNL A   1      33.158  28.084  22.029  1.00  0.00     0.174 C 
ATOM     16  S   UNL A   1      34.063  28.168  23.578  1.00  0.00    -0.120 SA
BRANCH  12  17
ATOM     17  N   UNL A   1      32.080  24.400  23.550  1.00  0.00    -0.270 N 
ATOM     18  H   UNL A   1      31.242  24.404  24.066  1.00  0.00     0.191 HD
BRANCH  17  19
ATOM     19  C   UNL A   1      32.523  22.959  23.325  1.00  0.00     0.189 C 
ATOM     20  S   UNL A   1      33.210  23.027  21.759  1.00  0.00    -0.039 S 
BRANCH  19  21
ATOM     21  N   UNL A   1      32.474  21.625  24.170  1.00  0.00    -0.331 N 
ATOM     22  H   UNL A   1      32.388  21.926  25.104  1.00  0.00     0.169 HD
BRANCH  21  23
ATOM     23  C   UNL A   1      32.494  19.912  24.268  1.00  0.00     0.043 A 
ATOM     24  C   UNL A   1      32.266  18.872  21.726  1.00  0.00     0.046 C 
ATOM     25  C   UNL A   1      32.454  18.879  23.227  1.00  0.00    -0.028 A 
ATOM     26  C   UNL A   1      32.678  17.444  23.538  1.00  0.00     0.005 A 
ATOM     27  C   UNL A   1      32.917  16.927  24.782  1.00  0.00     0.000 A 
ATOM     28  C   UNL A   1      32.696  19.211  25.478  1.00  0.00     0.026 A 
ATOM     29  C   UNL A   1      32.876  17.833  25.778  1.00  0.00     0.002 A 
ENDBRANCH  21  23
ENDBRANCH  19  21
ENDBRANCH  17  19
ENDBRANCH  12  17
ENDBRANCH   6  11
ENDBRANCH   3   5
ENDBRANCH   2   3
ENDBRANCH   1   2
BRANCH   1  30
ATOM     30  C   UNL A   1      34.583  21.863  27.106  1.00  0.00     0.202 C 
BRANCH  30  31
ATOM     31  O   UNL A   1      35.197  22.080  25.782  1.00  0.00    -0.374 OA
BRANCH  31  32
ATOM     32  C   UNL A   1      36.129  21.096  25.269  1.00  0.00     0.202 C 
BRANCH  32  33
ATOM     33  C   UNL A   1      37.457  21.775  24.905  1.00  0.00     0.261 C 
BRANCH  33  34
ATOM     34  O   UNL A   1      38.399  21.576  25.985  1.00  0.00    -0.460 OA
BRANCH  34  35
ATOM     35  C   UNL A   1      39.375  20.638  25.783  1.00  0.00     0.338 C 
ATOM     36  O   UNL A   1      39.215  19.536  25.339  1.00  0.00    -0.246 OA
BRANCH  35  37
ATOM     37  C   UNL A   1      40.652  21.138  26.422  1.00  0.00     0.060 A 
ATOM     38  C   UNL A   1      40.692  21.405  27.787  1.00  0.00     0.016 A 
ATOM     39  C   UNL A   1      41.730  21.580  25.674  1.00  0.00     0.016 A 
ATOM     40  C   UNL A   1      41.592  22.376  28.304  1.00  0.00     0.010 A 
ATOM     41  C   UNL A   1      42.580  22.567  26.210  1.00  0.00     0.010 A 
ATOM     42  C   UNL A   1      42.331  23.159  27.460  1.00  0.00    -0.014 A 
BRANCH  42  43
ATOM     43  C   UNL A   1      42.765  24.574  27.766  1.00  0.00     0.031 A 
ATOM     44  C   UNL A   1      44.252  24.781  27.909  1.00  0.00     0.074 A 
ATOM     45  C   UNL A   1      42.058  25.771  27.734  1.00  0.00     0.049 A 
ATOM     46  N   UNL A   1      44.838  25.899  28.212  1.00  0.00    -0.248 NA
ATOM     47  C   UNL A   1      45.215  23.689  27.767  1.00  0.00     0.031 C 
ATOM     48  C   UNL A   1      42.718  26.917  27.096  1.00  0.00     0.029 A 
ATOM     49  N   UNL A   1      40.734  26.308  27.937  1.00  0.00    -0.354 N 
ATOM     50  C   UNL A   1      46.129  25.783  27.763  1.00  0.00     0.074 A 
ATOM     51  C   UNL A   1      46.368  24.364  27.760  1.00  0.00     0.031 C 
ATOM     52  C   UNL A   1      41.988  28.014  27.202  1.00  0.00     0.029 A 
ATOM     53  C   UNL A   1      40.797  27.751  27.955  1.00  0.00     0.049 A 
ATOM     54  H   UNL A   1      39.914  25.774  28.048  1.00  0.00     0.167 HD
ATOM     55  C   UNL A   1      46.773  26.864  27.233  1.00  0.00     0.037 A 
ATOM     56  C   UNL A   1      40.077  28.801  28.479  1.00  0.00     0.037 A 
ATOM     57  C   UNL A   1      46.041  28.131  27.412  1.00  0.00     0.049 A 
ATOM     58  C   UNL A   1      40.959  29.909  28.999  1.00  0.00     0.074 A 
ATOM     59  C   UNL A   1      45.563  29.085  26.528  1.00  0.00     0.029 A 
ATOM     60  N   UNL A   1      45.565  28.507  28.672  1.00  0.00    -0.354 N 
ATOM     61  N   UNL A   1      42.206  30.000  28.661  1.00  0.00    -0.248 NA
ATOM     62  C   UNL A   1      40.633  30.852  30.069  1.00  0.00     0.031 C 
ATOM     63  C   UNL A   1      44.825  30.043  27.269  1.00  0.00     0.029 A 
ATOM     64  C   UNL A   1      44.846  29.690  28.610  1.00  0.00     0.049 A 
ATOM     65  H   UNL A   1      45.720  27.995  29.499  1.00  0.00     0.167 HD
ATOM     66  C   UNL A   1      42.895  30.578  29.671  1.00  0.00     0.074 A 
ATOM     67  C   UNL A   1      41.867  31.241  30.448  1.00  0.00     0.031 C 
ATOM     68  C   UNL A   1      44.224  30.297  29.797  1.00  0.00     0.037 A 
BRANCH  55  69
ATOM     69  C   UNL A   1      48.034  26.783  26.375  1.00  0.00     0.057 A 
ATOM     70  C   UNL A   1      47.934  26.732  24.968  1.00  0.00     0.134 A 
ATOM     71  C   UNL A   1      49.359  26.682  26.850  1.00  0.00     0.134 A 
ATOM     72  F   UNL A   1      46.748  26.776  24.345  1.00  0.00    -0.206 F 
ATOM     73  C   UNL A   1      49.047  26.627  24.119  1.00  0.00     0.040 A 
ATOM     74  C   UNL A   1      50.484  26.649  26.010  1.00  0.00     0.040 A 
ATOM     75  F   UNL A   1      49.654  26.542  28.146  1.00  0.00    -0.206 F 
ATOM     76  C   UNL A   1      50.332  26.616  24.637  1.00  0.00     0.006 A 
ENDBRANCH  55  69
BRANCH  56  77
ATOM     77  C   UNL A   1      38.690  28.638  28.912  1.00  0.00     0.057 A 
ATOM     78  C   UNL A   1      38.408  28.165  30.200  1.00  0.00     0.134 A 
ATOM     79  C   UNL A   1      37.770  29.449  28.286  1.00  0.00     0.134 A 
ATOM     80  F   UNL A   1      39.129  27.178  30.753  1.00  0.00    -0.206 F 
ATOM     81  C   UNL A   1      37.417  28.769  30.968  1.00  0.00     0.040 A 
ATOM     82  C   UNL A   1      36.830  30.097  29.055  1.00  0.00     0.040 A 
ATOM     83  F   UNL A   1      37.913  29.787  26.996  1.00  0.00    -0.206 F 
ATOM     84  C   UNL A   1      36.705  29.823  30.416  1.00  0.00     0.006 A 
ENDBRANCH  56  77
BRANCH  68  85
ATOM     85  C   UNL A   1      45.017  30.644  31.016  1.00  0.00     0.057 A 
ATOM     86  C   UNL A   1      45.623  31.891  31.232  1.00  0.00     0.134 A 
ATOM     87  C   UNL A   1      45.157  29.711  32.058  1.00  0.00     0.134 A 
ATOM     88  F   UNL A   1      45.421  32.927  30.406  1.00  0.00    -0.206 F 
ATOM     89  C   UNL A   1      46.442  32.142  32.337  1.00  0.00     0.040 A 
ATOM     90  C   UNL A   1      45.926  29.970  33.195  1.00  0.00     0.040 A 
ATOM     91  F   UNL A   1      44.552  28.515  32.020  1.00  0.00    -0.206 F 
ATOM     92  C   UNL A   1      46.605  31.173  33.317  1.00  0.00     0.006 A 
ENDBRANCH  68  85
ENDBRANCH  42  43
ENDBRANCH  35  37
ENDBRANCH  34  35
ENDBRANCH  33  34
ENDBRANCH  32  33
ENDBRANCH  31  32
ENDBRANCH  30  31
ENDBRANCH   1  30
TORSDOF 19
ENDMDL
MODEL 2
REMARK VINA RESULT:     -12.8      2.157      6.475
REMARK SMILES Cc1ccccc1NC(=S)NN1C(=O)CS[C@H]1c1ccccc1C(=O)OCCOCCOC(=O)c1ccc(-c2c3nc(c(-c4c(F)cccc4F)c4ccc([nH]4)c(-c4c(F)cccc4F)c4nc(c(-c5c(F)cccc5F)c5ccc2[nH]5)C=C4)C=C3)cc1
REMARK SMILES IDX 27 1 26 2 24 3 25 4 23 5 18 6 19 7 20 8 22 9 21 10 17 11
REMARK SMILES IDX 12 12 13 13 14 14 15 15 16 16 11 17 9 19 10 20 8 21 7 23
REMARK SMILES IDX 1 24 2 25 3 26 4 27 6 28 5 29 28 30 29 31 30 32 31 33 32 34
REMARK SMILES IDX 33 35 34 36 35 37 36 38 88 39 37 40 87 41 38 42 39 43 40 44
REMARK SMILES IDX 81 45 41 46 86 47 80 48 82 49 42 50 85 51 79 52 78 53 43 55
REMARK SMILES IDX 69 56 52 57 68 58 53 59 56 60 67 61 83 62 54 63 55 64 66 66
REMARK SMILES IDX 84 67 57 68 44 69 45 70 50 71 46 72 47 73 49 74 51 75 48 76
REMARK SMILES IDX 70 77 71 78 76 79 72 80 73 81 75 82 77 83 74 84 58 85 59 86
REMARK SMILES IDX 64 87 60 88 61 89 63 90 65 91 62 92
REMARK H PARENT 11 18 8 22 82 54 56 65
REMARK Flexibility Score: inf
ROOT
ATOM      1  C   UNL A   1      36.458  23.167  23.143  1.00  0.00     0.261 C 
ENDROOT
BRANCH   1   2
ATOM      2  O   UNL A   1      34.760  23.269  22.572  1.00  0.00    -0.460 OA
BRANCH   2   3
ATOM      3  C   UNL A   1      33.621  24.127  22.253  1.00  0.00     0.338 C 
ATOM      4  O   UNL A   1      32.707  23.674  21.559  1.00  0.00    -0.246 OA
BRANCH   3   5
ATOM      5  C   UNL A   1      33.189  25.593  22.690  1.00  0.00     0.066 A 
ATOM      6  C   UNL A   1      32.347  25.918  23.770  1.00  0.00     0.001 A 
ATOM      7  C   UNL A   1      32.485  27.127  24.468  1.00  0.00     0.008 A 
ATOM      8  C   UNL A   1      33.008  28.210  23.797  1.00  0.00     0.000 A 
ATOM      9  C   UNL A   1      33.655  26.724  21.987  1.00  0.00     0.016 A 
ATOM     10  C   UNL A   1      33.478  28.027  22.500  1.00  0.00     0.001 A 
BRANCH   6  11
ATOM     11  C   UNL A   1      30.936  25.363  23.678  1.00  0.00     0.197 C 
ATOM     12  N   UNL A   1      30.848  24.433  24.738  1.00  0.00    -0.236 N 
ATOM     13  C   UNL A   1      30.809  25.395  25.917  1.00  0.00     0.252 C 
ATOM     14  O   UNL A   1      31.535  25.610  26.876  1.00  0.00    -0.272 OA
ATOM     15  C   UNL A   1      29.530  26.153  25.750  1.00  0.00     0.174 C 
ATOM     16  S   UNL A   1      29.607  26.589  24.008  1.00  0.00    -0.120 SA
BRANCH  12  17
ATOM     17  N   UNL A   1      31.600  22.846  24.396  1.00  0.00    -0.270 N 
ATOM     18  H   UNL A   1      31.515  22.648  23.436  1.00  0.00     0.191 HD
BRANCH  17  19
ATOM     19  C   UNL A   1      32.325  21.695  25.083  1.00  0.00     0.189 C 
ATOM     20  S   UNL A   1      33.548  22.506  25.964  1.00  0.00    -0.039 S 
BRANCH  19  21
ATOM     21  N   UNL A   1      32.153  20.125  25.123  1.00  0.00    -0.331 N 
ATOM     22  H   UNL A   1      31.314  19.979  25.617  1.00  0.00     0.169 HD
BRANCH  21  23
ATOM     23  C   UNL A   1      32.703  18.548  24.730  1.00  0.00     0.043 A 
ATOM     24  C   UNL A   1      32.529  18.197  22.002  1.00  0.00     0.046 C 
ATOM     25  C   UNL A   1      32.867  17.869  23.440  1.00  0.00    -0.028 A 
ATOM     26  C   UNL A   1      33.549  16.554  23.326  1.00  0.00     0.005 A 
ATOM     27  C   UNL A   1      34.066  15.833  24.367  1.00  0.00     0.000 A 
ATOM     28  C   UNL A   1      33.238  17.656  25.687  1.00  0.00     0.026 A 
ATOM     29  C   UNL A   1      33.859  16.382  25.580  1.00  0.00     0.002 A 
ENDBRANCH  21  23
ENDBRANCH  19  21
ENDBRANCH  17  19
ENDBRANCH  12  17
ENDBRANCH   6  11
ENDBRANCH   3   5
ENDBRANCH   2   3
ENDBRANCH   1   2
BRANCH   1  30
ATOM     30  C   UNL A   1      37.168  21.829  24.319  1.00  0.00     0.202 C 
BRANCH  30  31
ATOM     31  O   UNL A   1      37.150  22.005  25.783  1.00  0.00    -0.374 OA
BRANCH  31  32
ATOM     32  C   UNL A   1      37.807  23.161  26.361  1.00  0.00     0.202 C 
BRANCH  32  33
ATOM     33  C   UNL A   1      39.329  22.954  26.354  1.00  0.00     0.261 C 
BRANCH  33  34
ATOM     34  O   UNL A   1      39.632  21.670  26.947  1.00  0.00    -0.460 OA
BRANCH  34  35
ATOM     35  C   UNL A   1      40.684  20.979  26.409  1.00  0.00     0.338 C 
ATOM     36  O   UNL A   1      40.642  19.871  25.952  1.00  0.00    -0.246 OA
BRANCH  35  37
ATOM     37  C   UNL A   1      41.953  21.752  26.689  1.00  0.00     0.060 A 
ATOM     38  C   UNL A   1      42.363  21.971  28.001  1.00  0.00     0.016 A 
ATOM     39  C   UNL A   1      42.613  22.473  25.708  1.00  0.00     0.016 A 
ATOM     40  C   UNL A   1      43.142  23.114  28.331  1.00  0.00     0.010 A 
ATOM     41  C   UNL A   1      43.348  23.618  26.072  1.00  0.00     0.010 A 
ATOM     42  C   UNL A   1      43.383  24.084  27.398  1.00  0.00    -0.014 A 
BRANCH  42  43
ATOM     43  C   UNL A   1      43.565  25.551  27.716  1.00  0.00     0.031 A 
ATOM     44  C   UNL A   1      42.311  26.387  27.665  1.00  0.00     0.074 A 
ATOM     45  C   UNL A   1      44.647  26.239  28.253  1.00  0.00     0.049 A 
ATOM     46  N   UNL A   1      42.244  27.669  27.859  1.00  0.00    -0.248 NA
ATOM     47  C   UNL A   1      41.003  25.824  27.328  1.00  0.00     0.031 C 
ATOM     48  C   UNL A   1      44.356  27.214  29.311  1.00  0.00     0.029 A 
ATOM     49  N   UNL A   1      46.089  26.218  28.302  1.00  0.00    -0.354 N 
ATOM     50  C   UNL A   1      40.944  27.930  28.211  1.00  0.00     0.074 A 
ATOM     51  C   UNL A   1      40.201  26.853  27.613  1.00  0.00     0.031 C 
ATOM     52  C   UNL A   1      45.447  27.863  29.682  1.00  0.00     0.029 A 
ATOM     53  C   UNL A   1      46.568  27.445  28.895  1.00  0.00     0.049 A 
ATOM     54  H   UNL A   1      46.659  25.482  27.981  1.00  0.00     0.167 HD
ATOM     55  C   UNL A   1      40.663  28.887  29.144  1.00  0.00     0.037 A 
ATOM     56  C   UNL A   1      47.707  28.220  28.866  1.00  0.00     0.037 A 
ATOM     57  C   UNL A   1      41.831  29.703  29.520  1.00  0.00     0.049 A 
ATOM     58  C   UNL A   1      47.405  29.697  28.858  1.00  0.00     0.074 A 
ATOM     59  C   UNL A   1      42.463  29.958  30.727  1.00  0.00     0.029 A 
ATOM     60  N   UNL A   1      42.628  30.301  28.539  1.00  0.00    -0.354 N 
ATOM     61  N   UNL A   1      46.242  30.155  29.196  1.00  0.00    -0.248 NA
ATOM     62  C   UNL A   1      48.240  30.754  28.287  1.00  0.00     0.031 C 
ATOM     63  C   UNL A   1      43.622  30.732  30.463  1.00  0.00     0.029 A 
ATOM     64  C   UNL A   1      43.710  30.962  29.098  1.00  0.00     0.049 A 
ATOM     65  H   UNL A   1      42.444  30.258  27.573  1.00  0.00     0.167 HD
ATOM     66  C   UNL A   1      46.006  31.303  28.522  1.00  0.00     0.074 A 
ATOM     67  C   UNL A   1      47.326  31.728  28.102  1.00  0.00     0.031 C 
ATOM     68  C   UNL A   1      44.712  31.664  28.282  1.00  0.00     0.037 A 
BRANCH  55  69
ATOM     69  C   UNL A   1      39.331  29.008  29.882  1.00  0.00     0.057 A 
ATOM     70  C   UNL A   1      38.271  29.748  29.316  1.00  0.00     0.134 A 
ATOM     71  C   UNL A   1      39.038  28.493  31.163  1.00  0.00     0.134 A 
ATOM     72  F   UNL A   1      38.386  30.342  28.120  1.00  0.00    -0.206 F 
ATOM     73  C   UNL A   1      37.030  29.927  29.950  1.00  0.00     0.040 A 
ATOM     74  C   UNL A   1      37.780  28.604  31.775  1.00  0.00     0.040 A 
ATOM     75  F   UNL A   1      39.960  27.911  31.936  1.00  0.00    -0.206 F 
ATOM     76  C   UNL A   1      36.768  29.329  31.171  1.00  0.00     0.006 A 
ENDBRANCH  55  69
BRANCH  56  77
ATOM     77  C   UNL A   1      48.988  27.681  28.412  1.00  0.00     0.057 A 
ATOM     78  C   UNL A   1      49.819  26.996  29.309  1.00  0.00     0.134 A 
ATOM     79  C   UNL A   1      49.068  27.380  27.071  1.00  0.00     0.134 A 
ATOM     80  F   UNL A   1      49.975  27.416  30.574  1.00  0.00    -0.206 F 
ATOM     81  C   UNL A   1      50.439  25.811  28.925  1.00  0.00     0.040 A 
ATOM     82  C   UNL A   1      49.624  26.178  26.696  1.00  0.00     0.040 A 
ATOM     83  F   UNL A   1      48.423  28.121  26.159  1.00  0.00    -0.206 F 
ATOM     84  C   UNL A   1      50.237  25.348  27.634  1.00  0.00     0.006 A 
ENDBRANCH  56  77
BRANCH  68  85
ATOM     85  C   UNL A   1      44.334  32.743  27.319  1.00  0.00     0.057 A 
ATOM     86  C   UNL A   1      43.812  33.989  27.698  1.00  0.00     0.134 A 
ATOM     87  C   UNL A   1      44.534  32.563  25.939  1.00  0.00     0.134 A 
ATOM     88  F   UNL A   1      43.736  34.361  28.984  1.00  0.00    -0.206 F 
ATOM     89  C   UNL A   1      43.375  34.932  26.763  1.00  0.00     0.040 A 
ATOM     90  C   UNL A   1      44.154  33.521  24.997  1.00  0.00     0.040 A 
ATOM     91  F   UNL A   1      45.110  31.455  25.450  1.00  0.00    -0.206 F 
ATOM     92  C   UNL A   1      43.535  34.692  25.406  1.00  0.00     0.006 A 
ENDBRANCH  68  85
ENDBRANCH  42  43
ENDBRANCH  35  37
ENDBRANCH  34  35
ENDBRANCH  33  34
ENDBRANCH  32  33
ENDBRANCH  31  32
ENDBRANCH  30  31
ENDBRANCH   1  30
TORSDOF 19
ENDMDL
MODEL 3
REMARK VINA RESULT:     -12.6      1.342      2.112
REMARK SMILES Cc1ccccc1NC(=S)NN1C(=O)CS[C@H]1c1ccccc1C(=O)OCCOCCOC(=O)c1ccc(-c2c3nc(c(-c4c(F)cccc4F)c4ccc([nH]4)c(-c4c(F)cccc4F)c4nc(c(-c5c(F)cccc5F)c5ccc2[nH]5)C=C4)C=C3)cc1
REMARK SMILES IDX 27 1 26 2 24 3 25 4 23 5 18 6 19 7 20 8 22 9 21 10 17 11
REMARK SMILES IDX 12 12 13 13 14 14 15 15 16 16 11 17 9 19 10 20 8 21 7 23
REMARK SMILES IDX 1 24 2 25 3 26 4 27 6 28 5 29 28 30 29 31 30 32 31 33 32 34
REMARK SMILES IDX 33 35 34 36 35 37 36 38 88 39 37 40 87 41 38 42 39 43 40 44
REMARK SMILES IDX 81 45 41 46 86 47 80 48 82 49 42 50 85 51 79 52 78 53 43 55
REMARK SMILES IDX 69 56 52 57 68 58 53 59 56 60 67 61 83 62 54 63 55 64 66 66
REMARK SMILES IDX 84 67 57 68 44 69 45 70 50 71 46 72 47 73 49 74 51 75 48 76
REMARK SMILES IDX 70 77 71 78 76 79 72 80 73 81 75 82 77 83 74 84 58 85 59 86
REMARK SMILES IDX 64 87 60 88 61 89 63 90 65 91 62 92
REMARK H PARENT 11 18 8 22 82 54 56 65
REMARK Flexibility Score: inf
ROOT
ATOM      1  C   UNL A   1      35.307  23.698  23.530  1.00  0.00     0.261 C 
ENDROOT
BRANCH   1   2
ATOM      2  O   UNL A   1      34.914  24.983  24.720  1.00  0.00    -0.460 OA
BRANCH   2   3
ATOM      3  C   UNL A   1      33.895  25.608  25.561  1.00  0.00     0.338 C 
ATOM      4  O   UNL A   1      33.355  24.936  26.444  1.00  0.00    -0.246 OA
BRANCH   3   5
ATOM      5  C   UNL A   1      33.327  27.086  25.690  1.00  0.00     0.066 A 
ATOM      6  C   UNL A   1      32.178  27.588  25.051  1.00  0.00     0.001 A 
ATOM      7  C   UNL A   1      31.403  28.604  25.629  1.00  0.00     0.008 A 
ATOM      8  C   UNL A   1      32.024  29.491  26.481  1.00  0.00     0.000 A 
ATOM      9  C   UNL A   1      33.972  28.040  26.504  1.00  0.00     0.016 A 
ATOM     10  C   UNL A   1      33.356  29.271  26.817  1.00  0.00     0.001 A 
BRANCH   6  11
ATOM     11  C   UNL A   1      32.226  27.574  23.532  1.00  0.00     0.197 C 
ATOM     12  N   UNL A   1      31.344  26.536  23.156  1.00  0.00    -0.236 N 
ATOM     13  C   UNL A   1      30.016  27.196  23.495  1.00  0.00     0.252 C 
ATOM     14  O   UNL A   1      29.111  26.956  24.280  1.00  0.00    -0.272 OA
ATOM     15  C   UNL A   1      29.918  28.359  22.560  1.00  0.00     0.174 C 
ATOM     16  S   UNL A   1      31.553  29.084  22.729  1.00  0.00    -0.120 SA
BRANCH  12  17
ATOM     17  N   UNL A   1      32.036  24.891  23.292  1.00  0.00    -0.270 N 
ATOM     18  H   UNL A   1      32.983  24.915  23.026  1.00  0.00     0.191 HD
BRANCH  17  19
ATOM     19  C   UNL A   1      31.659  23.465  23.676  1.00  0.00     0.189 C 
ATOM     20  S   UNL A   1      30.653  23.706  25.040  1.00  0.00    -0.039 S 
BRANCH  19  21
ATOM     21  N   UNL A   1      31.981  22.027  23.105  1.00  0.00    -0.331 N 
ATOM     22  H   UNL A   1      31.797  22.096  22.140  1.00  0.00     0.169 HD
BRANCH  21  23
ATOM     23  C   UNL A   1      32.494  20.406  23.333  1.00  0.00     0.043 A 
ATOM     24  C   UNL A   1      33.508  20.141  25.882  1.00  0.00     0.046 C 
ATOM     25  C   UNL A   1      33.054  19.718  24.502  1.00  0.00    -0.028 A 
ATOM     26  C   UNL A   1      33.249  18.246  24.528  1.00  0.00     0.005 A 
ATOM     27  C   UNL A   1      32.964  17.388  23.501  1.00  0.00     0.000 A 
ATOM     28  C   UNL A   1      32.308  19.394  22.364  1.00  0.00     0.026 A 
ATOM     29  C   UNL A   1      32.528  17.990  22.377  1.00  0.00     0.002 A 
ENDBRANCH  21  23
ENDBRANCH  19  21
ENDBRANCH  17  19
ENDBRANCH  12  17
ENDBRANCH   6  11
ENDBRANCH   3   5
ENDBRANCH   2   3
ENDBRANCH   1   2
BRANCH   1  30
ATOM     30  C   UNL A   1      36.653  22.348  23.740  1.00  0.00     0.202 C 
BRANCH  30  31
ATOM     31  O   UNL A   1      36.538  21.302  24.773  1.00  0.00    -0.374 OA
BRANCH  31  32
ATOM     32  C   UNL A   1      37.740  20.642  25.243  1.00  0.00     0.202 C 
BRANCH  32  33
ATOM     33  C   UNL A   1      38.745  21.687  25.750  1.00  0.00     0.261 C 
BRANCH  33  34
ATOM     34  O   UNL A   1      39.610  21.071  26.732  1.00  0.00    -0.460 OA
BRANCH  34  35
ATOM     35  C   UNL A   1      40.653  20.326  26.251  1.00  0.00     0.338 C 
ATOM     36  O   UNL A   1      40.574  19.241  25.748  1.00  0.00    -0.246 OA
BRANCH  35  37
ATOM     37  C   UNL A   1      41.944  21.000  26.661  1.00  0.00     0.060 A 
ATOM     38  C   UNL A   1      42.185  21.292  28.000  1.00  0.00     0.016 A 
ATOM     39  C   UNL A   1      42.808  21.568  25.740  1.00  0.00     0.016 A 
ATOM     40  C   UNL A   1      43.025  22.381  28.360  1.00  0.00     0.010 A 
ATOM     41  C   UNL A   1      43.601  22.667  26.126  1.00  0.00     0.010 A 
ATOM     42  C   UNL A   1      43.496  23.240  27.405  1.00  0.00    -0.014 A 
BRANCH  42  43
ATOM     43  C   UNL A   1      43.786  24.705  27.641  1.00  0.00     0.031 A 
ATOM     44  C   UNL A   1      45.246  25.070  27.745  1.00  0.00     0.074 A 
ATOM     45  C   UNL A   1      42.958  25.820  27.571  1.00  0.00     0.049 A 
ATOM     46  N   UNL A   1      45.717  26.255  27.987  1.00  0.00    -0.248 NA
ATOM     47  C   UNL A   1      46.315  24.078  27.630  1.00  0.00     0.031 C 
ATOM     48  C   UNL A   1      43.486  26.998  26.872  1.00  0.00     0.029 A 
ATOM     49  N   UNL A   1      41.589  26.227  27.778  1.00  0.00    -0.354 N 
ATOM     50  C   UNL A   1      47.006  26.252  27.517  1.00  0.00     0.074 A 
ATOM     51  C   UNL A   1      47.391  24.867  27.571  1.00  0.00     0.031 C 
ATOM     52  C   UNL A   1      42.648  28.018  26.945  1.00  0.00     0.029 A 
ATOM     53  C   UNL A   1      41.503  27.668  27.732  1.00  0.00     0.049 A 
ATOM     54  H   UNL A   1      40.831  25.617  27.928  1.00  0.00     0.167 HD
ATOM     55  C   UNL A   1      47.526  27.369  26.928  1.00  0.00     0.037 A 
ATOM     56  C   UNL A   1      40.686  28.661  28.225  1.00  0.00     0.037 A 
ATOM     57  C   UNL A   1      46.670  28.560  27.068  1.00  0.00     0.049 A 
ATOM     58  C   UNL A   1      41.456  29.876  28.678  1.00  0.00     0.074 A 
ATOM     59  C   UNL A   1      46.081  29.419  26.153  1.00  0.00     0.029 A 
ATOM     60  N   UNL A   1      46.177  28.942  28.319  1.00  0.00    -0.354 N 
ATOM     61  N   UNL A   1      42.682  30.080  28.312  1.00  0.00    -0.248 NA
ATOM     62  C   UNL A   1      41.052  30.828  29.713  1.00  0.00     0.031 C 
ATOM     63  C   UNL A   1      45.260  30.329  26.866  1.00  0.00     0.029 A 
ATOM     64  C   UNL A   1      45.338  30.041  28.220  1.00  0.00     0.049 A 
ATOM     65  H   UNL A   1      46.397  28.486  29.164  1.00  0.00     0.167 HD
ATOM     66  C   UNL A   1      43.323  30.771  29.281  1.00  0.00     0.074 A 
ATOM     67  C   UNL A   1      42.244  31.359  30.050  1.00  0.00     0.031 C 
ATOM     68  C   UNL A   1      44.676  30.633  29.393  1.00  0.00     0.037 A 
BRANCH  55  69
ATOM     69  C   UNL A   1      48.775  27.379  26.049  1.00  0.00     0.057 A 
ATOM     70  C   UNL A   1      50.054  27.511  26.632  1.00  0.00     0.134 A 
ATOM     71  C   UNL A   1      48.801  27.334  24.638  1.00  0.00     0.134 A 
ATOM     72  F   UNL A   1      50.215  27.607  27.959  1.00  0.00    -0.206 F 
ATOM     73  C   UNL A   1      51.241  27.558  25.885  1.00  0.00     0.040 A 
ATOM     74  C   UNL A   1      49.985  27.308  23.885  1.00  0.00     0.040 A 
ATOM     75  F   UNL A   1      47.692  27.381  23.893  1.00  0.00    -0.206 F 
ATOM     76  C   UNL A   1      51.214  27.426  24.506  1.00  0.00     0.006 A 
ENDBRANCH  55  69
BRANCH  56  77
ATOM     77  C   UNL A   1      39.330  28.376  28.692  1.00  0.00     0.057 A 
ATOM     78  C   UNL A   1      39.129  27.809  29.958  1.00  0.00     0.134 A 
ATOM     79  C   UNL A   1      38.334  29.155  28.147  1.00  0.00     0.134 A 
ATOM     80  F   UNL A   1      39.936  26.846  30.426  1.00  0.00    -0.206 F 
ATOM     81  C   UNL A   1      38.128  28.297  30.793  1.00  0.00     0.040 A 
ATOM     82  C   UNL A   1      37.382  29.690  28.985  1.00  0.00     0.040 A 
ATOM     83  F   UNL A   1      38.406  29.577  26.877  1.00  0.00    -0.206 F 
ATOM     84  C   UNL A   1      37.326  29.329  30.330  1.00  0.00     0.006 A 
ENDBRANCH  56  77
BRANCH  68  85
ATOM     85  C   UNL A   1      45.447  31.115  30.579  1.00  0.00     0.057 A 
ATOM     86  C   UNL A   1      45.373  30.535  31.855  1.00  0.00     0.134 A 
ATOM     87  C   UNL A   1      46.348  32.186  30.450  1.00  0.00     0.134 A 
ATOM     88  F   UNL A   1      44.692  29.402  32.077  1.00  0.00    -0.206 F 
ATOM     89  C   UNL A   1      46.031  31.079  32.962  1.00  0.00     0.040 A 
ATOM     90  C   UNL A   1      47.056  32.703  31.537  1.00  0.00     0.040 A 
ATOM     91  F   UNL A   1      46.583  32.770  29.266  1.00  0.00    -0.206 F 
ATOM     92  C   UNL A   1      46.867  32.175  32.805  1.00  0.00     0.006 A 
ENDBRANCH  68  85
ENDBRANCH  42  43
ENDBRANCH  35  37
ENDBRANCH  34  35
ENDBRANCH  33  34
ENDBRANCH  32  33
ENDBRANCH  31  32
ENDBRANCH  30  31
ENDBRANCH   1  30
TORSDOF 19
ENDMDL
