MODEL 1
REMARK VINA RESULT:     -10.9      0.000      0.000
REMARK SMILES CCOc1cc(OCC)cc(-c2ccc([C@@H](C)C(=O)OCCOCCOC(=O)c3ccc(-c4c5nc(c(-c6c(F)cccc6F)c6ccc([nH]6)c(-c6c(F)cccc6F)c6nc(c(-c7c(F)cccc7F)c7ccc4[nH]7)C=C6)C=C5)cc3)cc2F)c1
REMARK SMILES IDX 22 1 21 2 20 3 18 4 19 5 16 6 17 7 15 8 12 9 13 10 84 11
REMARK SMILES IDX 14 12 83 13 85 14 11 15 4 16 5 17 86 18 6 19 10 20 3 21 2 22
REMARK SMILES IDX 1 23 7 24 8 25 9 26 23 27 24 28 25 29 26 30 27 31 28 32
REMARK SMILES IDX 29 33 30 34 82 35 31 36 81 37 32 38 33 39 34 40 75 41 35 42
REMARK SMILES IDX 80 43 74 44 76 45 36 46 79 47 73 48 72 49 37 51 63 52 46 53
REMARK SMILES IDX 62 54 47 55 50 56 61 57 77 58 48 59 49 60 60 62 78 63 51 64
REMARK SMILES IDX 38 65 39 66 44 67 40 68 41 69 43 70 45 71 42 72 64 73 65 74
REMARK SMILES IDX 70 75 66 76 67 77 69 78 71 79 68 80 52 81 53 82 58 83 54 84
REMARK SMILES IDX 55 85 57 86 59 87 56 88
REMARK H PARENT 76 50 50 61
REMARK Flexibility Score: inf
ROOT
ATOM      1  C   UNL A   1      44.407  20.429  25.412  1.00  0.00     0.202 C 
ENDROOT
BRANCH   1   2
ATOM      2  C   UNL A   1      43.512  19.195  25.283  1.00  0.00     0.261 C 
BRANCH   2   3
ATOM      3  O   UNL A   1      42.120  19.553  25.362  1.00  0.00    -0.463 OA
BRANCH   3   4
ATOM      4  C   UNL A   1      41.679  19.962  26.580  1.00  0.00     0.313 C 
ATOM      5  O   UNL A   1      41.783  19.306  27.612  1.00  0.00    -0.252 OA
BRANCH   4   6
ATOM      6  C   UNL A   1      40.978  21.312  26.557  1.00  0.00     0.126 C 
ATOM      7  C   UNL A   1      41.023  21.929  27.953  1.00  0.00     0.025 C 
BRANCH   6   8
ATOM      8  C   UNL A   1      39.576  21.370  25.961  1.00  0.00    -0.031 A 
ATOM      9  C   UNL A   1      36.864  21.478  25.087  1.00  0.00     0.018 A 
ATOM     10  C   UNL A   1      37.650  20.331  24.888  1.00  0.00     0.012 A 
ATOM     11  C   UNL A   1      37.484  22.583  25.681  1.00  0.00     0.131 A 
ATOM     12  C   UNL A   1      38.982  20.275  25.321  1.00  0.00     0.005 A 
ATOM     13  C   UNL A   1      38.811  22.538  26.111  1.00  0.00     0.044 A 
ATOM     14  F   UNL A   1      36.794  23.715  25.894  1.00  0.00    -0.206 F 
BRANCH   9  15
ATOM     15  C   UNL A   1      35.433  21.482  24.737  1.00  0.00    -0.008 A 
ATOM     16  C   UNL A   1      33.202  20.530  24.870  1.00  0.00     0.123 A 
ATOM     17  C   UNL A   1      32.714  21.514  24.013  1.00  0.00     0.092 A 
ATOM     18  C   UNL A   1      34.555  20.500  25.211  1.00  0.00     0.055 A 
ATOM     19  C   UNL A   1      33.574  22.486  23.501  1.00  0.00     0.123 A 
ATOM     20  C   UNL A   1      34.921  22.468  23.873  1.00  0.00     0.055 A 
BRANCH  16  21
ATOM     21  O   UNL A   1      32.352  19.526  25.246  1.00  0.00    -0.494 OA
BRANCH  21  22
ATOM     22  C   UNL A   1      32.451  18.350  24.434  1.00  0.00     0.226 C 
ATOM     23  C   UNL A   1      32.478  17.083  25.275  1.00  0.00     0.049 C 
ENDBRANCH  21  22
ENDBRANCH  16  21
BRANCH  19  24
ATOM     24  O   UNL A   1      32.997  23.406  22.668  1.00  0.00    -0.494 OA
BRANCH  24  25
ATOM     25  C   UNL A   1      33.145  24.788  22.999  1.00  0.00     0.226 C 
ATOM     26  C   UNL A   1      33.081  25.660  21.755  1.00  0.00     0.049 C 
ENDBRANCH  24  25
ENDBRANCH  19  24
ENDBRANCH   9  15
ENDBRANCH   6   8
ENDBRANCH   4   6
ENDBRANCH   3   4
ENDBRANCH   2   3
ENDBRANCH   1   2
BRANCH   1  27
ATOM     27  O   UNL A   1      45.090  20.830  24.225  1.00  0.00    -0.374 OA
BRANCH  27  28
ATOM     28  C   UNL A   1      44.874  22.166  23.770  1.00  0.00     0.202 C 
BRANCH  28  29
ATOM     29  C   UNL A   1      43.805  22.971  24.521  1.00  0.00     0.261 C 
BRANCH  29  30
ATOM     30  O   UNL A   1      44.340  23.621  25.689  1.00  0.00    -0.460 OA
BRANCH  30  31
ATOM     31  C   UNL A   1      44.571  24.949  25.555  1.00  0.00     0.338 C 
ATOM     32  O   UNL A   1      45.155  25.515  24.641  1.00  0.00    -0.246 OA
BRANCH  31  33
ATOM     33  C   UNL A   1      43.844  25.687  26.603  1.00  0.00     0.060 A 
ATOM     34  C   UNL A   1      44.240  27.004  26.865  1.00  0.00     0.016 A 
ATOM     35  C   UNL A   1      42.831  25.088  27.355  1.00  0.00     0.016 A 
ATOM     36  C   UNL A   1      43.637  27.725  27.894  1.00  0.00     0.010 A 
ATOM     37  C   UNL A   1      42.237  25.808  28.397  1.00  0.00     0.010 A 
ATOM     38  C   UNL A   1      42.648  27.122  28.683  1.00  0.00    -0.014 A 
BRANCH  38  39
ATOM     39  C   UNL A   1      42.099  27.843  29.858  1.00  0.00     0.031 A 
ATOM     40  C   UNL A   1      40.868  28.689  29.701  1.00  0.00     0.074 A 
ATOM     41  C   UNL A   1      42.695  27.735  31.060  1.00  0.00     0.049 A 
ATOM     42  N   UNL A   1      40.265  29.443  30.583  1.00  0.00    -0.248 NA
ATOM     43  C   UNL A   1      40.231  28.681  28.375  1.00  0.00     0.031 C 
ATOM     44  C   UNL A   1      43.869  26.915  31.348  1.00  0.00     0.029 A 
ATOM     45  N   UNL A   1      42.396  28.332  32.259  1.00  0.00    -0.354 N 
ATOM     46  C   UNL A   1      39.180  30.005  29.921  1.00  0.00     0.074 A 
ATOM     47  C   UNL A   1      39.221  29.521  28.557  1.00  0.00     0.031 C 
ATOM     48  C   UNL A   1      44.204  27.075  32.640  1.00  0.00     0.029 A 
ATOM     49  C   UNL A   1      43.290  28.033  33.257  1.00  0.00     0.049 A 
ATOM     50  H   UNL A   1      41.616  28.918  32.390  1.00  0.00     0.167 HD
ATOM     51  C   UNL A   1      38.235  30.842  30.409  1.00  0.00     0.037 A 
ATOM     52  C   UNL A   1      43.379  28.505  34.516  1.00  0.00     0.037 A 
ATOM     53  C   UNL A   1      38.194  31.324  31.765  1.00  0.00     0.049 A 
ATOM     54  C   UNL A   1      42.366  29.505  35.007  1.00  0.00     0.074 A 
ATOM     55  C   UNL A   1      37.254  32.147  32.360  1.00  0.00     0.029 A 
ATOM     56  N   UNL A   1      39.144  31.037  32.733  1.00  0.00    -0.354 N 
ATOM     57  N   UNL A   1      41.327  30.004  34.383  1.00  0.00    -0.248 NA
ATOM     58  C   UNL A   1      42.544  30.013  36.375  1.00  0.00     0.031 C 
ATOM     59  C   UNL A   1      37.663  32.400  33.674  1.00  0.00     0.029 A 
ATOM     60  C   UNL A   1      38.832  31.697  33.911  1.00  0.00     0.049 A 
ATOM     61  H   UNL A   1      39.923  30.450  32.604  1.00  0.00     0.167 HD
ATOM     62  C   UNL A   1      40.719  30.868  35.285  1.00  0.00     0.074 A 
ATOM     63  C   UNL A   1      41.495  30.813  36.506  1.00  0.00     0.031 C 
ATOM     64  C   UNL A   1      39.617  31.640  35.117  1.00  0.00     0.037 A 
BRANCH  51  65
ATOM     65  C   UNL A   1      37.171  31.315  29.462  1.00  0.00     0.057 A 
ATOM     66  C   UNL A   1      36.062  30.522  29.140  1.00  0.00     0.134 A 
ATOM     67  C   UNL A   1      37.233  32.599  28.904  1.00  0.00     0.134 A 
ATOM     68  F   UNL A   1      35.949  29.279  29.633  1.00  0.00    -0.206 F 
ATOM     69  C   UNL A   1      35.061  30.984  28.284  1.00  0.00     0.040 A 
ATOM     70  C   UNL A   1      36.228  33.079  28.066  1.00  0.00     0.040 A 
ATOM     71  F   UNL A   1      38.267  33.409  29.177  1.00  0.00    -0.206 F 
ATOM     72  C   UNL A   1      35.138  32.269  27.751  1.00  0.00     0.006 A 
ENDBRANCH  51  65
BRANCH  52  73
ATOM     73  C   UNL A   1      44.490  28.065  35.396  1.00  0.00     0.057 A 
ATOM     74  C   UNL A   1      44.372  26.929  36.204  1.00  0.00     0.134 A 
ATOM     75  C   UNL A   1      45.687  28.788  35.469  1.00  0.00     0.134 A 
ATOM     76  F   UNL A   1      43.239  26.212  36.198  1.00  0.00    -0.206 F 
ATOM     77  C   UNL A   1      45.400  26.534  37.064  1.00  0.00     0.040 A 
ATOM     78  C   UNL A   1      46.731  28.392  36.305  1.00  0.00     0.040 A 
ATOM     79  F   UNL A   1      45.862  29.887  34.721  1.00  0.00    -0.206 F 
ATOM     80  C   UNL A   1      46.585  27.264  37.111  1.00  0.00     0.006 A 
ENDBRANCH  52  73
BRANCH  64  81
ATOM     81  C   UNL A   1      39.179  32.478  36.282  1.00  0.00     0.057 A 
ATOM     82  C   UNL A   1      39.636  33.791  36.456  1.00  0.00     0.134 A 
ATOM     83  C   UNL A   1      38.260  31.983  37.216  1.00  0.00     0.134 A 
ATOM     84  F   UNL A   1      40.529  34.318  35.605  1.00  0.00    -0.206 F 
ATOM     85  C   UNL A   1      39.208  34.575  37.528  1.00  0.00     0.040 A 
ATOM     86  C   UNL A   1      37.805  32.766  38.278  1.00  0.00     0.040 A 
ATOM     87  F   UNL A   1      37.777  30.737  37.102  1.00  0.00    -0.206 F 
ATOM     88  C   UNL A   1      38.284  34.066  38.439  1.00  0.00     0.006 A 
ENDBRANCH  64  81
ENDBRANCH  38  39
ENDBRANCH  31  33
ENDBRANCH  30  31
ENDBRANCH  29  30
ENDBRANCH  28  29
ENDBRANCH  27  28
ENDBRANCH   1  27
TORSDOF 20
ENDMDL
MODEL 2
REMARK VINA RESULT:     -10.7      2.649      4.833
REMARK SMILES CCOc1cc(OCC)cc(-c2ccc([C@@H](C)C(=O)OCCOCCOC(=O)c3ccc(-c4c5nc(c(-c6c(F)cccc6F)c6ccc([nH]6)c(-c6c(F)cccc6F)c6nc(c(-c7c(F)cccc7F)c7ccc4[nH]7)C=C6)C=C5)cc3)cc2F)c1
REMARK SMILES IDX 22 1 21 2 20 3 18 4 19 5 16 6 17 7 15 8 12 9 13 10 84 11
REMARK SMILES IDX 14 12 83 13 85 14 11 15 4 16 5 17 86 18 6 19 10 20 3 21 2 22
REMARK SMILES IDX 1 23 7 24 8 25 9 26 23 27 24 28 25 29 26 30 27 31 28 32
REMARK SMILES IDX 29 33 30 34 82 35 31 36 81 37 32 38 33 39 34 40 75 41 35 42
REMARK SMILES IDX 80 43 74 44 76 45 36 46 79 47 73 48 72 49 37 51 63 52 46 53
REMARK SMILES IDX 62 54 47 55 50 56 61 57 77 58 48 59 49 60 60 62 78 63 51 64
REMARK SMILES IDX 38 65 39 66 44 67 40 68 41 69 43 70 45 71 42 72 64 73 65 74
REMARK SMILES IDX 70 75 66 76 67 77 69 78 71 79 68 80 52 81 53 82 58 83 54 84
REMARK SMILES IDX 55 85 57 86 59 87 56 88
REMARK H PARENT 76 50 50 61
REMARK Flexibility Score: inf
ROOT
ATOM      1  C   UNL A   1      38.150  21.818  25.704  1.00  0.00     0.202 C 
ENDROOT
BRANCH   1   2
ATOM      2  C   UNL A   1      37.204  20.819  25.032  1.00  0.00     0.261 C 
BRANCH   2   3
ATOM      3  O   UNL A   1      36.036  21.480  24.514  1.00  0.00    -0.463 OA
BRANCH   3   4
ATOM      4  C   UNL A   1      34.858  21.163  25.111  1.00  0.00     0.313 C 
ATOM      5  O   UNL A   1      34.065  20.331  24.682  1.00  0.00    -0.252 OA
BRANCH   4   6
ATOM      6  C   UNL A   1      34.564  21.980  26.361  1.00  0.00     0.126 C 
ATOM      7  C   UNL A   1      33.702  21.154  27.313  1.00  0.00     0.025 C 
BRANCH   6   8
ATOM      8  C   UNL A   1      34.006  23.385  26.171  1.00  0.00    -0.031 A 
ATOM      9  C   UNL A   1      32.817  25.919  25.626  1.00  0.00     0.018 A 
ATOM     10  C   UNL A   1      34.170  25.671  25.341  1.00  0.00     0.012 A 
ATOM     11  C   UNL A   1      32.093  24.889  26.238  1.00  0.00     0.131 A 
ATOM     12  C   UNL A   1      34.754  24.425  25.605  1.00  0.00     0.005 A 
ATOM     13  C   UNL A   1      32.668  23.647  26.508  1.00  0.00     0.044 A 
ATOM     14  F   UNL A   1      30.797  25.060  26.545  1.00  0.00    -0.206 F 
BRANCH   9  15
ATOM     15  C   UNL A   1      32.184  27.190  25.234  1.00  0.00    -0.008 A 
ATOM     16  C   UNL A   1      30.637  28.470  23.867  1.00  0.00     0.123 A 
ATOM     17  C   UNL A   1      31.029  29.648  24.499  1.00  0.00     0.092 A 
ATOM     18  C   UNL A   1      31.225  27.254  24.215  1.00  0.00     0.055 A 
ATOM     19  C   UNL A   1      32.006  29.617  25.496  1.00  0.00     0.123 A 
ATOM     20  C   UNL A   1      32.566  28.391  25.860  1.00  0.00     0.055 A 
BRANCH  16  21
ATOM     21  O   UNL A   1      29.771  28.565  22.812  1.00  0.00    -0.494 OA
BRANCH  21  22
ATOM     22  C   UNL A   1      29.768  29.851  22.181  1.00  0.00     0.226 C 
ATOM     23  C   UNL A   1      28.363  30.281  21.784  1.00  0.00     0.049 C 
ENDBRANCH  21  22
ENDBRANCH  16  21
BRANCH  19  24
ATOM     24  O   UNL A   1      32.321  30.827  26.052  1.00  0.00    -0.494 OA
BRANCH  24  25
ATOM     25  C   UNL A   1      32.861  30.830  27.375  1.00  0.00     0.226 C 
ATOM     26  C   UNL A   1      34.368  31.035  27.352  1.00  0.00     0.049 C 
ENDBRANCH  24  25
ENDBRANCH  19  24
ENDBRANCH   9  15
ENDBRANCH   6   8
ENDBRANCH   4   6
ENDBRANCH   3   4
ENDBRANCH   2   3
ENDBRANCH   1   2
BRANCH   1  27
ATOM     27  O   UNL A   1      39.480  21.357  25.935  1.00  0.00    -0.374 OA
BRANCH  27  28
ATOM     28  C   UNL A   1      40.231  22.020  26.953  1.00  0.00     0.202 C 
BRANCH  28  29
ATOM     29  C   UNL A   1      41.137  23.166  26.486  1.00  0.00     0.261 C 
BRANCH  29  30
ATOM     30  O   UNL A   1      40.390  24.363  26.200  1.00  0.00    -0.460 OA
BRANCH  30  31
ATOM     31  C   UNL A   1      41.134  25.482  26.037  1.00  0.00     0.338 C 
ATOM     32  O   UNL A   1      41.666  25.881  25.009  1.00  0.00    -0.246 OA
BRANCH  31  33
ATOM     33  C   UNL A   1      41.081  26.297  27.263  1.00  0.00     0.060 A 
ATOM     34  C   UNL A   1      40.058  26.026  28.180  1.00  0.00     0.016 A 
ATOM     35  C   UNL A   1      41.979  27.343  27.490  1.00  0.00     0.016 A 
ATOM     36  C   UNL A   1      39.916  26.813  29.322  1.00  0.00     0.010 A 
ATOM     37  C   UNL A   1      41.826  28.140  28.629  1.00  0.00     0.010 A 
ATOM     38  C   UNL A   1      40.784  27.891  29.541  1.00  0.00    -0.014 A 
BRANCH  38  39
ATOM     39  C   UNL A   1      40.553  28.805  30.686  1.00  0.00     0.031 A 
ATOM     40  C   UNL A   1      39.488  29.861  30.591  1.00  0.00     0.074 A 
ATOM     41  C   UNL A   1      41.287  28.687  31.808  1.00  0.00     0.049 A 
ATOM     42  N   UNL A   1      39.168  30.793  31.451  1.00  0.00    -0.248 NA
ATOM     43  C   UNL A   1      38.675  29.863  29.365  1.00  0.00     0.031 C 
ATOM     44  C   UNL A   1      42.320  27.680  32.037  1.00  0.00     0.029 A 
ATOM     45  N   UNL A   1      41.280  29.434  32.959  1.00  0.00    -0.354 N 
ATOM     46  C   UNL A   1      38.120  31.497  30.872  1.00  0.00     0.074 A 
ATOM     47  C   UNL A   1      37.873  30.898  29.576  1.00  0.00     0.031 C 
ATOM     48  C   UNL A   1      42.863  27.883  33.250  1.00  0.00     0.029 A 
ATOM     49  C   UNL A   1      42.239  29.053  33.865  1.00  0.00     0.049 A 
ATOM     50  H   UNL A   1      40.648  30.170  33.120  1.00  0.00     0.167 HD
ATOM     51  C   UNL A   1      37.425  32.544  31.376  1.00  0.00     0.037 A 
ATOM     52  C   UNL A   1      42.595  29.605  35.041  1.00  0.00     0.037 A 
ATOM     53  C   UNL A   1      37.670  33.140  32.663  1.00  0.00     0.049 A 
ATOM     54  C   UNL A   1      41.865  30.824  35.539  1.00  0.00     0.074 A 
ATOM     55  C   UNL A   1      36.993  34.181  33.274  1.00  0.00     0.029 A 
ATOM     56  N   UNL A   1      38.682  32.757  33.531  1.00  0.00    -0.354 N 
ATOM     57  N   UNL A   1      40.855  31.461  34.998  1.00  0.00    -0.248 NA
ATOM     58  C   UNL A   1      42.329  31.404  36.808  1.00  0.00     0.031 C 
ATOM     59  C   UNL A   1      37.628  34.462  34.490  1.00  0.00     0.029 A 
ATOM     60  C   UNL A   1      38.671  33.566  34.656  1.00  0.00     0.049 A 
ATOM     61  H   UNL A   1      39.314  32.019  33.371  1.00  0.00     0.167 HD
ATOM     62  C   UNL A   1      40.553  32.504  35.866  1.00  0.00     0.074 A 
ATOM     63  C   UNL A   1      41.475  32.403  36.979  1.00  0.00     0.031 C 
ATOM     64  C   UNL A   1      39.599  33.460  35.752  1.00  0.00     0.037 A 
BRANCH  51  65
ATOM     65  C   UNL A   1      36.340  33.132  30.523  1.00  0.00     0.057 A 
ATOM     66  C   UNL A   1      34.984  32.885  30.775  1.00  0.00     0.134 A 
ATOM     67  C   UNL A   1      36.655  33.997  29.467  1.00  0.00     0.134 A 
ATOM     68  F   UNL A   1      34.617  32.057  31.765  1.00  0.00    -0.206 F 
ATOM     69  C   UNL A   1      33.981  33.464  29.997  1.00  0.00     0.040 A 
ATOM     70  C   UNL A   1      35.661  34.600  28.696  1.00  0.00     0.040 A 
ATOM     71  F   UNL A   1      37.934  34.279  29.177  1.00  0.00    -0.206 F 
ATOM     72  C   UNL A   1      34.318  34.331  28.959  1.00  0.00     0.006 A 
ENDBRANCH  51  65
BRANCH  52  73
ATOM     73  C   UNL A   1      43.723  29.034  35.818  1.00  0.00     0.057 A 
ATOM     74  C   UNL A   1      43.523  27.992  36.731  1.00  0.00     0.134 A 
ATOM     75  C   UNL A   1      45.023  29.535  35.685  1.00  0.00     0.134 A 
ATOM     76  F   UNL A   1      42.295  27.489  36.922  1.00  0.00    -0.206 F 
ATOM     77  C   UNL A   1      44.574  27.478  37.494  1.00  0.00     0.040 A 
ATOM     78  C   UNL A   1      46.087  29.015  36.423  1.00  0.00     0.040 A 
ATOM     79  F   UNL A   1      45.280  30.534  34.828  1.00  0.00    -0.206 F 
ATOM     80  C   UNL A   1      45.861  27.987  37.336  1.00  0.00     0.006 A 
ENDBRANCH  52  73
BRANCH  64  81
ATOM     81  C   UNL A   1      39.496  34.466  36.861  1.00  0.00     0.057 A 
ATOM     82  C   UNL A   1      38.845  34.166  38.065  1.00  0.00     0.134 A 
ATOM     83  C   UNL A   1      40.089  35.729  36.741  1.00  0.00     0.134 A 
ATOM     84  F   UNL A   1      38.245  32.980  38.237  1.00  0.00    -0.206 F 
ATOM     85  C   UNL A   1      38.773  35.096  39.104  1.00  0.00     0.040 A 
ATOM     86  C   UNL A   1      40.044  36.657  37.782  1.00  0.00     0.040 A 
ATOM     87  F   UNL A   1      40.734  36.075  35.617  1.00  0.00    -0.206 F 
ATOM     88  C   UNL A   1      39.380  36.343  38.967  1.00  0.00     0.006 A 
ENDBRANCH  64  81
ENDBRANCH  38  39
ENDBRANCH  31  33
ENDBRANCH  30  31
ENDBRANCH  29  30
ENDBRANCH  28  29
ENDBRANCH  27  28
ENDBRANCH   1  27
TORSDOF 20
ENDMDL
MODEL 3
REMARK VINA RESULT:     -10.7      1.377      1.980
REMARK SMILES CCOc1cc(OCC)cc(-c2ccc([C@@H](C)C(=O)OCCOCCOC(=O)c3ccc(-c4c5nc(c(-c6c(F)cccc6F)c6ccc([nH]6)c(-c6c(F)cccc6F)c6nc(c(-c7c(F)cccc7F)c7ccc4[nH]7)C=C6)C=C5)cc3)cc2F)c1
REMARK SMILES IDX 22 1 21 2 20 3 18 4 19 5 16 6 17 7 15 8 12 9 13 10 84 11
REMARK SMILES IDX 14 12 83 13 85 14 11 15 4 16 5 17 86 18 6 19 10 20 3 21 2 22
REMARK SMILES IDX 1 23 7 24 8 25 9 26 23 27 24 28 25 29 26 30 27 31 28 32
REMARK SMILES IDX 29 33 30 34 82 35 31 36 81 37 32 38 33 39 34 40 75 41 35 42
REMARK SMILES IDX 80 43 74 44 76 45 36 46 79 47 73 48 72 49 37 51 63 52 46 53
REMARK SMILES IDX 62 54 47 55 50 56 61 57 77 58 48 59 49 60 60 62 78 63 51 64
REMARK SMILES IDX 38 65 39 66 44 67 40 68 41 69 43 70 45 71 42 72 64 73 65 74
REMARK SMILES IDX 70 75 66 76 67 77 69 78 71 79 68 80 52 81 53 82 58 83 54 84
REMARK SMILES IDX 55 85 57 86 59 87 56 88
REMARK H PARENT 76 50 50 61
REMARK Flexibility Score: inf
ROOT
ATOM      1  C   UNL A   1      44.388  20.453  25.497  1.00  0.00     0.202 C 
ENDROOT
BRANCH   1   2
ATOM      2  C   UNL A   1      43.464  19.252  25.280  1.00  0.00     0.261 C 
BRANCH   2   3
ATOM      3  O   UNL A   1      42.081  19.639  25.373  1.00  0.00    -0.463 OA
BRANCH   3   4
ATOM      4  C   UNL A   1      41.655  20.039  26.599  1.00  0.00     0.313 C 
ATOM      5  O   UNL A   1      41.475  19.286  27.551  1.00  0.00    -0.252 OA
BRANCH   4   6
ATOM      6  C   UNL A   1      41.359  21.529  26.689  1.00  0.00     0.126 C 
ATOM      7  C   UNL A   1      41.926  22.079  27.997  1.00  0.00     0.025 C 
BRANCH   6   8
ATOM      8  C   UNL A   1      39.920  21.979  26.467  1.00  0.00    -0.031 A 
ATOM      9  C   UNL A   1      37.275  22.809  25.797  1.00  0.00     0.018 A 
ATOM     10  C   UNL A   1      38.188  23.692  26.399  1.00  0.00     0.012 A 
ATOM     11  C   UNL A   1      37.701  21.492  25.590  1.00  0.00     0.131 A 
ATOM     12  C   UNL A   1      39.488  23.286  26.725  1.00  0.00     0.005 A 
ATOM     13  C   UNL A   1      38.994  21.079  25.916  1.00  0.00     0.044 A 
ATOM     14  F   UNL A   1      36.879  20.594  25.026  1.00  0.00    -0.206 F 
BRANCH   9  15
ATOM     15  C   UNL A   1      35.953  23.279  25.350  1.00  0.00    -0.008 A 
ATOM     16  C   UNL A   1      34.462  24.135  23.634  1.00  0.00     0.123 A 
ATOM     17  C   UNL A   1      33.417  24.202  24.553  1.00  0.00     0.092 A 
ATOM     18  C   UNL A   1      35.726  23.700  24.033  1.00  0.00     0.055 A 
ATOM     19  C   UNL A   1      33.625  23.819  25.879  1.00  0.00     0.123 A 
ATOM     20  C   UNL A   1      34.885  23.353  26.263  1.00  0.00     0.055 A 
BRANCH  16  21
ATOM     21  O   UNL A   1      34.248  24.639  22.379  1.00  0.00    -0.494 OA
BRANCH  21  22
ATOM     22  C   UNL A   1      33.035  25.392  22.259  1.00  0.00     0.226 C 
ATOM     23  C   UNL A   1      32.587  25.512  20.810  1.00  0.00     0.049 C 
ENDBRANCH  21  22
ENDBRANCH  16  21
BRANCH  19  24
ATOM     24  O   UNL A   1      32.536  23.923  26.701  1.00  0.00    -0.494 OA
BRANCH  24  25
ATOM     25  C   UNL A   1      31.241  23.906  26.096  1.00  0.00     0.226 C 
ATOM     26  C   UNL A   1      30.697  25.315  25.925  1.00  0.00     0.049 C 
ENDBRANCH  24  25
ENDBRANCH  19  24
ENDBRANCH   9  15
ENDBRANCH   6   8
ENDBRANCH   4   6
ENDBRANCH   3   4
ENDBRANCH   2   3
ENDBRANCH   1   2
BRANCH   1  27
ATOM     27  O   UNL A   1      45.199  20.824  24.384  1.00  0.00    -0.374 OA
BRANCH  27  28
ATOM     28  C   UNL A   1      44.989  22.124  23.832  1.00  0.00     0.202 C 
BRANCH  28  29
ATOM     29  C   UNL A   1      43.837  22.937  24.435  1.00  0.00     0.261 C 
BRANCH  29  30
ATOM     30  O   UNL A   1      44.225  23.602  25.652  1.00  0.00    -0.460 OA
BRANCH  30  31
ATOM     31  C   UNL A   1      44.491  24.923  25.527  1.00  0.00     0.338 C 
ATOM     32  O   UNL A   1      45.106  25.478  24.626  1.00  0.00    -0.246 OA
BRANCH  31  33
ATOM     33  C   UNL A   1      43.766  25.676  26.566  1.00  0.00     0.060 A 
ATOM     34  C   UNL A   1      44.221  26.964  26.873  1.00  0.00     0.016 A 
ATOM     35  C   UNL A   1      42.695  25.115  27.265  1.00  0.00     0.016 A 
ATOM     36  C   UNL A   1      43.618  27.693  27.897  1.00  0.00     0.010 A 
ATOM     37  C   UNL A   1      42.100  25.843  28.302  1.00  0.00     0.010 A 
ATOM     38  C   UNL A   1      42.569  27.127  28.635  1.00  0.00    -0.014 A 
BRANCH  38  39
ATOM     39  C   UNL A   1      42.015  27.850  29.806  1.00  0.00     0.031 A 
ATOM     40  C   UNL A   1      40.791  28.704  29.640  1.00  0.00     0.074 A 
ATOM     41  C   UNL A   1      42.600  27.737  31.012  1.00  0.00     0.049 A 
ATOM     42  N   UNL A   1      40.185  29.461  30.518  1.00  0.00    -0.248 NA
ATOM     43  C   UNL A   1      40.164  28.701  28.309  1.00  0.00     0.031 C 
ATOM     44  C   UNL A   1      43.767  26.910  31.310  1.00  0.00     0.029 A 
ATOM     45  N   UNL A   1      42.295  28.335  32.209  1.00  0.00    -0.354 N 
ATOM     46  C   UNL A   1      39.108  30.029  29.848  1.00  0.00     0.074 A 
ATOM     47  C   UNL A   1      39.158  29.546  28.483  1.00  0.00     0.031 C 
ATOM     48  C   UNL A   1      44.093  27.066  32.604  1.00  0.00     0.029 A 
ATOM     49  C   UNL A   1      43.179  28.030  33.215  1.00  0.00     0.049 A 
ATOM     50  H   UNL A   1      41.518  28.925  32.334  1.00  0.00     0.167 HD
ATOM     51  C   UNL A   1      38.164  30.872  30.328  1.00  0.00     0.037 A 
ATOM     52  C   UNL A   1      43.260  28.500  34.475  1.00  0.00     0.037 A 
ATOM     53  C   UNL A   1      38.115  31.353  31.684  1.00  0.00     0.049 A 
ATOM     54  C   UNL A   1      42.250  29.506  34.958  1.00  0.00     0.074 A 
ATOM     55  C   UNL A   1      37.175  32.181  32.272  1.00  0.00     0.029 A 
ATOM     56  N   UNL A   1      39.056  31.059  32.660  1.00  0.00    -0.354 N 
ATOM     57  N   UNL A   1      41.219  30.011  34.326  1.00  0.00    -0.248 NA
ATOM     58  C   UNL A   1      42.419  30.011  36.329  1.00  0.00     0.031 C 
ATOM     59  C   UNL A   1      37.575  32.430  33.590  1.00  0.00     0.029 A 
ATOM     60  C   UNL A   1      38.738  31.720  33.836  1.00  0.00     0.049 A 
ATOM     61  H   UNL A   1      39.833  30.468  32.536  1.00  0.00     0.167 HD
ATOM     62  C   UNL A   1      40.609  30.878  35.224  1.00  0.00     0.074 A 
ATOM     63  C   UNL A   1      41.375  30.817  36.452  1.00  0.00     0.031 C 
ATOM     64  C   UNL A   1      39.513  31.657  35.048  1.00  0.00     0.037 A 
BRANCH  51  65
ATOM     65  C   UNL A   1      37.111  31.352  29.373  1.00  0.00     0.057 A 
ATOM     66  C   UNL A   1      36.009  30.559  29.028  1.00  0.00     0.134 A 
ATOM     67  C   UNL A   1      37.176  32.642  28.831  1.00  0.00     0.134 A 
ATOM     68  F   UNL A   1      35.894  29.310  29.504  1.00  0.00    -0.206 F 
ATOM     69  C   UNL A   1      35.017  31.027  28.165  1.00  0.00     0.040 A 
ATOM     70  C   UNL A   1      36.180  33.129  27.985  1.00  0.00     0.040 A 
ATOM     71  F   UNL A   1      38.203  33.453  29.126  1.00  0.00    -0.206 F 
ATOM     72  C   UNL A   1      35.097  32.319  27.647  1.00  0.00     0.006 A 
ENDBRANCH  51  65
BRANCH  52  73
ATOM     73  C   UNL A   1      44.362  28.053  35.363  1.00  0.00     0.057 A 
ATOM     74  C   UNL A   1      44.178  27.015  36.284  1.00  0.00     0.134 A 
ATOM     75  C   UNL A   1      45.617  28.673  35.331  1.00  0.00     0.134 A 
ATOM     76  F   UNL A   1      42.990  26.401  36.380  1.00  0.00    -0.206 F 
ATOM     77  C   UNL A   1      45.199  26.617  37.150  1.00  0.00     0.040 A 
ATOM     78  C   UNL A   1      46.654  28.270  36.174  1.00  0.00     0.040 A 
ATOM     79  F   UNL A   1      45.856  29.675  34.473  1.00  0.00    -0.206 F 
ATOM     80  C   UNL A   1      46.443  27.243  37.091  1.00  0.00     0.006 A 
ENDBRANCH  52  73
BRANCH  64  81
ATOM     81  C   UNL A   1      39.071  32.496  36.211  1.00  0.00     0.057 A 
ATOM     82  C   UNL A   1      39.524  33.811  36.381  1.00  0.00     0.134 A 
ATOM     83  C   UNL A   1      38.152  32.001  37.144  1.00  0.00     0.134 A 
ATOM     84  F   UNL A   1      40.416  34.339  35.531  1.00  0.00    -0.206 F 
ATOM     85  C   UNL A   1      39.091  34.597  37.451  1.00  0.00     0.040 A 
ATOM     86  C   UNL A   1      37.693  32.786  38.203  1.00  0.00     0.040 A 
ATOM     87  F   UNL A   1      37.672  30.753  37.032  1.00  0.00    -0.206 F 
ATOM     88  C   UNL A   1      38.167  34.087  38.361  1.00  0.00     0.006 A 
ENDBRANCH  64  81
ENDBRANCH  38  39
ENDBRANCH  31  33
ENDBRANCH  30  31
ENDBRANCH  29  30
ENDBRANCH  28  29
ENDBRANCH  27  28
ENDBRANCH   1  27
TORSDOF 20
ENDMDL
