MODEL 1
REMARK VINA RESULT:     -11.3      0.000      0.000
REMARK SMILES O=C(NC1(C(=O)OCCOCCOC(=O)c2ccc(-c3c4nc(c(-c5c(F)cccc5F)c5ccc([nH]5)c(-c5c(F)cccc5F)c5nc(c(-c6c(F)cccc6F)c6ccc3[nH]6)C=C5)C=C4)cc2)CCCCC1)c1c[nH]c(=O)c(Cl)c1
REMARK SMILES IDX 10 1 9 2 8 3 7 4 5 5 6 6 4 7 70 8 74 9 71 10 73 11 72 12
REMARK SMILES IDX 3 13 1 14 2 15 75 17 76 18 82 19 77 20 80 21 78 22 81 24
REMARK SMILES IDX 79 25 11 26 12 27 13 28 14 29 15 30 16 31 17 32 69 33 18 34
REMARK SMILES IDX 68 35 19 36 20 37 21 38 62 39 22 40 67 41 61 42 63 43 23 44
REMARK SMILES IDX 66 45 60 46 59 47 24 49 50 50 33 51 49 52 34 53 37 54 48 55
REMARK SMILES IDX 64 56 35 57 36 58 47 60 65 61 38 62 25 63 26 64 31 65 27 66
REMARK SMILES IDX 28 67 30 68 32 69 29 70 51 71 52 72 57 73 53 74 54 75 56 76
REMARK SMILES IDX 58 77 55 78 39 79 40 80 45 81 41 82 42 83 44 84 46 85 43 86
REMARK H PARENT 3 16 77 23 63 48 37 59
REMARK Flexibility Score: inf
ROOT
ATOM      1  O   UNL A   1      31.820  31.008  26.850  1.00  0.00    -0.374 OA
ENDROOT
BRANCH   1   2
ATOM      2  C   UNL A   1      33.176  30.629  26.581  1.00  0.00     0.202 C 
BRANCH   2   3
ATOM      3  C   UNL A   1      33.377  29.352  25.770  1.00  0.00     0.261 C 
BRANCH   3   4
ATOM      4  O   UNL A   1      32.424  29.381  24.704  1.00  0.00    -0.461 OA
BRANCH   4   5
ATOM      5  C   UNL A   1      31.541  28.364  24.646  1.00  0.00     0.331 C 
ATOM      6  O   UNL A   1      31.032  27.838  25.628  1.00  0.00    -0.249 OA
BRANCH   5   7
ATOM      7  C   UNL A   1      31.220  27.991  23.175  1.00  0.00     0.138 C 
ATOM      8  C   UNL A   1      30.725  29.315  22.538  1.00  0.00     0.040 C 
ATOM      9  C   UNL A   1      30.075  26.967  22.925  1.00  0.00     0.040 C 
ATOM     10  C   UNL A   1      29.421  29.806  23.178  1.00  0.00     0.003 C 
ATOM     11  C   UNL A   1      28.708  27.376  23.491  1.00  0.00     0.003 C 
ATOM     12  C   UNL A   1      28.295  28.784  23.069  1.00  0.00     0.000 C 
BRANCH   7  13
ATOM     13  N   UNL A   1      32.449  27.541  22.441  1.00  0.00    -0.336 N 
ATOM     14  O   UNL A   1      33.698  26.050  21.335  1.00  0.00    -0.269 OA
ATOM     15  C   UNL A   1      33.114  26.347  22.375  1.00  0.00     0.253 C 
ATOM     16  H   UNL A   1      32.860  28.250  21.896  1.00  0.00     0.165 HD
BRANCH  15  17
ATOM     17  C   UNL A   1      33.248  25.456  23.561  1.00  0.00     0.057 A 
ATOM     18  C   UNL A   1      34.046  25.841  24.572  1.00  0.00     0.099 A 
ATOM     19  C   UNL A   1      32.713  24.108  23.579  1.00  0.00     0.041 A 
ATOM     20  N   UNL A   1      34.191  25.051  25.690  1.00  0.00    -0.327 N 
ATOM     21  C   UNL A   1      32.825  23.327  24.666  1.00  0.00     0.106 A 
ATOM     22  C   UNL A   1      33.558  23.837  25.869  1.00  0.00     0.266 A 
ATOM     23  H   UNL A   1      34.783  25.372  26.409  1.00  0.00     0.169 HD
ATOM     24  Cl  UNL A   1      32.191  21.730  24.718  1.00  0.00    -0.078 Cl
ATOM     25  O   UNL A   1      33.615  23.237  26.937  1.00  0.00    -0.268 OA
ENDBRANCH  15  17
ENDBRANCH   7  13
ENDBRANCH   5   7
ENDBRANCH   4   5
ENDBRANCH   3   4
ENDBRANCH   2   3
ENDBRANCH   1   2
BRANCH   1  26
ATOM     26  C   UNL A   1      31.512  32.399  26.885  1.00  0.00     0.202 C 
BRANCH  26  27
ATOM     27  C   UNL A   1      32.645  33.387  27.168  1.00  0.00     0.261 C 
BRANCH  27  28
ATOM     28  O   UNL A   1      32.465  34.080  28.397  1.00  0.00    -0.460 OA
BRANCH  28  29
ATOM     29  C   UNL A   1      33.545  34.818  28.753  1.00  0.00     0.338 C 
ATOM     30  O   UNL A   1      33.593  36.010  28.997  1.00  0.00    -0.246 OA
BRANCH  29  31
ATOM     31  C   UNL A   1      34.652  33.889  29.003  1.00  0.00     0.060 A 
ATOM     32  C   UNL A   1      34.337  32.629  29.529  1.00  0.00     0.016 A 
ATOM     33  C   UNL A   1      35.968  34.244  28.700  1.00  0.00     0.016 A 
ATOM     34  C   UNL A   1      35.354  31.727  29.805  1.00  0.00     0.010 A 
ATOM     35  C   UNL A   1      36.988  33.350  28.994  1.00  0.00     0.010 A 
ATOM     36  C   UNL A   1      36.681  32.113  29.590  1.00  0.00    -0.014 A 
BRANCH  36  37
ATOM     37  C   UNL A   1      37.763  31.338  30.220  1.00  0.00     0.031 A 
ATOM     38  C   UNL A   1      38.053  31.611  31.667  1.00  0.00     0.074 A 
ATOM     39  C   UNL A   1      38.452  30.427  29.519  1.00  0.00     0.049 A 
ATOM     40  N   UNL A   1      39.000  31.135  32.428  1.00  0.00    -0.248 NA
ATOM     41  C   UNL A   1      37.157  32.566  32.346  1.00  0.00     0.031 C 
ATOM     42  C   UNL A   1      38.205  30.070  28.123  1.00  0.00     0.029 A 
ATOM     43  N   UNL A   1      39.511  29.644  29.889  1.00  0.00    -0.354 N 
ATOM     44  C   UNL A   1      38.824  31.742  33.665  1.00  0.00     0.074 A 
ATOM     45  C   UNL A   1      37.703  32.645  33.548  1.00  0.00     0.031 C 
ATOM     46  C   UNL A   1      39.102  29.142  27.748  1.00  0.00     0.029 A 
ATOM     47  C   UNL A   1      40.002  28.874  28.867  1.00  0.00     0.049 A 
ATOM     48  H   UNL A   1      39.883  29.636  30.800  1.00  0.00     0.167 HD
ATOM     49  C   UNL A   1      39.536  31.551  34.799  1.00  0.00     0.037 A 
ATOM     50  C   UNL A   1      41.077  28.064  28.846  1.00  0.00     0.037 A 
ATOM     51  C   UNL A   1      40.647  30.644  34.889  1.00  0.00     0.049 A 
ATOM     52  C   UNL A   1      41.892  27.918  30.103  1.00  0.00     0.074 A 
ATOM     53  C   UNL A   1      41.434  30.350  35.986  1.00  0.00     0.029 A 
ATOM     54  N   UNL A   1      41.131  29.890  33.829  1.00  0.00    -0.354 N 
ATOM     55  N   UNL A   1      41.711  28.475  31.279  1.00  0.00    -0.248 NA
ATOM     56  C   UNL A   1      43.060  27.030  30.035  1.00  0.00     0.031 C 
ATOM     57  C   UNL A   1      42.431  29.460  35.574  1.00  0.00     0.029 A 
ATOM     58  C   UNL A   1      42.226  29.151  34.238  1.00  0.00     0.049 A 
ATOM     59  H   UNL A   1      40.751  29.883  32.920  1.00  0.00     0.167 HD
ATOM     60  C   UNL A   1      42.719  27.980  32.097  1.00  0.00     0.074 A 
ATOM     61  C   UNL A   1      43.501  27.071  31.283  1.00  0.00     0.031 C 
ATOM     62  C   UNL A   1      42.977  28.248  33.402  1.00  0.00     0.037 A 
BRANCH  49  63
ATOM     63  C   UNL A   1      39.154  32.362  36.002  1.00  0.00     0.057 A 
ATOM     64  C   UNL A   1      38.262  31.886  36.973  1.00  0.00     0.134 A 
ATOM     65  C   UNL A   1      39.693  33.640  36.196  1.00  0.00     0.134 A 
ATOM     66  F   UNL A   1      37.690  30.679  36.837  1.00  0.00    -0.206 F 
ATOM     67  C   UNL A   1      37.903  32.660  38.078  1.00  0.00     0.040 A 
ATOM     68  C   UNL A   1      39.365  34.411  37.312  1.00  0.00     0.040 A 
ATOM     69  F   UNL A   1      40.549  34.161  35.304  1.00  0.00    -0.206 F 
ATOM     70  C   UNL A   1      38.461  33.924  38.254  1.00  0.00     0.006 A 
ENDBRANCH  49  63
BRANCH  50  71
ATOM     71  C   UNL A   1      41.441  27.338  27.603  1.00  0.00     0.057 A 
ATOM     72  C   UNL A   1      41.016  26.024  27.380  1.00  0.00     0.134 A 
ATOM     73  C   UNL A   1      42.228  27.937  26.611  1.00  0.00     0.134 A 
ATOM     74  F   UNL A   1      40.274  25.390  28.301  1.00  0.00    -0.206 F 
ATOM     75  C   UNL A   1      41.375  25.324  26.228  1.00  0.00     0.040 A 
ATOM     76  C   UNL A   1      42.572  27.258  25.441  1.00  0.00     0.040 A 
ATOM     77  F   UNL A   1      42.662  29.198  26.758  1.00  0.00    -0.206 F 
ATOM     78  C   UNL A   1      42.152  25.943  25.251  1.00  0.00     0.006 A 
ENDBRANCH  50  71
BRANCH  62  79
ATOM     79  C   UNL A   1      44.124  27.516  34.035  1.00  0.00     0.057 A 
ATOM     80  C   UNL A   1      45.412  28.061  34.094  1.00  0.00     0.134 A 
ATOM     81  C   UNL A   1      43.920  26.265  34.634  1.00  0.00     0.134 A 
ATOM     82  F   UNL A   1      45.674  29.250  33.530  1.00  0.00    -0.206 F 
ATOM     83  C   UNL A   1      46.464  27.376  34.704  1.00  0.00     0.040 A 
ATOM     84  C   UNL A   1      44.956  25.587  35.275  1.00  0.00     0.040 A 
ATOM     85  F   UNL A   1      42.706  25.694  34.624  1.00  0.00    -0.206 F 
ATOM     86  C   UNL A   1      46.234  26.139  35.303  1.00  0.00     0.006 A 
ENDBRANCH  62  79
ENDBRANCH  36  37
ENDBRANCH  29  31
ENDBRANCH  28  29
ENDBRANCH  27  28
ENDBRANCH  26  27
ENDBRANCH   1  26
TORSDOF 16
ENDMDL
MODEL 2
REMARK VINA RESULT:     -11.2      4.217      7.346
REMARK SMILES O=C(NC1(C(=O)OCCOCCOC(=O)c2ccc(-c3c4nc(c(-c5c(F)cccc5F)c5ccc([nH]5)c(-c5c(F)cccc5F)c5nc(c(-c6c(F)cccc6F)c6ccc3[nH]6)C=C5)C=C4)cc2)CCCCC1)c1c[nH]c(=O)c(Cl)c1
REMARK SMILES IDX 10 1 9 2 8 3 7 4 5 5 6 6 4 7 70 8 74 9 71 10 73 11 72 12
REMARK SMILES IDX 3 13 1 14 2 15 75 17 76 18 82 19 77 20 80 21 78 22 81 24
REMARK SMILES IDX 79 25 11 26 12 27 13 28 14 29 15 30 16 31 17 32 69 33 18 34
REMARK SMILES IDX 68 35 19 36 20 37 21 38 62 39 22 40 67 41 61 42 63 43 23 44
REMARK SMILES IDX 66 45 60 46 59 47 24 49 50 50 33 51 49 52 34 53 37 54 48 55
REMARK SMILES IDX 64 56 35 57 36 58 47 60 65 61 38 62 25 63 26 64 31 65 27 66
REMARK SMILES IDX 28 67 30 68 32 69 29 70 51 71 52 72 57 73 53 74 54 75 56 76
REMARK SMILES IDX 58 77 55 78 39 79 40 80 45 81 41 82 42 83 44 84 46 85 43 86
REMARK H PARENT 3 16 77 23 63 48 37 59
REMARK Flexibility Score: inf
ROOT
ATOM      1  O   UNL A   1      35.672  22.825  23.060  1.00  0.00    -0.374 OA
ENDROOT
BRANCH   1   2
ATOM      2  C   UNL A   1      34.841  23.856  23.607  1.00  0.00     0.202 C 
BRANCH   2   3
ATOM      3  C   UNL A   1      33.436  23.977  23.024  1.00  0.00     0.261 C 
BRANCH   3   4
ATOM      4  O   UNL A   1      32.755  24.982  23.782  1.00  0.00    -0.461 OA
BRANCH   4   5
ATOM      5  C   UNL A   1      31.412  24.890  23.851  1.00  0.00     0.331 C 
ATOM      6  O   UNL A   1      30.712  24.382  22.986  1.00  0.00    -0.249 OA
BRANCH   5   7
ATOM      7  C   UNL A   1      30.886  25.464  25.193  1.00  0.00     0.138 C 
ATOM      8  C   UNL A   1      29.908  26.592  24.777  1.00  0.00     0.040 C 
ATOM      9  C   UNL A   1      31.917  26.147  26.138  1.00  0.00     0.040 C 
ATOM     10  C   UNL A   1      30.629  27.733  24.045  1.00  0.00     0.003 C 
ATOM     11  C   UNL A   1      32.672  27.332  25.521  1.00  0.00     0.003 C 
ATOM     12  C   UNL A   1      31.737  28.358  24.886  1.00  0.00     0.000 C 
BRANCH   7  13
ATOM     13  N   UNL A   1      30.119  24.433  25.968  1.00  0.00    -0.336 N 
ATOM     14  O   UNL A   1      29.843  22.956  27.626  1.00  0.00    -0.269 OA
ATOM     15  C   UNL A   1      30.489  23.298  26.637  1.00  0.00     0.253 C 
ATOM     16  H   UNL A   1      29.150  24.610  26.001  1.00  0.00     0.165 HD
BRANCH  15  17
ATOM     17  C   UNL A   1      31.573  22.410  26.136  1.00  0.00     0.057 A 
ATOM     18  C   UNL A   1      32.806  22.536  26.658  1.00  0.00     0.099 A 
ATOM     19  C   UNL A   1      31.400  21.558  24.975  1.00  0.00     0.041 A 
ATOM     20  N   UNL A   1      33.835  21.728  26.229  1.00  0.00    -0.327 N 
ATOM     21  C   UNL A   1      32.383  20.747  24.551  1.00  0.00     0.106 A 
ATOM     22  C   UNL A   1      33.703  20.754  25.259  1.00  0.00     0.266 A 
ATOM     23  H   UNL A   1      34.722  21.852  26.640  1.00  0.00     0.169 HD
ATOM     24  Cl  UNL A   1      32.200  19.720  23.184  1.00  0.00    -0.078 Cl
ATOM     25  O   UNL A   1      34.615  19.973  25.008  1.00  0.00    -0.268 OA
ENDBRANCH  15  17
ENDBRANCH   7  13
ENDBRANCH   5   7
ENDBRANCH   4   5
ENDBRANCH   3   4
ENDBRANCH   2   3
ENDBRANCH   1   2
BRANCH   1  26
ATOM     26  C   UNL A   1      36.992  22.687  23.578  1.00  0.00     0.202 C 
BRANCH  26  27
ATOM     27  C   UNL A   1      37.323  21.440  24.400  1.00  0.00     0.261 C 
BRANCH  27  28
ATOM     28  O   UNL A   1      37.628  21.750  25.755  1.00  0.00    -0.460 OA
BRANCH  28  29
ATOM     29  C   UNL A   1      38.907  21.457  26.091  1.00  0.00     0.338 C 
ATOM     30  O   UNL A   1      39.545  20.455  25.820  1.00  0.00    -0.246 OA
BRANCH  29  31
ATOM     31  C   UNL A   1      39.496  22.663  26.684  1.00  0.00     0.060 A 
ATOM     32  C   UNL A   1      38.923  23.897  26.350  1.00  0.00     0.016 A 
ATOM     33  C   UNL A   1      40.570  22.574  27.572  1.00  0.00     0.016 A 
ATOM     34  C   UNL A   1      39.461  25.065  26.867  1.00  0.00     0.010 A 
ATOM     35  C   UNL A   1      41.122  23.744  28.074  1.00  0.00     0.010 A 
ATOM     36  C   UNL A   1      40.596  24.988  27.683  1.00  0.00    -0.014 A 
BRANCH  36  37
ATOM     37  C   UNL A   1      41.391  26.204  27.921  1.00  0.00     0.031 A 
ATOM     38  C   UNL A   1      40.732  27.321  28.677  1.00  0.00     0.074 A 
ATOM     39  C   UNL A   1      42.652  26.297  27.477  1.00  0.00     0.049 A 
ATOM     40  N   UNL A   1      41.176  28.519  28.942  1.00  0.00    -0.248 NA
ATOM     41  C   UNL A   1      39.377  27.051  29.193  1.00  0.00     0.031 C 
ATOM     42  C   UNL A   1      43.381  25.243  26.773  1.00  0.00     0.029 A 
ATOM     43  N   UNL A   1      43.538  27.337  27.545  1.00  0.00    -0.354 N 
ATOM     44  C   UNL A   1      40.153  29.148  29.639  1.00  0.00     0.074 A 
ATOM     45  C   UNL A   1      39.052  28.216  29.729  1.00  0.00     0.031 C 
ATOM     46  C   UNL A   1      44.607  25.698  26.461  1.00  0.00     0.029 A 
ATOM     47  C   UNL A   1      44.727  27.083  26.911  1.00  0.00     0.049 A 
ATOM     48  H   UNL A   1      43.340  28.185  28.003  1.00  0.00     0.167 HD
ATOM     49  C   UNL A   1      40.142  30.395  30.163  1.00  0.00     0.037 A 
ATOM     50  C   UNL A   1      45.778  27.897  26.703  1.00  0.00     0.037 A 
ATOM     51  C   UNL A   1      41.251  31.303  30.061  1.00  0.00     0.049 A 
ATOM     52  C   UNL A   1      45.715  29.303  27.240  1.00  0.00     0.074 A 
ATOM     53  C   UNL A   1      41.367  32.584  30.566  1.00  0.00     0.029 A 
ATOM     54  N   UNL A   1      42.435  31.021  29.395  1.00  0.00    -0.354 N 
ATOM     55  N   UNL A   1      44.756  29.890  27.919  1.00  0.00    -0.248 NA
ATOM     56  C   UNL A   1      46.880  30.161  26.985  1.00  0.00     0.031 C 
ATOM     57  C   UNL A   1      42.601  33.097  30.157  1.00  0.00     0.029 A 
ATOM     58  C   UNL A   1      43.280  32.114  29.452  1.00  0.00     0.049 A 
ATOM     59  H   UNL A   1      42.644  30.168  28.949  1.00  0.00     0.167 HD
ATOM     60  C   UNL A   1      45.214  31.171  28.201  1.00  0.00     0.074 A 
ATOM     61  C   UNL A   1      46.542  31.269  27.627  1.00  0.00     0.031 C 
ATOM     62  C   UNL A   1      44.600  32.175  28.875  1.00  0.00     0.037 A 
BRANCH  49  63
ATOM     63  C   UNL A   1      38.887  30.847  30.850  1.00  0.00     0.057 A 
ATOM     64  C   UNL A   1      37.862  31.519  30.169  1.00  0.00     0.134 A 
ATOM     65  C   UNL A   1      38.696  30.599  32.215  1.00  0.00     0.134 A 
ATOM     66  F   UNL A   1      37.988  31.809  28.865  1.00  0.00    -0.206 F 
ATOM     67  C   UNL A   1      36.707  31.948  30.826  1.00  0.00     0.040 A 
ATOM     68  C   UNL A   1      37.533  30.996  32.877  1.00  0.00     0.040 A 
ATOM     69  F   UNL A   1      39.638  29.965  32.931  1.00  0.00    -0.206 F 
ATOM     70  C   UNL A   1      36.537  31.680  32.183  1.00  0.00     0.006 A 
ENDBRANCH  49  63
BRANCH  50  71
ATOM     71  C   UNL A   1      46.965  27.410  25.957  1.00  0.00     0.057 A 
ATOM     72  C   UNL A   1      47.046  27.531  24.566  1.00  0.00     0.134 A 
ATOM     73  C   UNL A   1      48.045  26.807  26.615  1.00  0.00     0.134 A 
ATOM     74  F   UNL A   1      46.037  28.084  23.877  1.00  0.00    -0.206 F 
ATOM     75  C   UNL A   1      48.146  27.053  23.852  1.00  0.00     0.040 A 
ATOM     76  C   UNL A   1      49.164  26.349  25.917  1.00  0.00     0.040 A 
ATOM     77  F   UNL A   1      48.034  26.668  27.949  1.00  0.00    -0.206 F 
ATOM     78  C   UNL A   1      49.212  26.465  24.530  1.00  0.00     0.006 A 
ENDBRANCH  50  71
BRANCH  62  79
ATOM     79  C   UNL A   1      45.375  33.446  29.062  1.00  0.00     0.057 A 
ATOM     80  C   UNL A   1      46.241  33.637  30.145  1.00  0.00     0.134 A 
ATOM     81  C   UNL A   1      45.286  34.475  28.114  1.00  0.00     0.134 A 
ATOM     82  F   UNL A   1      46.363  32.693  31.092  1.00  0.00    -0.206 F 
ATOM     83  C   UNL A   1      46.971  34.816  30.295  1.00  0.00     0.040 A 
ATOM     84  C   UNL A   1      46.035  35.645  28.235  1.00  0.00     0.040 A 
ATOM     85  F   UNL A   1      44.485  34.349  27.045  1.00  0.00    -0.206 F 
ATOM     86  C   UNL A   1      46.874  35.821  29.333  1.00  0.00     0.006 A 
ENDBRANCH  62  79
ENDBRANCH  36  37
ENDBRANCH  29  31
ENDBRANCH  28  29
ENDBRANCH  27  28
ENDBRANCH  26  27
ENDBRANCH   1  26
TORSDOF 16
ENDMDL
MODEL 3
REMARK VINA RESULT:     -11.1      4.019      9.250
REMARK SMILES O=C(NC1(C(=O)OCCOCCOC(=O)c2ccc(-c3c4nc(c(-c5c(F)cccc5F)c5ccc([nH]5)c(-c5c(F)cccc5F)c5nc(c(-c6c(F)cccc6F)c6ccc3[nH]6)C=C5)C=C4)cc2)CCCCC1)c1c[nH]c(=O)c(Cl)c1
REMARK SMILES IDX 10 1 9 2 8 3 7 4 5 5 6 6 4 7 70 8 74 9 71 10 73 11 72 12
REMARK SMILES IDX 3 13 1 14 2 15 75 17 76 18 82 19 77 20 80 21 78 22 81 24
REMARK SMILES IDX 79 25 11 26 12 27 13 28 14 29 15 30 16 31 17 32 69 33 18 34
REMARK SMILES IDX 68 35 19 36 20 37 21 38 62 39 22 40 67 41 61 42 63 43 23 44
REMARK SMILES IDX 66 45 60 46 59 47 24 49 50 50 33 51 49 52 34 53 37 54 48 55
REMARK SMILES IDX 64 56 35 57 36 58 47 60 65 61 38 62 25 63 26 64 31 65 27 66
REMARK SMILES IDX 28 67 30 68 32 69 29 70 51 71 52 72 57 73 53 74 54 75 56 76
REMARK SMILES IDX 58 77 55 78 39 79 40 80 45 81 41 82 42 83 44 84 46 85 43 86
REMARK H PARENT 3 16 77 23 63 48 37 59
REMARK Flexibility Score: inf
ROOT
ATOM      1  O   UNL A   1      35.489  21.792  25.239  1.00  0.00    -0.374 OA
ENDROOT
BRANCH   1   2
ATOM      2  C   UNL A   1      34.225  21.987  25.886  1.00  0.00     0.202 C 
BRANCH   2   3
ATOM      3  C   UNL A   1      34.105  23.211  26.789  1.00  0.00     0.261 C 
BRANCH   3   4
ATOM      4  O   UNL A   1      33.649  24.292  25.970  1.00  0.00    -0.461 OA
BRANCH   4   5
ATOM      5  C   UNL A   1      32.464  24.845  26.294  1.00  0.00     0.331 C 
ATOM      6  O   UNL A   1      31.792  24.517  27.263  1.00  0.00    -0.249 OA
BRANCH   5   7
ATOM      7  C   UNL A   1      32.096  25.986  25.308  1.00  0.00     0.138 C 
ATOM      8  C   UNL A   1      33.408  26.796  25.145  1.00  0.00     0.040 C 
ATOM      9  C   UNL A   1      31.033  27.023  25.770  1.00  0.00     0.040 C 
ATOM     10  C   UNL A   1      33.841  27.454  26.462  1.00  0.00     0.003 C 
ATOM     11  C   UNL A   1      31.381  27.774  27.062  1.00  0.00     0.003 C 
ATOM     12  C   UNL A   1      32.777  28.391  27.024  1.00  0.00     0.000 C 
BRANCH   7  13
ATOM     13  N   UNL A   1      31.703  25.445  23.964  1.00  0.00    -0.336 N 
ATOM     14  O   UNL A   1      31.743  25.390  21.728  1.00  0.00    -0.269 OA
ATOM     15  C   UNL A   1      31.490  26.031  22.746  1.00  0.00     0.253 C 
ATOM     16  H   UNL A   1      31.570  24.470  23.959  1.00  0.00     0.165 HD
BRANCH  15  17
ATOM     17  C   UNL A   1      30.855  27.372  22.620  1.00  0.00     0.057 A 
ATOM     18  C   UNL A   1      31.637  28.437  22.370  1.00  0.00     0.099 A 
ATOM     19  C   UNL A   1      29.462  27.602  22.952  1.00  0.00     0.041 A 
ATOM     20  N   UNL A   1      31.090  29.693  22.237  1.00  0.00    -0.327 N 
ATOM     21  C   UNL A   1      28.902  28.815  22.811  1.00  0.00     0.106 A 
ATOM     22  C   UNL A   1      29.741  29.966  22.347  1.00  0.00     0.266 A 
ATOM     23  H   UNL A   1      31.699  30.445  22.051  1.00  0.00     0.169 HD
ATOM     24  Cl  UNL A   1      27.251  29.112  23.188  1.00  0.00    -0.078 Cl
ATOM     25  O   UNL A   1      29.290  31.077  22.088  1.00  0.00    -0.268 OA
ENDBRANCH  15  17
ENDBRANCH   7  13
ENDBRANCH   5   7
ENDBRANCH   4   5
ENDBRANCH   3   4
ENDBRANCH   2   3
ENDBRANCH   1   2
BRANCH   1  26
ATOM     26  C   UNL A   1      35.913  20.454  24.994  1.00  0.00     0.202 C 
BRANCH  26  27
ATOM     27  C   UNL A   1      37.414  20.160  24.974  1.00  0.00     0.261 C 
BRANCH  27  28
ATOM     28  O   UNL A   1      38.197  21.325  25.207  1.00  0.00    -0.460 OA
BRANCH  28  29
ATOM     29  C   UNL A   1      39.267  21.094  26.006  1.00  0.00     0.338 C 
ATOM     30  O   UNL A   1      39.920  20.070  26.111  1.00  0.00    -0.246 OA
BRANCH  29  31
ATOM     31  C   UNL A   1      39.658  22.375  26.603  1.00  0.00     0.060 A 
ATOM     32  C   UNL A   1      38.973  23.523  26.184  1.00  0.00     0.016 A 
ATOM     33  C   UNL A   1      40.659  22.438  27.574  1.00  0.00     0.016 A 
ATOM     34  C   UNL A   1      39.325  24.760  26.703  1.00  0.00     0.010 A 
ATOM     35  C   UNL A   1      41.027  23.677  28.080  1.00  0.00     0.010 A 
ATOM     36  C   UNL A   1      40.391  24.839  27.607  1.00  0.00    -0.014 A 
BRANCH  36  37
ATOM     37  C   UNL A   1      41.014  26.148  27.866  1.00  0.00     0.031 A 
ATOM     38  C   UNL A   1      42.416  26.353  27.372  1.00  0.00     0.074 A 
ATOM     39  C   UNL A   1      40.344  27.109  28.516  1.00  0.00     0.049 A 
ATOM     40  N   UNL A   1      43.216  27.369  27.544  1.00  0.00    -0.248 NA
ATOM     41  C   UNL A   1      43.002  25.250  26.587  1.00  0.00     0.031 C 
ATOM     42  C   UNL A   1      38.964  27.007  28.990  1.00  0.00     0.029 A 
ATOM     43  N   UNL A   1      40.744  28.360  28.899  1.00  0.00    -0.354 N 
ATOM     44  C   UNL A   1      44.400  27.023  26.904  1.00  0.00     0.074 A 
ATOM     45  C   UNL A   1      44.229  25.692  26.369  1.00  0.00     0.031 C 
ATOM     46  C   UNL A   1      38.636  28.151  29.616  1.00  0.00     0.029 A 
ATOM     47  C   UNL A   1      39.794  29.041  29.615  1.00  0.00     0.049 A 
ATOM     48  H   UNL A   1      41.628  28.733  28.682  1.00  0.00     0.167 HD
ATOM     49  C   UNL A   1      45.525  27.760  26.772  1.00  0.00     0.037 A 
ATOM     50  C   UNL A   1      39.873  30.241  30.219  1.00  0.00     0.037 A 
ATOM     51  C   UNL A   1      45.669  29.084  27.314  1.00  0.00     0.049 A 
ATOM     52  C   UNL A   1      41.161  31.015  30.113  1.00  0.00     0.074 A 
ATOM     53  C   UNL A   1      46.752  29.938  27.230  1.00  0.00     0.029 A 
ATOM     54  N   UNL A   1      44.692  29.739  28.051  1.00  0.00    -0.354 N 
ATOM     55  N   UNL A   1      42.272  30.696  29.488  1.00  0.00    -0.248 NA
ATOM     56  C   UNL A   1      41.208  32.316  30.792  1.00  0.00     0.031 C 
ATOM     57  C   UNL A   1      46.451  31.088  27.966  1.00  0.00     0.029 A 
ATOM     58  C   UNL A   1      45.157  30.977  28.453  1.00  0.00     0.049 A 
ATOM     59  H   UNL A   1      43.800  29.376  28.257  1.00  0.00     0.167 HD
ATOM     60  C   UNL A   1      43.135  31.770  29.670  1.00  0.00     0.074 A 
ATOM     61  C   UNL A   1      42.413  32.751  30.456  1.00  0.00     0.031 C 
ATOM     62  C   UNL A   1      44.407  31.934  29.229  1.00  0.00     0.037 A 
BRANCH  49  63
ATOM     63  C   UNL A   1      46.684  27.134  26.053  1.00  0.00     0.057 A 
ATOM     64  C   UNL A   1      46.929  27.360  24.692  1.00  0.00     0.134 A 
ATOM     65  C   UNL A   1      47.573  26.296  26.736  1.00  0.00     0.134 A 
ATOM     66  F   UNL A   1      46.103  28.134  23.971  1.00  0.00    -0.206 F 
ATOM     67  C   UNL A   1      48.002  26.756  24.033  1.00  0.00     0.040 A 
ATOM     68  C   UNL A   1      48.667  25.711  26.096  1.00  0.00     0.040 A 
ATOM     69  F   UNL A   1      47.397  26.032  28.040  1.00  0.00    -0.206 F 
ATOM     70  C   UNL A   1      48.879  25.935  24.737  1.00  0.00     0.006 A 
ENDBRANCH  49  63
BRANCH  50  71
ATOM     71  C   UNL A   1      38.712  30.777  30.972  1.00  0.00     0.057 A 
ATOM     72  C   UNL A   1      37.760  31.592  30.351  1.00  0.00     0.134 A 
ATOM     73  C   UNL A   1      38.529  30.494  32.332  1.00  0.00     0.134 A 
ATOM     74  F   UNL A   1      37.890  31.914  29.056  1.00  0.00    -0.206 F 
ATOM     75  C   UNL A   1      36.679  32.124  31.056  1.00  0.00     0.040 A 
ATOM     76  C   UNL A   1      37.438  30.996  33.043  1.00  0.00     0.040 A 
ATOM     77  F   UNL A   1      39.401  29.712  32.986  1.00  0.00    -0.206 F 
ATOM     78  C   UNL A   1      36.513  31.821  32.407  1.00  0.00     0.006 A 
ENDBRANCH  50  71
BRANCH  62  79
ATOM     79  C   UNL A   1      45.078  33.238  29.550  1.00  0.00     0.057 A 
ATOM     80  C   UNL A   1      45.840  33.416  30.710  1.00  0.00     0.134 A 
ATOM     81  C   UNL A   1      44.993  34.315  28.657  1.00  0.00     0.134 A 
ATOM     82  F   UNL A   1      45.951  32.426  31.609  1.00  0.00    -0.206 F 
ATOM     83  C   UNL A   1      46.474  34.628  30.985  1.00  0.00     0.040 A 
ATOM     84  C   UNL A   1      45.650  35.520  28.905  1.00  0.00     0.040 A 
ATOM     85  F   UNL A   1      44.290  34.204  27.520  1.00  0.00    -0.206 F 
ATOM     86  C   UNL A   1      46.385  35.681  30.076  1.00  0.00     0.006 A 
ENDBRANCH  62  79
ENDBRANCH  36  37
ENDBRANCH  29  31
ENDBRANCH  28  29
ENDBRANCH  27  28
ENDBRANCH  26  27
ENDBRANCH   1  26
TORSDOF 16
ENDMDL
