MODEL 1
REMARK VINA RESULT:     -11.0      0.000      0.000
REMARK SMILES C[C@@H](C(=O)OCCOCCOC(=O)c1ccc(-c2c3nc(c(-c4c(F)cccc4F)c4ccc([nH]4)c(-c4c(F)cccc4F)c4nc(c(-c5c(F)cccc5F)c5ccc2[nH]5)C=C4)C=C3)cc1)c1ccc(Cc2ccsc2)cc1F
REMARK SMILES IDX 7 1 6 2 5 3 3 4 4 5 2 6 1 7 68 8 69 9 79 10 70 11 78 12
REMARK SMILES IDX 80 13 71 14 72 15 73 16 74 17 77 18 75 19 76 20 8 21 9 22
REMARK SMILES IDX 10 23 11 24 12 25 13 26 14 27 15 28 67 29 16 30 66 31 17 32
REMARK SMILES IDX 18 33 19 34 60 35 20 36 65 37 59 38 61 39 21 40 64 41 58 42
REMARK SMILES IDX 57 43 22 45 48 46 31 47 47 48 32 49 35 50 46 51 62 52 33 53
REMARK SMILES IDX 34 54 45 56 63 57 36 58 23 59 24 60 29 61 25 62 26 63 28 64
REMARK SMILES IDX 30 65 27 66 49 67 50 68 55 69 51 70 52 71 54 72 56 73 53 74
REMARK SMILES IDX 37 75 38 76 43 77 39 78 40 79 42 80 44 81 41 82
REMARK H PARENT 61 44 35 55
REMARK Flexibility Score: inf
ROOT
ATOM      1  C   UNL A   1      32.487  29.698  25.806  1.00  0.00     0.202 C 
ENDROOT
BRANCH   1   2
ATOM      2  C   UNL A   1      33.142  28.401  26.284  1.00  0.00     0.261 C 
BRANCH   2   3
ATOM      3  O   UNL A   1      33.594  27.616  25.165  1.00  0.00    -0.463 OA
BRANCH   3   4
ATOM      4  C   UNL A   1      33.175  26.321  25.152  1.00  0.00     0.313 C 
ATOM      5  O   UNL A   1      33.217  25.582  26.130  1.00  0.00    -0.252 OA
BRANCH   4   6
ATOM      6  C   UNL A   1      32.602  25.893  23.792  1.00  0.00     0.129 C 
ATOM      7  C   UNL A   1      33.603  25.963  22.629  1.00  0.00     0.025 C 
BRANCH   6   8
ATOM      8  C   UNL A   1      31.287  26.621  23.528  1.00  0.00     0.002 A 
ATOM      9  C   UNL A   1      31.195  27.837  22.837  1.00  0.00     0.008 A 
ATOM     10  C   UNL A   1      30.105  26.089  24.060  1.00  0.00     0.127 A 
ATOM     11  C   UNL A   1      29.961  28.487  22.690  1.00  0.00     0.004 A 
ATOM     12  C   UNL A   1      28.878  26.740  23.935  1.00  0.00     0.043 A 
ATOM     13  F   UNL A   1      30.138  24.910  24.699  1.00  0.00    -0.207 F 
ATOM     14  C   UNL A   1      28.786  27.952  23.243  1.00  0.00    -0.041 A 
BRANCH  14  15
ATOM     15  C   UNL A   1      27.448  28.620  23.039  1.00  0.00     0.072 C 
BRANCH  15  16
ATOM     16  C   UNL A   1      27.684  30.051  22.650  1.00  0.00    -0.033 A 
ATOM     17  C   UNL A   1      27.751  31.163  23.563  1.00  0.00     0.015 A 
ATOM     18  C   UNL A   1      27.964  30.478  21.362  1.00  0.00     0.068 A 
ATOM     19  C   UNL A   1      28.058  32.352  22.942  1.00  0.00     0.065 A 
ATOM     20  S   UNL A   1      28.283  32.155  21.261  1.00  0.00    -0.152 S 
ENDBRANCH  15  16
ENDBRANCH  14  15
ENDBRANCH   6   8
ENDBRANCH   4   6
ENDBRANCH   3   4
ENDBRANCH   2   3
ENDBRANCH   1   2
BRANCH   1  21
ATOM     21  O   UNL A   1      32.471  30.779  26.739  1.00  0.00    -0.374 OA
BRANCH  21  22
ATOM     22  C   UNL A   1      31.449  31.761  26.584  1.00  0.00     0.202 C 
BRANCH  22  23
ATOM     23  C   UNL A   1      31.862  33.217  26.835  1.00  0.00     0.261 C 
BRANCH  23  24
ATOM     24  O   UNL A   1      32.312  33.432  28.186  1.00  0.00    -0.460 OA
BRANCH  24  25
ATOM     25  C   UNL A   1      33.397  34.233  28.297  1.00  0.00     0.338 C 
ATOM     26  O   UNL A   1      33.416  35.458  28.321  1.00  0.00    -0.246 OA
BRANCH  25  27
ATOM     27  C   UNL A   1      34.604  33.432  28.567  1.00  0.00     0.060 A 
ATOM     28  C   UNL A   1      34.417  32.150  29.101  1.00  0.00     0.016 A 
ATOM     29  C   UNL A   1      35.890  33.943  28.381  1.00  0.00     0.016 A 
ATOM     30  C   UNL A   1      35.516  31.394  29.503  1.00  0.00     0.010 A 
ATOM     31  C   UNL A   1      36.993  33.186  28.795  1.00  0.00     0.010 A 
ATOM     32  C   UNL A   1      36.808  31.925  29.392  1.00  0.00    -0.014 A 
BRANCH  32  33
ATOM     33  C   UNL A   1      37.938  31.223  30.046  1.00  0.00     0.031 A 
ATOM     34  C   UNL A   1      38.235  31.511  31.493  1.00  0.00     0.074 A 
ATOM     35  C   UNL A   1      38.658  30.304  29.380  1.00  0.00     0.049 A 
ATOM     36  N   UNL A   1      39.174  31.020  32.261  1.00  0.00    -0.248 NA
ATOM     37  C   UNL A   1      37.355  32.482  32.161  1.00  0.00     0.031 C 
ATOM     38  C   UNL A   1      38.442  29.905  27.991  1.00  0.00     0.029 A 
ATOM     39  N   UNL A   1      39.722  29.540  29.790  1.00  0.00    -0.354 N 
ATOM     40  C   UNL A   1      38.996  31.621  33.502  1.00  0.00     0.074 A 
ATOM     41  C   UNL A   1      37.882  32.537  33.375  1.00  0.00     0.031 C 
ATOM     42  C   UNL A   1      39.353  28.975  27.659  1.00  0.00     0.029 A 
ATOM     43  C   UNL A   1      40.230  28.732  28.803  1.00  0.00     0.049 A 
ATOM     44  H   UNL A   1      40.086  29.569  30.704  1.00  0.00     0.167 HD
ATOM     45  C   UNL A   1      39.690  31.419  34.647  1.00  0.00     0.037 A 
ATOM     46  C   UNL A   1      41.293  27.905  28.818  1.00  0.00     0.037 A 
ATOM     47  C   UNL A   1      40.799  30.511  34.774  1.00  0.00     0.049 A 
ATOM     48  C   UNL A   1      42.094  27.750  30.084  1.00  0.00     0.074 A 
ATOM     49  C   UNL A   1      41.562  30.233  35.895  1.00  0.00     0.029 A 
ATOM     50  N   UNL A   1      41.305  29.736  33.742  1.00  0.00    -0.354 N 
ATOM     51  N   UNL A   1      41.908  28.310  31.254  1.00  0.00    -0.248 NA
ATOM     52  C   UNL A   1      43.251  26.844  30.030  1.00  0.00     0.031 C 
ATOM     53  C   UNL A   1      42.558  29.321  35.530  1.00  0.00     0.029 A 
ATOM     54  C   UNL A   1      42.386  28.996  34.194  1.00  0.00     0.049 A 
ATOM     55  H   UNL A   1      40.951  29.716  32.824  1.00  0.00     0.167 HD
ATOM     56  C   UNL A   1      42.906  27.808  32.081  1.00  0.00     0.074 A 
ATOM     57  C   UNL A   1      43.687  26.889  31.281  1.00  0.00     0.031 C 
ATOM     58  C   UNL A   1      43.151  28.082  33.386  1.00  0.00     0.037 A 
BRANCH  45  59
ATOM     59  C   UNL A   1      39.279  32.215  35.849  1.00  0.00     0.057 A 
ATOM     60  C   UNL A   1      38.374  31.713  36.794  1.00  0.00     0.134 A 
ATOM     61  C   UNL A   1      39.814  33.488  36.080  1.00  0.00     0.134 A 
ATOM     62  F   UNL A   1      37.814  30.506  36.622  1.00  0.00    -0.206 F 
ATOM     63  C   UNL A   1      37.999  32.458  37.913  1.00  0.00     0.040 A 
ATOM     64  C   UNL A   1      39.466  34.233  37.209  1.00  0.00     0.040 A 
ATOM     65  F   UNL A   1      40.689  34.027  35.217  1.00  0.00    -0.206 F 
ATOM     66  C   UNL A   1      38.552  33.719  38.126  1.00  0.00     0.006 A 
ENDBRANCH  45  59
BRANCH  46  67
ATOM     67  C   UNL A   1      41.673  27.166  27.589  1.00  0.00     0.057 A 
ATOM     68  C   UNL A   1      41.256  25.847  27.375  1.00  0.00     0.134 A 
ATOM     69  C   UNL A   1      42.479  27.756  26.608  1.00  0.00     0.134 A 
ATOM     70  F   UNL A   1      40.503  25.221  28.289  1.00  0.00    -0.206 F 
ATOM     71  C   UNL A   1      41.636  25.138  26.234  1.00  0.00     0.040 A 
ATOM     72  C   UNL A   1      42.848  27.067  25.452  1.00  0.00     0.040 A 
ATOM     73  F   UNL A   1      42.913  29.017  26.757  1.00  0.00    -0.206 F 
ATOM     74  C   UNL A   1      42.430  25.750  25.266  1.00  0.00     0.006 A 
ENDBRANCH  46  67
BRANCH  58  75
ATOM     75  C   UNL A   1      44.292  27.358  34.038  1.00  0.00     0.057 A 
ATOM     76  C   UNL A   1      45.581  27.904  34.090  1.00  0.00     0.134 A 
ATOM     77  C   UNL A   1      44.087  26.120  34.660  1.00  0.00     0.134 A 
ATOM     78  F   UNL A   1      45.844  29.081  33.503  1.00  0.00    -0.206 F 
ATOM     79  C   UNL A   1      46.631  27.234  34.720  1.00  0.00     0.040 A 
ATOM     80  C   UNL A   1      45.124  25.451  35.314  1.00  0.00     0.040 A 
ATOM     81  F   UNL A   1      42.874  25.546  34.656  1.00  0.00    -0.206 F 
ATOM     82  C   UNL A   1      46.402  26.007  35.341  1.00  0.00     0.006 A 
ENDBRANCH  58  75
ENDBRANCH  32  33
ENDBRANCH  25  27
ENDBRANCH  24  25
ENDBRANCH  23  24
ENDBRANCH  22  23
ENDBRANCH  21  22
ENDBRANCH   1  21
TORSDOF 17
ENDMDL
MODEL 2
REMARK VINA RESULT:     -10.6      2.073      3.686
REMARK SMILES C[C@@H](C(=O)OCCOCCOC(=O)c1ccc(-c2c3nc(c(-c4c(F)cccc4F)c4ccc([nH]4)c(-c4c(F)cccc4F)c4nc(c(-c5c(F)cccc5F)c5ccc2[nH]5)C=C4)C=C3)cc1)c1ccc(Cc2ccsc2)cc1F
REMARK SMILES IDX 7 1 6 2 5 3 3 4 4 5 2 6 1 7 68 8 69 9 79 10 70 11 78 12
REMARK SMILES IDX 80 13 71 14 72 15 73 16 74 17 77 18 75 19 76 20 8 21 9 22
REMARK SMILES IDX 10 23 11 24 12 25 13 26 14 27 15 28 67 29 16 30 66 31 17 32
REMARK SMILES IDX 18 33 19 34 60 35 20 36 65 37 59 38 61 39 21 40 64 41 58 42
REMARK SMILES IDX 57 43 22 45 48 46 31 47 47 48 32 49 35 50 46 51 62 52 33 53
REMARK SMILES IDX 34 54 45 56 63 57 36 58 23 59 24 60 29 61 25 62 26 63 28 64
REMARK SMILES IDX 30 65 27 66 49 67 50 68 55 69 51 70 52 71 54 72 56 73 53 74
REMARK SMILES IDX 37 75 38 76 43 77 39 78 40 79 42 80 44 81 41 82
REMARK H PARENT 61 44 35 55
REMARK Flexibility Score: inf
ROOT
ATOM      1  C   UNL A   1      33.001  29.946  26.165  1.00  0.00     0.202 C 
ENDROOT
BRANCH   1   2
ATOM      2  C   UNL A   1      32.462  28.617  25.632  1.00  0.00     0.261 C 
BRANCH   2   3
ATOM      3  O   UNL A   1      31.513  28.840  24.573  1.00  0.00    -0.463 OA
BRANCH   3   4
ATOM      4  C   UNL A   1      31.958  28.553  23.319  1.00  0.00     0.313 C 
ATOM      5  O   UNL A   1      33.057  28.892  22.893  1.00  0.00    -0.252 OA
BRANCH   4   6
ATOM      6  C   UNL A   1      30.954  27.723  22.505  1.00  0.00     0.129 C 
ATOM      7  C   UNL A   1      29.482  28.096  22.738  1.00  0.00     0.025 C 
BRANCH   6   8
ATOM      8  C   UNL A   1      31.253  26.236  22.669  1.00  0.00     0.002 A 
ATOM      9  C   UNL A   1      30.583  25.401  23.573  1.00  0.00     0.008 A 
ATOM     10  C   UNL A   1      32.302  25.676  21.928  1.00  0.00     0.127 A 
ATOM     11  C   UNL A   1      30.956  24.057  23.722  1.00  0.00     0.004 A 
ATOM     12  C   UNL A   1      32.693  24.346  22.084  1.00  0.00     0.043 A 
ATOM     13  F   UNL A   1      32.950  26.426  21.024  1.00  0.00    -0.207 F 
ATOM     14  C   UNL A   1      32.021  23.513  22.986  1.00  0.00    -0.041 A 
BRANCH  14  15
ATOM     15  C   UNL A   1      32.389  22.053  23.102  1.00  0.00     0.072 C 
BRANCH  15  16
ATOM     16  C   UNL A   1      33.191  21.863  24.357  1.00  0.00    -0.033 A 
ATOM     17  C   UNL A   1      32.678  21.367  25.608  1.00  0.00     0.015 A 
ATOM     18  C   UNL A   1      34.560  22.054  24.449  1.00  0.00     0.068 A 
ATOM     19  C   UNL A   1      33.652  21.218  26.569  1.00  0.00     0.065 A 
ATOM     20  S   UNL A   1      35.195  21.660  25.988  1.00  0.00    -0.152 S 
ENDBRANCH  15  16
ENDBRANCH  14  15
ENDBRANCH   6   8
ENDBRANCH   4   6
ENDBRANCH   3   4
ENDBRANCH   2   3
ENDBRANCH   1   2
BRANCH   1  21
ATOM     21  O   UNL A   1      32.128  30.683  27.021  1.00  0.00    -0.374 OA
BRANCH  21  22
ATOM     22  C   UNL A   1      31.374  31.740  26.431  1.00  0.00     0.202 C 
BRANCH  22  23
ATOM     23  C   UNL A   1      31.878  33.164  26.695  1.00  0.00     0.261 C 
BRANCH  23  24
ATOM     24  O   UNL A   1      32.264  33.363  28.068  1.00  0.00    -0.460 OA
BRANCH  24  25
ATOM     25  C   UNL A   1      33.326  34.183  28.242  1.00  0.00     0.338 C 
ATOM     26  O   UNL A   1      33.315  35.407  28.310  1.00  0.00    -0.246 OA
BRANCH  25  27
ATOM     27  C   UNL A   1      34.542  33.399  28.521  1.00  0.00     0.060 A 
ATOM     28  C   UNL A   1      34.370  32.103  29.026  1.00  0.00     0.016 A 
ATOM     29  C   UNL A   1      35.822  33.938  28.371  1.00  0.00     0.016 A 
ATOM     30  C   UNL A   1      35.474  31.360  29.435  1.00  0.00     0.010 A 
ATOM     31  C   UNL A   1      36.930  33.193  28.793  1.00  0.00     0.010 A 
ATOM     32  C   UNL A   1      36.757  31.918  29.361  1.00  0.00    -0.014 A 
BRANCH  32  33
ATOM     33  C   UNL A   1      37.887  31.224  30.025  1.00  0.00     0.031 A 
ATOM     34  C   UNL A   1      38.176  31.521  31.471  1.00  0.00     0.074 A 
ATOM     35  C   UNL A   1      38.615  30.304  29.367  1.00  0.00     0.049 A 
ATOM     36  N   UNL A   1      39.113  31.038  32.247  1.00  0.00    -0.248 NA
ATOM     37  C   UNL A   1      37.288  32.492  32.130  1.00  0.00     0.031 C 
ATOM     38  C   UNL A   1      38.407  29.898  27.979  1.00  0.00     0.029 A 
ATOM     39  N   UNL A   1      39.680  29.548  29.786  1.00  0.00    -0.354 N 
ATOM     40  C   UNL A   1      38.927  31.644  33.484  1.00  0.00     0.074 A 
ATOM     41  C   UNL A   1      37.810  32.555  33.346  1.00  0.00     0.031 C 
ATOM     42  C   UNL A   1      39.324  28.970  27.656  1.00  0.00     0.029 A 
ATOM     43  C   UNL A   1      40.197  28.737  28.806  1.00  0.00     0.049 A 
ATOM     44  H   UNL A   1      40.039  29.583  30.702  1.00  0.00     0.167 HD
ATOM     45  C   UNL A   1      39.616  31.451  34.633  1.00  0.00     0.037 A 
ATOM     46  C   UNL A   1      41.263  27.914  28.831  1.00  0.00     0.037 A 
ATOM     47  C   UNL A   1      40.728  30.549  34.770  1.00  0.00     0.049 A 
ATOM     48  C   UNL A   1      42.058  27.770  30.101  1.00  0.00     0.074 A 
ATOM     49  C   UNL A   1      41.487  30.280  35.896  1.00  0.00     0.029 A 
ATOM     50  N   UNL A   1      41.243  29.771  33.745  1.00  0.00    -0.354 N 
ATOM     51  N   UNL A   1      41.865  28.335  31.268  1.00  0.00    -0.248 NA
ATOM     52  C   UNL A   1      43.220  26.869  30.057  1.00  0.00     0.031 C 
ATOM     53  C   UNL A   1      42.489  29.370  35.541  1.00  0.00     0.029 A 
ATOM     54  C   UNL A   1      42.324  29.038  34.206  1.00  0.00     0.049 A 
ATOM     55  H   UNL A   1      40.893  29.745  32.825  1.00  0.00     0.167 HD
ATOM     56  C   UNL A   1      42.860  27.842  32.102  1.00  0.00     0.074 A 
ATOM     57  C   UNL A   1      43.650  26.922  31.311  1.00  0.00     0.031 C 
ATOM     58  C   UNL A   1      43.098  28.123  33.406  1.00  0.00     0.037 A 
BRANCH  45  59
ATOM     59  C   UNL A   1      39.195  32.252  35.829  1.00  0.00     0.057 A 
ATOM     60  C   UNL A   1      38.299  31.745  36.779  1.00  0.00     0.134 A 
ATOM     61  C   UNL A   1      39.713  33.534  36.048  1.00  0.00     0.134 A 
ATOM     62  F   UNL A   1      37.755  30.529  36.618  1.00  0.00    -0.206 F 
ATOM     63  C   UNL A   1      37.915  32.494  37.893  1.00  0.00     0.040 A 
ATOM     64  C   UNL A   1      39.356  34.284  37.172  1.00  0.00     0.040 A 
ATOM     65  F   UNL A   1      40.580  34.078  35.180  1.00  0.00    -0.206 F 
ATOM     66  C   UNL A   1      38.450  33.765  38.094  1.00  0.00     0.006 A 
ENDBRANCH  45  59
BRANCH  46  67
ATOM     67  C   UNL A   1      41.652  27.171  27.607  1.00  0.00     0.057 A 
ATOM     68  C   UNL A   1      42.444  27.764  26.617  1.00  0.00     0.134 A 
ATOM     69  C   UNL A   1      41.225  25.855  27.391  1.00  0.00     0.134 A 
ATOM     70  F   UNL A   1      42.863  29.029  26.756  1.00  0.00    -0.206 F 
ATOM     71  C   UNL A   1      42.788  27.078  25.450  1.00  0.00     0.040 A 
ATOM     72  C   UNL A   1      41.580  25.150  26.240  1.00  0.00     0.040 A 
ATOM     73  F   UNL A   1      40.462  25.233  28.303  1.00  0.00    -0.206 F 
ATOM     74  C   UNL A   1      42.359  25.765  25.262  1.00  0.00     0.006 A 
ENDBRANCH  46  67
BRANCH  58  75
ATOM     75  C   UNL A   1      44.239  27.408  34.068  1.00  0.00     0.057 A 
ATOM     76  C   UNL A   1      44.077  26.153  34.668  1.00  0.00     0.134 A 
ATOM     77  C   UNL A   1      45.524  27.965  34.067  1.00  0.00     0.134 A 
ATOM     78  F   UNL A   1      42.868  25.572  34.712  1.00  0.00    -0.206 F 
ATOM     79  C   UNL A   1      45.150  25.485  35.260  1.00  0.00     0.040 A 
ATOM     80  C   UNL A   1      46.610  27.295  34.636  1.00  0.00     0.040 A 
ATOM     81  F   UNL A   1      45.750  29.160  33.501  1.00  0.00    -0.206 F 
ATOM     82  C   UNL A   1      46.422  26.053  35.240  1.00  0.00     0.006 A 
ENDBRANCH  58  75
ENDBRANCH  32  33
ENDBRANCH  25  27
ENDBRANCH  24  25
ENDBRANCH  23  24
ENDBRANCH  22  23
ENDBRANCH  21  22
ENDBRANCH   1  21
TORSDOF 17
ENDMDL
MODEL 3
REMARK VINA RESULT:     -10.4      2.338      3.842
REMARK SMILES C[C@@H](C(=O)OCCOCCOC(=O)c1ccc(-c2c3nc(c(-c4c(F)cccc4F)c4ccc([nH]4)c(-c4c(F)cccc4F)c4nc(c(-c5c(F)cccc5F)c5ccc2[nH]5)C=C4)C=C3)cc1)c1ccc(Cc2ccsc2)cc1F
REMARK SMILES IDX 7 1 6 2 5 3 3 4 4 5 2 6 1 7 68 8 69 9 79 10 70 11 78 12
REMARK SMILES IDX 80 13 71 14 72 15 73 16 74 17 77 18 75 19 76 20 8 21 9 22
REMARK SMILES IDX 10 23 11 24 12 25 13 26 14 27 15 28 67 29 16 30 66 31 17 32
REMARK SMILES IDX 18 33 19 34 60 35 20 36 65 37 59 38 61 39 21 40 64 41 58 42
REMARK SMILES IDX 57 43 22 45 48 46 31 47 47 48 32 49 35 50 46 51 62 52 33 53
REMARK SMILES IDX 34 54 45 56 63 57 36 58 23 59 24 60 29 61 25 62 26 63 28 64
REMARK SMILES IDX 30 65 27 66 49 67 50 68 55 69 51 70 52 71 54 72 56 73 53 74
REMARK SMILES IDX 37 75 38 76 43 77 39 78 40 79 42 80 44 81 41 82
REMARK H PARENT 61 44 35 55
REMARK Flexibility Score: inf
ROOT
ATOM      1  C   UNL A   1      35.813  33.900  28.514  1.00  0.00     0.202 C 
ENDROOT
BRANCH   1   2
ATOM      2  C   UNL A   1      35.767  32.383  28.709  1.00  0.00     0.261 C 
BRANCH   2   3
ATOM      3  O   UNL A   1      35.326  31.728  27.506  1.00  0.00    -0.463 OA
BRANCH   3   4
ATOM      4  C   UNL A   1      34.105  31.132  27.579  1.00  0.00     0.313 C 
ATOM      5  O   UNL A   1      33.046  31.750  27.608  1.00  0.00    -0.252 OA
BRANCH   4   6
ATOM      6  C   UNL A   1      34.190  29.598  27.580  1.00  0.00     0.129 C 
ATOM      7  C   UNL A   1      35.619  29.039  27.642  1.00  0.00     0.025 C 
BRANCH   6   8
ATOM      8  C   UNL A   1      33.346  29.028  26.443  1.00  0.00     0.002 A 
ATOM      9  C   UNL A   1      33.641  29.216  25.086  1.00  0.00     0.008 A 
ATOM     10  C   UNL A   1      32.171  28.334  26.760  1.00  0.00     0.127 A 
ATOM     11  C   UNL A   1      32.783  28.722  24.091  1.00  0.00     0.004 A 
ATOM     12  C   UNL A   1      31.303  27.858  25.777  1.00  0.00     0.043 A 
ATOM     13  F   UNL A   1      31.866  28.099  28.045  1.00  0.00    -0.207 F 
ATOM     14  C   UNL A   1      31.599  28.044  24.422  1.00  0.00    -0.041 A 
BRANCH  14  15
ATOM     15  C   UNL A   1      30.703  27.463  23.354  1.00  0.00     0.072 C 
BRANCH  15  16
ATOM     16  C   UNL A   1      29.779  28.543  22.870  1.00  0.00    -0.033 A 
ATOM     17  C   UNL A   1      30.150  29.629  22.002  1.00  0.00     0.015 A 
ATOM     18  C   UNL A   1      28.417  28.580  23.122  1.00  0.00     0.068 A 
ATOM     19  C   UNL A   1      29.084  30.428  21.653  1.00  0.00     0.065 A 
ATOM     20  S   UNL A   1      27.624  29.884  22.349  1.00  0.00    -0.152 S 
ENDBRANCH  15  16
ENDBRANCH  14  15
ENDBRANCH   6   8
ENDBRANCH   4   6
ENDBRANCH   3   4
ENDBRANCH   2   3
ENDBRANCH   1   2
BRANCH   1  21
ATOM     21  O   UNL A   1      34.958  34.671  29.359  1.00  0.00    -0.374 OA
BRANCH  21  22
ATOM     22  C   UNL A   1      33.840  35.311  28.748  1.00  0.00     0.202 C 
BRANCH  22  23
ATOM     23  C   UNL A   1      32.841  35.987  29.696  1.00  0.00     0.261 C 
BRANCH  23  24
ATOM     24  O   UNL A   1      32.507  35.154  30.822  1.00  0.00    -0.460 OA
BRANCH  24  25
ATOM     25  C   UNL A   1      32.775  35.705  32.029  1.00  0.00     0.338 C 
ATOM     26  O   UNL A   1      32.113  36.547  32.623  1.00  0.00    -0.246 OA
BRANCH  25  27
ATOM     27  C   UNL A   1      33.921  35.027  32.661  1.00  0.00     0.060 A 
ATOM     28  C   UNL A   1      35.176  35.638  32.541  1.00  0.00     0.016 A 
ATOM     29  C   UNL A   1      33.793  33.785  33.288  1.00  0.00     0.016 A 
ATOM     30  C   UNL A   1      36.317  34.985  32.999  1.00  0.00     0.010 A 
ATOM     31  C   UNL A   1      34.944  33.126  33.738  1.00  0.00     0.010 A 
ATOM     32  C   UNL A   1      36.213  33.707  33.561  1.00  0.00    -0.014 A 
BRANCH  32  33
ATOM     33  C   UNL A   1      37.447  32.924  33.813  1.00  0.00     0.031 A 
ATOM     34  C   UNL A   1      38.231  33.187  35.070  1.00  0.00     0.074 A 
ATOM     35  C   UNL A   1      37.837  31.958  32.964  1.00  0.00     0.049 A 
ATOM     36  N   UNL A   1      39.338  32.630  35.489  1.00  0.00    -0.248 NA
ATOM     37  C   UNL A   1      37.694  34.217  35.973  1.00  0.00     0.031 C 
ATOM     38  C   UNL A   1      37.141  31.579  31.737  1.00  0.00     0.029 A 
ATOM     39  N   UNL A   1      38.923  31.120  33.010  1.00  0.00    -0.354 N 
ATOM     40  C   UNL A   1      39.629  33.238  36.704  1.00  0.00     0.074 A 
ATOM     41  C   UNL A   1      38.602  34.231  36.939  1.00  0.00     0.031 C 
ATOM     42  C   UNL A   1      37.822  30.588  31.139  1.00  0.00     0.029 A 
ATOM     43  C   UNL A   1      39.014  30.281  31.927  1.00  0.00     0.049 A 
ATOM     44  H   UNL A   1      39.574  31.121  33.748  1.00  0.00     0.167 HD
ATOM     45  C   UNL A   1      40.652  32.985  37.555  1.00  0.00     0.037 A 
ATOM     46  C   UNL A   1      39.962  29.380  31.603  1.00  0.00     0.037 A 
ATOM     47  C   UNL A   1      41.675  32.001  37.322  1.00  0.00     0.049 A 
ATOM     48  C   UNL A   1      41.129  29.166  32.530  1.00  0.00     0.074 A 
ATOM     49  C   UNL A   1      42.750  31.666  38.127  1.00  0.00     0.029 A 
ATOM     50  N   UNL A   1      41.752  31.194  36.197  1.00  0.00    -0.354 N 
ATOM     51  N   UNL A   1      41.386  29.735  33.682  1.00  0.00    -0.248 NA
ATOM     52  C   UNL A   1      42.137  28.181  32.110  1.00  0.00     0.031 C 
ATOM     53  C   UNL A   1      43.502  30.687  37.469  1.00  0.00     0.029 A 
ATOM     54  C   UNL A   1      42.869  30.378  36.276  1.00  0.00     0.049 A 
ATOM     55  H   UNL A   1      41.109  31.201  35.451  1.00  0.00     0.167 HD
ATOM     56  C   UNL A   1      42.567  29.161  34.137  1.00  0.00     0.074 A 
ATOM     57  C   UNL A   1      42.971  28.191  33.141  1.00  0.00     0.031 C 
ATOM     58  C   UNL A   1      43.255  29.414  35.278  1.00  0.00     0.037 A 
BRANCH  45  59
ATOM     59  C   UNL A   1      40.723  33.805  38.808  1.00  0.00     0.057 A 
ATOM     60  C   UNL A   1      40.024  33.446  39.967  1.00  0.00     0.134 A 
ATOM     61  C   UNL A   1      41.523  34.953  38.865  1.00  0.00     0.134 A 
ATOM     62  F   UNL A   1      39.228  32.365  39.971  1.00  0.00    -0.206 F 
ATOM     63  C   UNL A   1      40.098  34.212  41.132  1.00  0.00     0.040 A 
ATOM     64  C   UNL A   1      41.625  35.714  40.032  1.00  0.00     0.040 A 
ATOM     65  F   UNL A   1      42.223  35.352  37.791  1.00  0.00    -0.206 F 
ATOM     66  C   UNL A   1      40.907  35.346  41.167  1.00  0.00     0.006 A 
ENDBRANCH  45  59
BRANCH  46  67
ATOM     67  C   UNL A   1      39.856  28.619  30.334  1.00  0.00     0.057 A 
ATOM     68  C   UNL A   1      39.128  27.427  30.259  1.00  0.00     0.134 A 
ATOM     69  C   UNL A   1      40.498  29.058  29.169  1.00  0.00     0.134 A 
ATOM     70  F   UNL A   1      38.512  26.943  31.347  1.00  0.00    -0.206 F 
ATOM     71  C   UNL A   1      39.050  26.691  29.075  1.00  0.00     0.040 A 
ATOM     72  C   UNL A   1      40.410  28.345  27.972  1.00  0.00     0.040 A 
ATOM     73  F   UNL A   1      41.213  30.193  29.177  1.00  0.00    -0.206 F 
ATOM     74  C   UNL A   1      39.689  27.154  27.925  1.00  0.00     0.006 A 
ENDBRANCH  46  67
BRANCH  58  75
ATOM     75  C   UNL A   1      44.497  28.610  35.525  1.00  0.00     0.057 A 
ATOM     76  C   UNL A   1      45.759  29.053  35.111  1.00  0.00     0.134 A 
ATOM     77  C   UNL A   1      44.433  27.398  36.226  1.00  0.00     0.134 A 
ATOM     78  F   UNL A   1      45.885  30.199  34.425  1.00  0.00    -0.206 F 
ATOM     79  C   UNL A   1      46.912  28.309  35.367  1.00  0.00     0.040 A 
ATOM     80  C   UNL A   1      45.582  26.658  36.508  1.00  0.00     0.040 A 
ATOM     81  F   UNL A   1      43.256  26.922  36.659  1.00  0.00    -0.206 F 
ATOM     82  C   UNL A   1      46.826  27.111  36.073  1.00  0.00     0.006 A 
ENDBRANCH  58  75
ENDBRANCH  32  33
ENDBRANCH  25  27
ENDBRANCH  24  25
ENDBRANCH  23  24
ENDBRANCH  22  23
ENDBRANCH  21  22
ENDBRANCH   1  21
TORSDOF 17
ENDMDL
