MODEL 1
REMARK VINA RESULT:     -12.3      0.000      0.000
REMARK SMILES O=C(OCCOCCOC(=O)[C@H]1[C@H]2CC[C@H](CC2)[C@@H]1C(=O)Nc1sc2c(c1C(=O)N1CCCCC1)CCCC2)c1ccc(-c2c3nc(c(-c4c(F)cccc4F)c4ccc([nH]4)c(-c4c(F)cccc4F)c4nc(c(-c5c(F)cccc5F)c5ccc2[nH]5)C=C4)C=C3)cc1
REMARK SMILES IDX 7 1 6 2 5 3 4 4 3 5 2 6 1 7 40 8 41 9 93 10 42 11 92 12
REMARK SMILES IDX 43 13 44 14 45 15 86 16 46 17 91 18 85 19 87 20 47 21 90 22
REMARK SMILES IDX 84 23 83 24 48 26 74 27 57 28 73 29 58 30 61 31 72 32 88 33
REMARK SMILES IDX 59 34 60 35 71 37 89 38 62 39 49 40 50 41 55 42 51 43 52 44
REMARK SMILES IDX 54 45 56 46 53 47 75 48 76 49 81 50 77 51 78 52 80 53 82 54
REMARK SMILES IDX 79 55 63 56 64 57 69 58 65 59 66 60 68 61 70 62 67 63 8 64
REMARK SMILES IDX 9 65 10 66 11 67 12 68 13 69 19 70 18 71 14 72 16 73 17 74
REMARK SMILES IDX 15 75 20 76 21 77 22 78 23 80 24 81 27 82 25 83 26 84 39 85
REMARK SMILES IDX 36 86 38 87 37 88 28 89 29 90 30 91 31 92 35 93 32 94 34 95
REMARK SMILES IDX 33 96
REMARK H PARENT 87 25 61 36 22 79
REMARK Flexibility Score: inf
ROOT
ATOM      1  C   UNL A   1      38.042  21.227  25.241  1.00  0.00     0.202 C 
ENDROOT
BRANCH   1   2
ATOM      2  O   UNL A   1      38.914  22.135  25.887  1.00  0.00    -0.374 OA
BRANCH   2   3
ATOM      3  C   UNL A   1      40.189  21.707  26.347  1.00  0.00     0.202 C 
BRANCH   3   4
ATOM      4  C   UNL A   1      41.164  22.875  26.436  1.00  0.00     0.261 C 
BRANCH   4   5
ATOM      5  O   UNL A   1      40.460  24.107  26.213  1.00  0.00    -0.460 OA
BRANCH   5   6
ATOM      6  C   UNL A   1      41.073  25.317  26.191  1.00  0.00     0.338 C 
ATOM      7  O   UNL A   1      41.667  25.698  25.186  1.00  0.00    -0.246 OA
BRANCH   6   8
ATOM      8  C   UNL A   1      40.879  26.272  27.313  1.00  0.00     0.060 A 
ATOM      9  C   UNL A   1      41.632  27.433  27.506  1.00  0.00     0.016 A 
ATOM     10  C   UNL A   1      39.818  26.003  28.184  1.00  0.00     0.016 A 
ATOM     11  C   UNL A   1      41.394  28.282  28.557  1.00  0.00     0.010 A 
ATOM     12  C   UNL A   1      39.542  26.877  29.232  1.00  0.00     0.010 A 
ATOM     13  C   UNL A   1      40.338  28.014  29.410  1.00  0.00    -0.014 A 
BRANCH  13  14
ATOM     14  C   UNL A   1      40.213  28.904  30.560  1.00  0.00     0.031 A 
ATOM     15  C   UNL A   1      39.124  29.920  30.523  1.00  0.00     0.074 A 
ATOM     16  C   UNL A   1      40.943  28.649  31.659  1.00  0.00     0.049 A 
ATOM     17  N   UNL A   1      38.887  30.899  31.344  1.00  0.00    -0.248 NA
ATOM     18  C   UNL A   1      38.163  29.811  29.408  1.00  0.00     0.031 C 
ATOM     19  C   UNL A   1      41.879  27.527  31.811  1.00  0.00     0.029 A 
ATOM     20  N   UNL A   1      40.984  29.281  32.865  1.00  0.00    -0.354 N 
ATOM     21  C   UNL A   1      37.793  31.566  30.812  1.00  0.00     0.074 A 
ATOM     22  C   UNL A   1      37.395  30.869  29.612  1.00  0.00     0.031 C 
ATOM     23  C   UNL A   1      42.386  27.544  33.052  1.00  0.00     0.029 A 
ATOM     24  C   UNL A   1      41.896  28.733  33.733  1.00  0.00     0.049 A 
ATOM     25  H   UNL A   1      40.417  30.053  33.092  1.00  0.00     0.167 HD
ATOM     26  C   UNL A   1      37.208  32.683  31.295  1.00  0.00     0.037 A 
ATOM     27  C   UNL A   1      42.324  29.202  34.916  1.00  0.00     0.037 A 
ATOM     28  C   UNL A   1      37.653  33.315  32.505  1.00  0.00     0.049 A 
ATOM     29  C   UNL A   1      41.738  30.505  35.378  1.00  0.00     0.074 A 
ATOM     30  C   UNL A   1      37.228  34.493  33.082  1.00  0.00     0.029 A 
ATOM     31  N   UNL A   1      38.643  32.790  33.333  1.00  0.00    -0.354 N 
ATOM     32  N   UNL A   1      40.791  31.227  34.819  1.00  0.00    -0.248 NA
ATOM     33  C   UNL A   1      42.294  31.083  36.604  1.00  0.00     0.031 C 
ATOM     34  C   UNL A   1      37.992  34.702  34.237  1.00  0.00     0.029 A 
ATOM     35  C   UNL A   1      38.855  33.628  34.409  1.00  0.00     0.049 A 
ATOM     36  H   UNL A   1      39.121  31.944  33.174  1.00  0.00     0.167 HD
ATOM     37  C   UNL A   1      40.628  32.339  35.627  1.00  0.00     0.074 A 
ATOM     38  C   UNL A   1      41.562  32.181  36.729  1.00  0.00     0.031 C 
ATOM     39  C   UNL A   1      39.796  33.400  35.480  1.00  0.00     0.037 A 
BRANCH  26  40
ATOM     40  C   UNL A   1      36.139  33.308  30.451  1.00  0.00     0.057 A 
ATOM     41  C   UNL A   1      34.774  33.109  30.693  1.00  0.00     0.134 A 
ATOM     42  C   UNL A   1      36.490  34.062  29.324  1.00  0.00     0.134 A 
ATOM     43  F   UNL A   1      34.370  32.361  31.731  1.00  0.00    -0.206 F 
ATOM     44  C   UNL A   1      33.798  33.613  29.829  1.00  0.00     0.040 A 
ATOM     45  C   UNL A   1      35.524  34.591  28.467  1.00  0.00     0.040 A 
ATOM     46  F   UNL A   1      37.779  34.275  29.022  1.00  0.00    -0.206 F 
ATOM     47  C   UNL A   1      34.173  34.359  28.713  1.00  0.00     0.006 A 
ENDBRANCH  26  40
BRANCH  27  48
ATOM     48  C   UNL A   1      43.400  28.501  35.665  1.00  0.00     0.057 A 
ATOM     49  C   UNL A   1      44.750  28.790  35.444  1.00  0.00     0.134 A 
ATOM     50  C   UNL A   1      43.106  27.521  36.624  1.00  0.00     0.134 A 
ATOM     51  F   UNL A   1      45.103  29.707  34.532  1.00  0.00    -0.206 F 
ATOM     52  C   UNL A   1      45.765  28.121  36.133  1.00  0.00     0.040 A 
ATOM     53  C   UNL A   1      44.107  26.866  37.342  1.00  0.00     0.040 A 
ATOM     54  F   UNL A   1      41.832  27.194  36.894  1.00  0.00    -0.206 F 
ATOM     55  C   UNL A   1      45.444  27.160  37.089  1.00  0.00     0.006 A 
ENDBRANCH  27  48
BRANCH  39  56
ATOM     56  C   UNL A   1      39.845  34.435  36.560  1.00  0.00     0.057 A 
ATOM     57  C   UNL A   1      40.675  35.556  36.468  1.00  0.00     0.134 A 
ATOM     58  C   UNL A   1      39.002  34.328  37.672  1.00  0.00     0.134 A 
ATOM     59  F   UNL A   1      41.515  35.699  35.432  1.00  0.00    -0.206 F 
ATOM     60  C   UNL A   1      40.677  36.535  37.460  1.00  0.00     0.040 A 
ATOM     61  C   UNL A   1      38.974  35.314  38.655  1.00  0.00     0.040 A 
ATOM     62  F   UNL A   1      38.179  33.277  37.806  1.00  0.00    -0.206 F 
ATOM     63  C   UNL A   1      39.817  36.420  38.552  1.00  0.00     0.006 A 
ENDBRANCH  39  56
ENDBRANCH  13  14
ENDBRANCH   6   8
ENDBRANCH   5   6
ENDBRANCH   4   5
ENDBRANCH   3   4
ENDBRANCH   2   3
ENDBRANCH   1   2
BRANCH   1  64
ATOM     64  C   UNL A   1      36.607  21.712  25.436  1.00  0.00     0.261 C 
BRANCH  64  65
ATOM     65  O   UNL A   1      36.090  22.241  24.213  1.00  0.00    -0.463 OA
BRANCH  65  66
ATOM     66  C   UNL A   1      35.316  23.356  24.281  1.00  0.00     0.310 C 
ATOM     67  O   UNL A   1      35.586  24.390  24.883  1.00  0.00    -0.252 OA
BRANCH  66  68
ATOM     68  C   UNL A   1      34.079  23.214  23.429  1.00  0.00     0.115 C 
ATOM     69  C   UNL A   1      33.306  21.937  23.863  1.00  0.00     0.004 C 
ATOM     70  C   UNL A   1      33.205  24.476  23.519  1.00  0.00     0.096 C 
ATOM     71  C   UNL A   1      32.749  22.066  25.296  1.00  0.00     0.005 C 
ATOM     72  C   UNL A   1      32.095  21.769  22.938  1.00  0.00     0.005 C 
ATOM     73  C   UNL A   1      31.788  24.029  24.038  1.00  0.00     0.002 C 
ATOM     74  C   UNL A   1      31.960  23.372  25.433  1.00  0.00     0.005 C 
ATOM     75  C   UNL A   1      31.137  22.946  23.143  1.00  0.00     0.005 C 
BRANCH  70  76
ATOM     76  C   UNL A   1      33.178  25.265  22.195  1.00  0.00     0.229 C 
ATOM     77  O   UNL A   1      33.260  24.668  21.116  1.00  0.00    -0.274 OA
ATOM     78  N   UNL A   1      32.972  26.624  22.130  1.00  0.00    -0.317 N 
ATOM     79  H   UNL A   1      32.908  26.988  21.218  1.00  0.00     0.170 HD
BRANCH  78  80
ATOM     80  C   UNL A   1      32.839  27.564  23.137  1.00  0.00     0.108 A 
ATOM     81  S   UNL A   1      34.247  28.385  23.623  1.00  0.00    -0.122 S 
ATOM     82  C   UNL A   1      31.712  28.271  23.564  1.00  0.00     0.078 A 
ATOM     83  C   UNL A   1      33.435  29.090  24.937  1.00  0.00     0.011 A 
ATOM     84  C   UNL A   1      32.067  29.069  24.738  1.00  0.00    -0.019 A 
ATOM     85  C   UNL A   1      34.147  29.734  26.094  1.00  0.00     0.047 C 
ATOM     86  C   UNL A   1      31.162  29.768  25.710  1.00  0.00     0.037 C 
ATOM     87  C   UNL A   1      33.166  29.984  27.252  1.00  0.00     0.006 C 
ATOM     88  C   UNL A   1      31.890  30.644  26.737  1.00  0.00     0.005 C 
BRANCH  82  89
ATOM     89  C   UNL A   1      30.392  28.006  22.969  1.00  0.00     0.257 C 
ATOM     90  O   UNL A   1      30.012  26.852  22.761  1.00  0.00    -0.269 OA
ATOM     91  N   UNL A   1      29.541  29.081  22.719  1.00  0.00    -0.339 N 
ATOM     92  C   UNL A   1      28.124  28.835  22.910  1.00  0.00     0.120 C 
ATOM     93  C   UNL A   1      29.851  30.109  21.725  1.00  0.00     0.120 C 
ATOM     94  C   UNL A   1      27.471  30.104  23.427  1.00  0.00     0.022 C 
ATOM     95  C   UNL A   1      29.099  31.426  21.986  1.00  0.00     0.022 C 
ATOM     96  C   UNL A   1      27.644  31.240  22.421  1.00  0.00     0.004 C 
ENDBRANCH  82  89
ENDBRANCH  78  80
ENDBRANCH  70  76
ENDBRANCH  66  68
ENDBRANCH  65  66
ENDBRANCH  64  65
ENDBRANCH   1  64
TORSDOF 17
ENDMDL
MODEL 2
REMARK VINA RESULT:     -12.3      4.336      7.910
REMARK SMILES O=C(OCCOCCOC(=O)[C@H]1[C@H]2CC[C@H](CC2)[C@@H]1C(=O)Nc1sc2c(c1C(=O)N1CCCCC1)CCCC2)c1ccc(-c2c3nc(c(-c4c(F)cccc4F)c4ccc([nH]4)c(-c4c(F)cccc4F)c4nc(c(-c5c(F)cccc5F)c5ccc2[nH]5)C=C4)C=C3)cc1
REMARK SMILES IDX 7 1 6 2 5 3 4 4 3 5 2 6 1 7 40 8 41 9 93 10 42 11 92 12
REMARK SMILES IDX 43 13 44 14 45 15 86 16 46 17 91 18 85 19 87 20 47 21 90 22
REMARK SMILES IDX 84 23 83 24 48 26 74 27 57 28 73 29 58 30 61 31 72 32 88 33
REMARK SMILES IDX 59 34 60 35 71 37 89 38 62 39 49 40 50 41 55 42 51 43 52 44
REMARK SMILES IDX 54 45 56 46 53 47 75 48 76 49 81 50 77 51 78 52 80 53 82 54
REMARK SMILES IDX 79 55 63 56 64 57 69 58 65 59 66 60 68 61 70 62 67 63 8 64
REMARK SMILES IDX 9 65 10 66 11 67 12 68 13 69 19 70 18 71 14 72 16 73 17 74
REMARK SMILES IDX 15 75 20 76 21 77 22 78 23 80 24 81 27 82 25 83 26 84 39 85
REMARK SMILES IDX 36 86 38 87 37 88 28 89 29 90 30 91 31 92 35 93 32 94 34 95
REMARK SMILES IDX 33 96
REMARK H PARENT 87 25 61 36 22 79
REMARK Flexibility Score: inf
ROOT
ATOM      1  C   UNL A   1      37.404  21.561  25.057  1.00  0.00     0.202 C 
ENDROOT
BRANCH   1   2
ATOM      2  O   UNL A   1      37.125  20.177  24.968  1.00  0.00    -0.374 OA
BRANCH   2   3
ATOM      3  C   UNL A   1      38.179  19.224  25.001  1.00  0.00     0.202 C 
BRANCH   3   4
ATOM      4  C   UNL A   1      39.322  19.698  25.892  1.00  0.00     0.261 C 
BRANCH   4   5
ATOM      5  O   UNL A   1      40.453  18.829  25.725  1.00  0.00    -0.460 OA
BRANCH   5   6
ATOM      6  C   UNL A   1      41.729  19.219  25.966  1.00  0.00     0.338 C 
ATOM      7  O   UNL A   1      42.666  18.454  25.759  1.00  0.00    -0.246 OA
BRANCH   6   8
ATOM      8  C   UNL A   1      42.024  20.635  26.309  1.00  0.00     0.060 A 
ATOM      9  C   UNL A   1      42.141  21.670  25.376  1.00  0.00     0.016 A 
ATOM     10  C   UNL A   1      42.121  20.940  27.670  1.00  0.00     0.016 A 
ATOM     11  C   UNL A   1      42.403  22.960  25.758  1.00  0.00     0.010 A 
ATOM     12  C   UNL A   1      42.349  22.254  28.073  1.00  0.00     0.010 A 
ATOM     13  C   UNL A   1      42.490  23.256  27.107  1.00  0.00    -0.014 A 
BRANCH  13  14
ATOM     14  C   UNL A   1      42.871  24.628  27.430  1.00  0.00     0.031 A 
ATOM     15  C   UNL A   1      44.292  25.014  27.206  1.00  0.00     0.074 A 
ATOM     16  C   UNL A   1      41.905  25.515  27.724  1.00  0.00     0.049 A 
ATOM     17  N   UNL A   1      44.905  26.114  27.533  1.00  0.00    -0.248 NA
ATOM     18  C   UNL A   1      45.139  24.026  26.511  1.00  0.00     0.031 C 
ATOM     19  C   UNL A   1      40.466  25.222  27.750  1.00  0.00     0.029 A 
ATOM     20  N   UNL A   1      41.978  26.845  28.012  1.00  0.00    -0.354 N 
ATOM     21  C   UNL A   1      46.223  25.925  27.145  1.00  0.00     0.074 A 
ATOM     22  C   UNL A   1      46.320  24.620  26.537  1.00  0.00     0.031 C 
ATOM     23  C   UNL A   1      39.793  26.350  28.021  1.00  0.00     0.029 A 
ATOM     24  C   UNL A   1      40.757  27.405  28.293  1.00  0.00     0.049 A 
ATOM     25  H   UNL A   1      42.821  27.353  28.018  1.00  0.00     0.167 HD
ATOM     26  C   UNL A   1      47.252  26.782  27.321  1.00  0.00     0.037 A 
ATOM     27  C   UNL A   1      40.479  28.624  28.786  1.00  0.00     0.037 A 
ATOM     28  C   UNL A   1      47.075  28.073  27.924  1.00  0.00     0.049 A 
ATOM     29  C   UNL A   1      41.651  29.517  29.078  1.00  0.00     0.074 A 
ATOM     30  C   UNL A   1      48.022  29.021  28.252  1.00  0.00     0.029 A 
ATOM     31  N   UNL A   1      45.834  28.595  28.285  1.00  0.00    -0.354 N 
ATOM     32  N   UNL A   1      42.927  29.304  28.842  1.00  0.00    -0.248 NA
ATOM     33  C   UNL A   1      41.362  30.795  29.732  1.00  0.00     0.031 C 
ATOM     34  C   UNL A   1      47.357  30.098  28.851  1.00  0.00     0.029 A 
ATOM     35  C   UNL A   1      45.992  29.846  28.848  1.00  0.00     0.049 A 
ATOM     36  H   UNL A   1      44.972  28.139  28.157  1.00  0.00     0.167 HD
ATOM     37  C   UNL A   1      43.595  30.424  29.308  1.00  0.00     0.074 A 
ATOM     38  C   UNL A   1      42.575  31.322  29.821  1.00  0.00     0.031 C 
ATOM     39  C   UNL A   1      44.925  30.693  29.326  1.00  0.00     0.037 A 
BRANCH  26  40
ATOM     40  C   UNL A   1      48.618  26.284  26.962  1.00  0.00     0.057 A 
ATOM     41  C   UNL A   1      49.419  25.563  27.857  1.00  0.00     0.134 A 
ATOM     42  C   UNL A   1      49.173  26.602  25.715  1.00  0.00     0.134 A 
ATOM     43  F   UNL A   1      48.966  25.262  29.083  1.00  0.00    -0.206 F 
ATOM     44  C   UNL A   1      50.731  25.203  27.537  1.00  0.00     0.040 A 
ATOM     45  C   UNL A   1      50.473  26.227  25.374  1.00  0.00     0.040 A 
ATOM     46  F   UNL A   1      48.468  27.307  24.817  1.00  0.00    -0.206 F 
ATOM     47  C   UNL A   1      51.260  25.534  26.290  1.00  0.00     0.006 A 
ENDBRANCH  26  40
BRANCH  27  48
ATOM     48  C   UNL A   1      39.082  29.008  29.114  1.00  0.00     0.057 A 
ATOM     49  C   UNL A   1      38.220  29.528  28.144  1.00  0.00     0.134 A 
ATOM     50  C   UNL A   1      38.569  28.864  30.412  1.00  0.00     0.134 A 
ATOM     51  F   UNL A   1      38.649  29.703  26.886  1.00  0.00    -0.206 F 
ATOM     52  C   UNL A   1      36.910  29.906  28.453  1.00  0.00     0.040 A 
ATOM     53  C   UNL A   1      37.255  29.209  30.729  1.00  0.00     0.040 A 
ATOM     54  F   UNL A   1      39.336  28.367  31.395  1.00  0.00    -0.206 F 
ATOM     55  C   UNL A   1      36.423  29.742  29.747  1.00  0.00     0.006 A 
ENDBRANCH  27  48
BRANCH  39  56
ATOM     56  C   UNL A   1      45.324  32.023  29.881  1.00  0.00     0.057 A 
ATOM     57  C   UNL A   1      45.375  33.169  29.081  1.00  0.00     0.134 A 
ATOM     58  C   UNL A   1      45.600  32.160  31.246  1.00  0.00     0.134 A 
ATOM     59  F   UNL A   1      45.136  33.092  27.764  1.00  0.00    -0.206 F 
ATOM     60  C   UNL A   1      45.705  34.411  29.621  1.00  0.00     0.040 A 
ATOM     61  C   UNL A   1      45.901  33.400  31.802  1.00  0.00     0.040 A 
ATOM     62  F   UNL A   1      45.557  31.094  32.061  1.00  0.00    -0.206 F 
ATOM     63  C   UNL A   1      45.959  34.530  30.987  1.00  0.00     0.006 A 
ENDBRANCH  39  56
ENDBRANCH  13  14
ENDBRANCH   6   8
ENDBRANCH   5   6
ENDBRANCH   4   5
ENDBRANCH   3   4
ENDBRANCH   2   3
ENDBRANCH   1   2
BRANCH   1  64
ATOM     64  C   UNL A   1      37.017  22.220  23.734  1.00  0.00     0.261 C 
BRANCH  64  65
ATOM     65  O   UNL A   1      36.547  23.551  23.961  1.00  0.00    -0.463 OA
BRANCH  65  66
ATOM     66  C   UNL A   1      35.353  23.702  24.592  1.00  0.00     0.310 C 
ATOM     67  O   UNL A   1      35.187  24.096  25.742  1.00  0.00    -0.252 OA
BRANCH  66  68
ATOM     68  C   UNL A   1      34.202  23.409  23.662  1.00  0.00     0.115 C 
ATOM     69  C   UNL A   1      33.541  22.065  24.079  1.00  0.00     0.004 C 
ATOM     70  C   UNL A   1      33.194  24.570  23.656  1.00  0.00     0.096 C 
ATOM     71  C   UNL A   1      32.874  22.162  25.467  1.00  0.00     0.005 C 
ATOM     72  C   UNL A   1      32.423  21.747  23.079  1.00  0.00     0.005 C 
ATOM     73  C   UNL A   1      31.799  23.983  24.091  1.00  0.00     0.002 C 
ATOM     74  C   UNL A   1      31.941  23.378  25.512  1.00  0.00     0.005 C 
ATOM     75  C   UNL A   1      31.333  22.817  23.185  1.00  0.00     0.005 C 
BRANCH  70  76
ATOM     76  C   UNL A   1      33.177  25.323  22.311  1.00  0.00     0.229 C 
ATOM     77  O   UNL A   1      33.278  24.699  21.250  1.00  0.00    -0.274 OA
ATOM     78  N   UNL A   1      32.957  26.678  22.208  1.00  0.00    -0.317 N 
ATOM     79  H   UNL A   1      32.902  27.017  21.285  1.00  0.00     0.170 HD
BRANCH  78  80
ATOM     80  C   UNL A   1      32.802  27.642  23.188  1.00  0.00     0.108 A 
ATOM     81  S   UNL A   1      34.200  28.468  23.694  1.00  0.00    -0.122 S 
ATOM     82  C   UNL A   1      31.667  28.366  23.565  1.00  0.00     0.078 A 
ATOM     83  C   UNL A   1      33.356  29.209  24.966  1.00  0.00     0.011 A 
ATOM     84  C   UNL A   1      31.994  29.190  24.729  1.00  0.00    -0.019 A 
ATOM     85  C   UNL A   1      34.039  29.877  26.127  1.00  0.00     0.047 C 
ATOM     86  C   UNL A   1      31.066  29.918  25.658  1.00  0.00     0.037 C 
ATOM     87  C   UNL A   1      33.026  30.161  27.250  1.00  0.00     0.006 C 
ATOM     88  C   UNL A   1      31.770  30.815  26.684  1.00  0.00     0.005 C 
BRANCH  82  89
ATOM     89  C   UNL A   1      30.363  28.094  22.939  1.00  0.00     0.257 C 
ATOM     90  O   UNL A   1      29.982  26.938  22.750  1.00  0.00    -0.269 OA
ATOM     91  N   UNL A   1      29.527  29.167  22.638  1.00  0.00    -0.339 N 
ATOM     92  C   UNL A   1      28.104  28.935  22.794  1.00  0.00     0.120 C 
ATOM     93  C   UNL A   1      29.872  30.168  21.627  1.00  0.00     0.120 C 
ATOM     94  C   UNL A   1      27.445  30.221  23.260  1.00  0.00     0.022 C 
ATOM     95  C   UNL A   1      29.121  31.496  21.832  1.00  0.00     0.022 C 
ATOM     96  C   UNL A   1      27.653  31.329  22.230  1.00  0.00     0.004 C 
ENDBRANCH  82  89
ENDBRANCH  78  80
ENDBRANCH  70  76
ENDBRANCH  66  68
ENDBRANCH  65  66
ENDBRANCH  64  65
ENDBRANCH   1  64
TORSDOF 17
ENDMDL
MODEL 3
REMARK VINA RESULT:     -12.2      4.639      6.709
REMARK SMILES O=C(OCCOCCOC(=O)[C@H]1[C@H]2CC[C@H](CC2)[C@@H]1C(=O)Nc1sc2c(c1C(=O)N1CCCCC1)CCCC2)c1ccc(-c2c3nc(c(-c4c(F)cccc4F)c4ccc([nH]4)c(-c4c(F)cccc4F)c4nc(c(-c5c(F)cccc5F)c5ccc2[nH]5)C=C4)C=C3)cc1
REMARK SMILES IDX 7 1 6 2 5 3 4 4 3 5 2 6 1 7 40 8 41 9 93 10 42 11 92 12
REMARK SMILES IDX 43 13 44 14 45 15 86 16 46 17 91 18 85 19 87 20 47 21 90 22
REMARK SMILES IDX 84 23 83 24 48 26 74 27 57 28 73 29 58 30 61 31 72 32 88 33
REMARK SMILES IDX 59 34 60 35 71 37 89 38 62 39 49 40 50 41 55 42 51 43 52 44
REMARK SMILES IDX 54 45 56 46 53 47 75 48 76 49 81 50 77 51 78 52 80 53 82 54
REMARK SMILES IDX 79 55 63 56 64 57 69 58 65 59 66 60 68 61 70 62 67 63 8 64
REMARK SMILES IDX 9 65 10 66 11 67 12 68 13 69 19 70 18 71 14 72 16 73 17 74
REMARK SMILES IDX 15 75 20 76 21 77 22 78 23 80 24 81 27 82 25 83 26 84 39 85
REMARK SMILES IDX 36 86 38 87 37 88 28 89 29 90 30 91 31 92 35 93 32 94 34 95
REMARK SMILES IDX 33 96
REMARK H PARENT 87 25 61 36 22 79
REMARK Flexibility Score: inf
ROOT
ATOM      1  C   UNL A   1      37.618  22.304  25.231  1.00  0.00     0.202 C 
ENDROOT
BRANCH   1   2
ATOM      2  O   UNL A   1      37.599  21.123  24.450  1.00  0.00    -0.374 OA
BRANCH   2   3
ATOM      3  C   UNL A   1      38.109  19.904  24.974  1.00  0.00     0.202 C 
BRANCH   3   4
ATOM      4  C   UNL A   1      39.269  20.157  25.930  1.00  0.00     0.261 C 
BRANCH   4   5
ATOM      5  O   UNL A   1      40.308  19.196  25.688  1.00  0.00    -0.460 OA
BRANCH   5   6
ATOM      6  C   UNL A   1      41.615  19.434  25.963  1.00  0.00     0.338 C 
ATOM      7  O   UNL A   1      42.463  18.568  25.768  1.00  0.00    -0.246 OA
BRANCH   6   8
ATOM      8  C   UNL A   1      42.064  20.804  26.328  1.00  0.00     0.060 A 
ATOM      9  C   UNL A   1      42.260  21.844  25.415  1.00  0.00     0.016 A 
ATOM     10  C   UNL A   1      42.229  21.062  27.692  1.00  0.00     0.016 A 
ATOM     11  C   UNL A   1      42.663  23.091  25.818  1.00  0.00     0.010 A 
ATOM     12  C   UNL A   1      42.602  22.336  28.117  1.00  0.00     0.010 A 
ATOM     13  C   UNL A   1      42.818  23.343  27.170  1.00  0.00    -0.014 A 
BRANCH  13  14
ATOM     14  C   UNL A   1      43.347  24.660  27.512  1.00  0.00     0.031 A 
ATOM     15  C   UNL A   1      42.389  25.660  28.060  1.00  0.00     0.074 A 
ATOM     16  C   UNL A   1      44.677  24.845  27.501  1.00  0.00     0.049 A 
ATOM     17  N   UNL A   1      42.575  26.922  28.313  1.00  0.00    -0.248 NA
ATOM     18  C   UNL A   1      41.033  25.168  28.372  1.00  0.00     0.031 C 
ATOM     19  C   UNL A   1      45.673  23.817  27.168  1.00  0.00     0.029 A 
ATOM     20  N   UNL A   1      45.425  25.940  27.817  1.00  0.00    -0.354 N 
ATOM     21  C   UNL A   1      41.345  27.392  28.750  1.00  0.00     0.074 A 
ATOM     22  C   UNL A   1      40.425  26.280  28.753  1.00  0.00     0.031 C 
ATOM     23  C   UNL A   1      46.902  24.332  27.318  1.00  0.00     0.029 A 
ATOM     24  C   UNL A   1      46.772  25.743  27.646  1.00  0.00     0.049 A 
ATOM     25  H   UNL A   1      45.037  26.787  28.136  1.00  0.00     0.167 HD
ATOM     26  C   UNL A   1      41.034  28.662  29.088  1.00  0.00     0.037 A 
ATOM     27  C   UNL A   1      47.770  26.642  27.686  1.00  0.00     0.037 A 
ATOM     28  C   UNL A   1      42.010  29.716  29.073  1.00  0.00     0.049 A 
ATOM     29  C   UNL A   1      47.382  28.069  27.954  1.00  0.00     0.074 A 
ATOM     30  C   UNL A   1      41.840  31.065  29.303  1.00  0.00     0.029 A 
ATOM     31  N   UNL A   1      43.363  29.514  28.811  1.00  0.00    -0.354 N 
ATOM     32  N   UNL A   1      46.197  28.560  28.239  1.00  0.00    -0.248 NA
ATOM     33  C   UNL A   1      48.449  29.070  27.873  1.00  0.00     0.031 C 
ATOM     34  C   UNL A   1      43.085  31.685  29.138  1.00  0.00     0.029 A 
ATOM     35  C   UNL A   1      44.040  30.716  28.858  1.00  0.00     0.049 A 
ATOM     36  H   UNL A   1      43.777  28.641  28.622  1.00  0.00     0.167 HD
ATOM     37  C   UNL A   1      46.372  29.926  28.383  1.00  0.00     0.074 A 
ATOM     38  C   UNL A   1      47.787  30.179  28.173  1.00  0.00     0.031 C 
ATOM     39  C   UNL A   1      45.458  30.892  28.652  1.00  0.00     0.037 A 
BRANCH  26  40
ATOM     40  C   UNL A   1      39.593  28.954  29.374  1.00  0.00     0.057 A 
ATOM     41  C   UNL A   1      39.037  28.825  30.653  1.00  0.00     0.134 A 
ATOM     42  C   UNL A   1      38.728  29.296  28.327  1.00  0.00     0.134 A 
ATOM     43  F   UNL A   1      39.801  28.459  31.693  1.00  0.00    -0.206 F 
ATOM     44  C   UNL A   1      37.668  28.998  30.875  1.00  0.00     0.040 A 
ATOM     45  C   UNL A   1      37.363  29.495  28.540  1.00  0.00     0.040 A 
ATOM     46  F   UNL A   1      39.190  29.416  27.074  1.00  0.00    -0.206 F 
ATOM     47  C   UNL A   1      36.828  29.337  29.816  1.00  0.00     0.006 A 
ENDBRANCH  26  40
BRANCH  27  48
ATOM     48  C   UNL A   1      49.166  26.240  27.374  1.00  0.00     0.057 A 
ATOM     49  C   UNL A   1      50.052  25.840  28.380  1.00  0.00     0.134 A 
ATOM     50  C   UNL A   1      49.652  26.242  26.059  1.00  0.00     0.134 A 
ATOM     51  F   UNL A   1      49.656  25.826  29.660  1.00  0.00    -0.206 F 
ATOM     52  C   UNL A   1      51.371  25.477  28.093  1.00  0.00     0.040 A 
ATOM     53  C   UNL A   1      50.957  25.853  25.753  1.00  0.00     0.040 A 
ATOM     54  F   UNL A   1      48.858  26.608  25.041  1.00  0.00    -0.206 F 
ATOM     55  C   UNL A   1      51.825  25.477  26.776  1.00  0.00     0.006 A 
ENDBRANCH  27  48
BRANCH  39  56
ATOM     56  C   UNL A   1      45.984  32.287  28.771  1.00  0.00     0.057 A 
ATOM     57  C   UNL A   1      46.467  32.791  29.982  1.00  0.00     0.134 A 
ATOM     58  C   UNL A   1      46.060  33.107  27.639  1.00  0.00     0.134 A 
ATOM     59  F   UNL A   1      46.404  32.054  31.100  1.00  0.00    -0.206 F 
ATOM     60  C   UNL A   1      46.997  34.077  30.068  1.00  0.00     0.040 A 
ATOM     61  C   UNL A   1      46.613  34.383  27.706  1.00  0.00     0.040 A 
ATOM     62  F   UNL A   1      45.618  32.670  26.449  1.00  0.00    -0.206 F 
ATOM     63  C   UNL A   1      47.080  34.873  28.925  1.00  0.00     0.006 A 
ENDBRANCH  39  56
ENDBRANCH  13  14
ENDBRANCH   6   8
ENDBRANCH   5   6
ENDBRANCH   4   5
ENDBRANCH   3   4
ENDBRANCH   2   3
ENDBRANCH   1   2
BRANCH   1  64
ATOM     64  C   UNL A   1      36.207  22.561  25.756  1.00  0.00     0.261 C 
BRANCH  64  65
ATOM     65  O   UNL A   1      35.287  22.684  24.669  1.00  0.00    -0.463 OA
BRANCH  65  66
ATOM     66  C   UNL A   1      34.265  21.792  24.599  1.00  0.00     0.310 C 
ATOM     67  O   UNL A   1      34.359  20.573  24.701  1.00  0.00    -0.252 OA
BRANCH  66  68
ATOM     68  C   UNL A   1      32.936  22.493  24.466  1.00  0.00     0.115 C 
ATOM     69  C   UNL A   1      32.033  22.104  25.671  1.00  0.00     0.004 C 
ATOM     70  C   UNL A   1      33.128  24.015  24.358  1.00  0.00     0.096 C 
ATOM     71  C   UNL A   1      32.598  22.639  27.004  1.00  0.00     0.005 C 
ATOM     72  C   UNL A   1      30.663  22.765  25.481  1.00  0.00     0.005 C 
ATOM     73  C   UNL A   1      32.325  24.675  25.541  1.00  0.00     0.002 C 
ATOM     74  C   UNL A   1      32.893  24.138  26.881  1.00  0.00     0.005 C 
ATOM     75  C   UNL A   1      30.826  24.287  25.536  1.00  0.00     0.005 C 
BRANCH  70  76
ATOM     76  C   UNL A   1      32.761  24.553  22.961  1.00  0.00     0.229 C 
ATOM     77  O   UNL A   1      32.649  23.775  22.007  1.00  0.00    -0.274 OA
ATOM     78  N   UNL A   1      32.450  25.871  22.718  1.00  0.00    -0.317 N 
ATOM     79  H   UNL A   1      32.165  26.064  21.795  1.00  0.00     0.170 HD
BRANCH  78  80
ATOM     80  C   UNL A   1      32.472  26.972  23.556  1.00  0.00     0.108 A 
ATOM     81  S   UNL A   1      33.994  27.631  23.933  1.00  0.00    -0.122 S 
ATOM     82  C   UNL A   1      31.473  27.907  23.839  1.00  0.00     0.078 A 
ATOM     83  C   UNL A   1      33.310  28.658  25.098  1.00  0.00     0.011 A 
ATOM     84  C   UNL A   1      31.955  28.820  24.876  1.00  0.00    -0.019 A 
ATOM     85  C   UNL A   1      34.120  29.363  26.151  1.00  0.00     0.047 C 
ATOM     86  C   UNL A   1      31.176  29.801  25.702  1.00  0.00     0.037 C 
ATOM     87  C   UNL A   1      33.195  29.949  27.232  1.00  0.00     0.006 C 
ATOM     88  C   UNL A   1      32.038  30.708  26.590  1.00  0.00     0.005 C 
BRANCH  82  89
ATOM     89  C   UNL A   1      30.125  27.759  23.266  1.00  0.00     0.257 C 
ATOM     90  O   UNL A   1      29.592  26.651  23.183  1.00  0.00    -0.269 OA
ATOM     91  N   UNL A   1      29.425  28.905  22.893  1.00  0.00    -0.339 N 
ATOM     92  C   UNL A   1      27.990  28.875  23.098  1.00  0.00     0.120 C 
ATOM     93  C   UNL A   1      29.863  29.767  21.795  1.00  0.00     0.120 C 
ATOM     94  C   UNL A   1      27.517  30.269  23.469  1.00  0.00     0.022 C 
ATOM     95  C   UNL A   1      29.298  31.194  21.904  1.00  0.00     0.022 C 
ATOM     96  C   UNL A   1      27.834  31.254  22.346  1.00  0.00     0.004 C 
ENDBRANCH  82  89
ENDBRANCH  78  80
ENDBRANCH  70  76
ENDBRANCH  66  68
ENDBRANCH  65  66
ENDBRANCH  64  65
ENDBRANCH   1  64
TORSDOF 17
ENDMDL
