MODEL 1
REMARK VINA RESULT:      -8.9      0.000      0.000
REMARK SMILES COCC[N@H+](C)[C@H](C)[C@@H](C)C(=O)OCCOCCOC(=O)c1ccc(-c2c3nc(c(-c4c(F)cccc4F)c4ccc([nH]4)c(-c4c(F)cccc4F)c4nc(c(-c5c(F)cccc5F)c5ccc2[nH]5)C=C4)C=C3)cc1
REMARK SMILES IDX 14 1 13 2 11 3 12 4 9 5 10 6 7 7 8 8 5 9 6 10 4 12 3 13 2 14
REMARK SMILES IDX 1 15 15 16 16 17 17 18 18 19 19 20 20 21 21 22 22 23 23 24
REMARK SMILES IDX 75 25 24 26 74 27 25 28 26 29 27 30 68 31 28 32 73 33 67 34
REMARK SMILES IDX 69 35 29 36 72 37 66 38 65 39 30 41 56 42 39 43 55 44 40 45
REMARK SMILES IDX 43 46 54 47 70 48 41 49 42 50 53 52 71 53 44 54 31 55 32 56
REMARK SMILES IDX 37 57 33 58 34 59 36 60 38 61 35 62 57 63 58 64 63 65 59 66
REMARK SMILES IDX 60 67 62 68 64 69 61 70 45 71 46 72 51 73 47 74 48 75 50 76
REMARK SMILES IDX 52 77 49 78
REMARK H PARENT 5 11 69 40 43 51
REMARK Flexibility Score: inf
ROOT
ATOM      1  C   UNL A   1      34.164  24.309  26.031  1.00  0.00     0.261 C 
ENDROOT
BRANCH   1   2
ATOM      2  O   UNL A   1      33.673  25.091  24.917  1.00  0.00    -0.463 OA
BRANCH   2   3
ATOM      3  C   UNL A   1      33.002  26.224  25.249  1.00  0.00     0.314 C 
ATOM      4  O   UNL A   1      31.818  26.257  25.567  1.00  0.00    -0.252 OA
BRANCH   3   5
ATOM      5  C   UNL A   1      33.812  27.493  25.053  1.00  0.00     0.154 C 
ATOM      6  C   UNL A   1      34.079  28.050  26.460  1.00  0.00     0.026 C 
BRANCH   5   7
ATOM      7  C   UNL A   1      33.246  28.594  24.111  1.00  0.00     0.194 C 
ATOM      8  C   UNL A   1      33.752  28.355  22.671  1.00  0.00     0.076 C 
BRANCH   7   9
ATOM      9  N   UNL A   1      31.788  28.771  23.960  1.00  0.00    -0.333 N 
ATOM     10  C   UNL A   1      31.177  29.718  24.885  1.00  0.00     0.333 C 
ATOM     11  H   UNL A   1      31.425  27.864  24.254  1.00  0.00     0.348 HD
BRANCH   9  12
ATOM     12  C   UNL A   1      31.330  28.934  22.573  1.00  0.00     0.291 C 
BRANCH  12  13
ATOM     13  C   UNL A   1      29.818  29.172  22.372  1.00  0.00     0.221 C 
BRANCH  13  14
ATOM     14  O   UNL A   1      29.505  30.007  21.259  1.00  0.00    -0.379 OA
ATOM     15  C   UNL A   1      28.336  30.785  21.473  1.00  0.00     0.195 C 
ENDBRANCH  13  14
ENDBRANCH  12  13
ENDBRANCH   9  12
ENDBRANCH   7   9
ENDBRANCH   5   7
ENDBRANCH   3   5
ENDBRANCH   2   3
ENDBRANCH   1   2
BRANCH   1  16
ATOM     16  C   UNL A   1      33.975  22.801  25.844  1.00  0.00     0.202 C 
BRANCH  16  17
ATOM     17  O   UNL A   1      34.777  22.183  24.840  1.00  0.00    -0.374 OA
BRANCH  17  18
ATOM     18  C   UNL A   1      34.998  20.781  24.978  1.00  0.00     0.202 C 
BRANCH  18  19
ATOM     19  C   UNL A   1      36.473  20.345  24.987  1.00  0.00     0.261 C 
BRANCH  19  20
ATOM     20  O   UNL A   1      37.366  21.470  25.137  1.00  0.00    -0.460 OA
BRANCH  20  21
ATOM     21  C   UNL A   1      38.556  21.178  25.710  1.00  0.00     0.338 C 
ATOM     22  O   UNL A   1      39.204  20.150  25.570  1.00  0.00    -0.246 OA
BRANCH  21  23
ATOM     23  C   UNL A   1      39.113  22.360  26.403  1.00  0.00     0.060 A 
ATOM     24  C   UNL A   1      38.485  23.583  26.150  1.00  0.00     0.016 A 
ATOM     25  C   UNL A   1      40.254  22.316  27.208  1.00  0.00     0.016 A 
ATOM     26  C   UNL A   1      39.061  24.770  26.592  1.00  0.00     0.010 A 
ATOM     27  C   UNL A   1      40.805  23.513  27.697  1.00  0.00     0.010 A 
ATOM     28  C   UNL A   1      40.262  24.754  27.317  1.00  0.00    -0.014 A 
BRANCH  28  29
ATOM     29  C   UNL A   1      41.020  26.035  27.444  1.00  0.00     0.031 A 
ATOM     30  C   UNL A   1      40.413  27.177  28.230  1.00  0.00     0.074 A 
ATOM     31  C   UNL A   1      42.291  26.142  27.009  1.00  0.00     0.049 A 
ATOM     32  N   UNL A   1      40.958  28.307  28.614  1.00  0.00    -0.248 NA
ATOM     33  C   UNL A   1      39.007  27.031  28.638  1.00  0.00     0.031 C 
ATOM     34  C   UNL A   1      43.015  25.122  26.251  1.00  0.00     0.029 A 
ATOM     35  N   UNL A   1      43.213  27.150  27.175  1.00  0.00    -0.354 N 
ATOM     36  C   UNL A   1      39.965  28.993  29.304  1.00  0.00     0.074 A 
ATOM     37  C   UNL A   1      38.768  28.188  29.233  1.00  0.00     0.031 C 
ATOM     38  C   UNL A   1      44.277  25.540  26.049  1.00  0.00     0.029 A 
ATOM     39  C   UNL A   1      44.447  26.865  26.642  1.00  0.00     0.049 A 
ATOM     40  H   UNL A   1      43.006  27.997  27.633  1.00  0.00     0.167 HD
ATOM     41  C   UNL A   1      40.038  30.172  29.968  1.00  0.00     0.037 A 
ATOM     42  C   UNL A   1      45.588  27.583  26.638  1.00  0.00     0.037 A 
ATOM     43  C   UNL A   1      41.226  30.980  30.063  1.00  0.00     0.049 A 
ATOM     44  C   UNL A   1      45.635  28.913  27.346  1.00  0.00     0.074 A 
ATOM     45  C   UNL A   1      41.403  32.176  30.737  1.00  0.00     0.029 A 
ATOM     46  N   UNL A   1      42.436  30.676  29.462  1.00  0.00    -0.354 N 
ATOM     47  N   UNL A   1      44.701  29.522  28.037  1.00  0.00    -0.248 NA
ATOM     48  C   UNL A   1      46.907  29.651  27.283  1.00  0.00     0.031 C 
ATOM     49  C   UNL A   1      42.705  32.626  30.494  1.00  0.00     0.029 A 
ATOM     50  C   UNL A   1      43.358  31.677  29.725  1.00  0.00     0.049 A 
ATOM     51  H   UNL A   1      42.616  29.869  28.927  1.00  0.00     0.167 HD
ATOM     52  C   UNL A   1      45.279  30.693  28.513  1.00  0.00     0.074 A 
ATOM     53  C   UNL A   1      46.651  30.699  28.053  1.00  0.00     0.031 C 
ATOM     54  C   UNL A   1      44.723  31.677  29.263  1.00  0.00     0.037 A 
BRANCH  41  55
ATOM     55  C   UNL A   1      38.786  30.670  30.634  1.00  0.00     0.057 A 
ATOM     56  C   UNL A   1      37.864  31.489  29.967  1.00  0.00     0.134 A 
ATOM     57  C   UNL A   1      38.485  30.304  31.953  1.00  0.00     0.134 A 
ATOM     58  F   UNL A   1      38.095  31.889  28.708  1.00  0.00    -0.206 F 
ATOM     59  C   UNL A   1      36.707  31.951  30.598  1.00  0.00     0.040 A 
ATOM     60  C   UNL A   1      37.316  30.734  32.582  1.00  0.00     0.040 A 
ATOM     61  F   UNL A   1      39.320  29.517  32.648  1.00  0.00    -0.206 F 
ATOM     62  C   UNL A   1      36.427  31.566  31.907  1.00  0.00     0.006 A 
ENDBRANCH  41  55
BRANCH  42  63
ATOM     63  C   UNL A   1      46.798  27.062  25.947  1.00  0.00     0.057 A 
ATOM     64  C   UNL A   1      47.736  26.261  26.611  1.00  0.00     0.134 A 
ATOM     65  C   UNL A   1      47.065  27.390  24.612  1.00  0.00     0.134 A 
ATOM     66  F   UNL A   1      47.553  25.933  27.898  1.00  0.00    -0.206 F 
ATOM     67  C   UNL A   1      48.905  25.827  25.982  1.00  0.00     0.040 A 
ATOM     68  C   UNL A   1      48.214  26.937  23.961  1.00  0.00     0.040 A 
ATOM     69  F   UNL A   1      46.209  28.154  23.917  1.00  0.00    -0.206 F 
ATOM     70  C   UNL A   1      49.143  26.160  24.651  1.00  0.00     0.006 A 
ENDBRANCH  42  63
BRANCH  54  71
ATOM     71  C   UNL A   1      45.607  32.825  29.663  1.00  0.00     0.057 A 
ATOM     72  C   UNL A   1      46.373  32.803  30.836  1.00  0.00     0.134 A 
ATOM     73  C   UNL A   1      45.706  33.965  28.854  1.00  0.00     0.134 A 
ATOM     74  F   UNL A   1      46.321  31.746  31.662  1.00  0.00    -0.206 F 
ATOM     75  C   UNL A   1      47.171  33.886  31.211  1.00  0.00     0.040 A 
ATOM     76  C   UNL A   1      46.527  35.040  29.200  1.00  0.00     0.040 A 
ATOM     77  F   UNL A   1      45.015  34.052  27.708  1.00  0.00    -0.206 F 
ATOM     78  C   UNL A   1      47.252  35.008  30.389  1.00  0.00     0.006 A 
ENDBRANCH  54  71
ENDBRANCH  28  29
ENDBRANCH  21  23
ENDBRANCH  20  21
ENDBRANCH  19  20
ENDBRANCH  18  19
ENDBRANCH  17  18
ENDBRANCH  16  17
ENDBRANCH   1  16
TORSDOF 19
ENDMDL
MODEL 2
REMARK VINA RESULT:      -8.8      2.840      6.948
REMARK SMILES COCC[N@H+](C)[C@H](C)[C@@H](C)C(=O)OCCOCCOC(=O)c1ccc(-c2c3nc(c(-c4c(F)cccc4F)c4ccc([nH]4)c(-c4c(F)cccc4F)c4nc(c(-c5c(F)cccc5F)c5ccc2[nH]5)C=C4)C=C3)cc1
REMARK SMILES IDX 14 1 13 2 11 3 12 4 9 5 10 6 7 7 8 8 5 9 6 10 4 12 3 13 2 14
REMARK SMILES IDX 1 15 15 16 16 17 17 18 18 19 19 20 20 21 21 22 22 23 23 24
REMARK SMILES IDX 75 25 24 26 74 27 25 28 26 29 27 30 68 31 28 32 73 33 67 34
REMARK SMILES IDX 69 35 29 36 72 37 66 38 65 39 30 41 56 42 39 43 55 44 40 45
REMARK SMILES IDX 43 46 54 47 70 48 41 49 42 50 53 52 71 53 44 54 31 55 32 56
REMARK SMILES IDX 37 57 33 58 34 59 36 60 38 61 35 62 57 63 58 64 63 65 59 66
REMARK SMILES IDX 60 67 62 68 64 69 61 70 45 71 46 72 51 73 47 74 48 75 50 76
REMARK SMILES IDX 52 77 49 78
REMARK H PARENT 5 11 69 40 43 51
REMARK Flexibility Score: inf
ROOT
ATOM      1  C   UNL A   1      33.042  29.855  26.513  1.00  0.00     0.261 C 
ENDROOT
BRANCH   1   2
ATOM      2  O   UNL A   1      33.225  28.425  26.622  1.00  0.00    -0.463 OA
BRANCH   2   3
ATOM      3  C   UNL A   1      32.110  27.714  26.932  1.00  0.00     0.314 C 
ATOM      4  O   UNL A   1      31.369  27.968  27.876  1.00  0.00    -0.252 OA
BRANCH   3   5
ATOM      5  C   UNL A   1      31.925  26.468  26.084  1.00  0.00     0.154 C 
ATOM      6  C   UNL A   1      33.318  25.834  25.950  1.00  0.00     0.026 C 
BRANCH   5   7
ATOM      7  C   UNL A   1      31.237  26.612  24.697  1.00  0.00     0.194 C 
ATOM      8  C   UNL A   1      29.745  26.228  24.815  1.00  0.00     0.076 C 
BRANCH   7   9
ATOM      9  N   UNL A   1      31.224  27.914  24.001  1.00  0.00    -0.333 N 
ATOM     10  C   UNL A   1      32.336  28.141  23.085  1.00  0.00     0.333 C 
ATOM     11  H   UNL A   1      31.388  28.572  24.763  1.00  0.00     0.348 HD
BRANCH   9  12
ATOM     12  C   UNL A   1      29.921  28.297  23.439  1.00  0.00     0.291 C 
BRANCH  12  13
ATOM     13  C   UNL A   1      29.789  29.750  22.937  1.00  0.00     0.221 C 
BRANCH  13  14
ATOM     14  O   UNL A   1      29.501  29.858  21.544  1.00  0.00    -0.379 OA
ATOM     15  C   UNL A   1      28.201  30.373  21.295  1.00  0.00     0.195 C 
ENDBRANCH  13  14
ENDBRANCH  12  13
ENDBRANCH   9  12
ENDBRANCH   7   9
ENDBRANCH   5   7
ENDBRANCH   3   5
ENDBRANCH   2   3
ENDBRANCH   1   2
BRANCH   1  16
ATOM     16  C   UNL A   1      33.569  30.629  27.724  1.00  0.00     0.202 C 
BRANCH  16  17
ATOM     17  O   UNL A   1      33.790  32.025  27.536  1.00  0.00    -0.374 OA
BRANCH  17  18
ATOM     18  C   UNL A   1      34.825  32.615  28.319  1.00  0.00     0.202 C 
BRANCH  18  19
ATOM     19  C   UNL A   1      34.787  32.278  29.820  1.00  0.00     0.261 C 
BRANCH  19  20
ATOM     20  O   UNL A   1      36.112  32.182  30.384  1.00  0.00    -0.460 OA
BRANCH  20  21
ATOM     21  C   UNL A   1      36.351  31.051  31.086  1.00  0.00     0.338 C 
ATOM     22  O   UNL A   1      35.735  30.653  32.065  1.00  0.00    -0.246 OA
BRANCH  21  23
ATOM     23  C   UNL A   1      37.357  30.208  30.405  1.00  0.00     0.060 A 
ATOM     24  C   UNL A   1      38.283  29.558  31.227  1.00  0.00     0.016 A 
ATOM     25  C   UNL A   1      37.466  30.105  29.016  1.00  0.00     0.016 A 
ATOM     26  C   UNL A   1      39.382  28.912  30.669  1.00  0.00     0.010 A 
ATOM     27  C   UNL A   1      38.550  29.409  28.455  1.00  0.00     0.010 A 
ATOM     28  C   UNL A   1      39.564  28.885  29.278  1.00  0.00    -0.014 A 
BRANCH  28  29
ATOM     29  C   UNL A   1      40.914  28.517  28.755  1.00  0.00     0.031 A 
ATOM     30  C   UNL A   1      42.040  29.524  28.847  1.00  0.00     0.074 A 
ATOM     31  C   UNL A   1      41.188  27.263  28.346  1.00  0.00     0.049 A 
ATOM     32  N   UNL A   1      43.322  29.363  28.617  1.00  0.00    -0.248 NA
ATOM     33  C   UNL A   1      41.678  30.892  29.249  1.00  0.00     0.031 C 
ATOM     34  C   UNL A   1      40.211  26.181  28.219  1.00  0.00     0.029 A 
ATOM     35  N   UNL A   1      42.382  26.676  27.996  1.00  0.00    -0.354 N 
ATOM     36  C   UNL A   1      43.907  30.603  28.850  1.00  0.00     0.074 A 
ATOM     37  C   UNL A   1      42.841  31.520  29.175  1.00  0.00     0.031 C 
ATOM     38  C   UNL A   1      40.849  25.056  27.855  1.00  0.00     0.029 A 
ATOM     39  C   UNL A   1      42.275  25.338  27.700  1.00  0.00     0.049 A 
ATOM     40  H   UNL A   1      43.233  27.170  27.961  1.00  0.00     0.167 HD
ATOM     41  C   UNL A   1      45.217  30.951  28.829  1.00  0.00     0.037 A 
ATOM     42  C   UNL A   1      43.218  24.438  27.354  1.00  0.00     0.037 A 
ATOM     43  C   UNL A   1      46.295  30.047  28.523  1.00  0.00     0.049 A 
ATOM     44  C   UNL A   1      44.664  24.858  27.295  1.00  0.00     0.074 A 
ATOM     45  C   UNL A   1      47.655  30.303  28.505  1.00  0.00     0.029 A 
ATOM     46  N   UNL A   1      46.133  28.715  28.178  1.00  0.00    -0.354 N 
ATOM     47  N   UNL A   1      45.205  26.021  27.568  1.00  0.00    -0.248 NA
ATOM     48  C   UNL A   1      45.635  23.829  26.889  1.00  0.00     0.031 C 
ATOM     49  C   UNL A   1      48.312  29.140  28.089  1.00  0.00     0.029 A 
ATOM     50  C   UNL A   1      47.368  28.143  27.915  1.00  0.00     0.049 A 
ATOM     51  H   UNL A   1      45.269  28.245  28.127  1.00  0.00     0.167 HD
ATOM     52  C   UNL A   1      46.575  25.856  27.397  1.00  0.00     0.074 A 
ATOM     53  C   UNL A   1      46.785  24.475  27.021  1.00  0.00     0.031 C 
ATOM     54  C   UNL A   1      47.570  26.767  27.539  1.00  0.00     0.037 A 
BRANCH  41  55
ATOM     55  C   UNL A   1      45.556  32.384  29.132  1.00  0.00     0.057 A 
ATOM     56  C   UNL A   1      45.776  32.835  30.441  1.00  0.00     0.134 A 
ATOM     57  C   UNL A   1      45.690  33.320  28.098  1.00  0.00     0.134 A 
ATOM     58  F   UNL A   1      45.651  31.996  31.480  1.00  0.00    -0.206 F 
ATOM     59  C   UNL A   1      46.083  34.170  30.712  1.00  0.00     0.040 A 
ATOM     60  C   UNL A   1      46.028  34.649  28.354  1.00  0.00     0.040 A 
ATOM     61  F   UNL A   1      45.500  32.955  26.821  1.00  0.00    -0.206 F 
ATOM     62  C   UNL A   1      46.218  35.080  29.665  1.00  0.00     0.006 A 
ENDBRANCH  41  55
BRANCH  42  63
ATOM     63  C   UNL A   1      42.834  23.035  27.041  1.00  0.00     0.057 A 
ATOM     64  C   UNL A   1      42.559  22.105  28.052  1.00  0.00     0.134 A 
ATOM     65  C   UNL A   1      42.775  22.580  25.717  1.00  0.00     0.134 A 
ATOM     66  F   UNL A   1      42.626  22.470  29.340  1.00  0.00    -0.206 F 
ATOM     67  C   UNL A   1      42.264  20.772  27.760  1.00  0.00     0.040 A 
ATOM     68  C   UNL A   1      42.450  21.258  25.410  1.00  0.00     0.040 A 
ATOM     69  F   UNL A   1      43.027  23.418  24.701  1.00  0.00    -0.206 F 
ATOM     70  C   UNL A   1      42.203  20.347  26.435  1.00  0.00     0.006 A 
ENDBRANCH  42  63
BRANCH  54  71
ATOM     71  C   UNL A   1      48.979  26.291  27.319  1.00  0.00     0.057 A 
ATOM     72  C   UNL A   1      49.776  25.812  28.368  1.00  0.00     0.134 A 
ATOM     73  C   UNL A   1      49.543  26.298  26.036  1.00  0.00     0.134 A 
ATOM     74  F   UNL A   1      49.303  25.784  29.624  1.00  0.00    -0.206 F 
ATOM     75  C   UNL A   1      51.093  25.397  28.157  1.00  0.00     0.040 A 
ATOM     76  C   UNL A   1      50.847  25.854  25.807  1.00  0.00     0.040 A 
ATOM     77  F   UNL A   1      48.835  26.728  24.982  1.00  0.00    -0.206 F 
ATOM     78  C   UNL A   1      51.630  25.414  26.872  1.00  0.00     0.006 A 
ENDBRANCH  54  71
ENDBRANCH  28  29
ENDBRANCH  21  23
ENDBRANCH  20  21
ENDBRANCH  19  20
ENDBRANCH  18  19
ENDBRANCH  17  18
ENDBRANCH  16  17
ENDBRANCH   1  16
TORSDOF 19
ENDMDL
MODEL 3
REMARK VINA RESULT:      -8.7      3.835      8.850
REMARK SMILES COCC[N@H+](C)[C@H](C)[C@@H](C)C(=O)OCCOCCOC(=O)c1ccc(-c2c3nc(c(-c4c(F)cccc4F)c4ccc([nH]4)c(-c4c(F)cccc4F)c4nc(c(-c5c(F)cccc5F)c5ccc2[nH]5)C=C4)C=C3)cc1
REMARK SMILES IDX 14 1 13 2 11 3 12 4 9 5 10 6 7 7 8 8 5 9 6 10 4 12 3 13 2 14
REMARK SMILES IDX 1 15 15 16 16 17 17 18 18 19 19 20 20 21 21 22 22 23 23 24
REMARK SMILES IDX 75 25 24 26 74 27 25 28 26 29 27 30 68 31 28 32 73 33 67 34
REMARK SMILES IDX 69 35 29 36 72 37 66 38 65 39 30 41 56 42 39 43 55 44 40 45
REMARK SMILES IDX 43 46 54 47 70 48 41 49 42 50 53 52 71 53 44 54 31 55 32 56
REMARK SMILES IDX 37 57 33 58 34 59 36 60 38 61 35 62 57 63 58 64 63 65 59 66
REMARK SMILES IDX 60 67 62 68 64 69 61 70 45 71 46 72 51 73 47 74 48 75 50 76
REMARK SMILES IDX 52 77 49 78
REMARK H PARENT 5 11 69 40 43 51
REMARK Flexibility Score: inf
ROOT
ATOM      1  C   UNL A   1      32.534  26.296  24.505  1.00  0.00     0.261 C 
ENDROOT
BRANCH   1   2
ATOM      2  O   UNL A   1      32.419  25.297  23.466  1.00  0.00    -0.463 OA
BRANCH   2   3
ATOM      3  C   UNL A   1      33.523  25.127  22.693  1.00  0.00     0.314 C 
ATOM      4  O   UNL A   1      34.007  25.999  21.979  1.00  0.00    -0.252 OA
BRANCH   3   5
ATOM      5  C   UNL A   1      34.039  23.699  22.670  1.00  0.00     0.154 C 
ATOM      6  C   UNL A   1      32.923  22.852  22.040  1.00  0.00     0.026 C 
BRANCH   5   7
ATOM      7  C   UNL A   1      34.535  23.071  24.003  1.00  0.00     0.194 C 
ATOM      8  C   UNL A   1      35.415  24.090  24.762  1.00  0.00     0.076 C 
BRANCH   7   9
ATOM      9  N   UNL A   1      33.567  22.601  25.014  1.00  0.00    -0.333 N 
ATOM     10  C   UNL A   1      33.553  21.160  25.241  1.00  0.00     0.333 C 
ATOM     11  H   UNL A   1      32.671  22.794  24.566  1.00  0.00     0.348 HD
BRANCH   9  12
ATOM     12  C   UNL A   1      33.549  23.386  26.258  1.00  0.00     0.291 C 
BRANCH  12  13
ATOM     13  C   UNL A   1      32.710  22.813  27.419  1.00  0.00     0.221 C 
BRANCH  13  14
ATOM     14  O   UNL A   1      31.476  23.494  27.634  1.00  0.00    -0.379 OA
ATOM     15  C   UNL A   1      30.569  23.333  26.552  1.00  0.00     0.195 C 
ENDBRANCH  13  14
ENDBRANCH  12  13
ENDBRANCH   9  12
ENDBRANCH   7   9
ENDBRANCH   5   7
ENDBRANCH   3   5
ENDBRANCH   2   3
ENDBRANCH   1   2
BRANCH   1  16
ATOM     16  C   UNL A   1      32.097  27.692  24.054  1.00  0.00     0.202 C 
BRANCH  16  17
ATOM     17  O   UNL A   1      31.231  28.401  24.939  1.00  0.00    -0.374 OA
BRANCH  17  18
ATOM     18  C   UNL A   1      31.194  29.818  24.790  1.00  0.00     0.202 C 
BRANCH  18  19
ATOM     19  C   UNL A   1      31.557  30.622  26.051  1.00  0.00     0.261 C 
BRANCH  19  20
ATOM     20  O   UNL A   1      32.944  30.455  26.415  1.00  0.00    -0.460 OA
BRANCH  20  21
ATOM     21  C   UNL A   1      33.464  31.464  27.150  1.00  0.00     0.338 C 
ATOM     22  O   UNL A   1      32.880  32.469  27.531  1.00  0.00    -0.246 OA
BRANCH  21  23
ATOM     23  C   UNL A   1      34.820  31.123  27.632  1.00  0.00     0.060 A 
ATOM     24  C   UNL A   1      35.099  29.763  27.794  1.00  0.00     0.016 A 
ATOM     25  C   UNL A   1      35.772  32.078  27.997  1.00  0.00     0.016 A 
ATOM     26  C   UNL A   1      36.268  29.359  28.432  1.00  0.00     0.010 A 
ATOM     27  C   UNL A   1      36.975  31.664  28.595  1.00  0.00     0.010 A 
ATOM     28  C   UNL A   1      37.191  30.307  28.897  1.00  0.00    -0.014 A 
BRANCH  28  29
ATOM     29  C   UNL A   1      38.222  29.858  29.882  1.00  0.00     0.031 A 
ATOM     30  C   UNL A   1      39.331  28.937  29.420  1.00  0.00     0.074 A 
ATOM     31  C   UNL A   1      38.273  30.374  31.125  1.00  0.00     0.049 A 
ATOM     32  N   UNL A   1      40.418  28.562  30.051  1.00  0.00    -0.248 NA
ATOM     33  C   UNL A   1      39.200  28.361  28.072  1.00  0.00     0.031 C 
ATOM     34  C   UNL A   1      37.286  31.283  31.706  1.00  0.00     0.029 A 
ATOM     35  N   UNL A   1      39.218  30.233  32.115  1.00  0.00    -0.354 N 
ATOM     36  C   UNL A   1      41.091  27.716  29.176  1.00  0.00     0.074 A 
ATOM     37  C   UNL A   1      40.265  27.579  28.000  1.00  0.00     0.031 C 
ATOM     38  C   UNL A   1      37.694  31.647  32.934  1.00  0.00     0.029 A 
ATOM     39  C   UNL A   1      38.959  30.981  33.238  1.00  0.00     0.049 A 
ATOM     40  H   UNL A   1      40.007  29.650  32.025  1.00  0.00     0.167 HD
ATOM     41  C   UNL A   1      42.303  27.125  29.316  1.00  0.00     0.037 A 
ATOM     42  C   UNL A   1      39.664  31.124  34.379  1.00  0.00     0.037 A 
ATOM     43  C   UNL A   1      43.147  27.263  30.473  1.00  0.00     0.049 A 
ATOM     44  C   UNL A   1      40.989  30.422  34.530  1.00  0.00     0.074 A 
ATOM     45  C   UNL A   1      44.403  26.724  30.693  1.00  0.00     0.029 A 
ATOM     46  N   UNL A   1      42.818  27.987  31.608  1.00  0.00    -0.354 N 
ATOM     47  N   UNL A   1      41.634  29.668  33.672  1.00  0.00    -0.248 NA
ATOM     48  C   UNL A   1      41.693  30.605  35.809  1.00  0.00     0.031 C 
ATOM     49  C   UNL A   1      44.809  27.074  31.985  1.00  0.00     0.029 A 
ATOM     50  C   UNL A   1      43.836  27.885  32.544  1.00  0.00     0.049 A 
ATOM     51  H   UNL A   1      41.986  28.499  31.731  1.00  0.00     0.167 HD
ATOM     52  C   UNL A   1      42.826  29.313  34.295  1.00  0.00     0.074 A 
ATOM     53  C   UNL A   1      42.826  29.954  35.592  1.00  0.00     0.031 C 
ATOM     54  C   UNL A   1      43.829  28.525  33.834  1.00  0.00     0.037 A 
BRANCH  41  55
ATOM     55  C   UNL A   1      42.783  26.257  28.186  1.00  0.00     0.057 A 
ATOM     56  C   UNL A   1      42.450  24.897  28.100  1.00  0.00     0.134 A 
ATOM     57  C   UNL A   1      43.567  26.793  27.157  1.00  0.00     0.134 A 
ATOM     58  F   UNL A   1      41.713  24.315  29.058  1.00  0.00    -0.206 F 
ATOM     59  C   UNL A   1      42.906  24.098  27.050  1.00  0.00     0.040 A 
ATOM     60  C   UNL A   1      44.003  26.011  26.086  1.00  0.00     0.040 A 
ATOM     61  F   UNL A   1      43.918  28.088  27.173  1.00  0.00    -0.206 F 
ATOM     62  C   UNL A   1      43.679  24.658  26.034  1.00  0.00     0.006 A 
ENDBRANCH  41  55
BRANCH  42  63
ATOM     63  C   UNL A   1      39.140  31.976  35.480  1.00  0.00     0.057 A 
ATOM     64  C   UNL A   1      38.304  31.456  36.477  1.00  0.00     0.134 A 
ATOM     65  C   UNL A   1      39.429  33.345  35.535  1.00  0.00     0.134 A 
ATOM     66  F   UNL A   1      37.966  30.158  36.466  1.00  0.00    -0.206 F 
ATOM     67  C   UNL A   1      37.757  32.268  37.472  1.00  0.00     0.040 A 
ATOM     68  C   UNL A   1      38.915  34.163  36.543  1.00  0.00     0.040 A 
ATOM     69  F   UNL A   1      40.222  33.908  34.612  1.00  0.00    -0.206 F 
ATOM     70  C   UNL A   1      38.068  33.626  37.510  1.00  0.00     0.006 A 
ENDBRANCH  42  63
BRANCH  54  71
ATOM     71  C   UNL A   1      45.028  28.342  34.724  1.00  0.00     0.057 A 
ATOM     72  C   UNL A   1      45.122  27.285  35.639  1.00  0.00     0.134 A 
ATOM     73  C   UNL A   1      46.111  29.227  34.652  1.00  0.00     0.134 A 
ATOM     74  F   UNL A   1      44.118  26.404  35.766  1.00  0.00    -0.206 F 
ATOM     75  C   UNL A   1      46.229  27.139  36.478  1.00  0.00     0.040 A 
ATOM     76  C   UNL A   1      47.238  29.072  35.462  1.00  0.00     0.040 A 
ATOM     77  F   UNL A   1      46.099  30.253  33.788  1.00  0.00    -0.206 F 
ATOM     78  C   UNL A   1      47.293  28.033  36.388  1.00  0.00     0.006 A 
ENDBRANCH  54  71
ENDBRANCH  28  29
ENDBRANCH  21  23
ENDBRANCH  20  21
ENDBRANCH  19  20
ENDBRANCH  18  19
ENDBRANCH  17  18
ENDBRANCH  16  17
ENDBRANCH   1  16
TORSDOF 19
ENDMDL
