MODEL 1
REMARK VINA RESULT:      -8.5      0.000      0.000
REMARK SMILES [NH3+][C@H](Cc1ccc(O)c(F)c1)C(=O)OCCOCCOC(=O)c1ccc(-c2c3nc(c(-c4c(F)cccc4F)c4ccc([nH]4)c(-c4c(F)cccc4F)c4nc(c(-c5c(F)cccc5F)c5ccc2[nH]5)C=C4)C=C3)cc1
REMARK SMILES IDX 16 1 15 2 14 3 12 4 13 5 2 6 1 7 3 11 4 12 5 13 11 14 6 15
REMARK SMILES IDX 9 16 7 17 10 18 8 19 17 21 18 22 19 23 20 24 21 25 22 26
REMARK SMILES IDX 23 27 24 28 76 29 25 30 75 31 26 32 27 33 28 34 69 35 29 36
REMARK SMILES IDX 74 37 68 38 70 39 30 40 73 41 67 42 66 43 31 45 57 46 40 47
REMARK SMILES IDX 56 48 41 49 44 50 55 51 71 52 42 53 43 54 54 56 72 57 45 58
REMARK SMILES IDX 32 59 33 60 38 61 34 62 35 63 37 64 39 65 36 66 58 67 59 68
REMARK SMILES IDX 64 69 60 70 61 71 63 72 65 73 62 74 46 75 47 76 52 77 48 78
REMARK SMILES IDX 49 79 51 80 53 81 50 82
REMARK H PARENT 1 8 1 9 1 10 8 20 70 44 44 55
REMARK Flexibility Score: inf
ROOT
ATOM      1  C   UNL A   1      46.031  22.385  25.085  1.00  0.00     0.202 C 
ENDROOT
BRANCH   1   2
ATOM      2  C   UNL A   1      46.071  23.720  24.337  1.00  0.00     0.261 C 
BRANCH   2   3
ATOM      3  O   UNL A   1      47.246  24.480  24.661  1.00  0.00    -0.459 OA
BRANCH   3   4
ATOM      4  C   UNL A   1      47.174  25.807  24.352  1.00  0.00     0.365 C 
ATOM      5  O   UNL A   1      48.001  26.414  23.681  1.00  0.00    -0.245 OA
BRANCH   4   6
ATOM      6  C   UNL A   1      45.954  26.481  24.992  1.00  0.00     0.296 C 
BRANCH   6   7
ATOM      7  N   UNL A   1      45.758  27.793  24.329  1.00  0.00    -0.346 N 
ATOM      8  H   UNL A   1      45.201  28.399  24.932  1.00  0.00     0.345 HD
ATOM      9  H   UNL A   1      45.272  27.657  23.443  1.00  0.00     0.345 HD
ATOM     10  H   UNL A   1      46.665  28.226  24.158  1.00  0.00     0.345 HD
ENDBRANCH   6   7
BRANCH   6  11
ATOM     11  C   UNL A   1      46.002  26.552  26.545  1.00  0.00     0.113 C 
BRANCH  11  12
ATOM     12  C   UNL A   1      45.360  27.834  27.038  1.00  0.00    -0.038 A 
ATOM     13  C   UNL A   1      46.180  28.907  27.426  1.00  0.00     0.008 A 
ATOM     14  C   UNL A   1      43.982  28.038  26.888  1.00  0.00     0.047 A 
ATOM     15  C   UNL A   1      45.658  30.197  27.513  1.00  0.00     0.049 A 
ATOM     16  C   UNL A   1      43.464  29.324  27.001  1.00  0.00     0.165 A 
ATOM     17  C   UNL A   1      44.306  30.405  27.257  1.00  0.00     0.151 A 
ATOM     18  F   UNL A   1      42.158  29.519  26.770  1.00  0.00    -0.203 F 
BRANCH  17  19
ATOM     19  O   UNL A   1      43.800  31.672  27.208  1.00  0.00    -0.505 OA
ATOM     20  H   UNL A   1      43.008  31.842  26.739  1.00  0.00     0.293 HD
ENDBRANCH  17  19
ENDBRANCH  11  12
ENDBRANCH   6  11
ENDBRANCH   4   6
ENDBRANCH   3   4
ENDBRANCH   2   3
ENDBRANCH   1   2
BRANCH   1  21
ATOM     21  O   UNL A   1      45.679  21.243  24.305  1.00  0.00    -0.374 OA
BRANCH  21  22
ATOM     22  C   UNL A   1      45.976  19.966  24.870  1.00  0.00     0.202 C 
BRANCH  22  23
ATOM     23  C   UNL A   1      44.766  19.065  25.129  1.00  0.00     0.261 C 
BRANCH  23  24
ATOM     24  O   UNL A   1      43.542  19.729  24.766  1.00  0.00    -0.460 OA
BRANCH  24  25
ATOM     25  C   UNL A   1      42.537  19.577  25.657  1.00  0.00     0.338 C 
ATOM     26  O   UNL A   1      41.985  18.532  25.979  1.00  0.00    -0.246 OA
BRANCH  25  27
ATOM     27  C   UNL A   1      42.277  20.845  26.363  1.00  0.00     0.060 A 
ATOM     28  C   UNL A   1      42.593  22.024  25.679  1.00  0.00     0.016 A 
ATOM     29  C   UNL A   1      41.814  20.893  27.681  1.00  0.00     0.016 A 
ATOM     30  C   UNL A   1      42.525  23.249  26.334  1.00  0.00     0.010 A 
ATOM     31  C   UNL A   1      41.748  22.126  28.340  1.00  0.00     0.010 A 
ATOM     32  C   UNL A   1      42.150  23.303  27.683  1.00  0.00    -0.014 A 
BRANCH  32  33
ATOM     33  C   UNL A   1      42.351  24.577  28.416  1.00  0.00     0.031 A 
ATOM     34  C   UNL A   1      43.699  24.870  29.017  1.00  0.00     0.074 A 
ATOM     35  C   UNL A   1      41.378  25.504  28.455  1.00  0.00     0.049 A 
ATOM     36  N   UNL A   1      44.126  25.958  29.608  1.00  0.00    -0.248 NA
ATOM     37  C   UNL A   1      44.702  23.796  28.937  1.00  0.00     0.031 C 
ATOM     38  C   UNL A   1      40.040  25.349  27.889  1.00  0.00     0.029 A 
ATOM     39  N   UNL A   1      41.377  26.771  28.983  1.00  0.00    -0.354 N 
ATOM     40  C   UNL A   1      45.448  25.705  29.952  1.00  0.00     0.074 A 
ATOM     41  C   UNL A   1      45.740  24.346  29.550  1.00  0.00     0.031 C 
ATOM     42  C   UNL A   1      39.345  26.481  28.099  1.00  0.00     0.029 A 
ATOM     43  C   UNL A   1      40.186  27.433  28.823  1.00  0.00     0.049 A 
ATOM     44  H   UNL A   1      42.157  27.167  29.436  1.00  0.00     0.167 HD
ATOM     45  C   UNL A   1      46.347  26.537  30.531  1.00  0.00     0.037 A 
ATOM     46  C   UNL A   1      39.817  28.668  29.215  1.00  0.00     0.037 A 
ATOM     47  C   UNL A   1      46.059  27.887  30.939  1.00  0.00     0.049 A 
ATOM     48  C   UNL A   1      40.820  29.556  29.901  1.00  0.00     0.074 A 
ATOM     49  C   UNL A   1      46.900  28.805  31.543  1.00  0.00     0.029 A 
ATOM     50  N   UNL A   1      44.830  28.509  30.789  1.00  0.00    -0.354 N 
ATOM     51  N   UNL A   1      42.073  29.314  30.198  1.00  0.00    -0.248 NA
ATOM     52  C   UNL A   1      40.359  30.895  30.292  1.00  0.00     0.031 C 
ATOM     53  C   UNL A   1      46.169  29.972  31.790  1.00  0.00     0.029 A 
ATOM     54  C   UNL A   1      44.885  29.796  31.300  1.00  0.00     0.049 A 
ATOM     55  H   UNL A   1      44.035  28.099  30.377  1.00  0.00     0.167 HD
ATOM     56  C   UNL A   1      42.556  30.474  30.791  1.00  0.00     0.074 A 
ATOM     57  C   UNL A   1      41.465  31.428  30.789  1.00  0.00     0.031 C 
ATOM     58  C   UNL A   1      43.788  30.729  31.295  1.00  0.00     0.037 A 
BRANCH  45  59
ATOM     59  C   UNL A   1      47.730  26.002  30.762  1.00  0.00     0.057 A 
ATOM     60  C   UNL A   1      48.701  26.017  29.751  1.00  0.00     0.134 A 
ATOM     61  C   UNL A   1      48.105  25.496  32.012  1.00  0.00     0.134 A 
ATOM     62  F   UNL A   1      48.401  26.473  28.526  1.00  0.00    -0.206 F 
ATOM     63  C   UNL A   1      49.990  25.530  29.972  1.00  0.00     0.040 A 
ATOM     64  C   UNL A   1      49.398  25.029  32.251  1.00  0.00     0.040 A 
ATOM     65  F   UNL A   1      47.223  25.456  33.023  1.00  0.00    -0.206 F 
ATOM     66  C   UNL A   1      50.344  25.040  31.228  1.00  0.00     0.006 A 
ENDBRANCH  45  59
BRANCH  46  67
ATOM     67  C   UNL A   1      38.431  29.139  28.973  1.00  0.00     0.057 A 
ATOM     68  C   UNL A   1      38.035  29.641  27.728  1.00  0.00     0.134 A 
ATOM     69  C   UNL A   1      37.473  29.122  29.995  1.00  0.00     0.134 A 
ATOM     70  F   UNL A   1      38.913  29.703  26.716  1.00  0.00    -0.206 F 
ATOM     71  C   UNL A   1      36.745  30.128  27.513  1.00  0.00     0.040 A 
ATOM     72  C   UNL A   1      36.173  29.583  29.788  1.00  0.00     0.040 A 
ATOM     73  F   UNL A   1      37.790  28.651  31.211  1.00  0.00    -0.206 F 
ATOM     74  C   UNL A   1      35.808  30.096  28.545  1.00  0.00     0.006 A 
ENDBRANCH  46  67
BRANCH  58  75
ATOM     75  C   UNL A   1      44.023  32.097  31.867  1.00  0.00     0.057 A 
ATOM     76  C   UNL A   1      43.753  32.390  33.211  1.00  0.00     0.134 A 
ATOM     77  C   UNL A   1      44.537  33.128  31.070  1.00  0.00     0.134 A 
ATOM     78  F   UNL A   1      43.249  31.450  34.024  1.00  0.00    -0.206 F 
ATOM     79  C   UNL A   1      43.956  33.669  33.732  1.00  0.00     0.040 A 
ATOM     80  C   UNL A   1      44.768  34.403  31.588  1.00  0.00     0.040 A 
ATOM     81  F   UNL A   1      44.826  32.911  29.779  1.00  0.00    -0.206 F 
ATOM     82  C   UNL A   1      44.469  34.679  32.921  1.00  0.00     0.006 A 
ENDBRANCH  58  75
ENDBRANCH  32  33
ENDBRANCH  25  27
ENDBRANCH  24  25
ENDBRANCH  23  24
ENDBRANCH  22  23
ENDBRANCH  21  22
ENDBRANCH   1  21
TORSDOF 18
ENDMDL
MODEL 2
REMARK VINA RESULT:      -8.4      4.510     10.870
REMARK SMILES [NH3+][C@H](Cc1ccc(O)c(F)c1)C(=O)OCCOCCOC(=O)c1ccc(-c2c3nc(c(-c4c(F)cccc4F)c4ccc([nH]4)c(-c4c(F)cccc4F)c4nc(c(-c5c(F)cccc5F)c5ccc2[nH]5)C=C4)C=C3)cc1
REMARK SMILES IDX 16 1 15 2 14 3 12 4 13 5 2 6 1 7 3 11 4 12 5 13 11 14 6 15
REMARK SMILES IDX 9 16 7 17 10 18 8 19 17 21 18 22 19 23 20 24 21 25 22 26
REMARK SMILES IDX 23 27 24 28 76 29 25 30 75 31 26 32 27 33 28 34 69 35 29 36
REMARK SMILES IDX 74 37 68 38 70 39 30 40 73 41 67 42 66 43 31 45 57 46 40 47
REMARK SMILES IDX 56 48 41 49 44 50 55 51 71 52 42 53 43 54 54 56 72 57 45 58
REMARK SMILES IDX 32 59 33 60 38 61 34 62 35 63 37 64 39 65 36 66 58 67 59 68
REMARK SMILES IDX 64 69 60 70 61 71 63 72 65 73 62 74 46 75 47 76 52 77 48 78
REMARK SMILES IDX 49 79 51 80 53 81 50 82
REMARK H PARENT 1 8 1 9 1 10 8 20 70 44 44 55
REMARK Flexibility Score: inf
ROOT
ATOM      1  C   UNL A   1      34.557  34.441  33.826  1.00  0.00     0.202 C 
ENDROOT
BRANCH   1   2
ATOM      2  C   UNL A   1      36.036  34.301  34.191  1.00  0.00     0.261 C 
BRANCH   2   3
ATOM      3  O   UNL A   1      36.330  33.013  34.756  1.00  0.00    -0.459 OA
BRANCH   3   4
ATOM      4  C   UNL A   1      37.332  33.008  35.682  1.00  0.00     0.365 C 
ATOM      5  O   UNL A   1      37.667  33.977  36.354  1.00  0.00    -0.245 OA
BRANCH   4   6
ATOM      6  C   UNL A   1      38.042  31.650  35.751  1.00  0.00     0.296 C 
BRANCH   6   7
ATOM      7  N   UNL A   1      38.229  31.306  37.182  1.00  0.00    -0.346 N 
ATOM      8  H   UNL A   1      37.566  31.834  37.749  1.00  0.00     0.345 HD
ATOM      9  H   UNL A   1      39.180  31.539  37.467  1.00  0.00     0.345 HD
ATOM     10  H   UNL A   1      38.069  30.307  37.314  1.00  0.00     0.345 HD
ENDBRANCH   6   7
BRANCH   6  11
ATOM     11  C   UNL A   1      39.341  31.562  34.900  1.00  0.00     0.113 C 
BRANCH  11  12
ATOM     12  C   UNL A   1      39.183  30.538  33.794  1.00  0.00    -0.038 A 
ATOM     13  C   UNL A   1      40.164  29.545  33.632  1.00  0.00     0.008 A 
ATOM     14  C   UNL A   1      37.973  30.431  33.097  1.00  0.00     0.047 A 
ATOM     15  C   UNL A   1      39.882  28.388  32.908  1.00  0.00     0.049 A 
ATOM     16  C   UNL A   1      37.708  29.284  32.356  1.00  0.00     0.165 A 
ATOM     17  C   UNL A   1      38.635  28.245  32.308  1.00  0.00     0.151 A 
ATOM     18  F   UNL A   1      36.511  29.157  31.765  1.00  0.00    -0.203 F 
BRANCH  17  19
ATOM     19  O   UNL A   1      38.290  27.069  31.706  1.00  0.00    -0.505 OA
ATOM     20  H   UNL A   1      38.795  26.296  31.865  1.00  0.00     0.293 HD
ENDBRANCH  17  19
ENDBRANCH  11  12
ENDBRANCH   6  11
ENDBRANCH   4   6
ENDBRANCH   3   4
ENDBRANCH   2   3
ENDBRANCH   1   2
BRANCH   1  21
ATOM     21  O   UNL A   1      34.244  35.452  32.869  1.00  0.00    -0.374 OA
BRANCH  21  22
ATOM     22  C   UNL A   1      32.858  35.690  32.620  1.00  0.00     0.202 C 
BRANCH  22  23
ATOM     23  C   UNL A   1      32.524  36.241  31.232  1.00  0.00     0.261 C 
BRANCH  23  24
ATOM     24  O   UNL A   1      33.602  35.998  30.308  1.00  0.00    -0.460 OA
BRANCH  24  25
ATOM     25  C   UNL A   1      33.389  34.967  29.460  1.00  0.00     0.338 C 
ATOM     26  O   UNL A   1      32.424  34.800  28.725  1.00  0.00    -0.246 OA
BRANCH  25  27
ATOM     27  C   UNL A   1      34.584  34.106  29.384  1.00  0.00     0.060 A 
ATOM     28  C   UNL A   1      34.768  33.189  30.424  1.00  0.00     0.016 A 
ATOM     29  C   UNL A   1      35.543  34.236  28.375  1.00  0.00     0.016 A 
ATOM     30  C   UNL A   1      35.946  32.456  30.506  1.00  0.00     0.010 A 
ATOM     31  C   UNL A   1      36.730  33.498  28.459  1.00  0.00     0.010 A 
ATOM     32  C   UNL A   1      36.956  32.642  29.552  1.00  0.00    -0.014 A 
BRANCH  32  33
ATOM     33  C   UNL A   1      38.291  32.054  29.820  1.00  0.00     0.031 A 
ATOM     34  C   UNL A   1      39.233  32.773  30.749  1.00  0.00     0.074 A 
ATOM     35  C   UNL A   1      38.619  30.847  29.328  1.00  0.00     0.049 A 
ATOM     36  N   UNL A   1      40.401  32.393  31.204  1.00  0.00    -0.248 NA
ATOM     37  C   UNL A   1      38.798  34.092  31.235  1.00  0.00     0.031 C 
ATOM     38  C   UNL A   1      37.784  30.042  28.439  1.00  0.00     0.029 A 
ATOM     39  N   UNL A   1      39.741  30.081  29.523  1.00  0.00    -0.354 N 
ATOM     40  C   UNL A   1      40.830  33.417  32.040  1.00  0.00     0.074 A 
ATOM     41  C   UNL A   1      39.823  34.454  31.993  1.00  0.00     0.031 C 
ATOM     42  C   UNL A   1      38.423  28.891  28.167  1.00  0.00     0.029 A 
ATOM     43  C   UNL A   1      39.714  28.885  28.852  1.00  0.00     0.049 A 
ATOM     44  H   UNL A   1      40.496  30.364  30.090  1.00  0.00     0.167 HD
ATOM     45  C   UNL A   1      41.951  33.479  32.797  1.00  0.00     0.037 A 
ATOM     46  C   UNL A   1      40.628  27.897  28.796  1.00  0.00     0.037 A 
ATOM     47  C   UNL A   1      42.960  32.452  32.841  1.00  0.00     0.049 A 
ATOM     48  C   UNL A   1      41.890  28.011  29.610  1.00  0.00     0.074 A 
ATOM     49  C   UNL A   1      44.136  32.427  33.570  1.00  0.00     0.029 A 
ATOM     50  N   UNL A   1      42.910  31.270  32.120  1.00  0.00    -0.354 N 
ATOM     51  N   UNL A   1      42.271  28.972  30.415  1.00  0.00    -0.248 NA
ATOM     52  C   UNL A   1      42.840  26.894  29.516  1.00  0.00     0.031 C 
ATOM     53  C   UNL A   1      44.816  31.244  33.262  1.00  0.00     0.029 A 
ATOM     54  C   UNL A   1      44.042  30.512  32.376  1.00  0.00     0.049 A 
ATOM     55  H   UNL A   1      42.178  31.005  31.516  1.00  0.00     0.167 HD
ATOM     56  C   UNL A   1      43.494  28.569  30.939  1.00  0.00     0.074 A 
ATOM     57  C   UNL A   1      43.777  27.263  30.378  1.00  0.00     0.031 C 
ATOM     58  C   UNL A   1      44.311  29.218  31.804  1.00  0.00     0.037 A 
BRANCH  45  59
ATOM     59  C   UNL A   1      42.147  34.706  33.638  1.00  0.00     0.057 A 
ATOM     60  C   UNL A   1      41.802  34.730  34.996  1.00  0.00     0.134 A 
ATOM     61  C   UNL A   1      42.713  35.865  33.095  1.00  0.00     0.134 A 
ATOM     62  F   UNL A   1      41.240  33.656  35.573  1.00  0.00    -0.206 F 
ATOM     63  C   UNL A   1      41.996  35.869  35.778  1.00  0.00     0.040 A 
ATOM     64  C   UNL A   1      42.934  37.003  33.873  1.00  0.00     0.040 A 
ATOM     65  F   UNL A   1      43.068  35.909  31.801  1.00  0.00    -0.206 F 
ATOM     66  C   UNL A   1      42.570  37.008  35.218  1.00  0.00     0.006 A 
ENDBRANCH  45  59
BRANCH  46  67
ATOM     67  C   UNL A   1      40.388  26.712  27.937  1.00  0.00     0.057 A 
ATOM     68  C   UNL A   1      39.593  25.644  28.368  1.00  0.00     0.134 A 
ATOM     69  C   UNL A   1      40.973  26.609  26.668  1.00  0.00     0.134 A 
ATOM     70  F   UNL A   1      39.023  25.674  29.581  1.00  0.00    -0.206 F 
ATOM     71  C   UNL A   1      39.405  24.507  27.579  1.00  0.00     0.040 A 
ATOM     72  C   UNL A   1      40.774  25.490  25.859  1.00  0.00     0.040 A 
ATOM     73  F   UNL A   1      41.745  27.600  26.197  1.00  0.00    -0.206 F 
ATOM     74  C   UNL A   1      39.994  24.431  26.318  1.00  0.00     0.006 A 
ENDBRANCH  46  67
BRANCH  58  75
ATOM     75  C   UNL A   1      45.575  28.517  32.206  1.00  0.00     0.057 A 
ATOM     76  C   UNL A   1      45.619  27.647  33.304  1.00  0.00     0.134 A 
ATOM     77  C   UNL A   1      46.758  28.701  31.480  1.00  0.00     0.134 A 
ATOM     78  F   UNL A   1      44.522  27.437  34.048  1.00  0.00    -0.206 F 
ATOM     79  C   UNL A   1      46.802  27.012  33.685  1.00  0.00     0.040 A 
ATOM     80  C   UNL A   1      47.941  28.050  31.835  1.00  0.00     0.040 A 
ATOM     81  F   UNL A   1      46.783  29.512  30.412  1.00  0.00    -0.206 F 
ATOM     82  C   UNL A   1      47.967  27.210  32.946  1.00  0.00     0.006 A 
ENDBRANCH  58  75
ENDBRANCH  32  33
ENDBRANCH  25  27
ENDBRANCH  24  25
ENDBRANCH  23  24
ENDBRANCH  22  23
ENDBRANCH  21  22
ENDBRANCH   1  21
TORSDOF 18
ENDMDL
MODEL 3
REMARK VINA RESULT:      -8.3      6.296     11.494
REMARK SMILES [NH3+][C@H](Cc1ccc(O)c(F)c1)C(=O)OCCOCCOC(=O)c1ccc(-c2c3nc(c(-c4c(F)cccc4F)c4ccc([nH]4)c(-c4c(F)cccc4F)c4nc(c(-c5c(F)cccc5F)c5ccc2[nH]5)C=C4)C=C3)cc1
REMARK SMILES IDX 16 1 15 2 14 3 12 4 13 5 2 6 1 7 3 11 4 12 5 13 11 14 6 15
REMARK SMILES IDX 9 16 7 17 10 18 8 19 17 21 18 22 19 23 20 24 21 25 22 26
REMARK SMILES IDX 23 27 24 28 76 29 25 30 75 31 26 32 27 33 28 34 69 35 29 36
REMARK SMILES IDX 74 37 68 38 70 39 30 40 73 41 67 42 66 43 31 45 57 46 40 47
REMARK SMILES IDX 56 48 41 49 44 50 55 51 71 52 42 53 43 54 54 56 72 57 45 58
REMARK SMILES IDX 32 59 33 60 38 61 34 62 35 63 37 64 39 65 36 66 58 67 59 68
REMARK SMILES IDX 64 69 60 70 61 71 63 72 65 73 62 74 46 75 47 76 52 77 48 78
REMARK SMILES IDX 49 79 51 80 53 81 50 82
REMARK H PARENT 1 8 1 9 1 10 8 20 70 44 44 55
REMARK Flexibility Score: inf
ROOT
ATOM      1  C   UNL A   1      31.525  27.631  26.311  1.00  0.00     0.202 C 
ENDROOT
BRANCH   1   2
ATOM      2  C   UNL A   1      30.930  26.354  25.714  1.00  0.00     0.261 C 
BRANCH   2   3
ATOM      3  O   UNL A   1      30.891  26.400  24.279  1.00  0.00    -0.459 OA
BRANCH   3   4
ATOM      4  C   UNL A   1      29.744  26.918  23.752  1.00  0.00     0.365 C 
ATOM      5  O   UNL A   1      28.621  26.472  23.953  1.00  0.00    -0.245 OA
BRANCH   4   6
ATOM      6  C   UNL A   1      30.024  28.104  22.821  1.00  0.00     0.296 C 
BRANCH   6   7
ATOM      7  N   UNL A   1      31.227  27.777  22.016  1.00  0.00    -0.346 N 
ATOM      8  H   UNL A   1      30.948  27.561  21.059  1.00  0.00     0.345 HD
ATOM      9  H   UNL A   1      31.699  26.970  22.423  1.00  0.00     0.345 HD
ATOM     10  H   UNL A   1      31.860  28.577  22.013  1.00  0.00     0.345 HD
ENDBRANCH   6   7
BRANCH   6  11
ATOM     11  C   UNL A   1      30.094  29.482  23.539  1.00  0.00     0.113 C 
BRANCH  11  12
ATOM     12  C   UNL A   1      29.113  30.455  22.917  1.00  0.00    -0.038 A 
ATOM     13  C   UNL A   1      28.940  31.722  23.500  1.00  0.00     0.008 A 
ATOM     14  C   UNL A   1      28.565  30.197  21.654  1.00  0.00     0.047 A 
ATOM     15  C   UNL A   1      28.363  32.761  22.770  1.00  0.00     0.049 A 
ATOM     16  C   UNL A   1      27.968  31.232  20.941  1.00  0.00     0.165 A 
ATOM     17  C   UNL A   1      27.918  32.518  21.474  1.00  0.00     0.151 A 
ATOM     18  F   UNL A   1      27.526  30.992  19.699  1.00  0.00    -0.203 F 
BRANCH  17  19
ATOM     19  O   UNL A   1      27.471  33.547  20.695  1.00  0.00    -0.505 OA
ATOM     20  H   UNL A   1      27.608  34.433  20.966  1.00  0.00     0.293 HD
ENDBRANCH  17  19
ENDBRANCH  11  12
ENDBRANCH   6  11
ENDBRANCH   4   6
ENDBRANCH   3   4
ENDBRANCH   2   3
ENDBRANCH   1   2
BRANCH   1  21
ATOM     21  O   UNL A   1      32.849  27.959  25.889  1.00  0.00    -0.374 OA
BRANCH  21  22
ATOM     22  C   UNL A   1      33.063  29.294  25.432  1.00  0.00     0.202 C 
BRANCH  22  23
ATOM     23  C   UNL A   1      32.275  30.377  26.173  1.00  0.00     0.261 C 
BRANCH  23  24
ATOM     24  O   UNL A   1      32.807  30.589  27.494  1.00  0.00    -0.460 OA
BRANCH  24  25
ATOM     25  C   UNL A   1      33.575  31.695  27.617  1.00  0.00     0.338 C 
ATOM     26  O   UNL A   1      33.203  32.861  27.590  1.00  0.00    -0.246 OA
BRANCH  25  27
ATOM     27  C   UNL A   1      34.957  31.326  27.975  1.00  0.00     0.060 A 
ATOM     28  C   UNL A   1      35.183  29.990  28.324  1.00  0.00     0.016 A 
ATOM     29  C   UNL A   1      35.992  32.263  28.046  1.00  0.00     0.016 A 
ATOM     30  C   UNL A   1      36.421  29.602  28.824  1.00  0.00     0.010 A 
ATOM     31  C   UNL A   1      37.238  31.871  28.552  1.00  0.00     0.010 A 
ATOM     32  C   UNL A   1      37.441  30.549  28.988  1.00  0.00    -0.014 A 
BRANCH  32  33
ATOM     33  C   UNL A   1      38.640  30.161  29.769  1.00  0.00     0.031 A 
ATOM     34  C   UNL A   1      38.796  30.676  31.175  1.00  0.00     0.074 A 
ATOM     35  C   UNL A   1      39.524  29.278  29.272  1.00  0.00     0.049 A 
ATOM     36  N   UNL A   1      39.706  30.385  32.069  1.00  0.00    -0.248 NA
ATOM     37  C   UNL A   1      37.789  31.645  31.635  1.00  0.00     0.031 C 
ATOM     38  C   UNL A   1      39.469  28.688  27.936  1.00  0.00     0.029 A 
ATOM     39  N   UNL A   1      40.634  28.711  29.846  1.00  0.00    -0.354 N 
ATOM     40  C   UNL A   1      39.371  31.119  33.201  1.00  0.00     0.074 A 
ATOM     41  C   UNL A   1      38.204  31.907  32.865  1.00  0.00     0.031 C 
ATOM     42  C   UNL A   1      40.501  27.838  27.793  1.00  0.00     0.029 A 
ATOM     43  C   UNL A   1      41.293  27.835  29.022  1.00  0.00     0.049 A 
ATOM     44  H   UNL A   1      40.931  28.915  30.763  1.00  0.00     0.167 HD
ATOM     45  C   UNL A   1      39.967  31.121  34.417  1.00  0.00     0.037 A 
ATOM     46  C   UNL A   1      42.410  27.111  29.234  1.00  0.00     0.037 A 
ATOM     47  C   UNL A   1      41.132  30.346  34.752  1.00  0.00     0.049 A 
ATOM     48  C   UNL A   1      43.082  27.168  30.580  1.00  0.00     0.074 A 
ATOM     49  C   UNL A   1      41.815  30.288  35.955  1.00  0.00     0.029 A 
ATOM     50  N   UNL A   1      41.789  29.495  33.878  1.00  0.00    -0.354 N 
ATOM     51  N   UNL A   1      42.740  27.847  31.648  1.00  0.00    -0.248 NA
ATOM     52  C   UNL A   1      44.287  26.345  30.752  1.00  0.00     0.031 C 
ATOM     53  C   UNL A   1      42.907  29.428  35.797  1.00  0.00     0.029 A 
ATOM     54  C   UNL A   1      42.879  28.917  34.509  1.00  0.00     0.049 A 
ATOM     55  H   UNL A   1      41.521  29.325  32.946  1.00  0.00     0.167 HD
ATOM     56  C   UNL A   1      43.674  27.519  32.623  1.00  0.00     0.074 A 
ATOM     57  C   UNL A   1      44.583  26.561  32.026  1.00  0.00     0.031 C 
ATOM     58  C   UNL A   1      43.775  27.971  33.897  1.00  0.00     0.037 A 
BRANCH  45  59
ATOM     59  C   UNL A   1      39.366  32.000  35.475  1.00  0.00     0.057 A 
ATOM     60  C   UNL A   1      38.417  31.512  36.384  1.00  0.00     0.134 A 
ATOM     61  C   UNL A   1      39.762  33.335  35.609  1.00  0.00     0.134 A 
ATOM     62  F   UNL A   1      37.983  30.245  36.298  1.00  0.00    -0.206 F 
ATOM     63  C   UNL A   1      37.869  32.327  37.374  1.00  0.00     0.040 A 
ATOM     64  C   UNL A   1      39.239  34.154  36.611  1.00  0.00     0.040 A 
ATOM     65  F   UNL A   1      40.669  33.865  34.774  1.00  0.00    -0.206 F 
ATOM     66  C   UNL A   1      38.285  33.652  37.494  1.00  0.00     0.006 A 
ENDBRANCH  45  59
BRANCH  46  67
ATOM     67  C   UNL A   1      42.967  26.270  28.146  1.00  0.00     0.057 A 
ATOM     68  C   UNL A   1      43.942  26.760  27.269  1.00  0.00     0.134 A 
ATOM     69  C   UNL A   1      42.516  24.960  27.942  1.00  0.00     0.134 A 
ATOM     70  F   UNL A   1      44.398  28.014  27.400  1.00  0.00    -0.206 F 
ATOM     71  C   UNL A   1      44.432  25.986  26.215  1.00  0.00     0.040 A 
ATOM     72  C   UNL A   1      43.014  24.167  26.909  1.00  0.00     0.040 A 
ATOM     73  F   UNL A   1      41.584  24.432  28.750  1.00  0.00    -0.206 F 
ATOM     74  C   UNL A   1      43.970  24.684  26.036  1.00  0.00     0.006 A 
ENDBRANCH  46  67
BRANCH  58  75
ATOM     75  C   UNL A   1      44.895  27.418  34.731  1.00  0.00     0.057 A 
ATOM     76  C   UNL A   1      46.143  28.051  34.802  1.00  0.00     0.134 A 
ATOM     77  C   UNL A   1      44.719  26.249  35.482  1.00  0.00     0.134 A 
ATOM     78  F   UNL A   1      46.380  29.168  34.097  1.00  0.00    -0.206 F 
ATOM     79  C   UNL A   1      47.186  27.523  35.564  1.00  0.00     0.040 A 
ATOM     80  C   UNL A   1      45.747  25.726  36.268  1.00  0.00     0.040 A 
ATOM     81  F   UNL A   1      43.546  25.599  35.467  1.00  0.00    -0.206 F 
ATOM     82  C   UNL A   1      46.988  26.358  36.304  1.00  0.00     0.006 A 
ENDBRANCH  58  75
ENDBRANCH  32  33
ENDBRANCH  25  27
ENDBRANCH  24  25
ENDBRANCH  23  24
ENDBRANCH  22  23
ENDBRANCH  21  22
ENDBRANCH   1  21
TORSDOF 18
ENDMDL
