MODEL 1
REMARK VINA RESULT:     -10.4      0.000      0.000
REMARK SMILES O=C(OCCOCCOC(=O)c1sccc1S(=O)(=O)Nc1ccc(-c2nc3ccccc3n2C(F)F)cc1)c1ccc(-c2c3nc(c(-c4c(F)cccc4F)c4ccc([nH]4)c(-c4c(F)cccc4F)c4nc(c(-c5c(F)cccc5F)c5ccc2[nH]5)C=C4)C=C3)cc1
REMARK SMILES IDX 7 1 6 2 5 3 4 4 3 5 2 6 1 7 39 8 40 9 92 10 41 11 91 12
REMARK SMILES IDX 42 13 43 14 44 15 85 16 45 17 90 18 84 19 86 20 46 21 89 22
REMARK SMILES IDX 83 23 82 24 47 26 73 27 56 28 72 29 57 30 60 31 71 32 87 33
REMARK SMILES IDX 58 34 59 35 70 37 88 38 61 39 48 40 49 41 54 42 50 43 51 44
REMARK SMILES IDX 53 45 55 46 52 47 74 48 75 49 80 50 76 51 77 52 79 53 81 54
REMARK SMILES IDX 78 55 62 56 63 57 68 58 64 59 65 60 67 61 69 62 66 63 8 64
REMARK SMILES IDX 9 65 10 66 11 67 12 68 13 69 16 70 14 71 15 72 17 73 18 74
REMARK SMILES IDX 19 75 20 76 21 78 22 79 38 80 23 81 37 82 24 83 25 84 26 85
REMARK SMILES IDX 33 86 27 87 32 88 28 89 31 90 29 91 30 92 34 93 35 94 36 95
REMARK H PARENT 86 25 60 36 20 77
REMARK Flexibility Score: inf
ROOT
ATOM      1  C   UNL A   1      46.355  24.751  25.740  1.00  0.00     0.202 C 
ENDROOT
BRANCH   1   2
ATOM      2  O   UNL A   1      45.800  25.852  26.465  1.00  0.00    -0.374 OA
BRANCH   2   3
ATOM      3  C   UNL A   1      45.642  27.249  26.236  1.00  0.00     0.202 C 
BRANCH   3   4
ATOM      4  C   UNL A   1      44.231  27.777  26.143  1.00  0.00     0.261 C 
BRANCH   4   5
ATOM      5  O   UNL A   1      43.254  26.858  26.643  1.00  0.00    -0.460 OA
BRANCH   5   6
ATOM      6  C   UNL A   1      42.191  26.505  25.869  1.00  0.00     0.338 C 
ATOM      7  O   UNL A   1      42.336  25.915  24.805  1.00  0.00    -0.246 OA
BRANCH   6   8
ATOM      8  C   UNL A   1      40.817  26.759  26.503  1.00  0.00     0.060 A 
ATOM      9  C   UNL A   1      40.107  25.801  27.919  1.00  0.00     0.016 A 
ATOM     10  C   UNL A   1      40.606  28.557  26.456  1.00  0.00     0.016 A 
ATOM     11  C   UNL A   1      39.211  26.726  29.253  1.00  0.00     0.010 A 
ATOM     12  C   UNL A   1      39.860  29.444  27.772  1.00  0.00     0.010 A 
ATOM     13  C   UNL A   1      39.286  28.563  29.244  1.00  0.00    -0.014 A 
BRANCH  13  14
ATOM     14  C   UNL A   1      39.801  29.326  30.527  1.00  0.00     0.031 A 
ATOM     15  C   UNL A   1      38.623  30.015  30.983  1.00  0.00     0.074 A 
ATOM     16  C   UNL A   1      40.959  29.449  31.283  1.00  0.00     0.049 A 
ATOM     17  N   UNL A   1      38.161  31.006  30.308  1.00  0.00    -0.248 NA
ATOM     18  C   UNL A   1      37.691  29.395  31.922  1.00  0.00     0.031 C 
ATOM     19  C   UNL A   1      42.224  28.673  31.279  1.00  0.00     0.029 A 
ATOM     20  N   UNL A   1      41.252  30.363  32.306  1.00  0.00    -0.354 N 
ATOM     21  C   UNL A   1      37.067  31.383  31.023  1.00  0.00     0.074 A 
ATOM     22  C   UNL A   1      36.634  30.192  31.715  1.00  0.00     0.031 C 
ATOM     23  C   UNL A   1      43.023  29.012  32.334  1.00  0.00     0.029 A 
ATOM     24  C   UNL A   1      42.459  30.156  33.032  1.00  0.00     0.049 A 
ATOM     25  H   UNL A   1      40.650  31.114  32.515  1.00  0.00     0.167 HD
ATOM     26  C   UNL A   1      36.971  32.697  31.344  1.00  0.00     0.037 A 
ATOM     27  C   UNL A   1      42.996  30.904  34.058  1.00  0.00     0.037 A 
ATOM     28  C   UNL A   1      37.972  33.489  30.628  1.00  0.00     0.049 A 
ATOM     29  C   UNL A   1      42.482  32.271  33.863  1.00  0.00     0.074 A 
ATOM     30  C   UNL A   1      38.359  33.648  29.308  1.00  0.00     0.029 A 
ATOM     31  N   UNL A   1      39.033  33.918  31.386  1.00  0.00    -0.354 N 
ATOM     32  N   UNL A   1      42.885  33.069  32.923  1.00  0.00    -0.248 NA
ATOM     33  C   UNL A   1      41.281  32.673  34.569  1.00  0.00     0.031 C 
ATOM     34  C   UNL A   1      39.763  33.904  29.322  1.00  0.00     0.029 A 
ATOM     35  C   UNL A   1      40.184  33.987  30.645  1.00  0.00     0.049 A 
ATOM     36  H   UNL A   1      38.974  34.148  32.342  1.00  0.00     0.167 HD
ATOM     37  C   UNL A   1      41.734  33.729  32.560  1.00  0.00     0.074 A 
ATOM     38  C   UNL A   1      40.843  33.594  33.709  1.00  0.00     0.031 C 
ATOM     39  C   UNL A   1      41.504  33.985  31.242  1.00  0.00     0.037 A 
BRANCH  26  40
ATOM     40  C   UNL A   1      36.350  33.164  32.624  1.00  0.00     0.057 A 
ATOM     41  C   UNL A   1      35.337  34.127  32.540  1.00  0.00     0.134 A 
ATOM     42  C   UNL A   1      36.840  32.907  33.921  1.00  0.00     0.134 A 
ATOM     43  F   UNL A   1      34.834  34.488  31.351  1.00  0.00    -0.206 F 
ATOM     44  C   UNL A   1      34.869  34.807  33.664  1.00  0.00     0.040 A 
ATOM     45  C   UNL A   1      36.337  33.532  35.057  1.00  0.00     0.040 A 
ATOM     46  F   UNL A   1      37.899  32.125  34.164  1.00  0.00    -0.206 F 
ATOM     47  C   UNL A   1      35.363  34.506  34.929  1.00  0.00     0.006 A 
ENDBRANCH  26  40
BRANCH  27  48
ATOM     48  C   UNL A   1      43.893  30.709  35.260  1.00  0.00     0.057 A 
ATOM     49  C   UNL A   1      45.270  31.066  35.238  1.00  0.00     0.134 A 
ATOM     50  C   UNL A   1      43.353  30.567  36.543  1.00  0.00     0.134 A 
ATOM     51  F   UNL A   1      45.918  31.247  34.078  1.00  0.00    -0.206 F 
ATOM     52  C   UNL A   1      46.019  31.345  36.400  1.00  0.00     0.040 A 
ATOM     53  C   UNL A   1      44.093  30.840  37.715  1.00  0.00     0.040 A 
ATOM     54  F   UNL A   1      42.058  30.261  36.698  1.00  0.00    -0.206 F 
ATOM     55  C   UNL A   1      45.420  31.257  37.647  1.00  0.00     0.006 A 
ENDBRANCH  27  48
BRANCH  39  56
ATOM     56  C   UNL A   1      42.712  34.131  30.346  1.00  0.00     0.057 A 
ATOM     57  C   UNL A   1      43.238  33.149  29.488  1.00  0.00     0.134 A 
ATOM     58  C   UNL A   1      43.367  35.371  30.347  1.00  0.00     0.134 A 
ATOM     59  F   UNL A   1      42.648  31.954  29.340  1.00  0.00    -0.206 F 
ATOM     60  C   UNL A   1      44.386  33.382  28.716  1.00  0.00     0.040 A 
ATOM     61  C   UNL A   1      44.484  35.629  29.550  1.00  0.00     0.040 A 
ATOM     62  F   UNL A   1      42.915  36.370  31.124  1.00  0.00    -0.206 F 
ATOM     63  C   UNL A   1      45.008  34.627  28.741  1.00  0.00     0.006 A 
ENDBRANCH  39  56
ENDBRANCH  13  14
ENDBRANCH   6   8
ENDBRANCH   5   6
ENDBRANCH   4   5
ENDBRANCH   3   4
ENDBRANCH   2   3
ENDBRANCH   1   2
BRANCH   1  64
ATOM     64  C   UNL A   1      45.504  23.676  25.041  1.00  0.00     0.261 C 
BRANCH  64  65
ATOM     65  O   UNL A   1      45.114  22.558  25.854  1.00  0.00    -0.459 OA
BRANCH  65  66
ATOM     66  C   UNL A   1      44.202  21.891  25.125  1.00  0.00     0.349 C 
ATOM     67  O   UNL A   1      43.798  22.289  24.058  1.00  0.00    -0.245 OA
BRANCH  66  68
ATOM     68  C   UNL A   1      43.614  20.710  25.581  1.00  0.00     0.133 A 
ATOM     69  S   UNL A   1      43.982  19.146  25.088  1.00  0.00    -0.136 S 
ATOM     70  C   UNL A   1      42.468  20.844  26.346  1.00  0.00     0.113 A 
ATOM     71  C   UNL A   1      42.678  18.535  26.026  1.00  0.00     0.067 A 
ATOM     72  C   UNL A   1      42.021  19.538  26.728  1.00  0.00     0.035 A 
BRANCH  70  73
ATOM     73  S   UNL A   1      41.949  22.434  27.038  1.00  0.00     0.263 S 
ATOM     74  O   UNL A   1      41.166  22.987  25.952  1.00  0.00    -0.201 OA
ATOM     75  O   UNL A   1      41.239  21.975  28.227  1.00  0.00    -0.201 OA
BRANCH  73  76
ATOM     76  N   UNL A   1      42.987  23.765  27.650  1.00  0.00    -0.280 N 
ATOM     77  H   UNL A   1      43.197  24.460  26.986  1.00  0.00     0.180 HD
BRANCH  76  78
ATOM     78  C   UNL A   1      43.584  23.989  29.001  1.00  0.00     0.049 A 
ATOM     79  C   UNL A   1      43.963  25.281  29.480  1.00  0.00     0.027 A 
ATOM     80  C   UNL A   1      43.903  22.975  29.868  1.00  0.00     0.027 A 
ATOM     81  C   UNL A   1      44.264  25.589  30.901  1.00  0.00     0.014 A 
ATOM     82  C   UNL A   1      44.224  23.282  31.242  1.00  0.00     0.014 A 
ATOM     83  C   UNL A   1      44.212  24.597  31.886  1.00  0.00     0.018 A 
BRANCH  83  84
ATOM     84  C   UNL A   1      44.155  24.579  33.550  1.00  0.00     0.145 A 
ATOM     85  N   UNL A   1      44.062  25.850  33.889  1.00  0.00    -0.228 NA
ATOM     86  N   UNL A   1      44.452  23.760  35.057  1.00  0.00    -0.266 N 
ATOM     87  C   UNL A   1      43.280  25.918  34.936  1.00  0.00     0.089 A 
ATOM     88  C   UNL A   1      43.559  24.896  35.843  1.00  0.00     0.074 A 
ATOM     89  C   UNL A   1      42.387  26.984  35.165  1.00  0.00     0.030 A 
ATOM     90  C   UNL A   1      43.022  25.146  37.152  1.00  0.00     0.029 A 
ATOM     91  C   UNL A   1      41.797  27.131  36.401  1.00  0.00     0.002 A 
ATOM     92  C   UNL A   1      42.163  26.247  37.398  1.00  0.00     0.002 A 
BRANCH  86  93
ATOM     93  C   UNL A   1      45.260  21.916  35.569  1.00  0.00     0.451 C 
ATOM     94  F   UNL A   1      46.385  21.293  34.880  1.00  0.00    -0.185 F 
ATOM     95  F   UNL A   1      45.600  21.454  36.867  1.00  0.00    -0.185 F 
ENDBRANCH  86  93
ENDBRANCH  83  84
ENDBRANCH  76  78
ENDBRANCH  73  76
ENDBRANCH  70  73
ENDBRANCH  66  68
ENDBRANCH  65  66
ENDBRANCH  64  65
ENDBRANCH   1  64
TORSDOF 19
ENDMDL
MODEL 2
REMARK VINA RESULT:     -10.3      4.225      6.654
REMARK SMILES O=C(OCCOCCOC(=O)c1sccc1S(=O)(=O)Nc1ccc(-c2nc3ccccc3n2C(F)F)cc1)c1ccc(-c2c3nc(c(-c4c(F)cccc4F)c4ccc([nH]4)c(-c4c(F)cccc4F)c4nc(c(-c5c(F)cccc5F)c5ccc2[nH]5)C=C4)C=C3)cc1
REMARK SMILES IDX 7 1 6 2 5 3 4 4 3 5 2 6 1 7 39 8 40 9 92 10 41 11 91 12
REMARK SMILES IDX 42 13 43 14 44 15 85 16 45 17 90 18 84 19 86 20 46 21 89 22
REMARK SMILES IDX 83 23 82 24 47 26 73 27 56 28 72 29 57 30 60 31 71 32 87 33
REMARK SMILES IDX 58 34 59 35 70 37 88 38 61 39 48 40 49 41 54 42 50 43 51 44
REMARK SMILES IDX 53 45 55 46 52 47 74 48 75 49 80 50 76 51 77 52 79 53 81 54
REMARK SMILES IDX 78 55 62 56 63 57 68 58 64 59 65 60 67 61 69 62 66 63 8 64
REMARK SMILES IDX 9 65 10 66 11 67 12 68 13 69 16 70 14 71 15 72 17 73 18 74
REMARK SMILES IDX 19 75 20 76 21 78 22 79 38 80 23 81 37 82 24 83 25 84 26 85
REMARK SMILES IDX 33 86 27 87 32 88 28 89 31 90 29 91 30 92 34 93 35 94 36 95
REMARK H PARENT 86 25 60 36 20 77
REMARK Flexibility Score: inf
ROOT
ATOM      1  C   UNL A   1      46.256  24.492  26.581  1.00  0.00     0.202 C 
ENDROOT
BRANCH   1   2
ATOM      2  O   UNL A   1      45.770  25.671  27.231  1.00  0.00    -0.374 OA
BRANCH   2   3
ATOM      3  C   UNL A   1      45.669  27.052  26.898  1.00  0.00     0.202 C 
BRANCH   3   4
ATOM      4  C   UNL A   1      44.385  27.512  26.252  1.00  0.00     0.261 C 
BRANCH   4   5
ATOM      5  O   UNL A   1      43.227  26.851  26.773  1.00  0.00    -0.460 OA
BRANCH   5   6
ATOM      6  C   UNL A   1      42.159  26.606  25.963  1.00  0.00     0.338 C 
ATOM      7  O   UNL A   1      42.295  26.120  24.847  1.00  0.00    -0.246 OA
BRANCH   6   8
ATOM      8  C   UNL A   1      40.788  26.835  26.613  1.00  0.00     0.060 A 
ATOM      9  C   UNL A   1      40.138  25.906  28.076  1.00  0.00     0.016 A 
ATOM     10  C   UNL A   1      40.512  28.621  26.504  1.00  0.00     0.016 A 
ATOM     11  C   UNL A   1      39.233  26.847  29.392  1.00  0.00     0.010 A 
ATOM     12  C   UNL A   1      39.758  29.530  27.801  1.00  0.00     0.010 A 
ATOM     13  C   UNL A   1      39.242  28.684  29.315  1.00  0.00    -0.014 A 
BRANCH  13  14
ATOM     14  C   UNL A   1      39.751  29.512  30.560  1.00  0.00     0.031 A 
ATOM     15  C   UNL A   1      38.558  30.177  31.011  1.00  0.00     0.074 A 
ATOM     16  C   UNL A   1      40.917  29.702  31.290  1.00  0.00     0.049 A 
ATOM     17  N   UNL A   1      38.052  31.126  30.307  1.00  0.00    -0.248 NA
ATOM     18  C   UNL A   1      37.664  29.562  31.988  1.00  0.00     0.031 C 
ATOM     19  C   UNL A   1      42.207  28.969  31.292  1.00  0.00     0.029 A 
ATOM     20  N   UNL A   1      41.195  30.663  32.273  1.00  0.00    -0.354 N 
ATOM     21  C   UNL A   1      36.956  31.493  31.027  1.00  0.00     0.074 A 
ATOM     22  C   UNL A   1      36.577  30.315  31.770  1.00  0.00     0.031 C 
ATOM     23  C   UNL A   1      43.011  29.375  32.319  1.00  0.00     0.029 A 
ATOM     24  C   UNL A   1      42.420  30.524  32.984  1.00  0.00     0.049 A 
ATOM     25  H   UNL A   1      40.571  31.401  32.464  1.00  0.00     0.167 HD
ATOM     26  C   UNL A   1      36.821  32.813  31.300  1.00  0.00     0.037 A 
ATOM     27  C   UNL A   1      42.948  31.328  33.973  1.00  0.00     0.037 A 
ATOM     28  C   UNL A   1      37.782  33.612  30.539  1.00  0.00     0.049 A 
ATOM     29  C   UNL A   1      42.385  32.668  33.736  1.00  0.00     0.074 A 
ATOM     30  C   UNL A   1      38.142  33.734  29.207  1.00  0.00     0.029 A 
ATOM     31  N   UNL A   1      38.840  34.104  31.261  1.00  0.00    -0.354 N 
ATOM     32  N   UNL A   1      42.744  33.444  32.759  1.00  0.00    -0.248 NA
ATOM     33  C   UNL A   1      41.182  33.057  34.448  1.00  0.00     0.031 C 
ATOM     34  C   UNL A   1      39.537  34.037  29.187  1.00  0.00     0.029 A 
ATOM     35  C   UNL A   1      39.976  34.184  30.498  1.00  0.00     0.049 A 
ATOM     36  H   UNL A   1      38.789  34.368  32.209  1.00  0.00     0.167 HD
ATOM     37  C   UNL A   1      41.565  34.051  32.393  1.00  0.00     0.074 A 
ATOM     38  C   UNL A   1      40.699  33.930  33.562  1.00  0.00     0.031 C 
ATOM     39  C   UNL A   1      41.305  34.249  31.071  1.00  0.00     0.037 A 
BRANCH  26  40
ATOM     40  C   UNL A   1      36.205  33.307  32.573  1.00  0.00     0.057 A 
ATOM     41  C   UNL A   1      35.176  34.250  32.472  1.00  0.00     0.134 A 
ATOM     42  C   UNL A   1      36.714  33.096  33.872  1.00  0.00     0.134 A 
ATOM     43  F   UNL A   1      34.654  34.568  31.279  1.00  0.00    -0.206 F 
ATOM     44  C   UNL A   1      34.708  34.956  33.582  1.00  0.00     0.040 A 
ATOM     45  C   UNL A   1      36.211  33.746  34.995  1.00  0.00     0.040 A 
ATOM     46  F   UNL A   1      37.788  32.340  34.126  1.00  0.00    -0.206 F 
ATOM     47  C   UNL A   1      35.220  34.699  34.849  1.00  0.00     0.006 A 
ENDBRANCH  26  40
BRANCH  27  48
ATOM     48  C   UNL A   1      43.871  31.209  35.165  1.00  0.00     0.057 A 
ATOM     49  C   UNL A   1      43.407  30.768  36.435  1.00  0.00     0.134 A 
ATOM     50  C   UNL A   1      45.257  31.122  34.994  1.00  0.00     0.134 A 
ATOM     51  F   UNL A   1      42.100  30.783  36.737  1.00  0.00    -0.206 F 
ATOM     52  C   UNL A   1      44.248  30.204  37.416  1.00  0.00     0.040 A 
ATOM     53  C   UNL A   1      46.111  30.564  35.970  1.00  0.00     0.040 A 
ATOM     54  F   UNL A   1      45.815  31.482  33.830  1.00  0.00    -0.206 F 
ATOM     55  C   UNL A   1      45.607  30.076  37.173  1.00  0.00     0.006 A 
ENDBRANCH  27  48
BRANCH  39  56
ATOM     56  C   UNL A   1      42.492  34.402  30.148  1.00  0.00     0.057 A 
ATOM     57  C   UNL A   1      43.255  35.567  29.955  1.00  0.00     0.134 A 
ATOM     58  C   UNL A   1      42.894  33.269  29.426  1.00  0.00     0.134 A 
ATOM     59  F   UNL A   1      43.017  36.688  30.653  1.00  0.00    -0.206 F 
ATOM     60  C   UNL A   1      44.325  35.607  29.050  1.00  0.00     0.040 A 
ATOM     61  C   UNL A   1      43.984  33.285  28.554  1.00  0.00     0.040 A 
ATOM     62  F   UNL A   1      42.231  32.110  29.568  1.00  0.00    -0.206 F 
ATOM     63  C   UNL A   1      44.697  34.461  28.351  1.00  0.00     0.006 A 
ENDBRANCH  39  56
ENDBRANCH  13  14
ENDBRANCH   6   8
ENDBRANCH   5   6
ENDBRANCH   4   5
ENDBRANCH   3   4
ENDBRANCH   2   3
ENDBRANCH   1   2
BRANCH   1  64
ATOM     64  C   UNL A   1      45.373  23.566  25.727  1.00  0.00     0.261 C 
BRANCH  64  65
ATOM     65  O   UNL A   1      44.604  22.591  26.449  1.00  0.00    -0.459 OA
BRANCH  65  66
ATOM     66  C   UNL A   1      43.963  21.876  25.507  1.00  0.00     0.349 C 
ATOM     67  O   UNL A   1      43.738  22.305  24.400  1.00  0.00    -0.245 OA
BRANCH  66  68
ATOM     68  C   UNL A   1      43.462  20.599  25.764  1.00  0.00     0.133 A 
ATOM     69  S   UNL A   1      44.154  19.136  25.312  1.00  0.00    -0.136 S 
ATOM     70  C   UNL A   1      42.164  20.527  26.241  1.00  0.00     0.113 A 
ATOM     71  C   UNL A   1      42.772  18.295  25.890  1.00  0.00     0.067 A 
ATOM     72  C   UNL A   1      41.834  19.150  26.454  1.00  0.00     0.035 A 
BRANCH  70  73
ATOM     73  S   UNL A   1      41.278  21.982  26.852  1.00  0.00     0.263 S 
ATOM     74  O   UNL A   1      41.864  22.154  28.166  1.00  0.00    -0.201 OA
ATOM     75  O   UNL A   1      41.628  22.948  25.817  1.00  0.00    -0.201 OA
BRANCH  73  76
ATOM     76  N   UNL A   1      39.506  22.195  27.051  1.00  0.00    -0.280 N 
ATOM     77  H   UNL A   1      39.178  22.073  27.970  1.00  0.00     0.180 HD
BRANCH  76  78
ATOM     78  C   UNL A   1      38.450  22.527  26.049  1.00  0.00     0.049 A 
ATOM     79  C   UNL A   1      38.004  21.604  25.053  1.00  0.00     0.027 A 
ATOM     80  C   UNL A   1      37.873  23.766  25.935  1.00  0.00     0.027 A 
ATOM     81  C   UNL A   1      36.765  21.775  24.251  1.00  0.00     0.014 A 
ATOM     82  C   UNL A   1      36.686  23.933  25.130  1.00  0.00     0.014 A 
ATOM     83  C   UNL A   1      35.942  22.894  24.414  1.00  0.00     0.018 A 
BRANCH  83  84
ATOM     84  C   UNL A   1      34.385  23.295  23.984  1.00  0.00     0.145 A 
ATOM     85  N   UNL A   1      34.127  24.391  24.670  1.00  0.00    -0.228 NA
ATOM     86  N   UNL A   1      32.842  22.837  23.321  1.00  0.00    -0.266 N 
ATOM     87  C   UNL A   1      33.389  25.161  23.911  1.00  0.00     0.089 A 
ATOM     88  C   UNL A   1      32.414  24.423  23.240  1.00  0.00     0.074 A 
ATOM     89  C   UNL A   1      33.486  26.567  23.911  1.00  0.00     0.030 A 
ATOM     90  C   UNL A   1      31.353  25.240  22.718  1.00  0.00     0.029 A 
ATOM     91  C   UNL A   1      32.509  27.321  23.300  1.00  0.00     0.002 A 
ATOM     92  C   UNL A   1      31.425  26.656  22.760  1.00  0.00     0.002 A 
BRANCH  86  93
ATOM     93  C   UNL A   1      32.049  21.064  22.585  1.00  0.00     0.451 C 
ATOM     94  F   UNL A   1      31.902  20.759  21.166  1.00  0.00    -0.185 F 
ATOM     95  F   UNL A   1      32.362  19.743  22.995  1.00  0.00    -0.185 F 
ENDBRANCH  86  93
ENDBRANCH  83  84
ENDBRANCH  76  78
ENDBRANCH  73  76
ENDBRANCH  70  73
ENDBRANCH  66  68
ENDBRANCH  65  66
ENDBRANCH  64  65
ENDBRANCH   1  64
TORSDOF 19
ENDMDL
MODEL 3
REMARK VINA RESULT:     -10.0      5.248     12.923
REMARK SMILES O=C(OCCOCCOC(=O)c1sccc1S(=O)(=O)Nc1ccc(-c2nc3ccccc3n2C(F)F)cc1)c1ccc(-c2c3nc(c(-c4c(F)cccc4F)c4ccc([nH]4)c(-c4c(F)cccc4F)c4nc(c(-c5c(F)cccc5F)c5ccc2[nH]5)C=C4)C=C3)cc1
REMARK SMILES IDX 7 1 6 2 5 3 4 4 3 5 2 6 1 7 39 8 40 9 92 10 41 11 91 12
REMARK SMILES IDX 42 13 43 14 44 15 85 16 45 17 90 18 84 19 86 20 46 21 89 22
REMARK SMILES IDX 83 23 82 24 47 26 73 27 56 28 72 29 57 30 60 31 71 32 87 33
REMARK SMILES IDX 58 34 59 35 70 37 88 38 61 39 48 40 49 41 54 42 50 43 51 44
REMARK SMILES IDX 53 45 55 46 52 47 74 48 75 49 80 50 76 51 77 52 79 53 81 54
REMARK SMILES IDX 78 55 62 56 63 57 68 58 64 59 65 60 67 61 69 62 66 63 8 64
REMARK SMILES IDX 9 65 10 66 11 67 12 68 13 69 16 70 14 71 15 72 17 73 18 74
REMARK SMILES IDX 19 75 20 76 21 78 22 79 38 80 23 81 37 82 24 83 25 84 26 85
REMARK SMILES IDX 33 86 27 87 32 88 28 89 31 90 29 91 30 92 34 93 35 94 36 95
REMARK H PARENT 86 25 60 36 20 77
REMARK Flexibility Score: inf
ROOT
ATOM      1  C   UNL A   1      43.289  29.701  36.515  1.00  0.00     0.202 C 
ENDROOT
BRANCH   1   2
ATOM      2  O   UNL A   1      42.624  28.521  36.979  1.00  0.00    -0.374 OA
BRANCH   2   3
ATOM      3  C   UNL A   1      41.642  27.631  36.458  1.00  0.00     0.202 C 
BRANCH   3   4
ATOM      4  C   UNL A   1      41.575  26.250  37.063  1.00  0.00     0.261 C 
BRANCH   4   5
ATOM      5  O   UNL A   1      42.845  25.591  37.099  1.00  0.00    -0.460 OA
BRANCH   5   6
ATOM      6  C   UNL A   1      43.308  24.940  35.996  1.00  0.00     0.338 C 
ATOM      7  O   UNL A   1      42.676  24.031  35.473  1.00  0.00    -0.246 OA
BRANCH   6   8
ATOM      8  C   UNL A   1      44.582  25.534  35.381  1.00  0.00     0.060 A 
ATOM      9  C   UNL A   1      46.115  24.577  34.983  1.00  0.00     0.016 A 
ATOM     10  C   UNL A   1      43.996  26.792  34.218  1.00  0.00     0.016 A 
ATOM     11  C   UNL A   1      46.993  24.934  33.389  1.00  0.00     0.010 A 
ATOM     12  C   UNL A   1      44.759  27.051  32.660  1.00  0.00     0.010 A 
ATOM     13  C   UNL A   1      46.171  26.033  32.166  1.00  0.00    -0.014 A 
BRANCH  13  14
ATOM     14  C   UNL A   1      45.936  25.517  30.693  1.00  0.00     0.031 A 
ATOM     15  C   UNL A   1      47.004  26.142  29.960  1.00  0.00     0.074 A 
ATOM     16  C   UNL A   1      45.087  24.662  30.001  1.00  0.00     0.049 A 
ATOM     17  N   UNL A   1      46.981  27.411  29.756  1.00  0.00    -0.248 NA
ATOM     18  C   UNL A   1      48.305  25.496  29.808  1.00  0.00     0.031 C 
ATOM     19  C   UNL A   1      44.105  23.655  30.474  1.00  0.00     0.029 A 
ATOM     20  N   UNL A   1      44.937  24.498  28.616  1.00  0.00    -0.354 N 
ATOM     21  C   UNL A   1      48.129  27.632  29.059  1.00  0.00     0.074 A 
ATOM     22  C   UNL A   1      49.024  26.570  29.453  1.00  0.00     0.031 C 
ATOM     23  C   UNL A   1      43.633  22.894  29.444  1.00  0.00     0.029 A 
ATOM     24  C   UNL A   1      44.110  23.425  28.178  1.00  0.00     0.049 A 
ATOM     25  H   UNL A   1      45.383  25.098  27.975  1.00  0.00     0.167 HD
ATOM     26  C   UNL A   1      48.015  28.334  27.905  1.00  0.00     0.037 A 
ATOM     27  C   UNL A   1      43.775  23.054  26.893  1.00  0.00     0.037 A 
ATOM     28  C   UNL A   1      46.683  28.924  27.774  1.00  0.00     0.049 A 
ATOM     29  C   UNL A   1      43.868  24.284  26.089  1.00  0.00     0.074 A 
ATOM     30  C   UNL A   1      45.865  29.722  28.557  1.00  0.00     0.029 A 
ATOM     31  N   UNL A   1      45.854  28.308  26.870  1.00  0.00    -0.354 N 
ATOM     32  N   UNL A   1      43.010  25.257  26.150  1.00  0.00    -0.248 NA
ATOM     33  C   UNL A   1      45.105  24.570  25.387  1.00  0.00     0.031 C 
ATOM     34  C   UNL A   1      44.522  29.332  28.274  1.00  0.00     0.029 A 
ATOM     35  C   UNL A   1      44.543  28.377  27.263  1.00  0.00     0.049 A 
ATOM     36  H   UNL A   1      46.163  27.873  26.042  1.00  0.00     0.167 HD
ATOM     37  C   UNL A   1      43.797  26.376  26.008  1.00  0.00     0.074 A 
ATOM     38  C   UNL A   1      45.016  25.901  25.360  1.00  0.00     0.031 C 
ATOM     39  C   UNL A   1      43.524  27.478  26.761  1.00  0.00     0.037 A 
BRANCH  26  40
ATOM     40  C   UNL A   1      48.890  28.068  26.719  1.00  0.00     0.057 A 
ATOM     41  C   UNL A   1      48.811  26.804  26.124  1.00  0.00     0.134 A 
ATOM     42  C   UNL A   1      49.957  28.882  26.281  1.00  0.00     0.134 A 
ATOM     43  F   UNL A   1      47.868  25.928  26.502  1.00  0.00    -0.206 F 
ATOM     44  C   UNL A   1      49.746  26.369  25.185  1.00  0.00     0.040 A 
ATOM     45  C   UNL A   1      50.857  28.484  25.299  1.00  0.00     0.040 A 
ATOM     46  F   UNL A   1      50.263  30.057  26.844  1.00  0.00    -0.206 F 
ATOM     47  C   UNL A   1      50.769  27.212  24.763  1.00  0.00     0.006 A 
ENDBRANCH  26  40
BRANCH  27  48
ATOM     48  C   UNL A   1      43.384  21.805  26.134  1.00  0.00     0.057 A 
ATOM     49  C   UNL A   1      44.340  21.022  25.429  1.00  0.00     0.134 A 
ATOM     50  C   UNL A   1      42.187  21.139  26.416  1.00  0.00     0.134 A 
ATOM     51  F   UNL A   1      45.539  21.527  25.100  1.00  0.00    -0.206 F 
ATOM     52  C   UNL A   1      44.148  19.662  25.113  1.00  0.00     0.040 A 
ATOM     53  C   UNL A   1      41.980  19.778  26.102  1.00  0.00     0.040 A 
ATOM     54  F   UNL A   1      41.217  21.760  27.101  1.00  0.00    -0.206 F 
ATOM     55  C   UNL A   1      42.971  19.026  25.475  1.00  0.00     0.006 A 
ENDBRANCH  27  48
BRANCH  39  56
ATOM     56  C   UNL A   1      42.092  27.674  27.204  1.00  0.00     0.057 A 
ATOM     57  C   UNL A   1      41.464  27.051  28.296  1.00  0.00     0.134 A 
ATOM     58  C   UNL A   1      41.313  28.582  26.472  1.00  0.00     0.134 A 
ATOM     59  F   UNL A   1      42.132  26.229  29.118  1.00  0.00    -0.206 F 
ATOM     60  C   UNL A   1      40.116  27.286  28.604  1.00  0.00     0.040 A 
ATOM     61  C   UNL A   1      39.983  28.856  26.796  1.00  0.00     0.040 A 
ATOM     62  F   UNL A   1      41.844  29.234  25.425  1.00  0.00    -0.206 F 
ATOM     63  C   UNL A   1      39.373  28.196  27.857  1.00  0.00     0.006 A 
ENDBRANCH  39  56
ENDBRANCH  13  14
ENDBRANCH   6   8
ENDBRANCH   5   6
ENDBRANCH   4   5
ENDBRANCH   3   4
ENDBRANCH   2   3
ENDBRANCH   1   2
BRANCH   1  64
ATOM     64  C   UNL A   1      42.718  31.120  36.680  1.00  0.00     0.261 C 
BRANCH  64  65
ATOM     65  O   UNL A   1      41.744  31.287  37.722  1.00  0.00    -0.459 OA
BRANCH  65  66
ATOM     66  C   UNL A   1      41.738  32.604  37.993  1.00  0.00     0.349 C 
ATOM     67  O   UNL A   1      42.041  33.442  37.177  1.00  0.00    -0.245 OA
BRANCH  66  68
ATOM     68  C   UNL A   1      41.430  33.095  39.264  1.00  0.00     0.133 A 
ATOM     69  S   UNL A   1      42.503  33.350  40.532  1.00  0.00    -0.136 S 
ATOM     70  C   UNL A   1      40.087  33.170  39.590  1.00  0.00     0.113 A 
ATOM     71  C   UNL A   1      41.192  33.736  41.574  1.00  0.00     0.067 A 
ATOM     72  C   UNL A   1      39.970  33.702  40.915  1.00  0.00     0.035 A 
BRANCH  70  73
ATOM     73  S   UNL A   1      38.780  33.004  38.348  1.00  0.00     0.263 S 
ATOM     74  O   UNL A   1      37.980  31.932  38.903  1.00  0.00    -0.201 OA
ATOM     75  O   UNL A   1      38.227  34.354  38.378  1.00  0.00    -0.201 OA
BRANCH  73  76
ATOM     76  N   UNL A   1      38.958  32.656  36.597  1.00  0.00    -0.280 N 
ATOM     77  H   UNL A   1      39.885  32.529  36.294  1.00  0.00     0.180 HD
BRANCH  76  78
ATOM     78  C   UNL A   1      37.927  32.527  35.523  1.00  0.00     0.049 A 
ATOM     79  C   UNL A   1      36.798  33.397  35.419  1.00  0.00     0.027 A 
ATOM     80  C   UNL A   1      37.920  31.517  34.594  1.00  0.00     0.027 A 
ATOM     81  C   UNL A   1      35.933  33.502  34.216  1.00  0.00     0.014 A 
ATOM     82  C   UNL A   1      37.056  31.610  33.441  1.00  0.00     0.014 A 
ATOM     83  C   UNL A   1      36.169  32.719  33.081  1.00  0.00     0.018 A 
BRANCH  83  84
ATOM     84  C   UNL A   1      35.676  32.755  31.491  1.00  0.00     0.145 A 
ATOM     85  N   UNL A   1      36.592  32.058  30.848  1.00  0.00    -0.228 NA
ATOM     86  N   UNL A   1      34.734  33.488  30.224  1.00  0.00    -0.266 N 
ATOM     87  C   UNL A   1      35.982  31.394  29.900  1.00  0.00     0.089 A 
ATOM     88  C   UNL A   1      35.027  32.186  29.263  1.00  0.00     0.074 A 
ATOM     89  C   UNL A   1      36.367  30.101  29.491  1.00  0.00     0.030 A 
ATOM     90  C   UNL A   1      34.616  31.656  27.991  1.00  0.00     0.029 A 
ATOM     91  C   UNL A   1      35.865  29.574  28.322  1.00  0.00     0.002 A 
ATOM     92  C   UNL A   1      35.042  30.375  27.555  1.00  0.00     0.002 A 
BRANCH  86  93
ATOM     93  C   UNL A   1      33.463  35.128  30.126  1.00  0.00     0.451 C 
ATOM     94  F   UNL A   1      32.737  35.532  28.927  1.00  0.00    -0.185 F 
ATOM     95  F   UNL A   1      32.449  35.490  31.050  1.00  0.00    -0.185 F 
ENDBRANCH  86  93
ENDBRANCH  83  84
ENDBRANCH  76  78
ENDBRANCH  73  76
ENDBRANCH  70  73
ENDBRANCH  66  68
ENDBRANCH  65  66
ENDBRANCH  64  65
ENDBRANCH   1  64
TORSDOF 19
ENDMDL
