MODEL 1
REMARK VINA RESULT:     -10.9      0.000      0.000
REMARK SMILES COc1ccc([C@H](C(=O)OCCOCCOC(=O)c2ccc(-c3c4nc(c(-c5c(F)cccc5F)c5ccc([nH]5)c(-c5c(F)cccc5F)c5nc(c(-c6c(F)cccc6F)c6ccc3[nH]6)C=C5)C=C4)cc2)c2ccc(O)nn2)cc1
REMARK SMILES IDX 13 1 12 2 11 3 10 4 8 5 9 6 7 7 6 8 3 9 4 10 81 11 5 12
REMARK SMILES IDX 80 13 2 14 1 15 73 16 74 17 79 18 75 19 78 20 76 21 77 22
REMARK SMILES IDX 14 24 15 25 16 26 17 27 18 28 19 29 20 30 72 31 21 32 71 33
REMARK SMILES IDX 22 34 23 35 24 36 65 37 25 38 70 39 64 40 66 41 26 42 69 43
REMARK SMILES IDX 63 44 62 45 27 47 53 48 36 49 52 50 37 51 40 52 51 53 67 54
REMARK SMILES IDX 38 55 39 56 50 58 68 59 41 60 28 61 29 62 34 63 30 64 31 65
REMARK SMILES IDX 33 66 35 67 32 68 54 69 55 70 60 71 56 72 57 73 59 74 61 75
REMARK SMILES IDX 58 76 42 77 43 78 48 79 44 80 45 81 47 82 49 83 46 84
REMARK H PARENT 77 23 66 46 40 57
REMARK Flexibility Score: inf
ROOT
ATOM      1  O   UNL A   1      35.636  22.446  25.381  1.00  0.00    -0.374 OA
ENDROOT
BRANCH   1   2
ATOM      2  C   UNL A   1      35.055  23.174  24.290  1.00  0.00     0.202 C 
BRANCH   2   3
ATOM      3  C   UNL A   1      33.859  24.072  24.633  1.00  0.00     0.261 C 
BRANCH   3   4
ATOM      4  O   UNL A   1      34.362  25.288  25.228  1.00  0.00    -0.462 OA
BRANCH   4   5
ATOM      5  C   UNL A   1      33.847  26.479  24.804  1.00  0.00     0.319 C 
ATOM      6  O   UNL A   1      34.084  26.975  23.708  1.00  0.00    -0.251 OA
BRANCH   5   7
ATOM      7  C   UNL A   1      32.824  27.055  25.807  1.00  0.00     0.180 C 
BRANCH   7   8
ATOM      8  C   UNL A   1      33.200  28.459  26.340  1.00  0.00    -0.027 A 
ATOM      9  C   UNL A   1      33.823  30.832  27.743  1.00  0.00     0.118 A 
ATOM     10  C   UNL A   1      34.820  29.905  27.463  1.00  0.00     0.047 A 
ATOM     11  C   UNL A   1      32.567  30.671  27.172  1.00  0.00     0.047 A 
ATOM     12  C   UNL A   1      34.518  28.744  26.742  1.00  0.00     0.009 A 
ATOM     13  C   UNL A   1      32.268  29.504  26.456  1.00  0.00     0.009 A 
BRANCH   9  14
ATOM     14  O   UNL A   1      34.160  31.899  28.528  1.00  0.00    -0.497 OA
ATOM     15  C   UNL A   1      35.036  32.819  27.871  1.00  0.00     0.278 C 
ENDBRANCH   9  14
ENDBRANCH   7   8
BRANCH   7  16
ATOM     16  C   UNL A   1      31.417  26.909  25.212  1.00  0.00     0.082 A 
ATOM     17  C   UNL A   1      30.997  27.515  24.028  1.00  0.00     0.032 A 
ATOM     18  N   UNL A   1      30.577  26.071  25.875  1.00  0.00    -0.151 NA
ATOM     19  C   UNL A   1      29.705  27.301  23.570  1.00  0.00     0.072 A 
ATOM     20  N   UNL A   1      29.336  25.783  25.372  1.00  0.00    -0.112 NA
ATOM     21  C   UNL A   1      28.933  26.399  24.252  1.00  0.00     0.230 A 
BRANCH  21  22
ATOM     22  O   UNL A   1      27.714  26.043  23.767  1.00  0.00    -0.492 OA
ATOM     23  H   UNL A   1      27.625  25.274  23.241  1.00  0.00     0.295 HD
ENDBRANCH  21  22
ENDBRANCH   7  16
ENDBRANCH   5   7
ENDBRANCH   4   5
ENDBRANCH   3   4
ENDBRANCH   2   3
ENDBRANCH   1   2
BRANCH   1  24
ATOM     24  C   UNL A   1      35.786  21.040  25.217  1.00  0.00     0.202 C 
BRANCH  24  25
ATOM     25  C   UNL A   1      37.207  20.516  24.993  1.00  0.00     0.261 C 
BRANCH  25  26
ATOM     26  O   UNL A   1      38.199  21.542  25.093  1.00  0.00    -0.460 OA
BRANCH  26  27
ATOM     27  C   UNL A   1      39.236  21.207  25.898  1.00  0.00     0.338 C 
ATOM     28  O   UNL A   1      39.842  20.152  25.934  1.00  0.00    -0.246 OA
BRANCH  27  29
ATOM     29  C   UNL A   1      39.639  22.379  26.687  1.00  0.00     0.060 A 
ATOM     30  C   UNL A   1      38.971  23.582  26.446  1.00  0.00     0.016 A 
ATOM     31  C   UNL A   1      40.703  22.320  27.587  1.00  0.00     0.016 A 
ATOM     32  C   UNL A   1      39.424  24.750  27.047  1.00  0.00     0.010 A 
ATOM     33  C   UNL A   1      41.127  23.485  28.228  1.00  0.00     0.010 A 
ATOM     34  C   UNL A   1      40.537  24.716  27.899  1.00  0.00    -0.014 A 
BRANCH  34  35
ATOM     35  C   UNL A   1      41.211  25.993  28.238  1.00  0.00     0.031 A 
ATOM     36  C   UNL A   1      42.595  26.242  27.695  1.00  0.00     0.074 A 
ATOM     37  C   UNL A   1      40.565  26.950  28.927  1.00  0.00     0.049 A 
ATOM     38  N   UNL A   1      43.345  27.311  27.784  1.00  0.00    -0.248 NA
ATOM     39  C   UNL A   1      43.227  25.133  26.960  1.00  0.00     0.031 C 
ATOM     40  C   UNL A   1      39.221  26.826  29.492  1.00  0.00     0.029 A 
ATOM     41  N   UNL A   1      40.947  28.227  29.246  1.00  0.00    -0.354 N 
ATOM     42  C   UNL A   1      44.530  26.995  27.131  1.00  0.00     0.074 A 
ATOM     43  C   UNL A   1      44.429  25.620  26.705  1.00  0.00     0.031 C 
ATOM     44  C   UNL A   1      38.879  27.993  30.063  1.00  0.00     0.029 A 
ATOM     45  C   UNL A   1      39.986  28.937  29.921  1.00  0.00     0.049 A 
ATOM     46  H   UNL A   1      41.828  28.600  29.012  1.00  0.00     0.167 HD
ATOM     47  C   UNL A   1      45.598  27.787  26.878  1.00  0.00     0.037 A 
ATOM     48  C   UNL A   1      39.998  30.210  30.363  1.00  0.00     0.037 A 
ATOM     49  C   UNL A   1      45.682  29.166  27.275  1.00  0.00     0.049 A 
ATOM     50  C   UNL A   1      41.201  31.070  30.076  1.00  0.00     0.074 A 
ATOM     51  C   UNL A   1      46.708  30.068  27.056  1.00  0.00     0.029 A 
ATOM     52  N   UNL A   1      44.691  29.844  27.969  1.00  0.00    -0.354 N 
ATOM     53  N   UNL A   1      42.303  30.769  29.431  1.00  0.00    -0.248 NA
ATOM     54  C   UNL A   1      41.152  32.456  30.564  1.00  0.00     0.031 C 
ATOM     55  C   UNL A   1      46.353  31.282  27.654  1.00  0.00     0.029 A 
ATOM     56  C   UNL A   1      45.084  31.151  28.196  1.00  0.00     0.049 A 
ATOM     57  H   UNL A   1      43.835  29.452  28.258  1.00  0.00     0.167 HD
ATOM     58  C   UNL A   1      43.060  31.934  29.403  1.00  0.00     0.074 A 
ATOM     59  C   UNL A   1      42.284  32.949  30.084  1.00  0.00     0.031 C 
ATOM     60  C   UNL A   1      44.285  32.148  28.862  1.00  0.00     0.037 A 
BRANCH  47  61
ATOM     61  C   UNL A   1      46.758  27.170  26.148  1.00  0.00     0.057 A 
ATOM     62  C   UNL A   1      47.750  26.436  26.813  1.00  0.00     0.134 A 
ATOM     63  C   UNL A   1      46.885  27.313  24.761  1.00  0.00     0.134 A 
ATOM     64  F   UNL A   1      47.701  26.277  28.145  1.00  0.00    -0.206 F 
ATOM     65  C   UNL A   1      48.843  25.897  26.131  1.00  0.00     0.040 A 
ATOM     66  C   UNL A   1      47.956  26.751  24.063  1.00  0.00     0.040 A 
ATOM     67  F   UNL A   1      45.970  28.001  24.060  1.00  0.00    -0.206 F 
ATOM     68  C   UNL A   1      48.944  26.050  24.750  1.00  0.00     0.006 A 
ENDBRANCH  47  61
BRANCH  48  69
ATOM     69  C   UNL A   1      38.828  30.758  31.093  1.00  0.00     0.057 A 
ATOM     70  C   UNL A   1      38.702  30.618  32.481  1.00  0.00     0.134 A 
ATOM     71  C   UNL A   1      37.794  31.416  30.417  1.00  0.00     0.134 A 
ATOM     72  F   UNL A   1      39.650  29.982  33.183  1.00  0.00    -0.206 F 
ATOM     73  C   UNL A   1      37.580  31.090  33.165  1.00  0.00     0.040 A 
ATOM     74  C   UNL A   1      36.680  31.917  31.093  1.00  0.00     0.040 A 
ATOM     75  F   UNL A   1      37.855  31.590  29.088  1.00  0.00    -0.206 F 
ATOM     76  C   UNL A   1      36.566  31.746  32.471  1.00  0.00     0.006 A 
ENDBRANCH  48  69
BRANCH  60  77
ATOM     77  C   UNL A   1      44.832  33.544  28.936  1.00  0.00     0.057 A 
ATOM     78  C   UNL A   1      44.562  34.504  27.954  1.00  0.00     0.134 A 
ATOM     79  C   UNL A   1      45.621  33.938  30.026  1.00  0.00     0.134 A 
ATOM     80  F   UNL A   1      43.820  34.190  26.881  1.00  0.00    -0.206 F 
ATOM     81  C   UNL A   1      45.087  35.795  28.032  1.00  0.00     0.040 A 
ATOM     82  C   UNL A   1      46.125  35.234  30.131  1.00  0.00     0.040 A 
ATOM     83  F   UNL A   1      45.906  33.072  31.010  1.00  0.00    -0.206 F 
ATOM     84  C   UNL A   1      45.867  36.164  29.127  1.00  0.00     0.006 A 
ENDBRANCH  60  77
ENDBRANCH  34  35
ENDBRANCH  27  29
ENDBRANCH  26  27
ENDBRANCH  25  26
ENDBRANCH  24  25
ENDBRANCH   1  24
TORSDOF 18
ENDMDL
MODEL 2
REMARK VINA RESULT:     -10.8      3.596      9.127
REMARK SMILES COc1ccc([C@H](C(=O)OCCOCCOC(=O)c2ccc(-c3c4nc(c(-c5c(F)cccc5F)c5ccc([nH]5)c(-c5c(F)cccc5F)c5nc(c(-c6c(F)cccc6F)c6ccc3[nH]6)C=C5)C=C4)cc2)c2ccc(O)nn2)cc1
REMARK SMILES IDX 13 1 12 2 11 3 10 4 8 5 9 6 7 7 6 8 3 9 4 10 81 11 5 12
REMARK SMILES IDX 80 13 2 14 1 15 73 16 74 17 79 18 75 19 78 20 76 21 77 22
REMARK SMILES IDX 14 24 15 25 16 26 17 27 18 28 19 29 20 30 72 31 21 32 71 33
REMARK SMILES IDX 22 34 23 35 24 36 65 37 25 38 70 39 64 40 66 41 26 42 69 43
REMARK SMILES IDX 63 44 62 45 27 47 53 48 36 49 52 50 37 51 40 52 51 53 67 54
REMARK SMILES IDX 38 55 39 56 50 58 68 59 41 60 28 61 29 62 34 63 30 64 31 65
REMARK SMILES IDX 33 66 35 67 32 68 54 69 55 70 60 71 56 72 57 73 59 74 61 75
REMARK SMILES IDX 58 76 42 77 43 78 48 79 44 80 45 81 47 82 49 83 46 84
REMARK H PARENT 77 23 66 46 40 57
REMARK Flexibility Score: inf
ROOT
ATOM      1  O   UNL A   1      32.478  28.923  24.888  1.00  0.00    -0.374 OA
ENDROOT
BRANCH   1   2
ATOM      2  C   UNL A   1      32.864  27.695  25.522  1.00  0.00     0.202 C 
BRANCH   2   3
ATOM      3  C   UNL A   1      33.635  26.695  24.651  1.00  0.00     0.261 C 
BRANCH   3   4
ATOM      4  O   UNL A   1      34.565  25.982  25.495  1.00  0.00    -0.462 OA
BRANCH   4   5
ATOM      5  C   UNL A   1      34.392  24.639  25.663  1.00  0.00     0.319 C 
ATOM      6  O   UNL A   1      33.620  24.145  26.479  1.00  0.00    -0.251 OA
BRANCH   5   7
ATOM      7  C   UNL A   1      35.172  23.821  24.612  1.00  0.00     0.180 C 
BRANCH   7   8
ATOM      8  C   UNL A   1      36.411  23.092  25.187  1.00  0.00    -0.027 A 
ATOM      9  C   UNL A   1      38.908  21.962  25.878  1.00  0.00     0.118 A 
ATOM     10  C   UNL A   1      38.552  23.214  26.362  1.00  0.00     0.047 A 
ATOM     11  C   UNL A   1      37.960  21.198  25.209  1.00  0.00     0.047 A 
ATOM     12  C   UNL A   1      37.303  23.762  26.045  1.00  0.00     0.009 A 
ATOM     13  C   UNL A   1      36.714  21.752  24.889  1.00  0.00     0.009 A 
BRANCH   9  14
ATOM     14  O   UNL A   1      40.174  21.521  26.146  1.00  0.00    -0.497 OA
ATOM     15  C   UNL A   1      40.289  20.097  26.102  1.00  0.00     0.278 C 
ENDBRANCH   9  14
ENDBRANCH   7   8
BRANCH   7  16
ATOM     16  C   UNL A   1      34.179  22.955  23.826  1.00  0.00     0.082 A 
ATOM     17  C   UNL A   1      33.532  21.834  24.345  1.00  0.00     0.032 A 
ATOM     18  N   UNL A   1      33.886  23.381  22.570  1.00  0.00    -0.151 NA
ATOM     19  C   UNL A   1      32.637  21.131  23.551  1.00  0.00     0.072 A 
ATOM     20  N   UNL A   1      32.931  22.745  21.821  1.00  0.00    -0.112 NA
ATOM     21  C   UNL A   1      32.342  21.649  22.319  1.00  0.00     0.230 A 
BRANCH  21  22
ATOM     22  O   UNL A   1      31.367  21.084  21.559  1.00  0.00    -0.492 OA
ATOM     23  H   UNL A   1      31.376  20.162  21.396  1.00  0.00     0.295 HD
ENDBRANCH  21  22
ENDBRANCH   7  16
ENDBRANCH   5   7
ENDBRANCH   4   5
ENDBRANCH   3   4
ENDBRANCH   2   3
ENDBRANCH   1   2
BRANCH   1  24
ATOM     24  C   UNL A   1      31.411  29.654  25.482  1.00  0.00     0.202 C 
BRANCH  24  25
ATOM     25  C   UNL A   1      31.764  30.996  26.128  1.00  0.00     0.261 C 
BRANCH  25  26
ATOM     26  O   UNL A   1      32.582  30.853  27.292  1.00  0.00    -0.460 OA
BRANCH  26  27
ATOM     27  C   UNL A   1      33.311  31.959  27.574  1.00  0.00     0.338 C 
ATOM     28  O   UNL A   1      32.910  33.100  27.716  1.00  0.00    -0.246 OA
BRANCH  27  29
ATOM     29  C   UNL A   1      34.708  31.574  27.818  1.00  0.00     0.060 A 
ATOM     30  C   UNL A   1      34.998  30.211  27.903  1.00  0.00     0.016 A 
ATOM     31  C   UNL A   1      35.698  32.532  28.039  1.00  0.00     0.016 A 
ATOM     32  C   UNL A   1      36.267  29.803  28.293  1.00  0.00     0.010 A 
ATOM     33  C   UNL A   1      36.987  32.121  28.382  1.00  0.00     0.010 A 
ATOM     34  C   UNL A   1      37.253  30.757  28.586  1.00  0.00    -0.014 A 
BRANCH  34  35
ATOM     35  C   UNL A   1      38.462  30.323  29.329  1.00  0.00     0.031 A 
ATOM     36  C   UNL A   1      38.625  30.771  30.759  1.00  0.00     0.074 A 
ATOM     37  C   UNL A   1      39.340  29.469  28.775  1.00  0.00     0.049 A 
ATOM     38  N   UNL A   1      39.548  30.452  31.631  1.00  0.00    -0.248 NA
ATOM     39  C   UNL A   1      37.619  31.714  31.276  1.00  0.00     0.031 C 
ATOM     40  C   UNL A   1      39.278  28.960  27.405  1.00  0.00     0.029 A 
ATOM     41  N   UNL A   1      40.443  28.858  29.311  1.00  0.00    -0.354 N 
ATOM     42  C   UNL A   1      39.237  31.163  32.784  1.00  0.00     0.074 A 
ATOM     43  C   UNL A   1      38.082  31.976  32.486  1.00  0.00     0.031 C 
ATOM     44  C   UNL A   1      40.284  28.089  27.218  1.00  0.00     0.029 A 
ATOM     45  C   UNL A   1      41.069  27.995  28.447  1.00  0.00     0.049 A 
ATOM     46  H   UNL A   1      40.757  29.021  30.230  1.00  0.00     0.167 HD
ATOM     47  C   UNL A   1      39.839  31.122  33.996  1.00  0.00     0.037 A 
ATOM     48  C   UNL A   1      42.149  27.212  28.634  1.00  0.00     0.037 A 
ATOM     49  C   UNL A   1      40.970  30.286  34.298  1.00  0.00     0.049 A 
ATOM     50  C   UNL A   1      42.807  27.187  29.989  1.00  0.00     0.074 A 
ATOM     51  C   UNL A   1      41.648  30.151  35.496  1.00  0.00     0.029 A 
ATOM     52  N   UNL A   1      41.582  29.437  33.389  1.00  0.00    -0.354 N 
ATOM     53  N   UNL A   1      42.485  27.841  31.080  1.00  0.00    -0.248 NA
ATOM     54  C   UNL A   1      43.968  26.299  30.142  1.00  0.00     0.031 C 
ATOM     55  C   UNL A   1      42.698  29.246  35.300  1.00  0.00     0.029 A 
ATOM     56  C   UNL A   1      42.638  28.779  33.996  1.00  0.00     0.049 A 
ATOM     57  H   UNL A   1      41.306  29.319  32.451  1.00  0.00     0.167 HD
ATOM     58  C   UNL A   1      43.379  27.417  32.057  1.00  0.00     0.074 A 
ATOM     59  C   UNL A   1      44.245  26.440  31.430  1.00  0.00     0.031 C 
ATOM     60  C   UNL A   1      43.475  27.797  33.354  1.00  0.00     0.037 A 
BRANCH  47  61
ATOM     61  C   UNL A   1      39.287  32.014  35.071  1.00  0.00     0.057 A 
ATOM     62  C   UNL A   1      38.415  31.536  36.058  1.00  0.00     0.134 A 
ATOM     63  C   UNL A   1      39.631  33.371  35.118  1.00  0.00     0.134 A 
ATOM     64  F   UNL A   1      38.028  30.251  36.060  1.00  0.00    -0.206 F 
ATOM     65  C   UNL A   1      37.878  32.382  37.032  1.00  0.00     0.040 A 
ATOM     66  C   UNL A   1      39.127  34.219  36.106  1.00  0.00     0.040 A 
ATOM     67  F   UNL A   1      40.463  33.895  34.205  1.00  0.00    -0.206 F 
ATOM     68  C   UNL A   1      38.239  33.727  37.061  1.00  0.00     0.006 A 
ENDBRANCH  47  61
BRANCH  48  69
ATOM     69  C   UNL A   1      42.658  26.364  27.526  1.00  0.00     0.057 A 
ATOM     70  C   UNL A   1      43.609  26.844  26.617  1.00  0.00     0.134 A 
ATOM     71  C   UNL A   1      42.188  25.059  27.336  1.00  0.00     0.134 A 
ATOM     72  F   UNL A   1      44.084  28.091  26.735  1.00  0.00    -0.206 F 
ATOM     73  C   UNL A   1      44.054  26.067  25.546  1.00  0.00     0.040 A 
ATOM     74  C   UNL A   1      42.646  24.262  26.285  1.00  0.00     0.040 A 
ATOM     75  F   UNL A   1      41.281  24.536  28.175  1.00  0.00    -0.206 F 
ATOM     76  C   UNL A   1      43.575  24.769  25.380  1.00  0.00     0.006 A 
ENDBRANCH  48  69
BRANCH  60  77
ATOM     77  C   UNL A   1      44.515  27.113  34.194  1.00  0.00     0.057 A 
ATOM     78  C   UNL A   1      45.806  27.632  34.351  1.00  0.00     0.134 A 
ATOM     79  C   UNL A   1      44.207  25.929  34.877  1.00  0.00     0.134 A 
ATOM     80  F   UNL A   1      46.168  28.759  33.718  1.00  0.00    -0.206 F 
ATOM     81  C   UNL A   1      46.765  26.979  35.126  1.00  0.00     0.040 A 
ATOM     82  C   UNL A   1      45.147  25.283  35.679  1.00  0.00     0.040 A 
ATOM     83  F   UNL A   1      42.984  25.385  34.781  1.00  0.00    -0.206 F 
ATOM     84  C   UNL A   1      46.434  25.803  35.797  1.00  0.00     0.006 A 
ENDBRANCH  60  77
ENDBRANCH  34  35
ENDBRANCH  27  29
ENDBRANCH  26  27
ENDBRANCH  25  26
ENDBRANCH  24  25
ENDBRANCH   1  24
TORSDOF 18
ENDMDL
MODEL 3
REMARK VINA RESULT:     -10.8      3.832      9.112
REMARK SMILES COc1ccc([C@H](C(=O)OCCOCCOC(=O)c2ccc(-c3c4nc(c(-c5c(F)cccc5F)c5ccc([nH]5)c(-c5c(F)cccc5F)c5nc(c(-c6c(F)cccc6F)c6ccc3[nH]6)C=C5)C=C4)cc2)c2ccc(O)nn2)cc1
REMARK SMILES IDX 13 1 12 2 11 3 10 4 8 5 9 6 7 7 6 8 3 9 4 10 81 11 5 12
REMARK SMILES IDX 80 13 2 14 1 15 73 16 74 17 79 18 75 19 78 20 76 21 77 22
REMARK SMILES IDX 14 24 15 25 16 26 17 27 18 28 19 29 20 30 72 31 21 32 71 33
REMARK SMILES IDX 22 34 23 35 24 36 65 37 25 38 70 39 64 40 66 41 26 42 69 43
REMARK SMILES IDX 63 44 62 45 27 47 53 48 36 49 52 50 37 51 40 52 51 53 67 54
REMARK SMILES IDX 38 55 39 56 50 58 68 59 41 60 28 61 29 62 34 63 30 64 31 65
REMARK SMILES IDX 33 66 35 67 32 68 54 69 55 70 60 71 56 72 57 73 59 74 61 75
REMARK SMILES IDX 58 76 42 77 43 78 48 79 44 80 45 81 47 82 49 83 46 84
REMARK H PARENT 77 23 66 46 40 57
REMARK Flexibility Score: inf
ROOT
ATOM      1  O   UNL A   1      32.380  29.926  26.494  1.00  0.00    -0.374 OA
ENDROOT
BRANCH   1   2
ATOM      2  C   UNL A   1      31.846  28.957  27.407  1.00  0.00     0.202 C 
BRANCH   2   3
ATOM      3  C   UNL A   1      32.130  27.486  27.077  1.00  0.00     0.261 C 
BRANCH   3   4
ATOM      4  O   UNL A   1      30.919  26.897  26.556  1.00  0.00    -0.462 OA
BRANCH   4   5
ATOM      5  C   UNL A   1      30.954  25.597  26.143  1.00  0.00     0.319 C 
ATOM      6  O   UNL A   1      30.857  24.636  26.899  1.00  0.00    -0.251 OA
BRANCH   5   7
ATOM      7  C   UNL A   1      30.989  25.481  24.604  1.00  0.00     0.180 C 
BRANCH   7   8
ATOM      8  C   UNL A   1      30.468  26.743  23.874  1.00  0.00    -0.027 A 
ATOM      9  C   UNL A   1      29.539  29.254  22.969  1.00  0.00     0.118 A 
ATOM     10  C   UNL A   1      30.903  28.990  23.014  1.00  0.00     0.047 A 
ATOM     11  C   UNL A   1      28.640  28.220  23.195  1.00  0.00     0.047 A 
ATOM     12  C   UNL A   1      31.363  27.737  23.434  1.00  0.00     0.009 A 
ATOM     13  C   UNL A   1      29.105  26.968  23.620  1.00  0.00     0.009 A 
BRANCH   9  14
ATOM     14  O   UNL A   1      29.156  30.524  22.638  1.00  0.00    -0.497 OA
ATOM     15  C   UNL A   1      27.859  30.862  23.137  1.00  0.00     0.278 C 
ENDBRANCH   9  14
ENDBRANCH   7   8
BRANCH   7  16
ATOM     16  C   UNL A   1      32.373  24.974  24.180  1.00  0.00     0.082 A 
ATOM     17  C   UNL A   1      33.465  24.859  25.040  1.00  0.00     0.032 A 
ATOM     18  N   UNL A   1      32.482  24.555  22.892  1.00  0.00    -0.151 NA
ATOM     19  C   UNL A   1      34.671  24.372  24.555  1.00  0.00     0.072 A 
ATOM     20  N   UNL A   1      33.642  23.983  22.439  1.00  0.00    -0.112 NA
ATOM     21  C   UNL A   1      34.694  23.911  23.266  1.00  0.00     0.230 A 
BRANCH  21  22
ATOM     22  O   UNL A   1      35.804  23.291  22.785  1.00  0.00    -0.492 OA
ATOM     23  H   UNL A   1      35.840  22.356  22.747  1.00  0.00     0.295 HD
ENDBRANCH  21  22
ENDBRANCH   7  16
ENDBRANCH   5   7
ENDBRANCH   4   5
ENDBRANCH   3   4
ENDBRANCH   2   3
ENDBRANCH   1   2
BRANCH   1  24
ATOM     24  C   UNL A   1      31.540  31.022  26.146  1.00  0.00     0.202 C 
BRANCH  24  25
ATOM     25  C   UNL A   1      31.532  32.220  27.099  1.00  0.00     0.261 C 
BRANCH  25  26
ATOM     26  O   UNL A   1      32.662  33.078  26.921  1.00  0.00    -0.460 OA
BRANCH  26  27
ATOM     27  C   UNL A   1      33.218  33.481  28.090  1.00  0.00     0.338 C 
ATOM     28  O   UNL A   1      32.724  34.195  28.943  1.00  0.00    -0.246 OA
BRANCH  27  29
ATOM     29  C   UNL A   1      34.517  32.818  28.266  1.00  0.00     0.060 A 
ATOM     30  C   UNL A   1      34.512  31.486  28.685  1.00  0.00     0.016 A 
ATOM     31  C   UNL A   1      35.716  33.513  28.103  1.00  0.00     0.016 A 
ATOM     32  C   UNL A   1      35.710  30.869  29.022  1.00  0.00     0.010 A 
ATOM     33  C   UNL A   1      36.924  32.877  28.394  1.00  0.00     0.010 A 
ATOM     34  C   UNL A   1      36.917  31.578  28.929  1.00  0.00    -0.014 A 
BRANCH  34  35
ATOM     35  C   UNL A   1      38.114  31.036  29.617  1.00  0.00     0.031 A 
ATOM     36  C   UNL A   1      38.329  31.386  31.068  1.00  0.00     0.074 A 
ATOM     37  C   UNL A   1      38.933  30.171  28.994  1.00  0.00     0.049 A 
ATOM     38  N   UNL A   1      39.249  30.966  31.898  1.00  0.00    -0.248 NA
ATOM     39  C   UNL A   1      37.386  32.349  31.663  1.00  0.00     0.031 C 
ATOM     40  C   UNL A   1      38.817  29.751  27.598  1.00  0.00     0.029 A 
ATOM     41  N   UNL A   1      40.011  29.470  29.468  1.00  0.00    -0.354 N 
ATOM     42  C   UNL A   1      39.000  31.621  33.099  1.00  0.00     0.074 A 
ATOM     43  C   UNL A   1      37.886  32.511  32.876  1.00  0.00     0.031 C 
ATOM     44  C   UNL A   1      39.770  28.841  27.336  1.00  0.00     0.029 A 
ATOM     45  C   UNL A   1      40.572  28.630  28.540  1.00  0.00     0.049 A 
ATOM     46  H   UNL A   1      40.351  29.561  30.388  1.00  0.00     0.167 HD
ATOM     47  C   UNL A   1      39.622  31.474  34.292  1.00  0.00     0.037 A 
ATOM     48  C   UNL A   1      41.611  27.780  28.655  1.00  0.00     0.037 A 
ATOM     49  C   UNL A   1      40.710  30.562  34.519  1.00  0.00     0.049 A 
ATOM     50  C   UNL A   1      42.293  27.638  29.991  1.00  0.00     0.074 A 
ATOM     51  C   UNL A   1      41.403  30.317  35.691  1.00  0.00     0.029 A 
ATOM     52  N   UNL A   1      41.258  29.738  33.547  1.00  0.00    -0.354 N 
ATOM     53  N   UNL A   1      42.028  28.240  31.127  1.00  0.00    -0.248 NA
ATOM     54  C   UNL A   1      43.406  26.681  30.065  1.00  0.00     0.031 C 
ATOM     55  C   UNL A   1      42.397  29.371  35.417  1.00  0.00     0.029 A 
ATOM     56  C   UNL A   1      42.287  28.988  34.090  1.00  0.00     0.049 A 
ATOM     57  H   UNL A   1      40.958  29.693  32.610  1.00  0.00     0.167 HD
ATOM     58  C   UNL A   1      42.916  27.709  32.056  1.00  0.00     0.074 A 
ATOM     59  C   UNL A   1      43.714  26.727  31.353  1.00  0.00     0.031 C 
ATOM     60  C   UNL A   1      43.057  28.005  33.372  1.00  0.00     0.037 A 
BRANCH  47  61
ATOM     61  C   UNL A   1      39.140  32.327  35.431  1.00  0.00     0.057 A 
ATOM     62  C   UNL A   1      39.536  33.663  35.579  1.00  0.00     0.134 A 
ATOM     63  C   UNL A   1      38.269  31.803  36.395  1.00  0.00     0.134 A 
ATOM     64  F   UNL A   1      40.385  34.222  34.702  1.00  0.00    -0.206 F 
ATOM     65  C   UNL A   1      39.112  34.437  36.662  1.00  0.00     0.040 A 
ATOM     66  C   UNL A   1      37.812  32.576  37.464  1.00  0.00     0.040 A 
ATOM     67  F   UNL A   1      37.848  30.532  36.315  1.00  0.00    -0.206 F 
ATOM     68  C   UNL A   1      38.242  33.895  37.605  1.00  0.00     0.006 A 
ENDBRANCH  47  61
BRANCH  48  69
ATOM     69  C   UNL A   1      42.051  26.975  27.488  1.00  0.00     0.057 A 
ATOM     70  C   UNL A   1      42.869  27.522  26.491  1.00  0.00     0.134 A 
ATOM     71  C   UNL A   1      41.646  25.645  27.329  1.00  0.00     0.134 A 
ATOM     72  F   UNL A   1      43.275  28.796  26.577  1.00  0.00    -0.206 F 
ATOM     73  C   UNL A   1      43.246  26.784  25.367  1.00  0.00     0.040 A 
ATOM     74  C   UNL A   1      42.039  24.887  26.224  1.00  0.00     0.040 A 
ATOM     75  F   UNL A   1      40.868  25.058  28.251  1.00  0.00    -0.206 F 
ATOM     76  C   UNL A   1      42.834  25.460  25.234  1.00  0.00     0.006 A 
ENDBRANCH  48  69
BRANCH  60  77
ATOM     77  C   UNL A   1      44.074  27.216  34.145  1.00  0.00     0.057 A 
ATOM     78  C   UNL A   1      45.398  27.647  34.292  1.00  0.00     0.134 A 
ATOM     79  C   UNL A   1      43.710  26.018  34.775  1.00  0.00     0.134 A 
ATOM     80  F   UNL A   1      45.812  28.782  33.708  1.00  0.00    -0.206 F 
ATOM     81  C   UNL A   1      46.334  26.898  35.005  1.00  0.00     0.040 A 
ATOM     82  C   UNL A   1      44.629  25.276  35.516  1.00  0.00     0.040 A 
ATOM     83  F   UNL A   1      42.454  25.555  34.686  1.00  0.00    -0.206 F 
ATOM     84  C   UNL A   1      45.948  25.709  35.624  1.00  0.00     0.006 A 
ENDBRANCH  60  77
ENDBRANCH  34  35
ENDBRANCH  27  29
ENDBRANCH  26  27
ENDBRANCH  25  26
ENDBRANCH  24  25
ENDBRANCH   1  24
TORSDOF 18
ENDMDL
