MODEL 1
REMARK VINA RESULT:     -11.0      0.000      0.000
REMARK SMILES Cc1cc(C)c(NC(=O)C[C@H](C(=O)OCCOCCOC(=O)c2ccc(-c3c4nc(c(-c5c(F)cccc5F)c5ccc([nH]5)c(-c5c(F)cccc5F)c5nc(c(-c6c(F)cccc6F)c6ccc3[nH]6)C=C5)C=C4)cc2)[NH+]2CC[NH+](C)CC2)c(C)c1
REMARK SMILES IDX 16 1 15 2 14 3 12 4 13 5 11 6 10 7 8 8 7 9 9 11 6 12 1 13
REMARK SMILES IDX 2 14 3 15 86 16 4 17 84 18 5 19 85 20 77 21 78 22 83 23
REMARK SMILES IDX 79 25 82 26 80 27 81 28 17 30 18 31 19 32 20 33 21 34 22 35
REMARK SMILES IDX 23 36 24 37 76 38 25 39 75 40 26 41 27 42 28 43 69 44 29 45
REMARK SMILES IDX 74 46 68 47 70 48 30 49 73 50 67 51 66 52 31 54 57 55 40 56
REMARK SMILES IDX 56 57 41 58 44 59 55 60 71 61 42 62 43 63 54 65 72 66 45 67
REMARK SMILES IDX 32 68 33 69 38 70 34 71 35 72 37 73 39 74 36 75 58 76 59 77
REMARK SMILES IDX 64 78 60 79 61 80 63 81 65 82 62 83 46 84 47 85 52 86 48 87
REMARK SMILES IDX 49 88 51 89 53 90 50 91
REMARK H PARENT 7 10 77 24 80 29 70 53 44 64
REMARK Flexibility Score: inf
ROOT
ATOM      1  C   UNL A   1      37.567  23.504  25.901  1.00  0.00     0.202 C 
ENDROOT
BRANCH   1   2
ATOM      2  C   UNL A   1      36.093  23.342  25.503  1.00  0.00     0.261 C 
BRANCH   2   3
ATOM      3  O   UNL A   1      35.570  24.444  24.742  1.00  0.00    -0.459 OA
BRANCH   3   4
ATOM      4  C   UNL A   1      34.848  24.084  23.631  1.00  0.00     0.365 C 
ATOM      5  O   UNL A   1      35.349  23.486  22.687  1.00  0.00    -0.245 OA
BRANCH   4   6
ATOM      6  C   UNL A   1      33.338  24.469  23.790  1.00  0.00     0.304 C 
BRANCH   6   7
ATOM      7  C   UNL A   1      32.720  24.538  22.369  1.00  0.00     0.177 C 
BRANCH   7   8
ATOM      8  C   UNL A   1      32.755  25.770  21.475  1.00  0.00     0.231 C 
ATOM      9  N   UNL A   1      32.513  27.051  21.866  1.00  0.00    -0.325 N 
ATOM     10  H   UNL A   1      32.488  27.707  21.132  1.00  0.00     0.169 HD
ATOM     11  O   UNL A   1      33.026  25.613  20.274  1.00  0.00    -0.274 OA
BRANCH   9  12
ATOM     12  C   UNL A   1      32.295  27.589  23.142  1.00  0.00     0.047 A 
ATOM     13  C   UNL A   1      32.258  28.210  27.380  1.00  0.00     0.044 C 
ATOM     14  C   UNL A   1      32.219  28.164  25.882  1.00  0.00    -0.050 A 
ATOM     15  C   UNL A   1      31.081  27.696  25.222  1.00  0.00     0.009 A 
ATOM     16  C   UNL A   1      33.332  28.524  25.123  1.00  0.00     0.009 A 
ATOM     17  C   UNL A   1      31.092  27.441  23.842  1.00  0.00    -0.027 A 
ATOM     18  C   UNL A   1      33.362  28.293  23.740  1.00  0.00    -0.027 A 
ATOM     19  C   UNL A   1      29.777  27.153  23.173  1.00  0.00     0.046 C 
ATOM     20  C   UNL A   1      34.554  28.773  22.953  1.00  0.00     0.046 C 
ENDBRANCH   9  12
ENDBRANCH   7   8
ENDBRANCH   6   7
BRANCH   6  21
ATOM     21  N   UNL A   1      32.686  23.645  24.837  1.00  0.00    -0.313 N 
ATOM     22  C   UNL A   1      31.495  22.879  24.433  1.00  0.00     0.325 C 
ATOM     23  C   UNL A   1      32.284  24.397  26.052  1.00  0.00     0.325 C 
ATOM     24  H   UNL A   1      33.451  22.998  25.029  1.00  0.00     0.349 HD
ATOM     25  C   UNL A   1      31.119  21.865  25.550  1.00  0.00     0.324 C 
ATOM     26  C   UNL A   1      32.009  23.402  27.201  1.00  0.00     0.324 C 
ATOM     27  N   UNL A   1      30.963  22.401  26.917  1.00  0.00    -0.328 N 
ATOM     28  C   UNL A   1      29.626  22.925  27.150  1.00  0.00     0.333 C 
ATOM     29  H   UNL A   1      31.082  21.628  27.572  1.00  0.00     0.348 HD
ENDBRANCH   6  21
ENDBRANCH   4   6
ENDBRANCH   3   4
ENDBRANCH   2   3
ENDBRANCH   1   2
BRANCH   1  30
ATOM     30  O   UNL A   1      38.433  22.386  25.766  1.00  0.00    -0.374 OA
BRANCH  30  31
ATOM     31  C   UNL A   1      37.924  21.196  25.171  1.00  0.00     0.202 C 
BRANCH  31  32
ATOM     32  C   UNL A   1      38.749  19.903  25.264  1.00  0.00     0.261 C 
BRANCH  32  33
ATOM     33  O   UNL A   1      39.578  19.814  26.438  1.00  0.00    -0.460 OA
BRANCH  33  34
ATOM     34  C   UNL A   1      40.908  19.742  26.185  1.00  0.00     0.338 C 
ATOM     35  O   UNL A   1      41.498  18.876  25.552  1.00  0.00    -0.246 OA
BRANCH  34  36
ATOM     36  C   UNL A   1      41.596  20.950  26.660  1.00  0.00     0.060 A 
ATOM     37  C   UNL A   1      41.532  21.259  28.026  1.00  0.00     0.016 A 
ATOM     38  C   UNL A   1      42.153  21.851  25.752  1.00  0.00     0.016 A 
ATOM     39  C   UNL A   1      41.990  22.493  28.484  1.00  0.00     0.010 A 
ATOM     40  C   UNL A   1      42.600  23.092  26.212  1.00  0.00     0.010 A 
ATOM     41  C   UNL A   1      42.487  23.433  27.572  1.00  0.00    -0.014 A 
BRANCH  41  42
ATOM     42  C   UNL A   1      42.746  24.826  28.005  1.00  0.00     0.031 A 
ATOM     43  C   UNL A   1      44.137  25.211  28.423  1.00  0.00     0.074 A 
ATOM     44  C   UNL A   1      41.750  25.727  28.050  1.00  0.00     0.049 A 
ATOM     45  N   UNL A   1      44.566  26.330  28.946  1.00  0.00    -0.248 NA
ATOM     46  C   UNL A   1      45.182  24.192  28.232  1.00  0.00     0.031 C 
ATOM     47  C   UNL A   1      40.370  25.480  27.639  1.00  0.00     0.029 A 
ATOM     48  N   UNL A   1      41.747  27.026  28.492  1.00  0.00    -0.354 N 
ATOM     49  C   UNL A   1      45.924  26.144  29.170  1.00  0.00     0.074 A 
ATOM     50  C   UNL A   1      46.245  24.801  28.735  1.00  0.00     0.031 C 
ATOM     51  C   UNL A   1      39.643  26.583  27.881  1.00  0.00     0.029 A 
ATOM     52  C   UNL A   1      40.500  27.596  28.497  1.00  0.00     0.049 A 
ATOM     53  H   UNL A   1      42.561  27.501  28.779  1.00  0.00     0.167 HD
ATOM     54  C   UNL A   1      46.821  27.014  29.690  1.00  0.00     0.037 A 
ATOM     55  C   UNL A   1      40.089  28.785  28.978  1.00  0.00     0.037 A 
ATOM     56  C   UNL A   1      46.498  28.351  30.112  1.00  0.00     0.049 A 
ATOM     57  C   UNL A   1      41.090  29.719  29.600  1.00  0.00     0.074 A 
ATOM     58  C   UNL A   1      47.344  29.328  30.608  1.00  0.00     0.029 A 
ATOM     59  N   UNL A   1      45.222  28.894  30.100  1.00  0.00    -0.354 N 
ATOM     60  N   UNL A   1      42.379  29.551  29.774  1.00  0.00    -0.248 NA
ATOM     61  C   UNL A   1      40.582  31.007  30.095  1.00  0.00     0.031 C 
ATOM     62  C   UNL A   1      46.571  30.445  30.942  1.00  0.00     0.029 A 
ATOM     63  C   UNL A   1      45.252  30.181  30.610  1.00  0.00     0.049 A 
ATOM     64  H   UNL A   1      44.414  28.432  29.777  1.00  0.00     0.167 HD
ATOM     65  C   UNL A   1      42.840  30.716  30.374  1.00  0.00     0.074 A 
ATOM     66  C   UNL A   1      41.693  31.586  30.532  1.00  0.00     0.031 C 
ATOM     67  C   UNL A   1      44.100  31.036  30.755  1.00  0.00     0.037 A 
BRANCH  54  68
ATOM     68  C   UNL A   1      48.229  26.528  29.869  1.00  0.00     0.057 A 
ATOM     69  C   UNL A   1      49.219  26.743  28.901  1.00  0.00     0.134 A 
ATOM     70  C   UNL A   1      48.601  25.847  31.034  1.00  0.00     0.134 A 
ATOM     71  F   UNL A   1      48.925  27.377  27.755  1.00  0.00    -0.206 F 
ATOM     72  C   UNL A   1      50.522  26.270  29.074  1.00  0.00     0.040 A 
ATOM     73  C   UNL A   1      49.907  25.392  31.229  1.00  0.00     0.040 A 
ATOM     74  F   UNL A   1      47.703  25.613  32.003  1.00  0.00    -0.206 F 
ATOM     75  C   UNL A   1      50.869  25.597  30.243  1.00  0.00     0.006 A 
ENDBRANCH  54  68
BRANCH  55  76
ATOM     76  C   UNL A   1      38.649  29.138  28.915  1.00  0.00     0.057 A 
ATOM     77  C   UNL A   1      37.826  29.033  30.041  1.00  0.00     0.134 A 
ATOM     78  C   UNL A   1      38.071  29.612  27.732  1.00  0.00     0.134 A 
ATOM     79  F   UNL A   1      38.319  28.566  31.197  1.00  0.00    -0.206 F 
ATOM     80  C   UNL A   1      36.475  29.386  29.991  1.00  0.00     0.040 A 
ATOM     81  C   UNL A   1      36.728  29.989  27.673  1.00  0.00     0.040 A 
ATOM     82  F   UNL A   1      38.810  29.737  26.620  1.00  0.00    -0.206 F 
ATOM     83  C   UNL A   1      35.926  29.873  28.807  1.00  0.00     0.006 A 
ENDBRANCH  55  76
BRANCH  67  84
ATOM     84  C   UNL A   1      44.321  32.394  31.353  1.00  0.00     0.057 A 
ATOM     85  C   UNL A   1      44.553  33.521  30.556  1.00  0.00     0.134 A 
ATOM     86  C   UNL A   1      44.227  32.585  32.738  1.00  0.00     0.134 A 
ATOM     87  F   UNL A   1      44.666  33.402  29.225  1.00  0.00    -0.206 F 
ATOM     88  C   UNL A   1      44.690  34.793  31.118  1.00  0.00     0.040 A 
ATOM     89  C   UNL A   1      44.340  33.854  33.309  1.00  0.00     0.040 A 
ATOM     90  F   UNL A   1      43.998  31.546  33.554  1.00  0.00    -0.206 F 
ATOM     91  C   UNL A   1      44.573  34.962  32.497  1.00  0.00     0.006 A 
ENDBRANCH  67  84
ENDBRANCH  41  42
ENDBRANCH  34  36
ENDBRANCH  33  34
ENDBRANCH  32  33
ENDBRANCH  31  32
ENDBRANCH  30  31
ENDBRANCH   1  30
TORSDOF 18
ENDMDL
MODEL 2
REMARK VINA RESULT:     -10.9      4.226      8.533
REMARK SMILES Cc1cc(C)c(NC(=O)C[C@H](C(=O)OCCOCCOC(=O)c2ccc(-c3c4nc(c(-c5c(F)cccc5F)c5ccc([nH]5)c(-c5c(F)cccc5F)c5nc(c(-c6c(F)cccc6F)c6ccc3[nH]6)C=C5)C=C4)cc2)[NH+]2CC[NH+](C)CC2)c(C)c1
REMARK SMILES IDX 16 1 15 2 14 3 12 4 13 5 11 6 10 7 8 8 7 9 9 11 6 12 1 13
REMARK SMILES IDX 2 14 3 15 86 16 4 17 84 18 5 19 85 20 77 21 78 22 83 23
REMARK SMILES IDX 79 25 82 26 80 27 81 28 17 30 18 31 19 32 20 33 21 34 22 35
REMARK SMILES IDX 23 36 24 37 76 38 25 39 75 40 26 41 27 42 28 43 69 44 29 45
REMARK SMILES IDX 74 46 68 47 70 48 30 49 73 50 67 51 66 52 31 54 57 55 40 56
REMARK SMILES IDX 56 57 41 58 44 59 55 60 71 61 42 62 43 63 54 65 72 66 45 67
REMARK SMILES IDX 32 68 33 69 38 70 34 71 35 72 37 73 39 74 36 75 58 76 59 77
REMARK SMILES IDX 64 78 60 79 61 80 63 81 65 82 62 83 46 84 47 85 52 86 48 87
REMARK SMILES IDX 49 88 51 89 53 90 50 91
REMARK H PARENT 7 10 77 24 80 29 70 53 44 64
REMARK Flexibility Score: inf
ROOT
ATOM      1  C   UNL A   1      33.084  30.280  26.204  1.00  0.00     0.202 C 
ENDROOT
BRANCH   1   2
ATOM      2  C   UNL A   1      33.133  28.944  25.450  1.00  0.00     0.261 C 
BRANCH   2   3
ATOM      3  O   UNL A   1      32.094  28.791  24.468  1.00  0.00    -0.459 OA
BRANCH   3   4
ATOM      4  C   UNL A   1      32.530  28.777  23.166  1.00  0.00     0.365 C 
ATOM      5  O   UNL A   1      33.564  29.329  22.814  1.00  0.00    -0.245 OA
BRANCH   4   6
ATOM      6  C   UNL A   1      31.584  27.913  22.263  1.00  0.00     0.304 C 
BRANCH   6   7
ATOM      7  C   UNL A   1      31.673  26.446  22.761  1.00  0.00     0.177 C 
BRANCH   7   8
ATOM      8  C   UNL A   1      32.862  25.527  22.518  1.00  0.00     0.231 C 
ATOM      9  N   UNL A   1      33.241  24.481  23.303  1.00  0.00    -0.325 N 
ATOM     10  H   UNL A   1      34.091  24.058  23.041  1.00  0.00     0.169 HD
ATOM     11  O   UNL A   1      33.567  25.736  21.518  1.00  0.00    -0.274 OA
BRANCH   9  12
ATOM     12  C   UNL A   1      32.619  23.908  24.420  1.00  0.00     0.047 A 
ATOM     13  C   UNL A   1      29.706  22.655  27.300  1.00  0.00     0.044 C 
ATOM     14  C   UNL A   1      30.837  22.976  26.370  1.00  0.00    -0.050 A 
ATOM     15  C   UNL A   1      31.684  24.054  26.637  1.00  0.00     0.009 A 
ATOM     16  C   UNL A   1      31.028  22.252  25.194  1.00  0.00     0.009 A 
ATOM     17  C   UNL A   1      32.610  24.508  25.685  1.00  0.00    -0.027 A 
ATOM     18  C   UNL A   1      31.958  22.675  24.233  1.00  0.00    -0.027 A 
ATOM     19  C   UNL A   1      33.627  25.523  26.126  1.00  0.00     0.046 C 
ATOM     20  C   UNL A   1      32.184  21.814  23.018  1.00  0.00     0.046 C 
ENDBRANCH   9  12
ENDBRANCH   7   8
ENDBRANCH   6   7
BRANCH   6  21
ATOM     21  N   UNL A   1      30.258  28.559  22.110  1.00  0.00    -0.313 N 
ATOM     22  C   UNL A   1      30.248  30.022  21.941  1.00  0.00     0.325 C 
ATOM     23  C   UNL A   1      29.305  28.278  23.212  1.00  0.00     0.325 C 
ATOM     24  H   UNL A   1      29.967  28.119  21.237  1.00  0.00     0.349 HD
ATOM     25  C   UNL A   1      28.829  30.490  21.510  1.00  0.00     0.324 C 
ATOM     26  C   UNL A   1      27.875  28.642  22.756  1.00  0.00     0.324 C 
ATOM     27  N   UNL A   1      27.695  30.047  22.345  1.00  0.00    -0.328 N 
ATOM     28  C   UNL A   1      27.476  30.927  23.482  1.00  0.00     0.333 C 
ATOM     29  H   UNL A   1      26.848  30.103  21.778  1.00  0.00     0.348 HD
ENDBRANCH   6  21
ENDBRANCH   4   6
ENDBRANCH   3   4
ENDBRANCH   2   3
ENDBRANCH   1   2
BRANCH   1  30
ATOM     30  O   UNL A   1      31.878  30.644  26.862  1.00  0.00    -0.374 OA
BRANCH  30  31
ATOM     31  C   UNL A   1      31.351  31.950  26.647  1.00  0.00     0.202 C 
BRANCH  31  32
ATOM     32  C   UNL A   1      32.262  33.168  26.861  1.00  0.00     0.261 C 
BRANCH  32  33
ATOM     33  O   UNL A   1      32.166  33.756  28.172  1.00  0.00    -0.460 OA
BRANCH  33  34
ATOM     34  C   UNL A   1      33.217  34.539  28.518  1.00  0.00     0.338 C 
ATOM     35  O   UNL A   1      33.215  35.752  28.688  1.00  0.00    -0.246 OA
BRANCH  34  36
ATOM     36  C   UNL A   1      34.400  33.722  28.819  1.00  0.00     0.060 A 
ATOM     37  C   UNL A   1      34.235  32.579  29.614  1.00  0.00     0.016 A 
ATOM     38  C   UNL A   1      35.675  34.165  28.465  1.00  0.00     0.016 A 
ATOM     39  C   UNL A   1      35.351  31.895  30.092  1.00  0.00     0.010 A 
ATOM     40  C   UNL A   1      36.792  33.486  28.957  1.00  0.00     0.010 A 
ATOM     41  C   UNL A   1      36.636  32.372  29.802  1.00  0.00    -0.014 A 
BRANCH  41  42
ATOM     42  C   UNL A   1      37.815  31.806  30.499  1.00  0.00     0.031 A 
ATOM     43  C   UNL A   1      38.630  30.749  29.809  1.00  0.00     0.074 A 
ATOM     44  C   UNL A   1      38.138  32.212  31.738  1.00  0.00     0.049 A 
ATOM     45  N   UNL A   1      39.623  30.034  30.271  1.00  0.00    -0.248 NA
ATOM     46  C   UNL A   1      38.268  30.452  28.414  1.00  0.00     0.031 C 
ATOM     47  C   UNL A   1      37.445  33.252  32.493  1.00  0.00     0.029 A 
ATOM     48  N   UNL A   1      39.121  31.770  32.588  1.00  0.00    -0.354 N 
ATOM     49  C   UNL A   1      39.990  29.187  29.234  1.00  0.00     0.074 A 
ATOM     50  C   UNL A   1      39.107  29.468  28.122  1.00  0.00     0.031 C 
ATOM     51  C   UNL A   1      38.002  33.346  33.712  1.00  0.00     0.029 A 
ATOM     52  C   UNL A   1      39.064  32.348  33.831  1.00  0.00     0.049 A 
ATOM     53  H   UNL A   1      39.799  31.104  32.332  1.00  0.00     0.167 HD
ATOM     54  C   UNL A   1      40.975  28.258  29.211  1.00  0.00     0.037 A 
ATOM     55  C   UNL A   1      39.764  32.076  34.949  1.00  0.00     0.037 A 
ATOM     56  C   UNL A   1      41.857  27.988  30.317  1.00  0.00     0.049 A 
ATOM     57  C   UNL A   1      40.819  31.005  34.921  1.00  0.00     0.074 A 
ATOM     58  C   UNL A   1      42.917  27.101  30.378  1.00  0.00     0.029 A 
ATOM     59  N   UNL A   1      41.768  28.595  31.560  1.00  0.00    -0.354 N 
ATOM     60  N   UNL A   1      41.187  30.234  33.926  1.00  0.00    -0.248 NA
ATOM     61  C   UNL A   1      41.558  30.764  36.170  1.00  0.00     0.031 C 
ATOM     62  C   UNL A   1      43.440  27.137  31.675  1.00  0.00     0.029 A 
ATOM     63  C   UNL A   1      42.735  28.080  32.406  1.00  0.00     0.049 A 
ATOM     64  H   UNL A   1      41.115  29.291  31.805  1.00  0.00     0.167 HD
ATOM     65  C   UNL A   1      42.211  29.435  34.418  1.00  0.00     0.074 A 
ATOM     66  C   UNL A   1      42.411  29.816  35.801  1.00  0.00     0.031 C 
ATOM     67  C   UNL A   1      42.924  28.475  33.780  1.00  0.00     0.037 A 
BRANCH  54  68
ATOM     68  C   UNL A   1      41.122  27.439  27.963  1.00  0.00     0.057 A 
ATOM     69  C   UNL A   1      40.474  26.208  27.801  1.00  0.00     0.134 A 
ATOM     70  C   UNL A   1      41.913  27.898  26.904  1.00  0.00     0.134 A 
ATOM     71  F   UNL A   1      39.712  25.704  28.784  1.00  0.00    -0.206 F 
ATOM     72  C   UNL A   1      40.633  25.448  26.639  1.00  0.00     0.040 A 
ATOM     73  C   UNL A   1      42.060  27.160  25.728  1.00  0.00     0.040 A 
ATOM     74  F   UNL A   1      42.557  29.071  26.992  1.00  0.00    -0.206 F 
ATOM     75  C   UNL A   1      41.424  25.927  25.597  1.00  0.00     0.006 A 
ENDBRANCH  54  68
BRANCH  55  76
ATOM     76  C   UNL A   1      39.457  32.815  36.199  1.00  0.00     0.057 A 
ATOM     77  C   UNL A   1      40.074  34.035  36.491  1.00  0.00     0.134 A 
ATOM     78  C   UNL A   1      38.519  32.327  37.117  1.00  0.00     0.134 A 
ATOM     79  F   UNL A   1      40.995  34.542  35.659  1.00  0.00    -0.206 F 
ATOM     80  C   UNL A   1      39.771  34.745  37.655  1.00  0.00     0.040 A 
ATOM     81  C   UNL A   1      38.191  33.036  38.273  1.00  0.00     0.040 A 
ATOM     82  F   UNL A   1      37.892  31.164  36.890  1.00  0.00    -0.206 F 
ATOM     83  C   UNL A   1      38.821  34.248  38.546  1.00  0.00     0.006 A 
ENDBRANCH  55  76
BRANCH  67  84
ATOM     84  C   UNL A   1      44.009  27.786  34.553  1.00  0.00     0.057 A 
ATOM     85  C   UNL A   1      45.292  28.334  34.670  1.00  0.00     0.134 A 
ATOM     86  C   UNL A   1      43.744  26.599  35.247  1.00  0.00     0.134 A 
ATOM     87  F   UNL A   1      45.612  29.462  34.019  1.00  0.00    -0.206 F 
ATOM     88  C   UNL A   1      46.276  27.720  35.448  1.00  0.00     0.040 A 
ATOM     89  C   UNL A   1      44.712  25.989  36.046  1.00  0.00     0.040 A 
ATOM     90  F   UNL A   1      42.531  26.029  35.182  1.00  0.00    -0.206 F 
ATOM     91  C   UNL A   1      45.983  26.550  36.146  1.00  0.00     0.006 A 
ENDBRANCH  67  84
ENDBRANCH  41  42
ENDBRANCH  34  36
ENDBRANCH  33  34
ENDBRANCH  32  33
ENDBRANCH  31  32
ENDBRANCH  30  31
ENDBRANCH   1  30
TORSDOF 18
ENDMDL
MODEL 3
REMARK VINA RESULT:     -10.9      3.816      7.781
REMARK SMILES Cc1cc(C)c(NC(=O)C[C@H](C(=O)OCCOCCOC(=O)c2ccc(-c3c4nc(c(-c5c(F)cccc5F)c5ccc([nH]5)c(-c5c(F)cccc5F)c5nc(c(-c6c(F)cccc6F)c6ccc3[nH]6)C=C5)C=C4)cc2)[NH+]2CC[NH+](C)CC2)c(C)c1
REMARK SMILES IDX 16 1 15 2 14 3 12 4 13 5 11 6 10 7 8 8 7 9 9 11 6 12 1 13
REMARK SMILES IDX 2 14 3 15 86 16 4 17 84 18 5 19 85 20 77 21 78 22 83 23
REMARK SMILES IDX 79 25 82 26 80 27 81 28 17 30 18 31 19 32 20 33 21 34 22 35
REMARK SMILES IDX 23 36 24 37 76 38 25 39 75 40 26 41 27 42 28 43 69 44 29 45
REMARK SMILES IDX 74 46 68 47 70 48 30 49 73 50 67 51 66 52 31 54 57 55 40 56
REMARK SMILES IDX 56 57 41 58 44 59 55 60 71 61 42 62 43 63 54 65 72 66 45 67
REMARK SMILES IDX 32 68 33 69 38 70 34 71 35 72 37 73 39 74 36 75 58 76 59 77
REMARK SMILES IDX 64 78 60 79 61 80 63 81 65 82 62 83 46 84 47 85 52 86 48 87
REMARK SMILES IDX 49 88 51 89 53 90 50 91
REMARK H PARENT 7 10 77 24 80 29 70 53 44 64
REMARK Flexibility Score: inf
ROOT
ATOM      1  C   UNL A   1      33.627  28.439  25.255  1.00  0.00     0.202 C 
ENDROOT
BRANCH   1   2
ATOM      2  C   UNL A   1      33.175  27.793  26.571  1.00  0.00     0.261 C 
BRANCH   2   3
ATOM      3  O   UNL A   1      33.099  26.358  26.521  1.00  0.00    -0.459 OA
BRANCH   3   4
ATOM      4  C   UNL A   1      31.846  25.857  26.267  1.00  0.00     0.365 C 
ATOM      5  O   UNL A   1      30.853  26.228  26.880  1.00  0.00    -0.245 OA
BRANCH   4   6
ATOM      6  C   UNL A   1      31.874  24.847  25.069  1.00  0.00     0.304 C 
BRANCH   6   7
ATOM      7  C   UNL A   1      30.665  23.890  25.236  1.00  0.00     0.177 C 
BRANCH   7   8
ATOM      8  C   UNL A   1      30.661  22.657  26.130  1.00  0.00     0.231 C 
ATOM      9  N   UNL A   1      31.672  21.755  26.256  1.00  0.00    -0.325 N 
ATOM     10  H   UNL A   1      31.455  20.969  26.808  1.00  0.00     0.169 HD
ATOM     11  O   UNL A   1      29.649  22.435  26.813  1.00  0.00    -0.274 OA
BRANCH   9  12
ATOM     12  C   UNL A   1      32.971  21.762  25.729  1.00  0.00     0.047 A 
ATOM     13  C   UNL A   1      36.637  22.969  23.871  1.00  0.00     0.044 C 
ATOM     14  C   UNL A   1      35.443  22.401  24.579  1.00  0.00    -0.050 A 
ATOM     15  C   UNL A   1      34.513  21.628  23.881  1.00  0.00     0.009 A 
ATOM     16  C   UNL A   1      35.204  22.684  25.923  1.00  0.00     0.009 A 
ATOM     17  C   UNL A   1      33.286  21.266  24.458  1.00  0.00    -0.027 A 
ATOM     18  C   UNL A   1      33.992  22.320  26.528  1.00  0.00    -0.027 A 
ATOM     19  C   UNL A   1      32.441  20.257  23.731  1.00  0.00     0.046 C 
ATOM     20  C   UNL A   1      33.815  22.576  28.002  1.00  0.00     0.046 C 
ENDBRANCH   9  12
ENDBRANCH   7   8
ENDBRANCH   6   7
BRANCH   6  21
ATOM     21  N   UNL A   1      32.083  25.552  23.782  1.00  0.00    -0.313 N 
ATOM     22  C   UNL A   1      30.976  25.504  22.812  1.00  0.00     0.325 C 
ATOM     23  C   UNL A   1      33.289  25.123  23.032  1.00  0.00     0.325 C 
ATOM     24  H   UNL A   1      32.177  26.505  24.135  1.00  0.00     0.349 HD
ATOM     25  C   UNL A   1      31.242  26.518  21.663  1.00  0.00     0.324 C 
ATOM     26  C   UNL A   1      33.624  26.178  21.954  1.00  0.00     0.324 C 
ATOM     27  N   UNL A   1      32.546  26.429  20.978  1.00  0.00    -0.328 N 
ATOM     28  C   UNL A   1      32.537  25.446  19.907  1.00  0.00     0.333 C 
ATOM     29  H   UNL A   1      32.728  27.330  20.534  1.00  0.00     0.348 HD
ENDBRANCH   6  21
ENDBRANCH   4   6
ENDBRANCH   3   4
ENDBRANCH   2   3
ENDBRANCH   1   2
BRANCH   1  30
ATOM     30  O   UNL A   1      33.083  29.702  24.896  1.00  0.00    -0.374 OA
BRANCH  30  31
ATOM     31  C   UNL A   1      31.764  30.024  25.327  1.00  0.00     0.202 C 
BRANCH  31  32
ATOM     32  C   UNL A   1      31.555  31.237  26.246  1.00  0.00     0.261 C 
BRANCH  32  33
ATOM     33  O   UNL A   1      32.380  31.236  27.425  1.00  0.00    -0.460 OA
BRANCH  33  34
ATOM     34  C   UNL A   1      33.215  32.299  27.532  1.00  0.00     0.338 C 
ATOM     35  O   UNL A   1      32.919  33.486  27.460  1.00  0.00    -0.246 OA
BRANCH  34  36
ATOM     36  C   UNL A   1      34.570  31.865  27.898  1.00  0.00     0.060 A 
ATOM     37  C   UNL A   1      34.784  30.505  28.163  1.00  0.00     0.016 A 
ATOM     38  C   UNL A   1      35.574  32.804  28.138  1.00  0.00     0.016 A 
ATOM     39  C   UNL A   1      35.995  30.084  28.709  1.00  0.00     0.010 A 
ATOM     40  C   UNL A   1      36.781  32.380  28.698  1.00  0.00     0.010 A 
ATOM     41  C   UNL A   1      36.983  31.026  29.020  1.00  0.00    -0.014 A 
BRANCH  41  42
ATOM     42  C   UNL A   1      38.165  30.629  29.820  1.00  0.00     0.031 A 
ATOM     43  C   UNL A   1      39.157  29.669  29.226  1.00  0.00     0.074 A 
ATOM     44  C   UNL A   1      38.338  31.098  31.068  1.00  0.00     0.049 A 
ATOM     45  N   UNL A   1      40.193  29.096  29.783  1.00  0.00    -0.248 NA
ATOM     46  C   UNL A   1      38.946  29.300  27.818  1.00  0.00     0.031 C 
ATOM     47  C   UNL A   1      37.463  32.057  31.737  1.00  0.00     0.029 A 
ATOM     48  N   UNL A   1      39.298  30.802  32.002  1.00  0.00    -0.354 N 
ATOM     49  C   UNL A   1      40.743  28.281  28.802  1.00  0.00     0.074 A 
ATOM     50  C   UNL A   1      39.921  28.426  27.620  1.00  0.00     0.031 C 
ATOM     51  C   UNL A   1      37.907  32.246  32.990  1.00  0.00     0.029 A 
ATOM     52  C   UNL A   1      39.073  31.393  33.219  1.00  0.00     0.049 A 
ATOM     53  H   UNL A   1      40.072  30.222  31.817  1.00  0.00     0.167 HD
ATOM     54  C   UNL A   1      41.835  27.484  28.882  1.00  0.00     0.037 A 
ATOM     55  C   UNL A   1      39.711  31.235  34.395  1.00  0.00     0.037 A 
ATOM     56  C   UNL A   1      42.654  27.351  30.058  1.00  0.00     0.049 A 
ATOM     57  C   UNL A   1      40.891  30.306  34.478  1.00  0.00     0.074 A 
ATOM     58  C   UNL A   1      43.808  26.607  30.225  1.00  0.00     0.029 A 
ATOM     59  N   UNL A   1      42.393  27.967  31.272  1.00  0.00    -0.354 N 
ATOM     60  N   UNL A   1      41.429  29.567  33.537  1.00  0.00    -0.248 NA
ATOM     61  C   UNL A   1      41.554  30.186  35.785  1.00  0.00     0.031 C 
ATOM     62  C   UNL A   1      44.219  26.735  31.556  1.00  0.00     0.029 A 
ATOM     63  C   UNL A   1      43.348  27.596  32.203  1.00  0.00     0.049 A 
ATOM     64  H   UNL A   1      41.641  28.579  31.446  1.00  0.00     0.167 HD
ATOM     65  C   UNL A   1      42.503  28.915  34.128  1.00  0.00     0.074 A 
ATOM     66  C   UNL A   1      42.544  29.347  35.510  1.00  0.00     0.031 C 
ATOM     67  C   UNL A   1      43.378  28.040  33.575  1.00  0.00     0.037 A 
BRANCH  54  68
ATOM     68  C   UNL A   1      42.179  26.665  27.673  1.00  0.00     0.057 A 
ATOM     69  C   UNL A   1      41.700  25.361  27.497  1.00  0.00     0.134 A 
ATOM     70  C   UNL A   1      42.993  27.197  26.665  1.00  0.00     0.134 A 
ATOM     71  F   UNL A   1      40.927  24.787  28.432  1.00  0.00    -0.206 F 
ATOM     72  C   UNL A   1      42.043  24.604  26.374  1.00  0.00     0.040 A 
ATOM     73  C   UNL A   1      43.322  26.459  25.527  1.00  0.00     0.040 A 
ATOM     74  F   UNL A   1      43.481  28.442  26.769  1.00  0.00    -0.206 F 
ATOM     75  C   UNL A   1      42.853  25.156  25.383  1.00  0.00     0.006 A 
ENDBRANCH  54  68
BRANCH  55  76
ATOM     76  C   UNL A   1      39.218  31.954  35.595  1.00  0.00     0.057 A 
ATOM     77  C   UNL A   1      39.645  33.253  35.890  1.00  0.00     0.134 A 
ATOM     78  C   UNL A   1      38.287  31.366  36.460  1.00  0.00     0.134 A 
ATOM     79  F   UNL A   1      40.550  33.860  35.109  1.00  0.00    -0.206 F 
ATOM     80  C   UNL A   1      39.166  33.942  37.006  1.00  0.00     0.040 A 
ATOM     81  C   UNL A   1      37.783  32.051  37.567  1.00  0.00     0.040 A 
ATOM     82  F   UNL A   1      37.837  30.124  36.227  1.00  0.00    -0.206 F 
ATOM     83  C   UNL A   1      38.226  33.343  37.843  1.00  0.00     0.006 A 
ENDBRANCH  55  76
BRANCH  67  84
ATOM     84  C   UNL A   1      44.477  27.511  34.447  1.00  0.00     0.057 A 
ATOM     85  C   UNL A   1      45.683  28.201  34.614  1.00  0.00     0.134 A 
ATOM     86  C   UNL A   1      44.294  26.333  35.185  1.00  0.00     0.134 A 
ATOM     87  F   UNL A   1      45.922  29.328  33.927  1.00  0.00    -0.206 F 
ATOM     88  C   UNL A   1      46.673  27.735  35.482  1.00  0.00     0.040 A 
ATOM     89  C   UNL A   1      45.267  25.870  36.072  1.00  0.00     0.040 A 
ATOM     90  F   UNL A   1      43.157  25.631  35.075  1.00  0.00    -0.206 F 
ATOM     91  C   UNL A   1      46.461  26.572  36.221  1.00  0.00     0.006 A 
ENDBRANCH  67  84
ENDBRANCH  41  42
ENDBRANCH  34  36
ENDBRANCH  33  34
ENDBRANCH  32  33
ENDBRANCH  31  32
ENDBRANCH  30  31
ENDBRANCH   1  30
TORSDOF 18
ENDMDL
