MODEL 1
REMARK VINA RESULT:     -11.2      0.000      0.000
REMARK SMILES O=C(OCCOCCOC(=O)[C@@H]1CC[C@@H](CNC(=O)c2ccc(O)nn2)O1)c1ccc(-c2c3nc(c(-c4c(F)cccc4F)c4ccc([nH]4)c(-c4c(F)cccc4F)c4nc(c(-c5c(F)cccc5F)c5ccc2[nH]5)C=C4)C=C3)cc1
REMARK SMILES IDX 7 1 6 2 5 3 4 4 3 5 2 6 1 7 28 8 29 9 81 10 30 11 80 12
REMARK SMILES IDX 31 13 32 14 33 15 74 16 34 17 79 18 73 19 75 20 35 21 78 22
REMARK SMILES IDX 72 23 71 24 36 26 62 27 45 28 61 29 46 30 49 31 60 32 76 33
REMARK SMILES IDX 47 34 48 35 59 37 77 38 50 39 37 40 38 41 43 42 39 43 40 44
REMARK SMILES IDX 42 45 44 46 41 47 63 48 64 49 69 50 65 51 66 52 68 53 70 54
REMARK SMILES IDX 67 55 51 56 52 57 57 58 53 59 54 60 56 61 58 62 55 63 8 64
REMARK SMILES IDX 9 65 10 66 11 67 12 68 13 69 27 70 14 71 15 72 16 73 17 74
REMARK SMILES IDX 18 75 19 77 20 78 21 79 26 80 22 81 25 82 23 83 24 84
REMARK H PARENT 75 25 49 36 17 76 24 85
REMARK Flexibility Score: inf
ROOT
ATOM      1  C   UNL A   1      32.937  30.566  27.316  1.00  0.00     0.202 C 
ENDROOT
BRANCH   1   2
ATOM      2  O   UNL A   1      31.701  30.881  26.670  1.00  0.00    -0.374 OA
BRANCH   2   3
ATOM      3  C   UNL A   1      31.424  32.271  26.535  1.00  0.00     0.202 C 
BRANCH   3   4
ATOM      4  C   UNL A   1      32.567  33.224  26.891  1.00  0.00     0.261 C 
BRANCH   4   5
ATOM      5  O   UNL A   1      32.153  34.213  27.844  1.00  0.00    -0.460 OA
BRANCH   5   6
ATOM      6  C   UNL A   1      32.904  34.883  28.748  1.00  0.00     0.338 C 
ATOM      7  O   UNL A   1      32.548  36.023  29.050  1.00  0.00    -0.246 OA
BRANCH   6   8
ATOM      8  C   UNL A   1      34.162  34.356  29.374  1.00  0.00     0.060 A 
ATOM      9  C   UNL A   1      35.445  34.418  28.827  1.00  0.00     0.016 A 
ATOM     10  C   UNL A   1      34.034  33.773  30.651  1.00  0.00     0.016 A 
ATOM     11  C   UNL A   1      36.559  33.958  29.509  1.00  0.00     0.010 A 
ATOM     12  C   UNL A   1      35.143  33.257  31.331  1.00  0.00     0.010 A 
ATOM     13  C   UNL A   1      36.403  33.339  30.741  1.00  0.00    -0.014 A 
BRANCH  13  14
ATOM     14  C   UNL A   1      37.574  32.621  31.254  1.00  0.00     0.031 A 
ATOM     15  C   UNL A   1      38.092  33.030  32.599  1.00  0.00     0.074 A 
ATOM     16  C   UNL A   1      38.017  31.528  30.617  1.00  0.00     0.049 A 
ATOM     17  N   UNL A   1      39.026  32.483  33.327  1.00  0.00    -0.248 NA
ATOM     18  C   UNL A   1      37.429  34.185  33.235  1.00  0.00     0.031 C 
ATOM     19  C   UNL A   1      37.458  30.984  29.378  1.00  0.00     0.029 A 
ATOM     20  N   UNL A   1      39.025  30.666  30.941  1.00  0.00    -0.354 N 
ATOM     21  C   UNL A   1      39.038  33.203  34.514  1.00  0.00     0.074 A 
ATOM     22  C   UNL A   1      38.030  34.232  34.413  1.00  0.00     0.031 C 
ATOM     23  C   UNL A   1      38.155  29.888  29.033  1.00  0.00     0.029 A 
ATOM     24  C   UNL A   1      39.219  29.677  30.010  1.00  0.00     0.049 A 
ATOM     25  H   UNL A   1      39.561  30.745  31.764  1.00  0.00     0.167 HD
ATOM     26  C   UNL A   1      39.837  33.021  35.588  1.00  0.00     0.037 A 
ATOM     27  C   UNL A   1      40.179  28.738  29.956  1.00  0.00     0.037 A 
ATOM     28  C   UNL A   1      40.887  32.043  35.628  1.00  0.00     0.049 A 
ATOM     29  C   UNL A   1      41.182  28.688  31.078  1.00  0.00     0.074 A 
ATOM     30  C   UNL A   1      41.829  31.823  36.613  1.00  0.00     0.029 A 
ATOM     31  N   UNL A   1      41.144  31.136  34.609  1.00  0.00    -0.354 N 
ATOM     32  N   UNL A   1      41.217  29.388  32.189  1.00  0.00    -0.248 NA
ATOM     33  C   UNL A   1      42.284  27.730  30.936  1.00  0.00     0.031 C 
ATOM     34  C   UNL A   1      42.694  30.819  36.163  1.00  0.00     0.029 A 
ATOM     35  C   UNL A   1      42.257  30.379  34.922  1.00  0.00     0.049 A 
ATOM     36  H   UNL A   1      40.612  31.046  33.785  1.00  0.00     0.167 HD
ATOM     37  C   UNL A   1      42.329  28.940  32.888  1.00  0.00     0.074 A 
ATOM     38  C   UNL A   1      42.930  27.895  32.082  1.00  0.00     0.031 C 
ATOM     39  C   UNL A   1      42.818  29.350  34.084  1.00  0.00     0.037 A 
BRANCH  26  40
ATOM     40  C   UNL A   1      39.648  33.955  36.743  1.00  0.00     0.057 A 
ATOM     41  C   UNL A   1      40.274  35.207  36.752  1.00  0.00     0.134 A 
ATOM     42  C   UNL A   1      38.830  33.631  37.832  1.00  0.00     0.134 A 
ATOM     43  F   UNL A   1      41.055  35.583  35.728  1.00  0.00    -0.206 F 
ATOM     44  C   UNL A   1      40.099  36.102  37.807  1.00  0.00     0.040 A 
ATOM     45  C   UNL A   1      38.633  34.525  38.887  1.00  0.00     0.040 A 
ATOM     46  F   UNL A   1      38.173  32.462  37.866  1.00  0.00    -0.206 F 
ATOM     47  C   UNL A   1      39.274  35.764  38.877  1.00  0.00     0.006 A 
ENDBRANCH  26  40
BRANCH  27  48
ATOM     48  C   UNL A   1      40.291  27.833  28.784  1.00  0.00     0.057 A 
ATOM     49  C   UNL A   1      39.618  26.605  28.755  1.00  0.00     0.134 A 
ATOM     50  C   UNL A   1      41.013  28.194  27.642  1.00  0.00     0.134 A 
ATOM     51  F   UNL A   1      38.902  26.198  29.815  1.00  0.00    -0.206 F 
ATOM     52  C   UNL A   1      39.656  25.772  27.636  1.00  0.00     0.040 A 
ATOM     53  C   UNL A   1      41.039  27.384  26.504  1.00  0.00     0.040 A 
ATOM     54  F   UNL A   1      41.662  29.368  27.596  1.00  0.00    -0.206 F 
ATOM     55  C   UNL A   1      40.359  26.167  26.501  1.00  0.00     0.006 A 
ENDBRANCH  27  48
BRANCH  39  56
ATOM     56  C   UNL A   1      44.041  28.646  34.587  1.00  0.00     0.057 A 
ATOM     57  C   UNL A   1      45.317  29.133  34.281  1.00  0.00     0.134 A 
ATOM     58  C   UNL A   1      43.954  27.473  35.347  1.00  0.00     0.134 A 
ATOM     59  F   UNL A   1      45.464  30.247  33.547  1.00  0.00    -0.206 F 
ATOM     60  C   UNL A   1      46.468  28.476  34.712  1.00  0.00     0.040 A 
ATOM     61  C   UNL A   1      45.099  26.823  35.808  1.00  0.00     0.040 A 
ATOM     62  F   UNL A   1      42.759  26.966  35.683  1.00  0.00    -0.206 F 
ATOM     63  C   UNL A   1      46.359  27.321  35.485  1.00  0.00     0.006 A 
ENDBRANCH  39  56
ENDBRANCH  13  14
ENDBRANCH   6   8
ENDBRANCH   5   6
ENDBRANCH   4   5
ENDBRANCH   3   4
ENDBRANCH   2   3
ENDBRANCH   1   2
BRANCH   1  64
ATOM     64  C   UNL A   1      33.683  29.422  26.621  1.00  0.00     0.261 C 
BRANCH  64  65
ATOM     65  O   UNL A   1      33.436  28.175  27.303  1.00  0.00    -0.461 OA
BRANCH  65  66
ATOM     66  C   UNL A   1      32.190  27.649  27.127  1.00  0.00     0.335 C 
ATOM     67  O   UNL A   1      31.265  27.782  27.919  1.00  0.00    -0.249 OA
BRANCH  66  68
ATOM     68  C   UNL A   1      32.044  26.916  25.783  1.00  0.00     0.228 C 
ATOM     69  C   UNL A   1      33.299  26.399  25.087  1.00  0.00     0.047 C 
ATOM     70  O   UNL A   1      31.404  27.801  24.837  1.00  0.00    -0.361 OA
ATOM     71  C   UNL A   1      32.956  26.553  23.614  1.00  0.00     0.037 C 
ATOM     72  C   UNL A   1      32.190  27.856  23.630  1.00  0.00     0.138 C 
BRANCH  72  73
ATOM     73  C   UNL A   1      31.278  28.163  22.439  1.00  0.00     0.148 C 
BRANCH  73  74
ATOM     74  N   UNL A   1      29.932  27.681  22.753  1.00  0.00    -0.348 N 
ATOM     75  C   UNL A   1      28.744  28.339  22.941  1.00  0.00     0.271 C 
ATOM     76  H   UNL A   1      29.867  26.704  22.849  1.00  0.00     0.163 HD
ATOM     77  O   UNL A   1      27.819  27.750  23.500  1.00  0.00    -0.267 OA
BRANCH  75  78
ATOM     78  C   UNL A   1      28.545  29.746  22.520  1.00  0.00     0.151 A 
ATOM     79  C   UNL A   1      28.693  30.763  23.456  1.00  0.00     0.042 A 
ATOM     80  N   UNL A   1      28.148  29.988  21.247  1.00  0.00    -0.142 NA
ATOM     81  C   UNL A   1      28.431  32.068  23.061  1.00  0.00     0.072 A 
ATOM     82  N   UNL A   1      27.880  31.271  20.863  1.00  0.00    -0.112 NA
ATOM     83  C   UNL A   1      28.019  32.264  21.762  1.00  0.00     0.230 A 
BRANCH  83  84
ATOM     84  O   UNL A   1      27.713  33.510  21.321  1.00  0.00    -0.492 OA
ATOM     85  H   UNL A   1      28.288  34.227  21.504  1.00  0.00     0.295 HD
ENDBRANCH  83  84
ENDBRANCH  75  78
ENDBRANCH  73  74
ENDBRANCH  72  73
ENDBRANCH  66  68
ENDBRANCH  65  66
ENDBRANCH  64  65
ENDBRANCH   1  64
TORSDOF 18
ENDMDL
MODEL 2
REMARK VINA RESULT:     -11.2      4.148      6.399
REMARK SMILES O=C(OCCOCCOC(=O)[C@@H]1CC[C@@H](CNC(=O)c2ccc(O)nn2)O1)c1ccc(-c2c3nc(c(-c4c(F)cccc4F)c4ccc([nH]4)c(-c4c(F)cccc4F)c4nc(c(-c5c(F)cccc5F)c5ccc2[nH]5)C=C4)C=C3)cc1
REMARK SMILES IDX 7 1 6 2 5 3 4 4 3 5 2 6 1 7 28 8 29 9 81 10 30 11 80 12
REMARK SMILES IDX 31 13 32 14 33 15 74 16 34 17 79 18 73 19 75 20 35 21 78 22
REMARK SMILES IDX 72 23 71 24 36 26 62 27 45 28 61 29 46 30 49 31 60 32 76 33
REMARK SMILES IDX 47 34 48 35 59 37 77 38 50 39 37 40 38 41 43 42 39 43 40 44
REMARK SMILES IDX 42 45 44 46 41 47 63 48 64 49 69 50 65 51 66 52 68 53 70 54
REMARK SMILES IDX 67 55 51 56 52 57 57 58 53 59 54 60 56 61 58 62 55 63 8 64
REMARK SMILES IDX 9 65 10 66 11 67 12 68 13 69 27 70 14 71 15 72 16 73 17 74
REMARK SMILES IDX 18 75 19 77 20 78 21 79 26 80 22 81 25 82 23 83 24 84
REMARK H PARENT 75 25 49 36 17 76 24 85
REMARK Flexibility Score: inf
ROOT
ATOM      1  C   UNL A   1      34.033  34.053  28.686  1.00  0.00     0.202 C 
ENDROOT
BRANCH   1   2
ATOM      2  O   UNL A   1      33.108  34.419  29.712  1.00  0.00    -0.374 OA
BRANCH   2   3
ATOM      3  C   UNL A   1      33.696  34.903  30.915  1.00  0.00     0.202 C 
BRANCH   3   4
ATOM      4  C   UNL A   1      35.070  34.331  31.271  1.00  0.00     0.261 C 
BRANCH   4   5
ATOM      5  O   UNL A   1      34.957  33.075  31.954  1.00  0.00    -0.460 OA
BRANCH   5   6
ATOM      6  C   UNL A   1      35.923  32.364  32.581  1.00  0.00     0.338 C 
ATOM      7  O   UNL A   1      35.902  32.339  33.812  1.00  0.00    -0.246 OA
BRANCH   6   8
ATOM      8  C   UNL A   1      37.040  31.640  31.888  1.00  0.00     0.060 A 
ATOM      9  C   UNL A   1      38.157  31.068  32.499  1.00  0.00     0.016 A 
ATOM     10  C   UNL A   1      36.929  31.503  30.489  1.00  0.00     0.016 A 
ATOM     11  C   UNL A   1      39.109  30.364  31.780  1.00  0.00     0.010 A 
ATOM     12  C   UNL A   1      37.910  30.839  29.743  1.00  0.00     0.010 A 
ATOM     13  C   UNL A   1      39.009  30.287  30.399  1.00  0.00    -0.014 A 
BRANCH  13  14
ATOM     14  C   UNL A   1      40.194  29.791  29.693  1.00  0.00     0.031 A 
ATOM     15  C   UNL A   1      41.355  30.729  29.561  1.00  0.00     0.074 A 
ATOM     16  C   UNL A   1      40.279  28.494  29.365  1.00  0.00     0.049 A 
ATOM     17  N   UNL A   1      42.552  30.503  29.097  1.00  0.00    -0.248 NA
ATOM     18  C   UNL A   1      41.154  32.099  30.073  1.00  0.00     0.031 C 
ATOM     19  C   UNL A   1      39.241  27.489  29.604  1.00  0.00     0.029 A 
ATOM     20  N   UNL A   1      41.298  27.796  28.782  1.00  0.00    -0.354 N 
ATOM     21  C   UNL A   1      43.253  31.685  29.291  1.00  0.00     0.074 A 
ATOM     22  C   UNL A   1      42.353  32.632  29.905  1.00  0.00     0.031 C 
ATOM     23  C   UNL A   1      39.673  26.303  29.143  1.00  0.00     0.029 A 
ATOM     24  C   UNL A   1      40.998  26.477  28.555  1.00  0.00     0.049 A 
ATOM     25  H   UNL A   1      42.165  28.201  28.547  1.00  0.00     0.167 HD
ATOM     26  C   UNL A   1      44.538  31.952  28.968  1.00  0.00     0.037 A 
ATOM     27  C   UNL A   1      41.715  25.541  27.910  1.00  0.00     0.037 A 
ATOM     28  C   UNL A   1      45.385  31.018  28.283  1.00  0.00     0.049 A 
ATOM     29  C   UNL A   1      43.072  25.930  27.384  1.00  0.00     0.074 A 
ATOM     30  C   UNL A   1      46.670  31.198  27.811  1.00  0.00     0.029 A 
ATOM     31  N   UNL A   1      45.006  29.725  27.949  1.00  0.00    -0.354 N 
ATOM     32  N   UNL A   1      43.727  27.058  27.538  1.00  0.00    -0.248 NA
ATOM     33  C   UNL A   1      43.783  24.925  26.586  1.00  0.00     0.031 C 
ATOM     34  C   UNL A   1      47.048  30.030  27.138  1.00  0.00     0.029 A 
ATOM     35  C   UNL A   1      46.018  29.106  27.240  1.00  0.00     0.049 A 
ATOM     36  H   UNL A   1      44.144  29.310  28.182  1.00  0.00     0.167 HD
ATOM     37  C   UNL A   1      44.936  26.890  26.876  1.00  0.00     0.074 A 
ATOM     38  C   UNL A   1      44.928  25.544  26.336  1.00  0.00     0.031 C 
ATOM     39  C   UNL A   1      45.962  27.763  26.721  1.00  0.00     0.037 A 
BRANCH  26  40
ATOM     40  C   UNL A   1      45.046  33.326  29.278  1.00  0.00     0.057 A 
ATOM     41  C   UNL A   1      45.719  33.578  30.479  1.00  0.00     0.134 A 
ATOM     42  C   UNL A   1      44.893  34.392  28.383  1.00  0.00     0.134 A 
ATOM     43  F   UNL A   1      45.913  32.593  31.369  1.00  0.00    -0.206 F 
ATOM     44  C   UNL A   1      46.217  34.845  30.783  1.00  0.00     0.040 A 
ATOM     45  C   UNL A   1      45.402  35.661  28.668  1.00  0.00     0.040 A 
ATOM     46  F   UNL A   1      44.290  34.207  27.199  1.00  0.00    -0.206 F 
ATOM     47  C   UNL A   1      46.062  35.890  29.875  1.00  0.00     0.006 A 
ENDBRANCH  26  40
BRANCH  27  48
ATOM     48  C   UNL A   1      41.150  24.192  27.656  1.00  0.00     0.057 A 
ATOM     49  C   UNL A   1      40.155  23.998  26.689  1.00  0.00     0.134 A 
ATOM     50  C   UNL A   1      41.630  23.057  28.318  1.00  0.00     0.134 A 
ATOM     51  F   UNL A   1      39.653  25.042  26.013  1.00  0.00    -0.206 F 
ATOM     52  C   UNL A   1      39.661  22.728  26.388  1.00  0.00     0.040 A 
ATOM     53  C   UNL A   1      41.164  21.776  28.009  1.00  0.00     0.040 A 
ATOM     54  F   UNL A   1      42.599  23.171  29.239  1.00  0.00    -0.206 F 
ATOM     55  C   UNL A   1      40.175  21.611  27.041  1.00  0.00     0.006 A 
ENDBRANCH  27  48
BRANCH  39  56
ATOM     56  C   UNL A   1      47.154  27.269  25.961  1.00  0.00     0.057 A 
ATOM     57  C   UNL A   1      47.179  27.327  24.562  1.00  0.00     0.134 A 
ATOM     58  C   UNL A   1      48.263  26.712  26.611  1.00  0.00     0.134 A 
ATOM     59  F   UNL A   1      46.142  27.840  23.883  1.00  0.00    -0.206 F 
ATOM     60  C   UNL A   1      48.265  26.845  23.834  1.00  0.00     0.040 A 
ATOM     61  C   UNL A   1      49.367  26.253  25.895  1.00  0.00     0.040 A 
ATOM     62  F   UNL A   1      48.302  26.643  27.950  1.00  0.00    -0.206 F 
ATOM     63  C   UNL A   1      49.367  26.313  24.503  1.00  0.00     0.006 A 
ENDBRANCH  39  56
ENDBRANCH  13  14
ENDBRANCH   6   8
ENDBRANCH   5   6
ENDBRANCH   4   5
ENDBRANCH   3   4
ENDBRANCH   2   3
ENDBRANCH   1   2
BRANCH   1  64
ATOM     64  C   UNL A   1      34.211  32.534  28.576  1.00  0.00     0.261 C 
BRANCH  64  65
ATOM     65  O   UNL A   1      33.270  31.987  27.630  1.00  0.00    -0.461 OA
BRANCH  65  66
ATOM     66  C   UNL A   1      33.525  30.710  27.224  1.00  0.00     0.335 C 
ATOM     67  O   UNL A   1      34.600  30.139  27.370  1.00  0.00    -0.249 OA
BRANCH  66  68
ATOM     68  C   UNL A   1      32.290  30.027  26.615  1.00  0.00     0.228 C 
ATOM     69  C   UNL A   1      31.978  28.585  27.008  1.00  0.00     0.047 C 
ATOM     70  O   UNL A   1      32.420  30.024  25.176  1.00  0.00    -0.361 OA
ATOM     71  C   UNL A   1      31.369  28.014  25.738  1.00  0.00     0.037 C 
ATOM     72  C   UNL A   1      32.218  28.684  24.682  1.00  0.00     0.138 C 
BRANCH  72  73
ATOM     73  C   UNL A   1      31.667  28.744  23.254  1.00  0.00     0.148 C 
BRANCH  73  74
ATOM     74  N   UNL A   1      30.390  28.030  23.223  1.00  0.00    -0.348 N 
ATOM     75  C   UNL A   1      29.098  28.471  23.096  1.00  0.00     0.271 C 
ATOM     76  H   UNL A   1      30.473  27.054  23.310  1.00  0.00     0.163 HD
ATOM     77  O   UNL A   1      28.178  27.715  23.408  1.00  0.00    -0.267 OA
BRANCH  75  78
ATOM     78  C   UNL A   1      28.772  29.837  22.622  1.00  0.00     0.151 A 
ATOM     79  C   UNL A   1      28.364  30.796  23.542  1.00  0.00     0.042 A 
ATOM     80  N   UNL A   1      28.809  30.083  21.290  1.00  0.00    -0.142 NA
ATOM     81  C   UNL A   1      27.992  32.048  23.070  1.00  0.00     0.072 A 
ATOM     82  N   UNL A   1      28.433  31.312  20.827  1.00  0.00    -0.112 NA
ATOM     83  C   UNL A   1      28.035  32.248  21.709  1.00  0.00     0.230 A 
BRANCH  83  84
ATOM     84  O   UNL A   1      27.652  33.437  21.179  1.00  0.00    -0.492 OA
ATOM     85  H   UNL A   1      26.764  33.723  21.262  1.00  0.00     0.295 HD
ENDBRANCH  83  84
ENDBRANCH  75  78
ENDBRANCH  73  74
ENDBRANCH  72  73
ENDBRANCH  66  68
ENDBRANCH  65  66
ENDBRANCH  64  65
ENDBRANCH   1  64
TORSDOF 18
ENDMDL
MODEL 3
REMARK VINA RESULT:     -10.9      2.372      4.284
REMARK SMILES O=C(OCCOCCOC(=O)[C@@H]1CC[C@@H](CNC(=O)c2ccc(O)nn2)O1)c1ccc(-c2c3nc(c(-c4c(F)cccc4F)c4ccc([nH]4)c(-c4c(F)cccc4F)c4nc(c(-c5c(F)cccc5F)c5ccc2[nH]5)C=C4)C=C3)cc1
REMARK SMILES IDX 7 1 6 2 5 3 4 4 3 5 2 6 1 7 28 8 29 9 81 10 30 11 80 12
REMARK SMILES IDX 31 13 32 14 33 15 74 16 34 17 79 18 73 19 75 20 35 21 78 22
REMARK SMILES IDX 72 23 71 24 36 26 62 27 45 28 61 29 46 30 49 31 60 32 76 33
REMARK SMILES IDX 47 34 48 35 59 37 77 38 50 39 37 40 38 41 43 42 39 43 40 44
REMARK SMILES IDX 42 45 44 46 41 47 63 48 64 49 69 50 65 51 66 52 68 53 70 54
REMARK SMILES IDX 67 55 51 56 52 57 57 58 53 59 54 60 56 61 58 62 55 63 8 64
REMARK SMILES IDX 9 65 10 66 11 67 12 68 13 69 27 70 14 71 15 72 16 73 17 74
REMARK SMILES IDX 18 75 19 77 20 78 21 79 26 80 22 81 25 82 23 83 24 84
REMARK H PARENT 75 25 49 36 17 76 24 85
REMARK Flexibility Score: inf
ROOT
ATOM      1  C   UNL A   1      32.279  29.653  26.204  1.00  0.00     0.202 C 
ENDROOT
BRANCH   1   2
ATOM      2  O   UNL A   1      32.484  30.825  26.996  1.00  0.00    -0.374 OA
BRANCH   2   3
ATOM      3  C   UNL A   1      31.475  31.823  26.876  1.00  0.00     0.202 C 
BRANCH   3   4
ATOM      4  C   UNL A   1      31.967  33.261  26.694  1.00  0.00     0.261 C 
BRANCH   4   5
ATOM      5  O   UNL A   1      32.174  33.912  27.955  1.00  0.00    -0.460 OA
BRANCH   5   6
ATOM      6  C   UNL A   1      33.322  34.404  28.474  1.00  0.00     0.338 C 
ATOM      7  O   UNL A   1      33.420  35.627  28.580  1.00  0.00    -0.246 OA
BRANCH   6   8
ATOM      8  C   UNL A   1      34.500  33.571  28.889  1.00  0.00     0.060 A 
ATOM      9  C   UNL A   1      34.449  32.311  29.489  1.00  0.00     0.016 A 
ATOM     10  C   UNL A   1      35.776  34.104  28.616  1.00  0.00     0.016 A 
ATOM     11  C   UNL A   1      35.594  31.589  29.780  1.00  0.00     0.010 A 
ATOM     12  C   UNL A   1      36.943  33.408  28.952  1.00  0.00     0.010 A 
ATOM     13  C   UNL A   1      36.840  32.155  29.553  1.00  0.00    -0.014 A 
BRANCH  13  14
ATOM     14  C   UNL A   1      37.983  31.462  30.156  1.00  0.00     0.031 A 
ATOM     15  C   UNL A   1      38.268  31.741  31.599  1.00  0.00     0.074 A 
ATOM     16  C   UNL A   1      38.602  30.485  29.478  1.00  0.00     0.049 A 
ATOM     17  N   UNL A   1      39.133  31.176  32.396  1.00  0.00    -0.248 NA
ATOM     18  C   UNL A   1      37.427  32.765  32.250  1.00  0.00     0.031 C 
ATOM     19  C   UNL A   1      38.272  30.056  28.117  1.00  0.00     0.029 A 
ATOM     20  N   UNL A   1      39.623  29.660  29.855  1.00  0.00    -0.354 N 
ATOM     21  C   UNL A   1      38.916  31.748  33.642  1.00  0.00     0.074 A 
ATOM     22  C   UNL A   1      37.849  32.711  33.502  1.00  0.00     0.031 C 
ATOM     23  C   UNL A   1      39.101  29.058  27.765  1.00  0.00     0.029 A 
ATOM     24  C   UNL A   1      40.029  28.805  28.862  1.00  0.00     0.049 A 
ATOM     25  H   UNL A   1      40.028  29.677  30.752  1.00  0.00     0.167 HD
ATOM     26  C   UNL A   1      39.568  31.494  34.798  1.00  0.00     0.037 A 
ATOM     27  C   UNL A   1      41.063  27.946  28.851  1.00  0.00     0.037 A 
ATOM     28  C   UNL A   1      40.680  30.592  34.890  1.00  0.00     0.049 A 
ATOM     29  C   UNL A   1      41.898  27.831  30.100  1.00  0.00     0.074 A 
ATOM     30  C   UNL A   1      41.488  30.319  35.975  1.00  0.00     0.029 A 
ATOM     31  N   UNL A   1      41.154  29.832  33.828  1.00  0.00    -0.354 N 
ATOM     32  N   UNL A   1      41.716  28.394  31.272  1.00  0.00    -0.248 NA
ATOM     33  C   UNL A   1      43.086  26.973  30.022  1.00  0.00     0.031 C 
ATOM     34  C   UNL A   1      42.490  29.437  35.554  1.00  0.00     0.029 A 
ATOM     35  C   UNL A   1      42.271  29.119  34.221  1.00  0.00     0.049 A 
ATOM     36  H   UNL A   1      40.754  29.805  32.929  1.00  0.00     0.167 HD
ATOM     37  C   UNL A   1      42.752  27.942  32.078  1.00  0.00     0.074 A 
ATOM     38  C   UNL A   1      43.547  27.043  31.263  1.00  0.00     0.031 C 
ATOM     39  C   UNL A   1      43.031  28.238  33.371  1.00  0.00     0.037 A 
BRANCH  26  40
ATOM     40  C   UNL A   1      39.139  32.269  36.005  1.00  0.00     0.057 A 
ATOM     41  C   UNL A   1      39.602  33.573  36.211  1.00  0.00     0.134 A 
ATOM     42  C   UNL A   1      38.251  31.738  36.950  1.00  0.00     0.134 A 
ATOM     43  F   UNL A   1      40.439  34.144  35.332  1.00  0.00    -0.206 F 
ATOM     44  C   UNL A   1      39.203  34.322  37.318  1.00  0.00     0.040 A 
ATOM     45  C   UNL A   1      37.831  32.483  38.053  1.00  0.00     0.040 A 
ATOM     46  F   UNL A   1      37.743  30.507  36.790  1.00  0.00    -0.206 F 
ATOM     47  C   UNL A   1      38.312  33.779  38.242  1.00  0.00     0.006 A 
ENDBRANCH  26  40
BRANCH  27  48
ATOM     48  C   UNL A   1      41.416  27.197  27.619  1.00  0.00     0.057 A 
ATOM     49  C   UNL A   1      42.224  27.776  26.631  1.00  0.00     0.134 A 
ATOM     50  C   UNL A   1      41.017  25.871  27.424  1.00  0.00     0.134 A 
ATOM     51  F   UNL A   1      42.647  29.043  26.756  1.00  0.00    -0.206 F 
ATOM     52  C   UNL A   1      42.623  27.065  25.498  1.00  0.00     0.040 A 
ATOM     53  C   UNL A   1      41.430  25.138  26.308  1.00  0.00     0.040 A 
ATOM     54  F   UNL A   1      40.262  25.250  28.344  1.00  0.00    -0.206 F 
ATOM     55  C   UNL A   1      42.235  25.736  25.341  1.00  0.00     0.006 A 
ENDBRANCH  27  48
BRANCH  39  56
ATOM     56  C   UNL A   1      44.225  27.564  33.973  1.00  0.00     0.057 A 
ATOM     57  C   UNL A   1      45.484  28.174  33.925  1.00  0.00     0.134 A 
ATOM     58  C   UNL A   1      44.133  26.301  34.571  1.00  0.00     0.134 A 
ATOM     59  F   UNL A   1      45.637  29.379  33.356  1.00  0.00    -0.206 F 
ATOM     60  C   UNL A   1      46.614  27.549  34.451  1.00  0.00     0.040 A 
ATOM     61  C   UNL A   1      45.251  25.679  35.126  1.00  0.00     0.040 A 
ATOM     62  F   UNL A   1      42.950  25.673  34.658  1.00  0.00    -0.206 F 
ATOM     63  C   UNL A   1      46.496  26.301  35.061  1.00  0.00     0.006 A 
ENDBRANCH  39  56
ENDBRANCH  13  14
ENDBRANCH   6   8
ENDBRANCH   5   6
ENDBRANCH   4   5
ENDBRANCH   3   4
ENDBRANCH   2   3
ENDBRANCH   1   2
BRANCH   1  64
ATOM     64  C   UNL A   1      31.260  29.879  25.081  1.00  0.00     0.261 C 
BRANCH  64  65
ATOM     65  O   UNL A   1      31.660  29.170  23.891  1.00  0.00    -0.461 OA
BRANCH  65  66
ATOM     66  C   UNL A   1      30.679  28.985  22.962  1.00  0.00     0.335 C 
ATOM     67  O   UNL A   1      30.095  29.893  22.383  1.00  0.00    -0.249 OA
BRANCH  66  68
ATOM     68  C   UNL A   1      30.422  27.499  22.663  1.00  0.00     0.228 C 
ATOM     69  C   UNL A   1      29.970  26.588  23.801  1.00  0.00     0.047 C 
ATOM     70  O   UNL A   1      31.635  26.911  22.144  1.00  0.00    -0.361 OA
ATOM     71  C   UNL A   1      30.615  25.258  23.444  1.00  0.00     0.037 C 
ATOM     72  C   UNL A   1      31.946  25.719  22.894  1.00  0.00     0.138 C 
BRANCH  72  73
ATOM     73  C   UNL A   1      32.729  24.746  22.008  1.00  0.00     0.148 C 
BRANCH  73  74
ATOM     74  N   UNL A   1      32.395  23.381  22.416  1.00  0.00    -0.348 N 
ATOM     75  C   UNL A   1      33.068  22.464  23.180  1.00  0.00     0.271 C 
ATOM     76  H   UNL A   1      31.527  23.062  22.081  1.00  0.00     0.163 HD
ATOM     77  O   UNL A   1      32.731  21.281  23.126  1.00  0.00    -0.267 OA
BRANCH  75  78
ATOM     78  C   UNL A   1      34.209  22.843  24.048  1.00  0.00     0.151 A 
ATOM     79  C   UNL A   1      35.497  22.825  23.523  1.00  0.00     0.042 A 
ATOM     80  N   UNL A   1      33.963  23.119  25.351  1.00  0.00    -0.142 NA
ATOM     81  C   UNL A   1      36.559  23.111  24.371  1.00  0.00     0.072 A 
ATOM     82  N   UNL A   1      35.010  23.391  26.185  1.00  0.00    -0.112 NA
ATOM     83  C   UNL A   1      36.262  23.376  25.688  1.00  0.00     0.230 A 
BRANCH  83  84
ATOM     84  O   UNL A   1      37.255  23.629  26.578  1.00  0.00    -0.492 OA
ATOM     85  H   UNL A   1      37.139  24.286  27.235  1.00  0.00     0.295 HD
ENDBRANCH  83  84
ENDBRANCH  75  78
ENDBRANCH  73  74
ENDBRANCH  72  73
ENDBRANCH  66  68
ENDBRANCH  65  66
ENDBRANCH  64  65
ENDBRANCH   1  64
TORSDOF 18
ENDMDL
