MODEL 1
REMARK VINA RESULT:     -11.0      0.000      0.000
REMARK SMILES CC(C)[NH2+][C@]1(C(=O)OCCOCCOC(=O)c2ccc(-c3c4nc(c(-c5c(F)cccc5F)c5ccc([nH]5)c(-c5c(F)cccc5F)c5nc(c(-c6c(F)cccc6F)c6ccc3[nH]6)C=C5)C=C4)cc2)CCC[C@H]([N@H+](C)C2CCCCC2)C1
REMARK SMILES IDX 11 1 10 2 9 3 8 4 6 5 7 6 5 7 71 8 83 9 72 10 74 11 73 12
REMARK SMILES IDX 4 13 2 16 1 17 3 18 75 19 76 20 77 22 78 23 82 24 79 25
REMARK SMILES IDX 81 26 80 27 12 28 13 29 14 30 15 31 16 32 17 33 18 34 70 35
REMARK SMILES IDX 19 36 69 37 20 38 21 39 22 40 63 41 23 42 68 43 62 44 64 45
REMARK SMILES IDX 24 46 67 47 61 48 60 49 25 51 51 52 34 53 50 54 35 55 38 56
REMARK SMILES IDX 49 57 65 58 36 59 37 60 48 62 66 63 39 64 26 65 27 66 32 67
REMARK SMILES IDX 28 68 29 69 31 70 33 71 30 72 52 73 53 74 58 75 54 76 55 77
REMARK SMILES IDX 57 78 59 79 56 80 40 81 41 82 46 83 42 84 43 85 45 86 47 87
REMARK SMILES IDX 44 88
REMARK H PARENT 4 14 4 15 75 21 64 50 38 61
REMARK Flexibility Score: inf
ROOT
ATOM      1  O   UNL A   1      31.528  28.295  25.529  1.00  0.00    -0.374 OA
ENDROOT
BRANCH   1   2
ATOM      2  C   UNL A   1      31.402  27.251  24.561  1.00  0.00     0.202 C 
BRANCH   2   3
ATOM      3  C   UNL A   1      30.087  26.463  24.571  1.00  0.00     0.261 C 
BRANCH   3   4
ATOM      4  O   UNL A   1      30.318  25.045  24.537  1.00  0.00    -0.459 OA
BRANCH   4   5
ATOM      5  C   UNL A   1      30.766  24.440  25.677  1.00  0.00     0.368 C 
ATOM      6  O   UNL A   1      30.308  24.647  26.795  1.00  0.00    -0.245 OA
BRANCH   5   7
ATOM      7  C   UNL A   1      32.045  23.544  25.413  1.00  0.00     0.200 C 
ATOM      8  C   UNL A   1      33.094  23.910  26.482  1.00  0.00     0.081 C 
ATOM      9  C   UNL A   1      31.655  22.077  25.754  1.00  0.00     0.146 C 
ATOM     10  C   UNL A   1      34.293  22.960  26.549  1.00  0.00     0.013 C 
ATOM     11  C   UNL A   1      32.738  20.978  25.721  1.00  0.00     0.190 C 
ATOM     12  C   UNL A   1      33.942  21.464  26.581  1.00  0.00     0.065 C 
BRANCH   7  13
ATOM     13  N   UNL A   1      32.373  23.819  23.981  1.00  0.00    -0.330 N 
ATOM     14  H   UNL A   1      32.314  22.922  23.498  1.00  0.00     0.347 HD
ATOM     15  H   UNL A   1      31.706  24.554  23.747  1.00  0.00     0.347 HD
BRANCH  13  16
ATOM     16  C   UNL A   1      33.646  24.417  23.578  1.00  0.00     0.176 C 
ATOM     17  C   UNL A   1      34.583  23.296  23.107  1.00  0.00     0.075 C 
ATOM     18  C   UNL A   1      33.523  25.395  22.405  1.00  0.00     0.075 C 
ENDBRANCH  13  16
ENDBRANCH   7  13
BRANCH  11  19
ATOM     19  N   UNL A   1      32.930  20.233  24.448  1.00  0.00    -0.332 N 
ATOM     20  C   UNL A   1      32.152  20.659  23.306  1.00  0.00     0.333 C 
ATOM     21  H   UNL A   1      33.836  20.589  24.142  1.00  0.00     0.348 HD
BRANCH  19  22
ATOM     22  C   UNL A   1      33.253  18.804  24.572  1.00  0.00     0.184 C 
ATOM     23  C   UNL A   1      32.537  17.934  25.626  1.00  0.00     0.065 C 
ATOM     24  C   UNL A   1      33.077  18.051  23.226  1.00  0.00     0.065 C 
ATOM     25  C   UNL A   1      33.281  16.592  25.752  1.00  0.00     0.006 C 
ATOM     26  C   UNL A   1      33.904  16.765  23.276  1.00  0.00     0.006 C 
ATOM     27  C   UNL A   1      33.455  15.858  24.419  1.00  0.00     0.000 C 
ENDBRANCH  19  22
ENDBRANCH  11  19
ENDBRANCH   5   7
ENDBRANCH   4   5
ENDBRANCH   3   4
ENDBRANCH   2   3
ENDBRANCH   1   2
BRANCH   1  28
ATOM     28  C   UNL A   1      32.036  29.543  25.064  1.00  0.00     0.202 C 
BRANCH  28  29
ATOM     29  C   UNL A   1      31.588  30.803  25.818  1.00  0.00     0.261 C 
BRANCH  29  30
ATOM     30  O   UNL A   1      32.166  30.916  27.130  1.00  0.00    -0.460 OA
BRANCH  30  31
ATOM     31  C   UNL A   1      32.934  32.019  27.305  1.00  0.00     0.338 C 
ATOM     32  O   UNL A   1      32.587  33.184  27.224  1.00  0.00    -0.246 OA
BRANCH  31  33
ATOM     33  C   UNL A   1      34.285  31.643  27.758  1.00  0.00     0.060 A 
ATOM     34  C   UNL A   1      34.515  30.291  28.044  1.00  0.00     0.016 A 
ATOM     35  C   UNL A   1      35.268  32.601  28.019  1.00  0.00     0.016 A 
ATOM     36  C   UNL A   1      35.711  29.897  28.637  1.00  0.00     0.010 A 
ATOM     37  C   UNL A   1      36.467  32.204  28.623  1.00  0.00     0.010 A 
ATOM     38  C   UNL A   1      36.680  30.856  28.966  1.00  0.00    -0.014 A 
BRANCH  38  39
ATOM     39  C   UNL A   1      37.857  30.462  29.778  1.00  0.00     0.031 A 
ATOM     40  C   UNL A   1      38.883  29.533  29.187  1.00  0.00     0.074 A 
ATOM     41  C   UNL A   1      38.025  30.949  31.020  1.00  0.00     0.049 A 
ATOM     42  N   UNL A   1      39.960  29.029  29.735  1.00  0.00    -0.248 NA
ATOM     43  C   UNL A   1      38.665  29.117  27.793  1.00  0.00     0.031 C 
ATOM     44  C   UNL A   1      37.125  31.888  31.686  1.00  0.00     0.029 A 
ATOM     45  N   UNL A   1      39.011  30.710  31.944  1.00  0.00    -0.354 N 
ATOM     46  C   UNL A   1      40.544  28.233  28.757  1.00  0.00     0.074 A 
ATOM     47  C   UNL A   1      39.689  28.300  27.592  1.00  0.00     0.031 C 
ATOM     48  C   UNL A   1      37.594  32.138  32.921  1.00  0.00     0.029 A 
ATOM     49  C   UNL A   1      38.806  31.351  33.141  1.00  0.00     0.049 A 
ATOM     50  H   UNL A   1      39.790  30.135  31.766  1.00  0.00     0.167 HD
ATOM     51  C   UNL A   1      41.692  27.517  28.824  1.00  0.00     0.037 A 
ATOM     52  C   UNL A   1      39.504  31.288  34.292  1.00  0.00     0.037 A 
ATOM     53  C   UNL A   1      42.542  27.455  29.983  1.00  0.00     0.049 A 
ATOM     54  C   UNL A   1      40.734  30.424  34.366  1.00  0.00     0.074 A 
ATOM     55  C   UNL A   1      43.738  26.775  30.141  1.00  0.00     0.029 A 
ATOM     56  N   UNL A   1      42.281  28.087  31.189  1.00  0.00    -0.354 N 
ATOM     57  N   UNL A   1      41.290  29.694  33.430  1.00  0.00    -0.248 NA
ATOM     58  C   UNL A   1      41.433  30.374  35.659  1.00  0.00     0.031 C 
ATOM     59  C   UNL A   1      44.175  26.957  31.456  1.00  0.00     0.029 A 
ATOM     60  C   UNL A   1      43.278  27.791  32.104  1.00  0.00     0.049 A 
ATOM     61  H   UNL A   1      41.503  28.662  31.368  1.00  0.00     0.167 HD
ATOM     62  C   UNL A   1      42.414  29.120  34.010  1.00  0.00     0.074 A 
ATOM     63  C   UNL A   1      42.467  29.595  35.377  1.00  0.00     0.031 C 
ATOM     64  C   UNL A   1      43.321  28.275  33.461  1.00  0.00     0.037 A 
BRANCH  51  65
ATOM     65  C   UNL A   1      42.083  26.722  27.613  1.00  0.00     0.057 A 
ATOM     66  C   UNL A   1      41.677  25.393  27.434  1.00  0.00     0.134 A 
ATOM     67  C   UNL A   1      42.845  27.306  26.593  1.00  0.00     0.134 A 
ATOM     68  F   UNL A   1      40.955  24.771  28.378  1.00  0.00    -0.206 F 
ATOM     69  C   UNL A   1      42.033  24.668  26.296  1.00  0.00     0.040 A 
ATOM     70  C   UNL A   1      43.187  26.600  25.439  1.00  0.00     0.040 A 
ATOM     71  F   UNL A   1      43.262  28.578  26.697  1.00  0.00    -0.206 F 
ATOM     72  C   UNL A   1      42.785  25.274  25.291  1.00  0.00     0.006 A 
ENDBRANCH  51  65
BRANCH  52  73
ATOM     73  C   UNL A   1      39.045  32.052  35.479  1.00  0.00     0.057 A 
ATOM     74  C   UNL A   1      38.241  31.459  36.458  1.00  0.00     0.134 A 
ATOM     75  C   UNL A   1      39.387  33.399  35.652  1.00  0.00     0.134 A 
ATOM     76  F   UNL A   1      37.860  30.180  36.335  1.00  0.00    -0.206 F 
ATOM     77  C   UNL A   1      37.781  32.181  37.561  1.00  0.00     0.040 A 
ATOM     78  C   UNL A   1      38.954  34.126  36.762  1.00  0.00     0.040 A 
ATOM     79  F   UNL A   1      40.153  34.026  34.749  1.00  0.00    -0.206 F 
ATOM     80  C   UNL A   1      38.143  33.518  37.718  1.00  0.00     0.006 A 
ENDBRANCH  52  73
BRANCH  64  81
ATOM     81  C   UNL A   1      44.465  27.833  34.325  1.00  0.00     0.057 A 
ATOM     82  C   UNL A   1      44.412  26.651  35.074  1.00  0.00     0.134 A 
ATOM     83  C   UNL A   1      45.653  28.574  34.368  1.00  0.00     0.134 A 
ATOM     84  F   UNL A   1      43.299  25.903  35.086  1.00  0.00    -0.206 F 
ATOM     85  C   UNL A   1      45.493  26.232  35.852  1.00  0.00     0.040 A 
ATOM     86  C   UNL A   1      46.750  28.152  35.121  1.00  0.00     0.040 A 
ATOM     87  F   UNL A   1      45.774  29.711  33.666  1.00  0.00    -0.206 F 
ATOM     88  C   UNL A   1      46.670  26.980  35.870  1.00  0.00     0.006 A 
ENDBRANCH  64  81
ENDBRANCH  38  39
ENDBRANCH  31  33
ENDBRANCH  30  31
ENDBRANCH  29  30
ENDBRANCH  28  29
ENDBRANCH   1  28
TORSDOF 18
ENDMDL
MODEL 2
REMARK VINA RESULT:     -10.8      1.112      6.335
REMARK SMILES CC(C)[NH2+][C@]1(C(=O)OCCOCCOC(=O)c2ccc(-c3c4nc(c(-c5c(F)cccc5F)c5ccc([nH]5)c(-c5c(F)cccc5F)c5nc(c(-c6c(F)cccc6F)c6ccc3[nH]6)C=C5)C=C4)cc2)CCC[C@H]([N@H+](C)C2CCCCC2)C1
REMARK SMILES IDX 11 1 10 2 9 3 8 4 6 5 7 6 5 7 71 8 83 9 72 10 74 11 73 12
REMARK SMILES IDX 4 13 2 16 1 17 3 18 75 19 76 20 77 22 78 23 82 24 79 25
REMARK SMILES IDX 81 26 80 27 12 28 13 29 14 30 15 31 16 32 17 33 18 34 70 35
REMARK SMILES IDX 19 36 69 37 20 38 21 39 22 40 63 41 23 42 68 43 62 44 64 45
REMARK SMILES IDX 24 46 67 47 61 48 60 49 25 51 51 52 34 53 50 54 35 55 38 56
REMARK SMILES IDX 49 57 65 58 36 59 37 60 48 62 66 63 39 64 26 65 27 66 32 67
REMARK SMILES IDX 28 68 29 69 31 70 33 71 30 72 52 73 53 74 58 75 54 76 55 77
REMARK SMILES IDX 57 78 59 79 56 80 40 81 41 82 46 83 42 84 43 85 45 86 47 87
REMARK SMILES IDX 44 88
REMARK H PARENT 4 14 4 15 75 21 64 50 38 61
REMARK Flexibility Score: inf
ROOT
ATOM      1  O   UNL A   1      32.293  30.655  26.755  1.00  0.00    -0.374 OA
ENDROOT
BRANCH   1   2
ATOM      2  C   UNL A   1      31.788  29.337  26.534  1.00  0.00     0.202 C 
BRANCH   2   3
ATOM      3  C   UNL A   1      32.374  28.223  27.411  1.00  0.00     0.261 C 
BRANCH   3   4
ATOM      4  O   UNL A   1      32.976  27.186  26.620  1.00  0.00    -0.459 OA
BRANCH   4   5
ATOM      5  C   UNL A   1      32.207  26.109  26.279  1.00  0.00     0.368 C 
ATOM      6  O   UNL A   1      31.095  25.881  26.743  1.00  0.00    -0.245 OA
BRANCH   5   7
ATOM      7  C   UNL A   1      32.973  25.108  25.321  1.00  0.00     0.200 C 
ATOM      8  C   UNL A   1      34.483  25.340  25.523  1.00  0.00     0.081 C 
ATOM      9  C   UNL A   1      32.735  23.673  25.873  1.00  0.00     0.146 C 
ATOM     10  C   UNL A   1      35.383  24.282  24.878  1.00  0.00     0.013 C 
ATOM     11  C   UNL A   1      33.467  22.481  25.223  1.00  0.00     0.190 C 
ATOM     12  C   UNL A   1      34.986  22.825  25.161  1.00  0.00     0.065 C 
BRANCH   7  13
ATOM     13  N   UNL A   1      32.389  25.398  23.976  1.00  0.00    -0.330 N 
ATOM     14  H   UNL A   1      32.677  24.630  23.369  1.00  0.00     0.347 HD
ATOM     15  H   UNL A   1      31.400  25.514  24.194  1.00  0.00     0.347 HD
BRANCH  13  16
ATOM     16  C   UNL A   1      32.692  26.630  23.248  1.00  0.00     0.176 C 
ATOM     17  C   UNL A   1      33.332  26.256  21.904  1.00  0.00     0.075 C 
ATOM     18  C   UNL A   1      31.454  27.470  22.916  1.00  0.00     0.075 C 
ENDBRANCH  13  16
ENDBRANCH   7  13
BRANCH  11  19
ATOM     19  N   UNL A   1      32.778  21.763  24.117  1.00  0.00    -0.332 N 
ATOM     20  C   UNL A   1      31.513  22.298  23.668  1.00  0.00     0.333 C 
ATOM     21  H   UNL A   1      33.343  22.041  23.314  1.00  0.00     0.348 HD
BRANCH  19  22
ATOM     22  C   UNL A   1      32.972  20.306  24.065  1.00  0.00     0.184 C 
ATOM     23  C   UNL A   1      32.703  19.441  25.314  1.00  0.00     0.065 C 
ATOM     24  C   UNL A   1      32.150  19.652  22.924  1.00  0.00     0.065 C 
ATOM     25  C   UNL A   1      33.284  18.034  25.080  1.00  0.00     0.006 C 
ATOM     26  C   UNL A   1      32.777  18.298  22.586  1.00  0.00     0.006 C 
ATOM     27  C   UNL A   1      32.780  17.368  23.796  1.00  0.00     0.000 C 
ENDBRANCH  19  22
ENDBRANCH  11  19
ENDBRANCH   5   7
ENDBRANCH   4   5
ENDBRANCH   3   4
ENDBRANCH   2   3
ENDBRANCH   1   2
BRANCH   1  28
ATOM     28  C   UNL A   1      31.414  31.736  26.457  1.00  0.00     0.202 C 
BRANCH  28  29
ATOM     29  C   UNL A   1      31.950  33.156  26.690  1.00  0.00     0.261 C 
BRANCH  29  30
ATOM     30  O   UNL A   1      32.373  33.390  28.044  1.00  0.00    -0.460 OA
BRANCH  30  31
ATOM     31  C   UNL A   1      33.475  34.172  28.155  1.00  0.00     0.338 C 
ATOM     32  O   UNL A   1      33.525  35.389  28.133  1.00  0.00    -0.246 OA
BRANCH  31  33
ATOM     33  C   UNL A   1      34.664  33.352  28.450  1.00  0.00     0.060 A 
ATOM     34  C   UNL A   1      34.447  32.064  28.954  1.00  0.00     0.016 A 
ATOM     35  C   UNL A   1      35.957  33.872  28.358  1.00  0.00     0.016 A 
ATOM     36  C   UNL A   1      35.522  31.306  29.415  1.00  0.00     0.010 A 
ATOM     37  C   UNL A   1      37.034  33.111  28.827  1.00  0.00     0.010 A 
ATOM     38  C   UNL A   1      36.818  31.839  29.390  1.00  0.00    -0.014 A 
BRANCH  38  39
ATOM     39  C   UNL A   1      37.923  31.114  30.064  1.00  0.00     0.031 A 
ATOM     40  C   UNL A   1      38.214  31.397  31.513  1.00  0.00     0.074 A 
ATOM     41  C   UNL A   1      38.641  30.193  29.399  1.00  0.00     0.049 A 
ATOM     42  N   UNL A   1      39.156  30.910  32.280  1.00  0.00    -0.248 NA
ATOM     43  C   UNL A   1      37.324  32.356  32.186  1.00  0.00     0.031 C 
ATOM     44  C   UNL A   1      38.428  29.800  28.008  1.00  0.00     0.029 A 
ATOM     45  N   UNL A   1      39.703  29.426  29.809  1.00  0.00    -0.354 N 
ATOM     46  C   UNL A   1      38.977  31.507  33.522  1.00  0.00     0.074 A 
ATOM     47  C   UNL A   1      37.854  32.410  33.399  1.00  0.00     0.031 C 
ATOM     48  C   UNL A   1      39.341  28.871  27.674  1.00  0.00     0.029 A 
ATOM     49  C   UNL A   1      40.220  28.632  28.816  1.00  0.00     0.049 A 
ATOM     50  H   UNL A   1      40.060  29.444  30.726  1.00  0.00     0.167 HD
ATOM     51  C   UNL A   1      39.682  31.313  34.663  1.00  0.00     0.037 A 
ATOM     52  C   UNL A   1      41.299  27.823  28.822  1.00  0.00     0.037 A 
ATOM     53  C   UNL A   1      40.798  30.411  34.784  1.00  0.00     0.049 A 
ATOM     54  C   UNL A   1      42.114  27.684  30.080  1.00  0.00     0.074 A 
ATOM     55  C   UNL A   1      41.562  30.129  35.903  1.00  0.00     0.029 A 
ATOM     56  N   UNL A   1      41.315  29.653  33.746  1.00  0.00    -0.354 N 
ATOM     57  N   UNL A   1      41.923  28.234  31.254  1.00  0.00    -0.248 NA
ATOM     58  C   UNL A   1      43.295  26.812  30.012  1.00  0.00     0.031 C 
ATOM     59  C   UNL A   1      42.571  29.237  35.530  1.00  0.00     0.029 A 
ATOM     60  C   UNL A   1      42.407  28.925  34.191  1.00  0.00     0.049 A 
ATOM     61  H   UNL A   1      40.960  29.634  32.828  1.00  0.00     0.167 HD
ATOM     62  C   UNL A   1      42.941  27.758  32.070  1.00  0.00     0.074 A 
ATOM     63  C   UNL A   1      43.742  26.864  31.259  1.00  0.00     0.031 C 
ATOM     64  C   UNL A   1      43.192  28.035  33.373  1.00  0.00     0.037 A 
BRANCH  51  65
ATOM     65  C   UNL A   1      39.282  32.112  35.868  1.00  0.00     0.057 A 
ATOM     66  C   UNL A   1      39.801  33.390  36.117  1.00  0.00     0.134 A 
ATOM     67  C   UNL A   1      38.335  31.613  36.771  1.00  0.00     0.134 A 
ATOM     68  F   UNL A   1      40.720  33.921  35.298  1.00  0.00    -0.206 F 
ATOM     69  C   UNL A   1      39.410  34.131  37.234  1.00  0.00     0.040 A 
ATOM     70  C   UNL A   1      37.916  32.355  37.876  1.00  0.00     0.040 A 
ATOM     71  F   UNL A   1      37.792  30.399  36.587  1.00  0.00    -0.206 F 
ATOM     72  C   UNL A   1      38.459  33.616  38.113  1.00  0.00     0.006 A 
ENDBRANCH  51  65
BRANCH  52  73
ATOM     73  C   UNL A   1      41.685  27.095  27.587  1.00  0.00     0.057 A 
ATOM     74  C   UNL A   1      41.291  25.771  27.371  1.00  0.00     0.134 A 
ATOM     75  C   UNL A   1      42.472  27.704  26.602  1.00  0.00     0.134 A 
ATOM     76  F   UNL A   1      40.557  25.127  28.289  1.00  0.00    -0.206 F 
ATOM     77  C   UNL A   1      41.677  25.072  26.225  1.00  0.00     0.040 A 
ATOM     78  C   UNL A   1      42.845  27.026  25.440  1.00  0.00     0.040 A 
ATOM     79  F   UNL A   1      42.884  28.971  26.750  1.00  0.00    -0.206 F 
ATOM     80  C   UNL A   1      42.451  25.702  25.253  1.00  0.00     0.006 A 
ENDBRANCH  52  73
BRANCH  64  81
ATOM     81  C   UNL A   1      44.358  27.343  34.014  1.00  0.00     0.057 A 
ATOM     82  C   UNL A   1      45.626  27.934  34.075  1.00  0.00     0.134 A 
ATOM     83  C   UNL A   1      44.199  26.090  34.621  1.00  0.00     0.134 A 
ATOM     84  F   UNL A   1      45.849  29.126  33.502  1.00  0.00    -0.206 F 
ATOM     85  C   UNL A   1      46.699  27.296  34.701  1.00  0.00     0.040 A 
ATOM     86  C   UNL A   1      45.257  25.454  35.272  1.00  0.00     0.040 A 
ATOM     87  F   UNL A   1      43.008  25.472  34.607  1.00  0.00    -0.206 F 
ATOM     88  C   UNL A   1      46.513  26.055  35.309  1.00  0.00     0.006 A 
ENDBRANCH  64  81
ENDBRANCH  38  39
ENDBRANCH  31  33
ENDBRANCH  30  31
ENDBRANCH  29  30
ENDBRANCH  28  29
ENDBRANCH   1  28
TORSDOF 18
ENDMDL
MODEL 3
REMARK VINA RESULT:     -10.7      4.480      8.197
REMARK SMILES CC(C)[NH2+][C@]1(C(=O)OCCOCCOC(=O)c2ccc(-c3c4nc(c(-c5c(F)cccc5F)c5ccc([nH]5)c(-c5c(F)cccc5F)c5nc(c(-c6c(F)cccc6F)c6ccc3[nH]6)C=C5)C=C4)cc2)CCC[C@H]([N@H+](C)C2CCCCC2)C1
REMARK SMILES IDX 11 1 10 2 9 3 8 4 6 5 7 6 5 7 71 8 83 9 72 10 74 11 73 12
REMARK SMILES IDX 4 13 2 16 1 17 3 18 75 19 76 20 77 22 78 23 82 24 79 25
REMARK SMILES IDX 81 26 80 27 12 28 13 29 14 30 15 31 16 32 17 33 18 34 70 35
REMARK SMILES IDX 19 36 69 37 20 38 21 39 22 40 63 41 23 42 68 43 62 44 64 45
REMARK SMILES IDX 24 46 67 47 61 48 60 49 25 51 51 52 34 53 50 54 35 55 38 56
REMARK SMILES IDX 49 57 65 58 36 59 37 60 48 62 66 63 39 64 26 65 27 66 32 67
REMARK SMILES IDX 28 68 29 69 31 70 33 71 30 72 52 73 53 74 58 75 54 76 55 77
REMARK SMILES IDX 57 78 59 79 56 80 40 81 41 82 46 83 42 84 43 85 45 86 47 87
REMARK SMILES IDX 44 88
REMARK H PARENT 4 14 4 15 75 21 64 50 38 61
REMARK Flexibility Score: inf
ROOT
ATOM      1  O   UNL A   1      36.691  19.491  24.998  1.00  0.00    -0.374 OA
ENDROOT
BRANCH   1   2
ATOM      2  C   UNL A   1      35.551  20.354  25.013  1.00  0.00     0.202 C 
BRANCH   2   3
ATOM      3  C   UNL A   1      34.204  19.716  24.654  1.00  0.00     0.261 C 
BRANCH   3   4
ATOM      4  O   UNL A   1      33.312  20.665  24.046  1.00  0.00    -0.459 OA
BRANCH   4   5
ATOM      5  C   UNL A   1      32.401  21.294  24.847  1.00  0.00     0.368 C 
ATOM      6  O   UNL A   1      31.504  20.721  25.455  1.00  0.00    -0.245 OA
BRANCH   5   7
ATOM      7  C   UNL A   1      32.545  22.870  24.790  1.00  0.00     0.200 C 
ATOM      8  C   UNL A   1      33.624  23.273  25.815  1.00  0.00     0.081 C 
ATOM      9  C   UNL A   1      33.180  23.223  23.414  1.00  0.00     0.146 C 
ATOM     10  C   UNL A   1      34.087  24.729  25.713  1.00  0.00     0.013 C 
ATOM     11  C   UNL A   1      33.568  24.685  23.113  1.00  0.00     0.190 C 
ATOM     12  C   UNL A   1      34.439  25.206  24.295  1.00  0.00     0.065 C 
BRANCH   7  13
ATOM     13  N   UNL A   1      31.148  23.355  25.011  1.00  0.00    -0.330 N 
ATOM     14  H   UNL A   1      30.981  24.074  24.306  1.00  0.00     0.347 HD
ATOM     15  H   UNL A   1      30.613  22.488  24.971  1.00  0.00     0.347 HD
BRANCH  13  16
ATOM     16  C   UNL A   1      30.717  23.926  26.286  1.00  0.00     0.176 C 
ATOM     17  C   UNL A   1      30.061  25.287  26.013  1.00  0.00     0.075 C 
ATOM     18  C   UNL A   1      29.668  23.082  27.017  1.00  0.00     0.075 C 
ENDBRANCH  13  16
ENDBRANCH   7  13
BRANCH  11  19
ATOM     19  N   UNL A   1      32.557  25.546  22.442  1.00  0.00    -0.332 N 
ATOM     20  C   UNL A   1      32.582  25.593  20.997  1.00  0.00     0.333 C 
ATOM     21  H   UNL A   1      31.712  24.986  22.551  1.00  0.00     0.348 HD
BRANCH  19  22
ATOM     22  C   UNL A   1      32.148  26.758  23.167  1.00  0.00     0.184 C 
ATOM     23  C   UNL A   1      33.044  28.014  23.149  1.00  0.00     0.065 C 
ATOM     24  C   UNL A   1      30.742  27.247  22.733  1.00  0.00     0.065 C 
ATOM     25  C   UNL A   1      32.548  28.995  24.227  1.00  0.00     0.006 C 
ATOM     26  C   UNL A   1      30.170  28.133  23.842  1.00  0.00     0.006 C 
ATOM     27  C   UNL A   1      31.062  29.344  24.103  1.00  0.00     0.000 C 
ENDBRANCH  19  22
ENDBRANCH  11  19
ENDBRANCH   5   7
ENDBRANCH   4   5
ENDBRANCH   3   4
ENDBRANCH   2   3
ENDBRANCH   1   2
BRANCH   1  28
ATOM     28  C   UNL A   1      37.969  20.116  25.045  1.00  0.00     0.202 C 
BRANCH  28  29
ATOM     29  C   UNL A   1      39.170  19.225  25.390  1.00  0.00     0.261 C 
BRANCH  29  30
ATOM     30  O   UNL A   1      39.982  19.750  26.455  1.00  0.00    -0.460 OA
BRANCH  30  31
ATOM     31  C   UNL A   1      41.316  19.668  26.229  1.00  0.00     0.338 C 
ATOM     32  O   UNL A   1      41.935  18.717  25.787  1.00  0.00    -0.246 OA
BRANCH  31  33
ATOM     33  C   UNL A   1      41.962  20.971  26.466  1.00  0.00     0.060 A 
ATOM     34  C   UNL A   1      42.151  21.362  27.798  1.00  0.00     0.016 A 
ATOM     35  C   UNL A   1      42.263  21.845  25.419  1.00  0.00     0.016 A 
ATOM     36  C   UNL A   1      42.595  22.650  28.090  1.00  0.00     0.010 A 
ATOM     37  C   UNL A   1      42.703  23.141  25.715  1.00  0.00     0.010 A 
ATOM     38  C   UNL A   1      42.838  23.561  27.052  1.00  0.00    -0.014 A 
BRANCH  38  39
ATOM     39  C   UNL A   1      43.113  24.983  27.372  1.00  0.00     0.031 A 
ATOM     40  C   UNL A   1      44.496  25.533  27.156  1.00  0.00     0.074 A 
ATOM     41  C   UNL A   1      42.131  25.782  27.826  1.00  0.00     0.049 A 
ATOM     42  N   UNL A   1      44.961  26.731  27.410  1.00  0.00    -0.248 NA
ATOM     43  C   UNL A   1      45.485  24.612  26.577  1.00  0.00     0.031 C 
ATOM     44  C   UNL A   1      40.743  25.378  28.035  1.00  0.00     0.029 A 
ATOM     45  N   UNL A   1      42.160  27.102  28.199  1.00  0.00    -0.354 N 
ATOM     46  C   UNL A   1      46.297  26.705  27.028  1.00  0.00     0.074 A 
ATOM     47  C   UNL A   1      46.574  25.368  26.550  1.00  0.00     0.031 C 
ATOM     48  C   UNL A   1      40.052  26.428  28.513  1.00  0.00     0.029 A 
ATOM     49  C   UNL A   1      40.957  27.564  28.673  1.00  0.00     0.049 A 
ATOM     50  H   UNL A   1      42.965  27.665  28.133  1.00  0.00     0.167 HD
ATOM     51  C   UNL A   1      47.207  27.707  27.067  1.00  0.00     0.037 A 
ATOM     52  C   UNL A   1      40.631  28.760  29.201  1.00  0.00     0.037 A 
ATOM     53  C   UNL A   1      46.928  29.038  27.540  1.00  0.00     0.049 A 
ATOM     54  C   UNL A   1      41.680  29.834  29.306  1.00  0.00     0.074 A 
ATOM     55  C   UNL A   1      47.778  30.129  27.597  1.00  0.00     0.029 A 
ATOM     56  N   UNL A   1      45.708  29.455  28.048  1.00  0.00    -0.354 N 
ATOM     57  N   UNL A   1      42.933  29.808  28.921  1.00  0.00    -0.248 NA
ATOM     58  C   UNL A   1      41.269  31.105  29.920  1.00  0.00     0.031 C 
ATOM     59  C   UNL A   1      47.086  31.193  28.184  1.00  0.00     0.029 A 
ATOM     60  C   UNL A   1      45.790  30.779  28.447  1.00  0.00     0.049 A 
ATOM     61  H   UNL A   1      44.902  28.895  28.114  1.00  0.00     0.167 HD
ATOM     62  C   UNL A   1      43.452  31.060  29.222  1.00  0.00     0.074 A 
ATOM     63  C   UNL A   1      42.375  31.828  29.812  1.00  0.00     0.031 C 
ATOM     64  C   UNL A   1      44.708  31.533  29.029  1.00  0.00     0.037 A 
BRANCH  51  65
ATOM     65  C   UNL A   1      48.601  27.396  26.606  1.00  0.00     0.057 A 
ATOM     66  C   UNL A   1      49.609  27.012  27.499  1.00  0.00     0.134 A 
ATOM     67  C   UNL A   1      48.928  27.443  25.245  1.00  0.00     0.134 A 
ATOM     68  F   UNL A   1      49.365  26.958  28.817  1.00  0.00    -0.206 F 
ATOM     69  C   UNL A   1      50.898  26.708  27.058  1.00  0.00     0.040 A 
ATOM     70  C   UNL A   1      50.206  27.117  24.788  1.00  0.00     0.040 A 
ATOM     71  F   UNL A   1      48.007  27.796  24.335  1.00  0.00    -0.206 F 
ATOM     72  C   UNL A   1      51.197  26.754  25.697  1.00  0.00     0.006 A 
ENDBRANCH  51  65
BRANCH  52  73
ATOM     73  C   UNL A   1      39.251  29.001  29.693  1.00  0.00     0.057 A 
ATOM     74  C   UNL A   1      38.255  29.499  28.847  1.00  0.00     0.134 A 
ATOM     75  C   UNL A   1      38.902  28.753  31.026  1.00  0.00     0.134 A 
ATOM     76  F   UNL A   1      38.535  29.779  27.566  1.00  0.00    -0.206 F 
ATOM     77  C   UNL A   1      36.963  29.756  29.311  1.00  0.00     0.040 A 
ATOM     78  C   UNL A   1      37.609  28.982  31.498  1.00  0.00     0.040 A 
ATOM     79  F   UNL A   1      39.811  28.276  31.888  1.00  0.00    -0.206 F 
ATOM     80  C   UNL A   1      36.636  29.491  30.640  1.00  0.00     0.006 A 
ENDBRANCH  52  73
BRANCH  64  81
ATOM     81  C   UNL A   1      44.980  32.954  29.426  1.00  0.00     0.057 A 
ATOM     82  C   UNL A   1      45.509  33.281  30.681  1.00  0.00     0.134 A 
ATOM     83  C   UNL A   1      44.756  34.002  28.525  1.00  0.00     0.134 A 
ATOM     84  F   UNL A   1      45.734  32.325  31.595  1.00  0.00    -0.206 F 
ATOM     85  C   UNL A   1      45.787  34.603  31.032  1.00  0.00     0.040 A 
ATOM     86  C   UNL A   1      45.055  35.325  28.854  1.00  0.00     0.040 A 
ATOM     87  F   UNL A   1      44.260  33.757  27.303  1.00  0.00    -0.206 F 
ATOM     88  C   UNL A   1      45.568  35.629  30.114  1.00  0.00     0.006 A 
ENDBRANCH  64  81
ENDBRANCH  38  39
ENDBRANCH  31  33
ENDBRANCH  30  31
ENDBRANCH  29  30
ENDBRANCH  28  29
ENDBRANCH   1  28
TORSDOF 18
ENDMDL
