MODEL 1
REMARK VINA RESULT:     -10.1      0.000      0.000
REMARK SMILES C[C@@H]1c2ccccc2-c2ccc(C(=O)OCCOCCOC(=O)c3ccc(-c4c5nc(c(-c6c(F)cccc6F)c6ccc([nH]6)c(-c6c(F)cccc6F)c6nc(c(-c7c(F)cccc7F)c7ccc4[nH]7)C=C6)C=C5)cc3)cc21
REMARK SMILES IDX 19 1 18 2 17 3 16 4 15 5 13 6 14 7 12 8 1 9 2 10 3 11 79 12
REMARK SMILES IDX 4 13 8 14 9 15 78 16 5 17 7 18 10 19 6 20 11 21 20 22 21 23
REMARK SMILES IDX 22 24 23 25 24 26 25 27 77 28 26 29 76 30 27 31 28 32 29 33
REMARK SMILES IDX 70 34 30 35 75 36 69 37 71 38 31 39 74 40 68 41 67 42 32 44
REMARK SMILES IDX 58 45 41 46 57 47 42 48 45 49 56 50 72 51 43 52 44 53 55 55
REMARK SMILES IDX 73 56 46 57 33 58 34 59 39 60 35 61 36 62 38 63 40 64 37 65
REMARK SMILES IDX 59 66 60 67 65 68 61 69 62 70 64 71 66 72 63 73 47 74 48 75
REMARK SMILES IDX 53 76 49 77 50 78 52 79 54 80 51 81
REMARK H PARENT 71 43 45 54
REMARK Flexibility Score: inf
ROOT
ATOM      1  C   UNL A   1      44.922  18.420  25.382  1.00  0.00     0.202 C 
ENDROOT
BRANCH   1   2
ATOM      2  O   UNL A   1      45.897  18.802  24.411  1.00  0.00    -0.374 OA
BRANCH   2   3
ATOM      3  C   UNL A   1      46.678  19.963  24.694  1.00  0.00     0.202 C 
BRANCH   3   4
ATOM      4  C   UNL A   1      45.997  21.039  25.543  1.00  0.00     0.261 C 
BRANCH   4   5
ATOM      5  O   UNL A   1      46.418  22.355  25.147  1.00  0.00    -0.460 OA
BRANCH   5   6
ATOM      6  C   UNL A   1      45.508  23.039  24.412  1.00  0.00     0.338 C 
ATOM      7  O   UNL A   1      44.671  22.563  23.660  1.00  0.00    -0.246 OA
BRANCH   6   8
ATOM      8  C   UNL A   1      45.540  24.481  24.748  1.00  0.00     0.060 A 
ATOM      9  C   UNL A   1      42.503  27.930  25.003  1.00  0.00     0.018 C 
ATOM     10  C   UNL A   1      43.527  27.504  26.047  1.00  0.00     0.047 C 
ATOM     11  C   UNL A   1      44.401  28.669  26.497  1.00  0.00    -0.033 A 
ATOM     12  C   UNL A   1      44.565  26.527  25.502  1.00  0.00    -0.032 A 
ATOM     13  C   UNL A   1      44.032  29.813  27.187  1.00  0.00     0.005 A 
ATOM     14  C   UNL A   1      45.751  28.419  26.173  1.00  0.00    -0.014 A 
ATOM     15  C   UNL A   1      45.852  27.114  25.559  1.00  0.00    -0.014 A 
ATOM     16  C   UNL A   1      44.392  25.210  25.090  1.00  0.00     0.020 A 
ATOM     17  C   UNL A   1      45.034  30.718  27.549  1.00  0.00     0.000 A 
ATOM     18  C   UNL A   1      46.743  29.322  26.520  1.00  0.00     0.009 A 
ATOM     19  C   UNL A   1      46.974  26.416  25.150  1.00  0.00     0.010 A 
ATOM     20  C   UNL A   1      46.377  30.477  27.215  1.00  0.00     0.001 A 
ATOM     21  C   UNL A   1      46.813  25.091  24.751  1.00  0.00     0.016 A 
ENDBRANCH   6   8
ENDBRANCH   5   6
ENDBRANCH   4   5
ENDBRANCH   3   4
ENDBRANCH   2   3
ENDBRANCH   1   2
BRANCH   1  22
ATOM     22  C   UNL A   1      43.469  18.793  25.060  1.00  0.00     0.261 C 
BRANCH  22  23
ATOM     23  O   UNL A   1      42.682  18.949  26.254  1.00  0.00    -0.460 OA
BRANCH  23  24
ATOM     24  C   UNL A   1      41.492  19.566  26.075  1.00  0.00     0.338 C 
ATOM     25  O   UNL A   1      40.459  19.075  25.640  1.00  0.00    -0.246 OA
BRANCH  24  26
ATOM     26  C   UNL A   1      41.536  20.922  26.649  1.00  0.00     0.060 A 
ATOM     27  C   UNL A   1      41.959  21.963  25.811  1.00  0.00     0.016 A 
ATOM     28  C   UNL A   1      41.243  21.167  27.993  1.00  0.00     0.016 A 
ATOM     29  C   UNL A   1      42.148  23.243  26.328  1.00  0.00     0.010 A 
ATOM     30  C   UNL A   1      41.441  22.451  28.512  1.00  0.00     0.010 A 
ATOM     31  C   UNL A   1      41.933  23.482  27.692  1.00  0.00    -0.014 A 
BRANCH  31  32
ATOM     32  C   UNL A   1      42.383  24.766  28.281  1.00  0.00     0.031 A 
ATOM     33  C   UNL A   1      41.376  25.863  28.488  1.00  0.00     0.074 A 
ATOM     34  C   UNL A   1      43.659  24.941  28.664  1.00  0.00     0.049 A 
ATOM     35  N   UNL A   1      41.543  27.064  28.979  1.00  0.00    -0.248 NA
ATOM     36  C   UNL A   1      39.992  25.564  28.085  1.00  0.00     0.031 C 
ATOM     37  C   UNL A   1      44.720  23.942  28.552  1.00  0.00     0.029 A 
ATOM     38  N   UNL A   1      44.276  26.030  29.227  1.00  0.00    -0.354 N 
ATOM     39  C   UNL A   1      40.291  27.665  28.941  1.00  0.00     0.074 A 
ATOM     40  C   UNL A   1      39.380  26.709  28.348  1.00  0.00     0.031 C 
ATOM     41  C   UNL A   1      45.863  24.468  29.028  1.00  0.00     0.029 A 
ATOM     42  C   UNL A   1      45.618  25.845  29.452  1.00  0.00     0.049 A 
ATOM     43  H   UNL A   1      43.803  26.865  29.447  1.00  0.00     0.167 HD
ATOM     44  C   UNL A   1      39.929  28.897  29.369  1.00  0.00     0.037 A 
ATOM     45  C   UNL A   1      46.543  26.697  29.934  1.00  0.00     0.037 A 
ATOM     46  C   UNL A   1      40.834  29.848  29.959  1.00  0.00     0.049 A 
ATOM     47  C   UNL A   1      46.131  28.085  30.343  1.00  0.00     0.074 A 
ATOM     48  C   UNL A   1      40.559  31.115  30.443  1.00  0.00     0.029 A 
ATOM     49  N   UNL A   1      42.192  29.637  30.139  1.00  0.00    -0.354 N 
ATOM     50  N   UNL A   1      44.940  28.635  30.327  1.00  0.00    -0.248 NA
ATOM     51  C   UNL A   1      47.192  28.972  30.842  1.00  0.00     0.031 C 
ATOM     52  C   UNL A   1      41.761  31.688  30.873  1.00  0.00     0.029 A 
ATOM     53  C   UNL A   1      42.775  30.760  30.702  1.00  0.00     0.049 A 
ATOM     54  H   UNL A   1      42.672  28.810  29.900  1.00  0.00     0.167 HD
ATOM     55  C   UNL A   1      45.103  29.917  30.838  1.00  0.00     0.074 A 
ATOM     56  C   UNL A   1      46.507  30.061  31.165  1.00  0.00     0.031 C 
ATOM     57  C   UNL A   1      44.173  30.886  31.026  1.00  0.00     0.037 A 
BRANCH  44  58
ATOM     58  C   UNL A   1      38.493  29.292  29.188  1.00  0.00     0.057 A 
ATOM     59  C   UNL A   1      37.583  29.285  30.254  1.00  0.00     0.134 A 
ATOM     60  C   UNL A   1      38.017  29.695  27.935  1.00  0.00     0.134 A 
ATOM     61  F   UNL A   1      37.971  28.894  31.477  1.00  0.00    -0.206 F 
ATOM     62  C   UNL A   1      36.244  29.639  30.073  1.00  0.00     0.040 A 
ATOM     63  C   UNL A   1      36.688  30.075  27.747  1.00  0.00     0.040 A 
ATOM     64  F   UNL A   1      38.836  29.727  26.873  1.00  0.00    -0.206 F 
ATOM     65  C   UNL A   1      35.795  30.041  28.816  1.00  0.00     0.006 A 
ENDBRANCH  44  58
BRANCH  45  66
ATOM     66  C   UNL A   1      47.955  26.262  30.056  1.00  0.00     0.057 A 
ATOM     67  C   UNL A   1      48.865  26.451  29.010  1.00  0.00     0.134 A 
ATOM     68  C   UNL A   1      48.427  25.636  31.217  1.00  0.00     0.134 A 
ATOM     69  F   UNL A   1      48.466  27.023  27.865  1.00  0.00    -0.206 F 
ATOM     70  C   UNL A   1      50.190  26.023  29.107  1.00  0.00     0.040 A 
ATOM     71  C   UNL A   1      49.755  25.224  31.337  1.00  0.00     0.040 A 
ATOM     72  F   UNL A   1      47.604  25.426  32.255  1.00  0.00    -0.206 F 
ATOM     73  C   UNL A   1      50.639  25.412  30.277  1.00  0.00     0.006 A 
ENDBRANCH  45  66
BRANCH  57  74
ATOM     74  C   UNL A   1      44.636  32.175  31.641  1.00  0.00     0.057 A 
ATOM     75  C   UNL A   1      45.045  33.263  30.859  1.00  0.00     0.134 A 
ATOM     76  C   UNL A   1      44.634  32.341  33.031  1.00  0.00     0.134 A 
ATOM     77  F   UNL A   1      45.082  33.165  29.522  1.00  0.00    -0.206 F 
ATOM     78  C   UNL A   1      45.456  34.464  31.441  1.00  0.00     0.040 A 
ATOM     79  C   UNL A   1      45.019  33.544  33.623  1.00  0.00     0.040 A 
ATOM     80  F   UNL A   1      44.245  31.341  33.836  1.00  0.00    -0.206 F 
ATOM     81  C   UNL A   1      45.437  34.609  32.827  1.00  0.00     0.006 A 
ENDBRANCH  57  74
ENDBRANCH  31  32
ENDBRANCH  24  26
ENDBRANCH  23  24
ENDBRANCH  22  23
ENDBRANCH   1  22
TORSDOF 14
ENDMDL
MODEL 2
REMARK VINA RESULT:      -9.8      0.363      6.246
REMARK SMILES C[C@@H]1c2ccccc2-c2ccc(C(=O)OCCOCCOC(=O)c3ccc(-c4c5nc(c(-c6c(F)cccc6F)c6ccc([nH]6)c(-c6c(F)cccc6F)c6nc(c(-c7c(F)cccc7F)c7ccc4[nH]7)C=C6)C=C5)cc3)cc21
REMARK SMILES IDX 19 1 18 2 17 3 16 4 15 5 13 6 14 7 12 8 1 9 2 10 3 11 79 12
REMARK SMILES IDX 4 13 8 14 9 15 78 16 5 17 7 18 10 19 6 20 11 21 20 22 21 23
REMARK SMILES IDX 22 24 23 25 24 26 25 27 77 28 26 29 76 30 27 31 28 32 29 33
REMARK SMILES IDX 70 34 30 35 75 36 69 37 71 38 31 39 74 40 68 41 67 42 32 44
REMARK SMILES IDX 58 45 41 46 57 47 42 48 45 49 56 50 72 51 43 52 44 53 55 55
REMARK SMILES IDX 73 56 46 57 33 58 34 59 39 60 35 61 36 62 38 63 40 64 37 65
REMARK SMILES IDX 59 66 60 67 65 68 61 69 62 70 64 71 66 72 63 73 47 74 48 75
REMARK SMILES IDX 53 76 49 77 50 78 52 79 54 80 51 81
REMARK H PARENT 71 43 45 54
REMARK Flexibility Score: inf
ROOT
ATOM      1  C   UNL A   1      45.203  18.465  25.610  1.00  0.00     0.202 C 
ENDROOT
BRANCH   1   2
ATOM      2  O   UNL A   1      46.244  18.706  24.662  1.00  0.00    -0.374 OA
BRANCH   2   3
ATOM      3  C   UNL A   1      46.672  20.058  24.495  1.00  0.00     0.202 C 
BRANCH   3   4
ATOM      4  C   UNL A   1      46.039  21.083  25.438  1.00  0.00     0.261 C 
BRANCH   4   5
ATOM      5  O   UNL A   1      46.367  22.425  25.041  1.00  0.00    -0.460 OA
BRANCH   5   6
ATOM      6  C   UNL A   1      45.364  23.088  24.416  1.00  0.00     0.338 C 
ATOM      7  O   UNL A   1      44.471  22.594  23.743  1.00  0.00    -0.246 OA
BRANCH   6   8
ATOM      8  C   UNL A   1      45.380  24.524  24.775  1.00  0.00     0.060 A 
ATOM      9  C   UNL A   1      42.322  27.957  24.999  1.00  0.00     0.018 C 
ATOM     10  C   UNL A   1      43.317  27.517  26.066  1.00  0.00     0.047 C 
ATOM     11  C   UNL A   1      44.173  28.679  26.560  1.00  0.00    -0.033 A 
ATOM     12  C   UNL A   1      44.375  26.554  25.534  1.00  0.00    -0.032 A 
ATOM     13  C   UNL A   1      43.780  29.810  27.256  1.00  0.00     0.005 A 
ATOM     14  C   UNL A   1      45.533  28.439  26.270  1.00  0.00    -0.014 A 
ATOM     15  C   UNL A   1      45.657  27.144  25.639  1.00  0.00    -0.014 A 
ATOM     16  C   UNL A   1      44.219  25.242  25.096  1.00  0.00     0.020 A 
ATOM     17  C   UNL A   1      44.767  30.712  27.662  1.00  0.00     0.000 A 
ATOM     18  C   UNL A   1      46.511  29.340  26.660  1.00  0.00     0.009 A 
ATOM     19  C   UNL A   1      46.793  26.458  25.250  1.00  0.00     0.010 A 
ATOM     20  C   UNL A   1      46.120  30.482  27.363  1.00  0.00     0.001 A 
ATOM     21  C   UNL A   1      46.650  25.138  24.825  1.00  0.00     0.016 A 
ENDBRANCH   6   8
ENDBRANCH   5   6
ENDBRANCH   4   5
ENDBRANCH   3   4
ENDBRANCH   2   3
ENDBRANCH   1   2
BRANCH   1  22
ATOM     22  C   UNL A   1      43.777  18.422  25.047  1.00  0.00     0.261 C 
BRANCH  22  23
ATOM     23  O   UNL A   1      43.149  19.717  25.089  1.00  0.00    -0.460 OA
BRANCH  23  24
ATOM     24  C   UNL A   1      41.998  19.768  25.798  1.00  0.00     0.338 C 
ATOM     25  O   UNL A   1      41.185  18.868  25.960  1.00  0.00    -0.246 OA
BRANCH  24  26
ATOM     26  C   UNL A   1      41.915  21.044  26.530  1.00  0.00     0.060 A 
ATOM     27  C   UNL A   1      41.742  22.211  25.773  1.00  0.00     0.016 A 
ATOM     28  C   UNL A   1      42.073  21.115  27.916  1.00  0.00     0.016 A 
ATOM     29  C   UNL A   1      41.787  23.458  26.392  1.00  0.00     0.010 A 
ATOM     30  C   UNL A   1      42.125  22.368  28.535  1.00  0.00     0.010 A 
ATOM     31  C   UNL A   1      42.024  23.544  27.770  1.00  0.00    -0.014 A 
BRANCH  31  32
ATOM     32  C   UNL A   1      42.329  24.865  28.372  1.00  0.00     0.031 A 
ATOM     33  C   UNL A   1      43.744  25.169  28.777  1.00  0.00     0.074 A 
ATOM     34  C   UNL A   1      41.369  25.794  28.521  1.00  0.00     0.049 A 
ATOM     35  N   UNL A   1      44.238  26.250  29.325  1.00  0.00    -0.248 NA
ATOM     36  C   UNL A   1      44.736  24.110  28.532  1.00  0.00     0.031 C 
ATOM     37  C   UNL A   1      39.969  25.634  28.132  1.00  0.00     0.029 A 
ATOM     38  N   UNL A   1      41.434  27.062  29.041  1.00  0.00    -0.354 N 
ATOM     39  C   UNL A   1      45.595  26.001  29.493  1.00  0.00     0.074 A 
ATOM     40  C   UNL A   1      45.840  24.655  29.020  1.00  0.00     0.031 C 
ATOM     41  C   UNL A   1      39.304  26.763  28.434  1.00  0.00     0.029 A 
ATOM     42  C   UNL A   1      40.225  27.711  29.058  1.00  0.00     0.049 A 
ATOM     43  H   UNL A   1      42.268  27.467  29.372  1.00  0.00     0.167 HD
ATOM     44  C   UNL A   1      46.552  26.822  29.987  1.00  0.00     0.037 A 
ATOM     45  C   UNL A   1      39.898  28.927  29.536  1.00  0.00     0.037 A 
ATOM     46  C   UNL A   1      46.308  28.160  30.456  1.00  0.00     0.049 A 
ATOM     47  C   UNL A   1      40.967  29.797  30.141  1.00  0.00     0.074 A 
ATOM     48  C   UNL A   1      47.216  29.077  30.956  1.00  0.00     0.029 A 
ATOM     49  N   UNL A   1      45.063  28.769  30.489  1.00  0.00    -0.354 N 
ATOM     50  N   UNL A   1      42.250  29.563  30.272  1.00  0.00    -0.248 NA
ATOM     51  C   UNL A   1      40.541  31.104  30.662  1.00  0.00     0.031 C 
ATOM     52  C   UNL A   1      46.512  30.225  31.335  1.00  0.00     0.029 A 
ATOM     53  C   UNL A   1      45.173  30.041  31.026  1.00  0.00     0.049 A 
ATOM     54  H   UNL A   1      44.224  28.358  30.178  1.00  0.00     0.167 HD
ATOM     55  C   UNL A   1      42.789  30.700  30.862  1.00  0.00     0.074 A 
ATOM     56  C   UNL A   1      41.693  31.629  31.055  1.00  0.00     0.031 C 
ATOM     57  C   UNL A   1      44.075  30.955  31.207  1.00  0.00     0.037 A 
BRANCH  44  58
ATOM     58  C   UNL A   1      47.947  26.277  30.066  1.00  0.00     0.057 A 
ATOM     59  C   UNL A   1      48.444  25.677  31.231  1.00  0.00     0.134 A 
ATOM     60  C   UNL A   1      48.803  26.343  28.958  1.00  0.00     0.134 A 
ATOM     61  F   UNL A   1      47.681  25.597  32.331  1.00  0.00    -0.206 F 
ATOM     62  C   UNL A   1      49.749  25.186  31.300  1.00  0.00     0.040 A 
ATOM     63  C   UNL A   1      50.100  25.834  29.008  1.00  0.00     0.040 A 
ATOM     64  F   UNL A   1      48.390  26.902  27.811  1.00  0.00    -0.206 F 
ATOM     65  C   UNL A   1      50.579  25.260  30.184  1.00  0.00     0.006 A 
ENDBRANCH  44  58
BRANCH  45  66
ATOM     66  C   UNL A   1      38.494  29.397  29.463  1.00  0.00     0.057 A 
ATOM     67  C   UNL A   1      37.657  29.356  30.583  1.00  0.00     0.134 A 
ATOM     68  C   UNL A   1      37.950  29.887  28.268  1.00  0.00     0.134 A 
ATOM     69  F   UNL A   1      38.114  28.876  31.749  1.00  0.00    -0.206 F 
ATOM     70  C   UNL A   1      36.327  29.774  30.518  1.00  0.00     0.040 A 
ATOM     71  C   UNL A   1      36.629  30.329  28.194  1.00  0.00     0.040 A 
ATOM     72  F   UNL A   1      38.701  29.950  27.159  1.00  0.00    -0.206 F 
ATOM     73  C   UNL A   1      35.811  30.268  29.321  1.00  0.00     0.006 A 
ENDBRANCH  45  66
BRANCH  57  74
ATOM     74  C   UNL A   1      44.375  32.302  31.798  1.00  0.00     0.057 A 
ATOM     75  C   UNL A   1      44.659  33.416  30.997  1.00  0.00     0.134 A 
ATOM     76  C   UNL A   1      44.341  32.494  33.185  1.00  0.00     0.134 A 
ATOM     77  F   UNL A   1      44.720  33.296  29.663  1.00  0.00    -0.206 F 
ATOM     78  C   UNL A   1      44.919  34.668  31.557  1.00  0.00     0.040 A 
ATOM     79  C   UNL A   1      44.576  33.746  33.755  1.00  0.00     0.040 A 
ATOM     80  F   UNL A   1      44.067  31.471  34.008  1.00  0.00    -0.206 F 
ATOM     81  C   UNL A   1      44.871  34.837  32.940  1.00  0.00     0.006 A 
ENDBRANCH  57  74
ENDBRANCH  31  32
ENDBRANCH  24  26
ENDBRANCH  23  24
ENDBRANCH  22  23
ENDBRANCH   1  22
TORSDOF 14
ENDMDL
MODEL 3
REMARK VINA RESULT:      -8.8      4.237      8.975
REMARK SMILES C[C@@H]1c2ccccc2-c2ccc(C(=O)OCCOCCOC(=O)c3ccc(-c4c5nc(c(-c6c(F)cccc6F)c6ccc([nH]6)c(-c6c(F)cccc6F)c6nc(c(-c7c(F)cccc7F)c7ccc4[nH]7)C=C6)C=C5)cc3)cc21
REMARK SMILES IDX 19 1 18 2 17 3 16 4 15 5 13 6 14 7 12 8 1 9 2 10 3 11 79 12
REMARK SMILES IDX 4 13 8 14 9 15 78 16 5 17 7 18 10 19 6 20 11 21 20 22 21 23
REMARK SMILES IDX 22 24 23 25 24 26 25 27 77 28 26 29 76 30 27 31 28 32 29 33
REMARK SMILES IDX 70 34 30 35 75 36 69 37 71 38 31 39 74 40 68 41 67 42 32 44
REMARK SMILES IDX 58 45 41 46 57 47 42 48 45 49 56 50 72 51 43 52 44 53 55 55
REMARK SMILES IDX 73 56 46 57 33 58 34 59 39 60 35 61 36 62 38 63 40 64 37 65
REMARK SMILES IDX 59 66 60 67 65 68 61 69 62 70 64 71 66 72 63 73 47 74 48 75
REMARK SMILES IDX 53 76 49 77 50 78 52 79 54 80 51 81
REMARK H PARENT 71 43 45 54
REMARK Flexibility Score: inf
ROOT
ATOM      1  C   UNL A   1      43.043  20.930  25.883  1.00  0.00     0.202 C 
ENDROOT
BRANCH   1   2
ATOM      2  O   UNL A   1      42.527  21.496  27.089  1.00  0.00    -0.374 OA
BRANCH   2   3
ATOM      3  C   UNL A   1      41.111  21.476  27.265  1.00  0.00     0.202 C 
BRANCH   3   4
ATOM      4  C   UNL A   1      40.286  21.132  26.022  1.00  0.00     0.261 C 
BRANCH   4   5
ATOM      5  O   UNL A   1      38.893  21.422  26.227  1.00  0.00    -0.460 OA
BRANCH   5   6
ATOM      6  C   UNL A   1      38.067  20.912  25.282  1.00  0.00     0.338 C 
ATOM      7  O   UNL A   1      38.138  19.804  24.772  1.00  0.00    -0.246 OA
BRANCH   6   8
ATOM      8  C   UNL A   1      36.930  21.826  25.032  1.00  0.00     0.060 A 
ATOM      9  C   UNL A   1      32.887  22.766  27.022  1.00  0.00     0.018 C 
ATOM     10  C   UNL A   1      33.972  23.747  26.596  1.00  0.00     0.047 C 
ATOM     11  C   UNL A   1      33.422  24.851  25.700  1.00  0.00    -0.033 A 
ATOM     12  C   UNL A   1      35.029  23.113  25.696  1.00  0.00    -0.032 A 
ATOM     13  C   UNL A   1      32.511  25.847  26.012  1.00  0.00     0.005 A 
ATOM     14  C   UNL A   1      34.031  24.796  24.428  1.00  0.00    -0.014 A 
ATOM     15  C   UNL A   1      35.009  23.731  24.423  1.00  0.00    -0.014 A 
ATOM     16  C   UNL A   1      35.982  22.150  26.014  1.00  0.00     0.020 A 
ATOM     17  C   UNL A   1      32.207  26.796  25.032  1.00  0.00     0.000 A 
ATOM     18  C   UNL A   1      33.720  25.728  23.452  1.00  0.00     0.009 A 
ATOM     19  C   UNL A   1      35.898  23.355  23.432  1.00  0.00     0.010 A 
ATOM     20  C   UNL A   1      32.803  26.735  23.761  1.00  0.00     0.001 A 
ATOM     21  C   UNL A   1      36.866  22.404  23.746  1.00  0.00     0.016 A 
ENDBRANCH   6   8
ENDBRANCH   5   6
ENDBRANCH   4   5
ENDBRANCH   3   4
ENDBRANCH   2   3
ENDBRANCH   1   2
BRANCH   1  22
ATOM     22  C   UNL A   1      43.848  21.877  24.985  1.00  0.00     0.261 C 
BRANCH  22  23
ATOM     23  O   UNL A   1      43.162  23.125  24.777  1.00  0.00    -0.460 OA
BRANCH  23  24
ATOM     24  C   UNL A   1      43.904  24.229  25.022  1.00  0.00     0.338 C 
ATOM     25  O   UNL A   1      44.969  24.538  24.504  1.00  0.00    -0.246 OA
BRANCH  24  26
ATOM     26  C   UNL A   1      43.164  25.148  25.905  1.00  0.00     0.060 A 
ATOM     27  C   UNL A   1      43.734  26.404  26.151  1.00  0.00     0.016 A 
ATOM     28  C   UNL A   1      41.977  24.771  26.537  1.00  0.00     0.016 A 
ATOM     29  C   UNL A   1      43.151  27.266  27.078  1.00  0.00     0.010 A 
ATOM     30  C   UNL A   1      41.397  25.635  27.473  1.00  0.00     0.010 A 
ATOM     31  C   UNL A   1      42.005  26.866  27.777  1.00  0.00    -0.014 A 
BRANCH  31  32
ATOM     32  C   UNL A   1      41.546  27.669  28.936  1.00  0.00     0.031 A 
ATOM     33  C   UNL A   1      42.290  27.555  30.237  1.00  0.00     0.074 A 
ATOM     34  C   UNL A   1      40.508  28.515  28.823  1.00  0.00     0.049 A 
ATOM     35  N   UNL A   1      42.066  28.154  31.379  1.00  0.00    -0.248 NA
ATOM     36  C   UNL A   1      43.444  26.641  30.254  1.00  0.00     0.031 C 
ATOM     37  C   UNL A   1      39.731  28.743  27.607  1.00  0.00     0.029 A 
ATOM     38  N   UNL A   1      39.932  29.342  29.754  1.00  0.00    -0.354 N 
ATOM     39  C   UNL A   1      43.044  27.688  32.248  1.00  0.00     0.074 A 
ATOM     40  C   UNL A   1      43.844  26.732  31.513  1.00  0.00     0.031 C 
ATOM     41  C   UNL A   1      38.773  29.649  27.868  1.00  0.00     0.029 A 
ATOM     42  C   UNL A   1      38.854  30.042  29.273  1.00  0.00     0.049 A 
ATOM     43  H   UNL A   1      40.259  29.424  30.679  1.00  0.00     0.167 HD
ATOM     44  C   UNL A   1      43.264  28.033  33.539  1.00  0.00     0.037 A 
ATOM     45  C   UNL A   1      38.022  30.895  29.901  1.00  0.00     0.037 A 
ATOM     46  C   UNL A   1      42.470  28.984  34.271  1.00  0.00     0.049 A 
ATOM     47  C   UNL A   1      38.245  31.213  31.355  1.00  0.00     0.074 A 
ATOM     48  C   UNL A   1      42.624  29.415  35.576  1.00  0.00     0.029 A 
ATOM     49  N   UNL A   1      41.364  29.647  33.759  1.00  0.00    -0.354 N 
ATOM     50  N   UNL A   1      39.188  30.787  32.161  1.00  0.00    -0.248 NA
ATOM     51  C   UNL A   1      37.289  32.135  31.986  1.00  0.00     0.031 C 
ATOM     52  C   UNL A   1      41.585  30.304  35.869  1.00  0.00     0.029 A 
ATOM     53  C   UNL A   1      40.811  30.464  34.731  1.00  0.00     0.049 A 
ATOM     54  H   UNL A   1      41.023  29.551  32.840  1.00  0.00     0.167 HD
ATOM     55  C   UNL A   1      38.957  31.409  33.382  1.00  0.00     0.074 A 
ATOM     56  C   UNL A   1      37.790  32.249  33.209  1.00  0.00     0.031 C 
ATOM     57  C   UNL A   1      39.652  31.298  34.541  1.00  0.00     0.037 A 
BRANCH  44  58
ATOM     58  C   UNL A   1      44.398  27.352  34.247  1.00  0.00     0.057 A 
ATOM     59  C   UNL A   1      44.221  26.148  34.942  1.00  0.00     0.134 A 
ATOM     60  C   UNL A   1      45.686  27.900  34.222  1.00  0.00     0.134 A 
ATOM     61  F   UNL A   1      43.009  25.579  35.017  1.00  0.00    -0.206 F 
ATOM     62  C   UNL A   1      45.279  25.529  35.610  1.00  0.00     0.040 A 
ATOM     63  C   UNL A   1      46.756  27.278  34.865  1.00  0.00     0.040 A 
ATOM     64  F   UNL A   1      45.925  29.050  33.572  1.00  0.00    -0.206 F 
ATOM     65  C   UNL A   1      46.553  26.092  35.568  1.00  0.00     0.006 A 
ENDBRANCH  44  58
BRANCH  45  66
ATOM     66  C   UNL A   1      36.895  31.510  29.159  1.00  0.00     0.057 A 
ATOM     67  C   UNL A   1      36.958  32.835  28.714  1.00  0.00     0.134 A 
ATOM     68  C   UNL A   1      35.724  30.792  28.887  1.00  0.00     0.134 A 
ATOM     69  F   UNL A   1      38.043  33.580  28.965  1.00  0.00    -0.206 F 
ATOM     70  C   UNL A   1      35.893  33.429  28.035  1.00  0.00     0.040 A 
ATOM     71  C   UNL A   1      34.660  31.366  28.189  1.00  0.00     0.040 A 
ATOM     72  F   UNL A   1      35.602  29.518  29.288  1.00  0.00    -0.206 F 
ATOM     73  C   UNL A   1      34.741  32.691  27.766  1.00  0.00     0.006 A 
ENDBRANCH  45  66
BRANCH  57  74
ATOM     74  C   UNL A   1      39.191  32.129  35.703  1.00  0.00     0.057 A 
ATOM     75  C   UNL A   1      39.598  33.459  35.871  1.00  0.00     0.134 A 
ATOM     76  C   UNL A   1      38.297  31.603  36.644  1.00  0.00     0.134 A 
ATOM     77  F   UNL A   1      40.463  34.019  35.012  1.00  0.00    -0.206 F 
ATOM     78  C   UNL A   1      39.148  34.229  36.945  1.00  0.00     0.040 A 
ATOM     79  C   UNL A   1      37.821  32.369  37.708  1.00  0.00     0.040 A 
ATOM     80  F   UNL A   1      37.861  30.338  36.537  1.00  0.00    -0.206 F 
ATOM     81  C   UNL A   1      38.251  33.686  37.864  1.00  0.00     0.006 A 
ENDBRANCH  57  74
ENDBRANCH  31  32
ENDBRANCH  24  26
ENDBRANCH  23  24
ENDBRANCH  22  23
ENDBRANCH   1  22
TORSDOF 14
ENDMDL
